MODEL 1
REMARK VINA RESULT: -9.151716418      0.000      0.000
REMARK  10 active torsions:
REMARK  status: ('A' for Active; 'I' for Inactive)
REMARK    1  A    between atoms: C1_2  and  C2_4 
REMARK    2  A    between atoms: C4_10  and  N4_11 
REMARK    3  A    between atoms: N4_11  and  C5_13 
REMARK    4  A    between atoms: C5_13  and  O2_14 
REMARK    5  A    between atoms: C5_13  and  C6_16 
REMARK    6  A    between atoms: C6_16  and  N5_17 
REMARK    7  A    between atoms: C8_19  and  C9_20 
REMARK       I    between atoms: C9_20  and  N6_22 
REMARK    8  A    between atoms: C13_37  and  O4_38 
REMARK    9  A    between atoms: C15_41  and  N13_42 
REMARK   10  A    between atoms: N13_42  and  O5_43 
ROOT
HETATM    1  N4  UNL     1     -34.022 -20.070  21.573  1.00  0.00    -0.361 N 
ATOM      2  H4  UNL     1     -34.432 -19.316  22.125  1.00  0.00     0.162 HD
ENDROOT
BRANCH   1   3
HETATM    3  C4  UNL     1     -32.680 -19.950  21.142  1.00  0.00     0.059 A 
HETATM    4  C3  UNL     1     -32.155 -18.730  20.767  1.00  0.00     0.091 A 
HETATM    5  N3  UNL     1     -32.877 -17.601  20.796  1.00  0.00    -0.297 N 
HETATM    6  C14 UNL     1     -30.850 -18.667  20.348  1.00  0.00     0.073 A 
HETATM    7  N2  UNL     1     -32.392 -16.442  20.445  1.00  0.00    -0.292 N 
ATOM      8  H3  UNL     1     -33.848 -17.650  21.106  1.00  0.00     0.187 HD
HETATM    9  C2  UNL     1     -31.106 -16.271  20.013  1.00  0.00     0.158 A 
ATOM     10  H2  UNL     1     -33.000 -15.625  20.494  1.00  0.00     0.187 HD
HETATM   11  C15 UNL     1     -30.319 -17.403  19.964  1.00  0.00     0.188 A 
HETATM   12  C13 UNL     1     -30.067 -19.799  20.302  1.00  0.00     0.081 A 
HETATM   13  C12 UNL     1     -30.603 -21.006  20.678  1.00  0.00     0.040 A 
HETATM   14  C11 UNL     1     -31.895 -21.113  21.100  1.00  0.00     0.034 A 
BRANCH   9  15
HETATM   15  C1  UNL     1     -30.651 -14.955  19.644  1.00  0.00     0.286 C 
HETATM   16  N1  UNL     1     -31.082 -14.204  18.557  1.00  0.00    -0.056 NA
HETATM   17  O1  UNL     1     -29.755 -14.423  20.397  1.00  0.00    -0.269 OA
ENDBRANCH   9  15
BRANCH  11  18
HETATM   18  N13 UNL     1     -29.173 -17.402  19.606  1.00  0.00    -0.280 NA
BRANCH  18  19
HETATM   19  O5  UNL     1     -28.023 -17.072  19.229  1.00  0.00    -0.218 OA
ATOM     20  H5  UNL     1     -27.199 -16.991  18.764  1.00  0.00     0.261 HD
ENDBRANCH  18  19
ENDBRANCH  11  18
BRANCH  12  21
HETATM   21  O4  UNL     1     -28.757 -19.689  19.874  1.00  0.00    -0.360 OA
ATOM     22  H4  UNL     1     -28.454 -18.932  19.387  1.00  0.00     0.217 HD
ENDBRANCH  12  21
ENDBRANCH   1   3
BRANCH   1  23
HETATM   23  C5  UNL     1     -34.837 -21.229  21.254  1.00  0.00     0.238 C 
BRANCH  23  24
HETATM   24  O2  UNL     1     -35.947 -21.342  22.069  1.00  0.00    -0.375 OA
ATOM     25  H2  UNL     1     -36.638 -20.732  21.837  1.00  0.00     0.212 HD
ENDBRANCH  23  24
BRANCH  23  26
HETATM   26  C6  UNL     1     -35.166 -21.257  19.797  1.00  0.00     0.203 C 
BRANCH  26  27
HETATM   27  N5  UNL     1     -34.861 -22.564  19.246  1.00  0.00    -0.283 N 
HETATM   28  C7  UNL     1     -33.751 -23.303  19.494  1.00  0.00     0.148 A 
HETATM   29  C8  UNL     1     -33.822 -24.485  18.788  1.00  0.00     0.134 A 
HETATM   30  N11 UNL     1     -34.995 -24.426  18.122  1.00  0.00    -0.280 N 
HETATM   31  N12 UNL     1     -35.590 -23.280  18.410  1.00  0.00    -0.240 N 
ATOM     32  H11 UNL     1     -35.361 -25.146  17.499  1.00  0.00     0.189 HD
ATOM     33  H12 UNL     1     -36.493 -22.988  18.036  1.00  0.00     0.208 HD
BRANCH  29  34
HETATM   34  C9  UNL     1     -32.858 -25.578  18.751  1.00  0.00     0.277 C 
HETATM   35  O3  UNL     1     -32.453 -26.035  19.850  1.00  0.00    -0.265 OA
HETATM   36  N6  UNL     1     -32.370 -26.131  17.556  1.00  0.00    -0.291 N 
HETATM   37  C10 UNL     1     -31.137 -26.094  17.195  1.00  0.00     0.212 C 
ATOM     38  H6  UNL     1     -33.036 -26.592  16.935  1.00  0.00     0.172 HD
HETATM   39  N7  UNL     1     -30.009 -25.529  17.847  1.00  0.00    -0.256 N 
HETATM   40  N10 UNL     1     -30.634 -26.651  15.990  1.00  0.00    -0.256 N 
HETATM   41  N8  UNL     1     -28.894 -25.674  17.019  1.00  0.00    -0.006 NA
ATOM     42  H7  UNL     1     -30.012 -25.089  18.767  1.00  0.00     0.187 HD
HETATM   43  N9  UNL     1     -29.248 -26.452  15.942  1.00  0.00    -0.006 NA
ATOM     44  H10 UNL     1     -31.191 -27.119  15.276  1.00  0.00     0.187 HD
ENDBRANCH  29  34
ENDBRANCH  26  27
ENDBRANCH  23  26
ENDBRANCH   1  23
TORSDOF 10
ENDMDL
MODEL 2
REMARK VINA RESULT: -8.479594199      4.012      6.689
REMARK  10 active torsions:
REMARK  status: ('A' for Active; 'I' for Inactive)
REMARK    1  A    between atoms: C1_2  and  C2_4 
REMARK    2  A    between atoms: C4_10  and  N4_11 
REMARK    3  A    between atoms: N4_11  and  C5_13 
REMARK    4  A    between atoms: C5_13  and  O2_14 
REMARK    5  A    between atoms: C5_13  and  C6_16 
REMARK    6  A    between atoms: C6_16  and  N5_17 
REMARK    7  A    between atoms: C8_19  and  C9_20 
REMARK       I    between atoms: C9_20  and  N6_22 
REMARK    8  A    between atoms: C13_37  and  O4_38 
REMARK    9  A    between atoms: C15_41  and  N13_42 
REMARK   10  A    between atoms: N13_42  and  O5_43 
ROOT
HETATM    1  N4  UNL     1     -34.638 -20.598  21.281  1.00  0.00    -0.361 N 
ATOM      2  H4  UNL     1     -35.305 -20.545  20.510  1.00  0.00     0.162 HD
ENDROOT
BRANCH   1   3
HETATM    3  C4  UNL     1     -33.256 -20.511  20.996  1.00  0.00     0.059 A 
HETATM    4  C3  UNL     1     -32.656 -19.298  20.723  1.00  0.00     0.091 A 
HETATM    5  N3  UNL     1     -33.340 -18.146  20.719  1.00  0.00    -0.297 N 
HETATM    6  C14 UNL     1     -31.313 -19.267  20.443  1.00  0.00     0.073 A 
HETATM    7  N2  UNL     1     -32.785 -16.994  20.464  1.00  0.00    -0.292 N 
ATOM      8  H3  UNL     1     -34.340 -18.171  20.926  1.00  0.00     0.187 HD
HETATM    9  C2  UNL     1     -31.456 -16.854  20.174  1.00  0.00     0.158 A 
ATOM     10  H2  UNL     1     -33.369 -16.158  20.481  1.00  0.00     0.187 HD
HETATM   11  C15 UNL     1     -30.705 -18.011  20.164  1.00  0.00     0.188 A 
HETATM   12  C13 UNL     1     -30.566 -20.424  20.435  1.00  0.00     0.081 A 
HETATM   13  C12 UNL     1     -31.176 -21.624  20.709  1.00  0.00     0.040 A 
HETATM   14  C11 UNL     1     -32.507 -21.699  20.991  1.00  0.00     0.034 A 
BRANCH   9  15
HETATM   15  C1  UNL     1     -30.924 -15.543  19.903  1.00  0.00     0.286 C 
HETATM   16  N1  UNL     1     -31.101 -14.801  18.742  1.00  0.00    -0.056 NA
HETATM   17  O1  UNL     1     -30.213 -15.007  20.830  1.00  0.00    -0.269 OA
ENDBRANCH   9  15
BRANCH  11  18
HETATM   18  N13 UNL     1     -29.528 -18.038  19.926  1.00  0.00    -0.280 NA
BRANCH  18  19
HETATM   19  O5  UNL     1     -28.369 -17.782  19.522  1.00  0.00    -0.218 OA
ATOM     20  H5  UNL     1     -27.600 -17.372  19.144  1.00  0.00     0.261 HD
ENDBRANCH  18  19
ENDBRANCH  11  18
BRANCH  12  21
HETATM   21  O4  UNL     1     -29.216 -20.347  20.149  1.00  0.00    -0.360 OA
ATOM     22  H4  UNL     1     -28.633 -21.082  20.296  1.00  0.00     0.217 HD
ENDBRANCH  12  21
ENDBRANCH   1   3
BRANCH   1  23
HETATM   23  C5  UNL     1     -35.142 -20.759  22.634  1.00  0.00     0.238 C 
BRANCH  23  24
HETATM   24  O2  UNL     1     -34.322 -20.180  23.583  1.00  0.00    -0.375 OA
ATOM     25  H2  UNL     1     -34.137 -20.759  24.313  1.00  0.00     0.212 HD
ENDBRANCH  23  24
BRANCH  23  26
HETATM   26  C6  UNL     1     -36.564 -20.308  22.723  1.00  0.00     0.203 C 
BRANCH  26  27
HETATM   27  N5  UNL     1     -36.677 -18.936  22.266  1.00  0.00    -0.283 N 
HETATM   28  C7  UNL     1     -37.345 -18.507  21.166  1.00  0.00     0.148 A 
HETATM   29  C8  UNL     1     -37.224 -17.138  21.065  1.00  0.00     0.134 A 
HETATM   30  N11 UNL     1     -36.474 -16.772  22.125  1.00  0.00    -0.280 N 
HETATM   31  N12 UNL     1     -36.164 -17.854  22.820  1.00  0.00    -0.240 N 
ATOM     32  H11 UNL     1     -36.192 -15.818  22.353  1.00  0.00     0.189 HD
ATOM     33  H12 UNL     1     -35.602 -17.852  23.671  1.00  0.00     0.208 HD
BRANCH  29  34
HETATM   34  C9  UNL     1     -37.777 -16.253  20.046  1.00  0.00     0.277 C 
HETATM   35  O3  UNL     1     -38.832 -15.629  20.326  1.00  0.00    -0.265 OA
HETATM   36  N6  UNL     1     -37.187 -16.072  18.784  1.00  0.00    -0.291 N 
HETATM   37  C10 UNL     1     -37.750 -16.389  17.673  1.00  0.00     0.212 C 
ATOM     38  H6  UNL     1     -36.253 -15.662  18.747  1.00  0.00     0.172 HD
HETATM   39  N7  UNL     1     -39.023 -16.967  17.424  1.00  0.00    -0.256 N 
HETATM   40  N10 UNL     1     -37.163 -16.210  16.394  1.00  0.00    -0.256 N 
HETATM   41  N8  UNL     1     -39.151 -17.196  16.053  1.00  0.00    -0.006 NA
ATOM     42  H7  UNL     1     -39.728 -17.179  18.131  1.00  0.00     0.187 HD
HETATM   43  N9  UNL     1     -38.070 -16.636  15.414  1.00  0.00    -0.006 NA
ATOM     44  H10 UNL     1     -36.232 -15.832  16.216  1.00  0.00     0.187 HD
ENDBRANCH  29  34
ENDBRANCH  26  27
ENDBRANCH  23  26
ENDBRANCH   1  23
TORSDOF 10
ENDMDL
MODEL 3
REMARK VINA RESULT: -8.399680922      3.983      7.850
REMARK  10 active torsions:
REMARK  status: ('A' for Active; 'I' for Inactive)
REMARK    1  A    between atoms: C1_2  and  C2_4 
REMARK    2  A    between atoms: C4_10  and  N4_11 
REMARK    3  A    between atoms: N4_11  and  C5_13 
REMARK    4  A    between atoms: C5_13  and  O2_14 
REMARK    5  A    between atoms: C5_13  and  C6_16 
REMARK    6  A    between atoms: C6_16  and  N5_17 
REMARK    7  A    between atoms: C8_19  and  C9_20 
REMARK       I    between atoms: C9_20  and  N6_22 
REMARK    8  A    between atoms: C13_37  and  O4_38 
REMARK    9  A    between atoms: C15_41  and  N13_42 
REMARK   10  A    between atoms: N13_42  and  O5_43 
ROOT
HETATM    1  N4  UNL     1     -34.643 -20.633  21.255  1.00  0.00    -0.361 N 
ATOM      2  H4  UNL     1     -35.320 -20.575  20.494  1.00  0.00     0.162 HD
ENDROOT
BRANCH   1   3
HETATM    3  C4  UNL     1     -33.265 -20.545  20.950  1.00  0.00     0.059 A 
HETATM    4  C3  UNL     1     -32.664 -19.329  20.694  1.00  0.00     0.091 A 
HETATM    5  N3  UNL     1     -33.344 -18.174  20.726  1.00  0.00    -0.297 N 
HETATM    6  C14 UNL     1     -31.325 -19.297  20.394  1.00  0.00     0.073 A 
HETATM    7  N2  UNL     1     -32.787 -17.019  20.487  1.00  0.00    -0.292 N 
ATOM      8  H3  UNL     1     -34.339 -18.200  20.948  1.00  0.00     0.187 HD
HETATM    9  C2  UNL     1     -31.463 -16.878  20.179  1.00  0.00     0.158 A 
ATOM     10  H2  UNL     1     -33.367 -16.181  20.532  1.00  0.00     0.187 HD
HETATM   11  C15 UNL     1     -30.717 -18.037  20.132  1.00  0.00     0.188 A 
HETATM   12  C13 UNL     1     -30.583 -20.456  20.349  1.00  0.00     0.081 A 
HETATM   13  C12 UNL     1     -31.194 -21.659  20.606  1.00  0.00     0.040 A 
HETATM   14  C11 UNL     1     -32.521 -21.736  20.908  1.00  0.00     0.034 A 
BRANCH   9  15
HETATM   15  C1  UNL     1     -30.929 -15.564  19.928  1.00  0.00     0.286 C 
HETATM   16  N1  UNL     1     -31.134 -14.789  18.794  1.00  0.00    -0.056 NA
HETATM   17  O1  UNL     1     -30.188 -15.058  20.849  1.00  0.00    -0.269 OA
ENDBRANCH   9  15
BRANCH  11  18
HETATM   18  N13 UNL     1     -29.544 -18.064  19.875  1.00  0.00    -0.280 NA
BRANCH  18  19
HETATM   19  O5  UNL     1     -28.376 -17.777  19.519  1.00  0.00    -0.218 OA
ATOM     20  H5  UNL     1     -27.439 -17.628  19.485  1.00  0.00     0.261 HD
ENDBRANCH  18  19
ENDBRANCH  11  18
BRANCH  12  21
HETATM   21  O4  UNL     1     -29.237 -20.378  20.044  1.00  0.00    -0.360 OA
ATOM     22  H4  UNL     1     -28.642 -19.841  20.554  1.00  0.00     0.217 HD
ENDBRANCH  12  21
ENDBRANCH   1   3
BRANCH   1  23
HETATM   23  C5  UNL     1     -35.127 -20.802  22.614  1.00  0.00     0.238 C 
BRANCH  23  24
HETATM   24  O2  UNL     1     -34.303 -20.211  23.553  1.00  0.00    -0.375 OA
ATOM     25  H2  UNL     1     -34.669 -20.233  24.429  1.00  0.00     0.212 HD
ENDBRANCH  23  24
BRANCH  23  26
HETATM   26  C6  UNL     1     -36.553 -20.371  22.722  1.00  0.00     0.203 C 
BRANCH  26  27
HETATM   27  N5  UNL     1     -36.684 -18.985  22.312  1.00  0.00    -0.283 N 
HETATM   28  C7  UNL     1     -37.369 -18.526  21.235  1.00  0.00     0.148 A 
HETATM   29  C8  UNL     1     -37.261 -17.153  21.178  1.00  0.00     0.134 A 
HETATM   30  N11 UNL     1     -36.500 -16.816  22.240  1.00  0.00    -0.280 N 
HETATM   31  N12 UNL     1     -36.172 -17.918  22.895  1.00  0.00    -0.240 N 
ATOM     32  H11 UNL     1     -36.224 -15.868  22.496  1.00  0.00     0.189 HD
ATOM     33  H12 UNL     1     -35.599 -17.939  23.738  1.00  0.00     0.208 HD
BRANCH  29  34
HETATM   34  C9  UNL     1     -37.834 -16.240  20.196  1.00  0.00     0.277 C 
HETATM   35  O3  UNL     1     -37.344 -16.245  19.039  1.00  0.00    -0.265 OA
HETATM   36  N6  UNL     1     -38.895 -15.366  20.488  1.00  0.00    -0.291 N 
HETATM   37  C10 UNL     1     -38.806 -14.085  20.445  1.00  0.00     0.212 C 
ATOM     38  H6  UNL     1     -39.792 -15.774  20.750  1.00  0.00     0.172 HD
HETATM   39  N7  UNL     1     -37.701 -13.254  20.119  1.00  0.00    -0.256 N 
HETATM   40  N10 UNL     1     -39.871 -13.194  20.737  1.00  0.00    -0.256 N 
HETATM   41  N8  UNL     1     -38.077 -11.920  20.291  1.00  0.00    -0.006 NA
ATOM     42  H7  UNL     1     -36.784 -13.578  19.810  1.00  0.00     0.187 HD
HETATM   43  N9  UNL     1     -39.425 -11.877  20.559  1.00  0.00    -0.006 NA
ATOM     44  H10 UNL     1     -40.809 -13.467  21.029  1.00  0.00     0.187 HD
ENDBRANCH  29  34
ENDBRANCH  26  27
ENDBRANCH  23  26
ENDBRANCH   1  23
TORSDOF 10
ENDMDL
MODEL 4
REMARK VINA RESULT: -8.299374033      4.032      7.605
REMARK  10 active torsions:
REMARK  status: ('A' for Active; 'I' for Inactive)
REMARK    1  A    between atoms: C1_2  and  C2_4 
REMARK    2  A    between atoms: C4_10  and  N4_11 
REMARK    3  A    between atoms: N4_11  and  C5_13 
REMARK    4  A    between atoms: C5_13  and  O2_14 
REMARK    5  A    between atoms: C5_13  and  C6_16 
REMARK    6  A    between atoms: C6_16  and  N5_17 
REMARK    7  A    between atoms: C8_19  and  C9_20 
REMARK       I    between atoms: C9_20  and  N6_22 
REMARK    8  A    between atoms: C13_37  and  O4_38 
REMARK    9  A    between atoms: C15_41  and  N13_42 
REMARK   10  A    between atoms: N13_42  and  O5_43 
ROOT
HETATM    1  N4  UNL     1     -34.661 -20.537  21.302  1.00  0.00    -0.361 N 
ATOM      2  H4  UNL     1     -35.328 -20.373  20.548  1.00  0.00     0.162 HD
ENDROOT
BRANCH   1   3
HETATM    3  C4  UNL     1     -33.277 -20.465  21.018  1.00  0.00     0.059 A 
HETATM    4  C3  UNL     1     -32.665 -19.259  20.742  1.00  0.00     0.091 A 
HETATM    5  N3  UNL     1     -33.338 -18.100  20.734  1.00  0.00    -0.297 N 
HETATM    6  C14 UNL     1     -31.321 -19.242  20.464  1.00  0.00     0.073 A 
HETATM    7  N2  UNL     1     -32.770 -16.954  20.476  1.00  0.00    -0.292 N 
ATOM      8  H3  UNL     1     -34.337 -18.115  20.939  1.00  0.00     0.187 HD
HETATM    9  C2  UNL     1     -31.440 -16.829  20.187  1.00  0.00     0.158 A 
ATOM     10  H2  UNL     1     -33.346 -16.113  20.490  1.00  0.00     0.187 HD
HETATM   11  C15 UNL     1     -30.701 -17.993  20.181  1.00  0.00     0.188 A 
HETATM   12  C13 UNL     1     -30.586 -20.407  20.460  1.00  0.00     0.081 A 
HETATM   13  C12 UNL     1     -31.208 -21.599  20.737  1.00  0.00     0.040 A 
HETATM   14  C11 UNL     1     -32.540 -21.661  21.018  1.00  0.00     0.034 A 
BRANCH   9  15
HETATM   15  C1  UNL     1     -30.894 -15.524  19.912  1.00  0.00     0.286 C 
HETATM   16  N1  UNL     1     -31.116 -14.755  18.776  1.00  0.00    -0.056 NA
HETATM   17  O1  UNL     1     -30.124 -15.022  20.811  1.00  0.00    -0.269 OA
ENDBRANCH   9  15
BRANCH  11  18
HETATM   18  N13 UNL     1     -29.524 -18.033  19.944  1.00  0.00    -0.280 NA
BRANCH  18  19
HETATM   19  O5  UNL     1     -28.376 -17.841  19.476  1.00  0.00    -0.218 OA
ATOM     20  H5  UNL     1     -27.611 -17.478  19.046  1.00  0.00     0.261 HD
ENDBRANCH  18  19
ENDBRANCH  11  18
BRANCH  12  21
HETATM   21  O4  UNL     1     -29.235 -20.344  20.175  1.00  0.00    -0.360 OA
ATOM     22  H4  UNL     1     -28.612 -19.979  20.793  1.00  0.00     0.217 HD
ENDBRANCH  12  21
ENDBRANCH   1   3
BRANCH   1  23
HETATM   23  C5  UNL     1     -35.165 -20.838  22.631  1.00  0.00     0.238 C 
BRANCH  23  24
HETATM   24  O2  UNL     1     -34.426 -20.237  23.632  1.00  0.00    -0.375 OA
ATOM     25  H2  UNL     1     -34.100 -20.859  24.272  1.00  0.00     0.212 HD
ENDBRANCH  23  24
BRANCH  23  26
HETATM   26  C6  UNL     1     -36.627 -20.546  22.717  1.00  0.00     0.203 C 
BRANCH  26  27
HETATM   27  N5  UNL     1     -36.865 -19.132  22.496  1.00  0.00    -0.283 N 
HETATM   28  C7  UNL     1     -37.923 -18.585  21.846  1.00  0.00     0.148 A 
HETATM   29  C8  UNL     1     -37.795 -17.213  21.840  1.00  0.00     0.134 A 
HETATM   30  N11 UNL     1     -36.643 -16.965  22.498  1.00  0.00    -0.280 N 
HETATM   31  N12 UNL     1     -36.112 -18.117  22.875  1.00  0.00    -0.240 N 
ATOM     32  H11 UNL     1     -36.246 -16.042  22.675  1.00  0.00     0.189 HD
ATOM     33  H12 UNL     1     -35.237 -18.208  23.392  1.00  0.00     0.208 HD
BRANCH  29  34
HETATM   34  C9  UNL     1     -38.692 -16.222  21.260  1.00  0.00     0.277 C 
HETATM   35  O3  UNL     1     -39.795 -16.626  20.812  1.00  0.00    -0.265 OA
HETATM   36  N6  UNL     1     -38.379 -14.855  21.181  1.00  0.00    -0.291 N 
HETATM   37  C10 UNL     1     -38.246 -14.208  20.078  1.00  0.00     0.212 C 
ATOM     38  H6  UNL     1     -38.250 -14.343  22.054  1.00  0.00     0.172 HD
HETATM   39  N7  UNL     1     -38.365 -14.655  18.735  1.00  0.00    -0.256 N 
HETATM   40  N10 UNL     1     -37.930 -12.828  19.988  1.00  0.00    -0.256 N 
HETATM   41  N8  UNL     1     -38.052 -13.595  17.882  1.00  0.00    -0.006 NA
ATOM     42  H7  UNL     1     -38.636 -15.594  18.442  1.00  0.00     0.187 HD
HETATM   43  N9  UNL     1     -37.895 -12.457  18.637  1.00  0.00    -0.006 NA
ATOM     44  H10 UNL     1     -37.757 -12.207  20.778  1.00  0.00     0.187 HD
ENDBRANCH  29  34
ENDBRANCH  26  27
ENDBRANCH  23  26
ENDBRANCH   1  23
TORSDOF 10
ENDMDL
MODEL 5
REMARK VINA RESULT: -8.250835205      2.662      3.930
REMARK  10 active torsions:
REMARK  status: ('A' for Active; 'I' for Inactive)
REMARK    1  A    between atoms: C1_2  and  C2_4 
REMARK    2  A    between atoms: C4_10  and  N4_11 
REMARK    3  A    between atoms: N4_11  and  C5_13 
REMARK    4  A    between atoms: C5_13  and  O2_14 
REMARK    5  A    between atoms: C5_13  and  C6_16 
REMARK    6  A    between atoms: C6_16  and  N5_17 
REMARK    7  A    between atoms: C8_19  and  C9_20 
REMARK       I    between atoms: C9_20  and  N6_22 
REMARK    8  A    between atoms: C13_37  and  O4_38 
REMARK    9  A    between atoms: C15_41  and  N13_42 
REMARK   10  A    between atoms: N13_42  and  O5_43 
ROOT
HETATM    1  N4  UNL     1     -33.048 -22.803  21.093  1.00  0.00    -0.361 N 
ATOM      2  H4  UNL     1     -33.395 -22.676  20.142  1.00  0.00     0.162 HD
ENDROOT
BRANCH   1   3
HETATM    3  C4  UNL     1     -32.502 -21.691  21.775  1.00  0.00     0.059 A 
HETATM    4  C3  UNL     1     -31.750 -20.743  21.112  1.00  0.00     0.091 A 
HETATM    5  N3  UNL     1     -31.504 -20.816  19.797  1.00  0.00    -0.297 N 
HETATM    6  C14 UNL     1     -31.234 -19.687  21.821  1.00  0.00     0.073 A 
HETATM    7  N2  UNL     1     -30.795 -19.926  19.159  1.00  0.00    -0.292 N 
ATOM      8  H3  UNL     1     -31.886 -21.603  19.272  1.00  0.00     0.187 HD
HETATM    9  C2  UNL     1     -30.238 -18.838  19.770  1.00  0.00     0.158 A 
ATOM     10  H2  UNL     1     -30.651 -20.047  18.156  1.00  0.00     0.187 HD
HETATM   11  C15 UNL     1     -30.461 -18.715  21.126  1.00  0.00     0.188 A 
HETATM   12  C13 UNL     1     -31.459 -19.567  23.174  1.00  0.00     0.081 A 
HETATM   13  C12 UNL     1     -32.210 -20.518  23.821  1.00  0.00     0.040 A 
HETATM   14  C11 UNL     1     -32.740 -21.582  23.156  1.00  0.00     0.034 A 
BRANCH   9  15
HETATM   15  C1  UNL     1     -29.469 -17.903  18.990  1.00  0.00     0.286 C 
HETATM   16  N1  UNL     1     -29.785 -17.421  17.726  1.00  0.00    -0.056 NA
HETATM   17  O1  UNL     1     -28.379 -17.470  19.519  1.00  0.00    -0.269 OA
ENDBRANCH   9  15
BRANCH  11  18
HETATM   18  N13 UNL     1     -30.033 -17.811  21.792  1.00  0.00    -0.280 NA
BRANCH  18  19
HETATM   19  O5  UNL     1     -29.737 -16.683  22.254  1.00  0.00    -0.218 OA
ATOM     20  H5  UNL     1     -29.426 -15.968  22.796  1.00  0.00     0.261 HD
ENDBRANCH  18  19
ENDBRANCH  11  18
BRANCH  12  21
HETATM   21  O4  UNL     1     -30.921 -18.486  23.848  1.00  0.00    -0.360 OA
ATOM     22  H4  UNL     1     -29.989 -18.304  23.834  1.00  0.00     0.217 HD
ENDBRANCH  12  21
ENDBRANCH   1   3
BRANCH   1  23
HETATM   23  C5  UNL     1     -33.131 -24.120  21.700  1.00  0.00     0.238 C 
BRANCH  23  24
HETATM   24  O2  UNL     1     -34.258 -24.819  21.309  1.00  0.00    -0.375 OA
ATOM     25  H2  UNL     1     -34.760 -25.147  22.046  1.00  0.00     0.212 HD
ENDBRANCH  23  24
BRANCH  23  26
HETATM   26  C6  UNL     1     -31.861 -24.878  21.489  1.00  0.00     0.203 C 
BRANCH  26  27
HETATM   27  N5  UNL     1     -31.691 -25.178  20.079  1.00  0.00    -0.283 N 
HETATM   28  C7  UNL     1     -32.403 -26.078  19.356  1.00  0.00     0.148 A 
HETATM   29  C8  UNL     1     -31.950 -26.078  18.055  1.00  0.00     0.134 A 
HETATM   30  N11 UNL     1     -30.960 -25.162  18.027  1.00  0.00    -0.280 N 
HETATM   31  N12 UNL     1     -30.826 -24.644  19.238  1.00  0.00    -0.240 N 
ATOM     32  H11 UNL     1     -30.405 -24.910  17.209  1.00  0.00     0.189 HD
ATOM     33  H12 UNL     1     -30.145 -23.926  19.487  1.00  0.00     0.208 HD
BRANCH  29  34
HETATM   34  C9  UNL     1     -32.420 -26.881  16.932  1.00  0.00     0.277 C 
HETATM   35  O3  UNL     1     -31.723 -26.886  15.887  1.00  0.00    -0.265 OA
HETATM   36  N6  UNL     1     -33.604 -27.636  16.971  1.00  0.00    -0.291 N 
HETATM   37  C10 UNL     1     -34.619 -27.426  16.211  1.00  0.00     0.212 C 
ATOM     38  H6  UNL     1     -33.662 -28.400  17.644  1.00  0.00     0.172 HD
HETATM   39  N7  UNL     1     -34.818 -26.449  15.199  1.00  0.00    -0.256 N 
HETATM   40  N10 UNL     1     -35.818 -28.183  16.241  1.00  0.00    -0.256 N 
HETATM   41  N8  UNL     1     -36.118 -26.573  14.706  1.00  0.00    -0.006 NA
ATOM     42  H7  UNL     1     -34.125 -25.769  14.884  1.00  0.00     0.187 HD
HETATM   43  N9  UNL     1     -36.690 -27.694  15.258  1.00  0.00    -0.006 NA
ATOM     44  H10 UNL     1     -36.015 -28.957  16.876  1.00  0.00     0.187 HD
ENDBRANCH  29  34
ENDBRANCH  26  27
ENDBRANCH  23  26
ENDBRANCH   1  23
TORSDOF 10
ENDMDL
