MODEL 1
REMARK VINA RESULT: -6.947707224      0.000      0.000
REMARK  13 active torsions:
REMARK  status: ('A' for Active; 'I' for Inactive)
REMARK    1  A    between atoms: C3_4  and  O2_5 
REMARK    2  A    between atoms: O2_5  and  C4_6 
REMARK    3  A    between atoms: C6_8  and  O3_9 
REMARK    4  A    between atoms: O3_9  and  C7_10 
REMARK    5  A    between atoms: C8_12  and  C9_13 
REMARK    6  A    between atoms: C9_13  and  N1_14 
REMARK    7  A    between atoms: C10_18  and  O5_19 
REMARK    8  A    between atoms: C12_22  and  N2_23 
REMARK    9  A    between atoms: N2_23  and  O6_24 
REMARK   10  A    between atoms: C13_26  and  N3_27 
REMARK   11  A    between atoms: C15_32  and  N4_33 
REMARK   12  A    between atoms: C16_37  and  O7_38 
REMARK   13  A    between atoms: C17_41  and  O9_42 
ROOT
HETATM    1  C4  UNL     1     -32.452 -21.552  21.584  1.00  0.00     0.157 C 
HETATM    2  C5  UNL     1     -32.069 -22.059  20.205  1.00  0.00     0.068 C 
HETATM    3  C6  UNL     1     -32.943 -23.228  19.805  1.00  0.00     0.157 C 
HETATM    4  C13 UNL     1     -34.397 -22.903  19.854  1.00  0.00     0.214 C 
HETATM    5  C14 UNL     1     -34.669 -21.517  20.399  1.00  0.00     0.070 C 
HETATM    6  C15 UNL     1     -33.919 -21.248  21.684  1.00  0.00     0.214 C 
ENDROOT
BRANCH   3   7
HETATM    7  O3  UNL     1     -32.604 -23.555  18.478  1.00  0.00    -0.352 OA
BRANCH   7   8
HETATM    8  C7  UNL     1     -32.560 -24.933  18.307  1.00  0.00     0.282 C 
HETATM    9  O4  UNL     1     -33.425 -25.249  17.251  1.00  0.00    -0.350 OA
HETATM   10  C8  UNL     1     -33.485 -26.639  17.069  1.00  0.00     0.178 C 
HETATM   11  C10 UNL     1     -32.138 -27.228  16.825  1.00  0.00     0.150 C 
HETATM   12  C11 UNL     1     -31.138 -26.082  16.625  1.00  0.00     0.063 C 
HETATM   13  C12 UNL     1     -31.129 -25.302  17.943  1.00  0.00     0.164 C 
BRANCH  10  14
HETATM   14  C9  UNL     1     -34.377 -26.878  15.879  1.00  0.00     0.264 C 
BRANCH  14  15
HETATM   15  N1  UNL     1     -35.253 -28.014  16.036  1.00  0.00    -0.077 N 
ATOM     16  H13 UNL     1     -34.914 -28.810  15.495  1.00  0.00     0.274 HD
ATOM     17  H12 UNL     1     -35.176 -28.404  16.975  1.00  0.00     0.274 HD
ATOM     18  H11 UNL     1     -36.226 -27.811  15.808  1.00  0.00     0.274 HD
ENDBRANCH  14  15
ENDBRANCH  10  14
BRANCH  11  19
HETATM   19  O5  UNL     1     -32.167 -27.997  15.670  1.00  0.00    -0.393 OA
ATOM     20  H5  UNL     1     -31.546 -28.712  15.746  1.00  0.00     0.210 HD
ENDBRANCH  11  19
BRANCH  13  21
HETATM   21  N2  UNL     1     -30.297 -24.124  17.819  1.00  0.00    -0.094 NA
BRANCH  21  22
HETATM   22  O6  UNL     1     -29.116 -24.429  17.270  1.00  0.00    -0.295 OA
ATOM     23  H6  UNL     1     -28.776 -23.697  16.767  1.00  0.00     0.238 HD
ENDBRANCH  21  22
ENDBRANCH  13  21
ENDBRANCH   7   8
ENDBRANCH   3   7
BRANCH   4  24
HETATM   24  N3  UNL     1     -35.022 -22.962  18.531  1.00  0.00    -0.072 N 
ATOM     25  H33 UNL     1     -34.391 -22.616  17.808  1.00  0.00     0.274 HD
ATOM     26  H32 UNL     1     -35.120 -23.925  18.212  1.00  0.00     0.274 HD
ATOM     27  H31 UNL     1     -35.916 -22.471  18.505  1.00  0.00     0.274 HD
ENDBRANCH   4  24
BRANCH   1  28
HETATM   28  O2  UNL     1     -31.632 -20.471  21.841  1.00  0.00    -0.349 OA
BRANCH  28  29
HETATM   29  C3  UNL     1     -31.130 -19.975  20.642  1.00  0.00     0.315 C 
HETATM   30  O1  UNL     1     -31.719 -18.779  20.277  1.00  0.00    -0.346 OA
HETATM   31  C2  UNL     1     -31.339 -17.703  21.048  1.00  0.00     0.175 C 
HETATM   32  C1  UNL     1     -31.560 -16.453  20.216  1.00  0.00     0.044 C 
HETATM   33  C17 UNL     1     -29.907 -17.716  21.471  1.00  0.00     0.288 C 
HETATM   34  O8  UNL     1     -29.450 -18.955  21.890  1.00  0.00    -0.324 OA
HETATM   35  C16 UNL     1     -29.624 -19.833  20.814  1.00  0.00     0.315 C 
BRANCH  33  36
HETATM   36  O9  UNL     1     -29.771 -16.835  22.565  1.00  0.00    -0.369 OA
ATOM     37  H9  UNL     1     -29.726 -17.359  23.357  1.00  0.00     0.212 HD
ENDBRANCH  33  36
BRANCH  35  38
HETATM   38  O7  UNL     1     -29.146 -19.206  19.656  1.00  0.00    -0.367 OA
ATOM     39  H7  UNL     1     -28.202 -19.317  19.657  1.00  0.00     0.212 HD
ENDBRANCH  35  38
ENDBRANCH  28  29
ENDBRANCH   1  28
BRANCH   6  40
HETATM   40  N4  UNL     1     -34.073 -19.836  21.967  1.00  0.00    -0.072 N 
ATOM     41  H43 UNL     1     -34.271 -19.653  22.950  1.00  0.00     0.274 HD
ATOM     42  H42 UNL     1     -33.193 -19.325  21.905  1.00  0.00     0.274 HD
ATOM     43  H41 UNL     1     -34.790 -19.461  21.346  1.00  0.00     0.274 HD
ENDBRANCH   6  40
TORSDOF 13
ENDMDL
MODEL 2
REMARK VINA RESULT: -6.399388338      1.617      2.803
REMARK  13 active torsions:
REMARK  status: ('A' for Active; 'I' for Inactive)
REMARK    1  A    between atoms: C3_4  and  O2_5 
REMARK    2  A    between atoms: O2_5  and  C4_6 
REMARK    3  A    between atoms: C6_8  and  O3_9 
REMARK    4  A    between atoms: O3_9  and  C7_10 
REMARK    5  A    between atoms: C8_12  and  C9_13 
REMARK    6  A    between atoms: C9_13  and  N1_14 
REMARK    7  A    between atoms: C10_18  and  O5_19 
REMARK    8  A    between atoms: C12_22  and  N2_23 
REMARK    9  A    between atoms: N2_23  and  O6_24 
REMARK   10  A    between atoms: C13_26  and  N3_27 
REMARK   11  A    between atoms: C15_32  and  N4_33 
REMARK   12  A    between atoms: C16_37  and  O7_38 
REMARK   13  A    between atoms: C17_41  and  O9_42 
ROOT
HETATM    1  C4  UNL     1     -32.188 -21.145  21.622  1.00  0.00     0.157 C 
HETATM    2  C5  UNL     1     -33.155 -21.736  20.613  1.00  0.00     0.068 C 
HETATM    3  C6  UNL     1     -33.220 -23.241  20.757  1.00  0.00     0.157 C 
HETATM    4  C13 UNL     1     -33.581 -23.672  22.137  1.00  0.00     0.214 C 
HETATM    5  C14 UNL     1     -33.689 -22.513  23.104  1.00  0.00     0.070 C 
HETATM    6  C15 UNL     1     -32.496 -21.586  23.024  1.00  0.00     0.214 C 
ENDROOT
BRANCH   3   7
HETATM    7  O3  UNL     1     -34.221 -23.692  19.874  1.00  0.00    -0.352 OA
BRANCH   7   8
HETATM    8  C7  UNL     1     -33.662 -24.135  18.682  1.00  0.00     0.282 C 
HETATM    9  O4  UNL     1     -32.383 -24.622  18.979  1.00  0.00    -0.350 OA
HETATM   10  C8  UNL     1     -31.728 -25.023  17.804  1.00  0.00     0.178 C 
HETATM   11  C10 UNL     1     -32.508 -26.048  17.053  1.00  0.00     0.150 C 
HETATM   12  C11 UNL     1     -33.680 -26.503  17.932  1.00  0.00     0.063 C 
HETATM   13  C12 UNL     1     -34.543 -25.258  18.154  1.00  0.00     0.164 C 
BRANCH  10  14
HETATM   14  C9  UNL     1     -30.399 -25.592  18.226  1.00  0.00     0.264 C 
BRANCH  14  15
HETATM   15  N1  UNL     1     -29.325 -25.285  17.310  1.00  0.00    -0.077 N 
ATOM     16  H13 UNL     1     -29.184 -26.049  16.649  1.00  0.00     0.274 HD
ATOM     17  H12 UNL     1     -29.603 -24.548  16.661  1.00  0.00     0.274 HD
ATOM     18  H11 UNL     1     -28.451 -25.044  17.776  1.00  0.00     0.274 HD
ENDBRANCH  14  15
ENDBRANCH  10  14
BRANCH  11  19
HETATM   19  O5  UNL     1     -31.701 -27.145  16.786  1.00  0.00    -0.393 OA
ATOM     20  H5  UNL     1     -31.649 -27.698  17.556  1.00  0.00     0.210 HD
ENDBRANCH  11  19
BRANCH  13  21
HETATM   21  N2  UNL     1     -35.621 -25.558  19.073  1.00  0.00    -0.094 NA
BRANCH  21  22
HETATM   22  O6  UNL     1     -35.219 -26.414  20.018  1.00  0.00    -0.295 OA
ATOM     23  H6  UNL     1     -35.696 -27.234  19.959  1.00  0.00     0.238 HD
ENDBRANCH  21  22
ENDBRANCH  13  21
ENDBRANCH   7   8
ENDBRANCH   3   7
BRANCH   4  24
HETATM   24  N3  UNL     1     -34.867 -24.372  22.180  1.00  0.00    -0.072 N 
ATOM     25  H33 UNL     1     -35.596 -23.835  21.711  1.00  0.00     0.274 HD
ATOM     26  H32 UNL     1     -34.860 -25.195  21.579  1.00  0.00     0.274 HD
ATOM     27  H31 UNL     1     -35.143 -24.614  23.132  1.00  0.00     0.274 HD
ENDBRANCH   4  24
BRANCH   1  28
HETATM   28  O2  UNL     1     -32.225 -19.776  21.440  1.00  0.00    -0.349 OA
BRANCH  28  29
HETATM   29  C3  UNL     1     -31.361 -19.423  20.409  1.00  0.00     0.315 C 
HETATM   30  O1  UNL     1     -31.560 -18.126  19.973  1.00  0.00    -0.346 OA
HETATM   31  C2  UNL     1     -31.133 -17.161  20.857  1.00  0.00     0.175 C 
HETATM   32  C1  UNL     1     -30.863 -15.902  20.053  1.00  0.00     0.044 C 
HETATM   33  C17 UNL     1     -29.878 -17.502  21.592  1.00  0.00     0.288 C 
HETATM   34  O8  UNL     1     -29.826 -18.810  22.049  1.00  0.00    -0.324 OA
HETATM   35  C16 UNL     1     -29.943 -19.633  20.923  1.00  0.00     0.315 C 
BRANCH  33  36
HETATM   36  O9  UNL     1     -29.800 -16.666  22.727  1.00  0.00    -0.369 OA
ATOM     37  H9  UNL     1     -28.892 -16.408  22.837  1.00  0.00     0.212 HD
ENDBRANCH  33  36
BRANCH  35  38
HETATM   38  O7  UNL     1     -29.081 -19.147  19.933  1.00  0.00    -0.367 OA
ATOM     39  H7  UNL     1     -28.196 -19.275  20.256  1.00  0.00     0.212 HD
ENDBRANCH  35  38
ENDBRANCH  28  29
ENDBRANCH   1  28
BRANCH   6  40
HETATM   40  N4  UNL     1     -32.827 -20.415  23.808  1.00  0.00    -0.072 N 
ATOM     41  H43 UNL     1     -32.236 -19.614  23.585  1.00  0.00     0.274 HD
ATOM     42  H42 UNL     1     -33.722 -20.005  23.542  1.00  0.00     0.274 HD
ATOM     43  H41 UNL     1     -32.789 -20.668  24.796  1.00  0.00     0.274 HD
ENDBRANCH   6  40
TORSDOF 13
ENDMDL
MODEL 3
REMARK VINA RESULT: -6.359581081      1.703      2.723
REMARK  13 active torsions:
REMARK  status: ('A' for Active; 'I' for Inactive)
REMARK    1  A    between atoms: C3_4  and  O2_5 
REMARK    2  A    between atoms: O2_5  and  C4_6 
REMARK    3  A    between atoms: C6_8  and  O3_9 
REMARK    4  A    between atoms: O3_9  and  C7_10 
REMARK    5  A    between atoms: C8_12  and  C9_13 
REMARK    6  A    between atoms: C9_13  and  N1_14 
REMARK    7  A    between atoms: C10_18  and  O5_19 
REMARK    8  A    between atoms: C12_22  and  N2_23 
REMARK    9  A    between atoms: N2_23  and  O6_24 
REMARK   10  A    between atoms: C13_26  and  N3_27 
REMARK   11  A    between atoms: C15_32  and  N4_33 
REMARK   12  A    between atoms: C16_37  and  O7_38 
REMARK   13  A    between atoms: C17_41  and  O9_42 
ROOT
HETATM    1  C4  UNL     1     -31.823 -21.928  20.655  1.00  0.00     0.157 C 
HETATM    2  C5  UNL     1     -32.950 -22.537  19.841  1.00  0.00     0.068 C 
HETATM    3  C6  UNL     1     -32.802 -24.042  19.770  1.00  0.00     0.157 C 
HETATM    4  C13 UNL     1     -32.731 -24.677  21.118  1.00  0.00     0.214 C 
HETATM    5  C14 UNL     1     -32.710 -23.664  22.243  1.00  0.00     0.070 C 
HETATM    6  C15 UNL     1     -31.696 -22.567  22.007  1.00  0.00     0.214 C 
ENDROOT
BRANCH   3   7
HETATM    7  O3  UNL     1     -33.943 -24.534  19.107  1.00  0.00    -0.352 OA
BRANCH   7   8
HETATM    8  C7  UNL     1     -33.597 -25.089  17.881  1.00  0.00     0.282 C 
HETATM    9  O4  UNL     1     -32.280 -25.553  17.992  1.00  0.00    -0.350 OA
HETATM   10  C8  UNL     1     -31.839 -26.065  16.762  1.00  0.00     0.178 C 
HETATM   11  C10 UNL     1     -32.727 -27.151  16.259  1.00  0.00     0.150 C 
HETATM   12  C11 UNL     1     -33.720 -27.517  17.369  1.00  0.00     0.063 C 
HETATM   13  C12 UNL     1     -34.545 -26.252  17.624  1.00  0.00     0.164 C 
BRANCH  10  14
HETATM   14  C9  UNL     1     -30.450 -26.599  16.993  1.00  0.00     0.264 C 
BRANCH  14  15
HETATM   15  N1  UNL     1     -29.659 -26.687  15.788  1.00  0.00    -0.077 N 
ATOM     16  H13 UNL     1     -28.907 -27.368  15.898  1.00  0.00     0.274 HD
ATOM     17  H12 UNL     1     -30.188 -27.138  15.041  1.00  0.00     0.274 HD
ATOM     18  H11 UNL     1     -29.290 -25.789  15.477  1.00  0.00     0.274 HD
ENDBRANCH  14  15
ENDBRANCH  10  14
BRANCH  11  19
HETATM   19  O5  UNL     1     -31.967 -28.273  15.956  1.00  0.00    -0.393 OA
ATOM     20  H5  UNL     1     -32.019 -28.453  15.026  1.00  0.00     0.210 HD
ENDBRANCH  11  19
BRANCH  13  21
HETATM   21  N2  UNL     1     -35.441 -26.459  18.743  1.00  0.00    -0.094 NA
BRANCH  21  22
HETATM   22  O6  UNL     1     -34.998 -27.443  19.533  1.00  0.00    -0.295 OA
ATOM     23  H6  UNL     1     -34.379 -27.112  20.174  1.00  0.00     0.238 HD
ENDBRANCH  21  22
ENDBRANCH  13  21
ENDBRANCH   7   8
ENDBRANCH   3   7
BRANCH   4  24
HETATM   24  N3  UNL     1     -33.870 -25.561  21.374  1.00  0.00    -0.072 N 
ATOM     25  H33 UNL     1     -34.708 -25.027  21.601  1.00  0.00     0.274 HD
ATOM     26  H32 UNL     1     -34.190 -26.008  20.516  1.00  0.00     0.274 HD
ATOM     27  H31 UNL     1     -33.667 -26.252  22.097  1.00  0.00     0.274 HD
ENDBRANCH   4  24
BRANCH   1  28
HETATM   28  O2  UNL     1     -32.065 -20.568  20.693  1.00  0.00    -0.349 OA
BRANCH  28  29
HETATM   29  C3  UNL     1     -31.147 -19.912  19.879  1.00  0.00     0.315 C 
HETATM   30  O1  UNL     1     -31.493 -18.593  19.648  1.00  0.00    -0.346 OA
HETATM   31  C2  UNL     1     -31.335 -17.768  20.739  1.00  0.00     0.175 C 
HETATM   32  C1  UNL     1     -31.170 -16.354  20.213  1.00  0.00     0.044 C 
HETATM   33  C17 UNL     1     -30.142 -18.075  21.584  1.00  0.00     0.288 C 
HETATM   34  O8  UNL     1     -29.941 -19.428  21.811  1.00  0.00    -0.324 OA
HETATM   35  C16 UNL     1     -29.788 -20.028  20.556  1.00  0.00     0.315 C 
BRANCH  33  36
HETATM   36  O9  UNL     1     -30.336 -17.470  22.844  1.00  0.00    -0.369 OA
ATOM     37  H9  UNL     1     -29.621 -16.861  22.988  1.00  0.00     0.212 HD
ENDBRANCH  33  36
BRANCH  35  38
HETATM   38  O7  UNL     1     -28.898 -19.251  19.804  1.00  0.00    -0.367 OA
ATOM     39  H7  UNL     1     -29.180 -18.348  19.897  1.00  0.00     0.212 HD
ENDBRANCH  35  38
ENDBRANCH  28  29
ENDBRANCH   1  28
BRANCH   6  40
HETATM   40  N4  UNL     1     -31.938 -21.555  23.014  1.00  0.00    -0.072 N 
ATOM     41  H43 UNL     1     -31.677 -21.863  23.951  1.00  0.00     0.274 HD
ATOM     42  H42 UNL     1     -31.293 -20.768  22.942  1.00  0.00     0.274 HD
ATOM     43  H41 UNL     1     -32.915 -21.269  22.953  1.00  0.00     0.274 HD
ENDBRANCH   6  40
TORSDOF 13
ENDMDL
MODEL 4
REMARK VINA RESULT: -6.306749882      3.123      6.290
REMARK  13 active torsions:
REMARK  status: ('A' for Active; 'I' for Inactive)
REMARK    1  A    between atoms: C3_4  and  O2_5 
REMARK    2  A    between atoms: O2_5  and  C4_6 
REMARK    3  A    between atoms: C6_8  and  O3_9 
REMARK    4  A    between atoms: O3_9  and  C7_10 
REMARK    5  A    between atoms: C8_12  and  C9_13 
REMARK    6  A    between atoms: C9_13  and  N1_14 
REMARK    7  A    between atoms: C10_18  and  O5_19 
REMARK    8  A    between atoms: C12_22  and  N2_23 
REMARK    9  A    between atoms: N2_23  and  O6_24 
REMARK   10  A    between atoms: C13_26  and  N3_27 
REMARK   11  A    between atoms: C15_32  and  N4_33 
REMARK   12  A    between atoms: C16_37  and  O7_38 
REMARK   13  A    between atoms: C17_41  and  O9_42 
ROOT
HETATM    1  C4  UNL     1     -32.227 -21.097  19.160  1.00  0.00     0.157 C 
HETATM    2  C5  UNL     1     -33.512 -21.028  19.965  1.00  0.00     0.068 C 
HETATM    3  C6  UNL     1     -34.678 -21.549  19.152  1.00  0.00     0.157 C 
HETATM    4  C13 UNL     1     -34.454 -22.934  18.647  1.00  0.00     0.214 C 
HETATM    5  C14 UNL     1     -33.070 -23.458  18.967  1.00  0.00     0.070 C 
HETATM    6  C15 UNL     1     -31.985 -22.469  18.602  1.00  0.00     0.214 C 
ENDROOT
BRANCH   3   7
HETATM    7  O3  UNL     1     -35.797 -21.563  20.008  1.00  0.00    -0.352 OA
BRANCH   7   8
HETATM    8  C7  UNL     1     -35.558 -20.795  21.141  1.00  0.00     0.282 C 
HETATM    9  O4  UNL     1     -36.273 -19.600  20.990  1.00  0.00    -0.350 OA
HETATM   10  C8  UNL     1     -36.020 -18.741  22.072  1.00  0.00     0.178 C 
HETATM   11  C10 UNL     1     -36.351 -19.377  23.378  1.00  0.00     0.150 C 
HETATM   12  C11 UNL     1     -37.081 -20.698  23.102  1.00  0.00     0.063 C 
HETATM   13  C12 UNL     1     -36.083 -21.574  22.339  1.00  0.00     0.164 C 
BRANCH  10  14
HETATM   14  C9  UNL     1     -36.877 -17.521  21.859  1.00  0.00     0.264 C 
BRANCH  14  15
HETATM   15  N1  UNL     1     -36.234 -16.290  22.258  1.00  0.00    -0.077 N 
ATOM     16  H13 UNL     1     -36.844 -15.491  22.085  1.00  0.00     0.274 HD
ATOM     17  H12 UNL     1     -36.165 -16.232  23.275  1.00  0.00     0.274 HD
ATOM     18  H11 UNL     1     -35.322 -16.149  21.825  1.00  0.00     0.274 HD
ENDBRANCH  14  15
ENDBRANCH  10  14
BRANCH  11  19
HETATM   19  O5  UNL     1     -37.196 -18.546  24.101  1.00  0.00    -0.393 OA
ATOM     20  H5  UNL     1     -38.057 -18.941  24.161  1.00  0.00     0.210 HD
ENDBRANCH  11  19
BRANCH  13  21
HETATM   21  N2  UNL     1     -36.718 -22.809  21.927  1.00  0.00    -0.094 NA
BRANCH  21  22
HETATM   22  O6  UNL     1     -35.867 -23.837  22.018  1.00  0.00    -0.295 OA
ATOM     23  H6  UNL     1     -36.039 -24.351  22.799  1.00  0.00     0.238 HD
ENDBRANCH  21  22
ENDBRANCH  13  21
ENDBRANCH   7   8
ENDBRANCH   3   7
BRANCH   4  24
HETATM   24  N3  UNL     1     -35.405 -23.891  19.217  1.00  0.00    -0.072 N 
ATOM     25  H33 UNL     1     -35.377 -23.877  20.237  1.00  0.00     0.274 HD
ATOM     26  H32 UNL     1     -36.367 -23.584  19.077  1.00  0.00     0.274 HD
ATOM     27  H31 UNL     1     -35.263 -24.836  18.858  1.00  0.00     0.274 HD
ENDBRANCH   4  24
BRANCH   1  28
HETATM   28  O2  UNL     1     -31.224 -20.640  19.992  1.00  0.00    -0.349 OA
BRANCH  28  29
HETATM   29  C3  UNL     1     -30.587 -19.555  19.397  1.00  0.00     0.315 C 
HETATM   30  O1  UNL     1     -31.361 -18.410  19.421  1.00  0.00    -0.346 OA
HETATM   31  C2  UNL     1     -31.487 -17.839  20.667  1.00  0.00     0.175 C 
HETATM   32  C1  UNL     1     -31.815 -16.371  20.458  1.00  0.00     0.044 C 
HETATM   33  C17 UNL     1     -30.256 -17.908  21.511  1.00  0.00     0.288 C 
HETATM   34  O8  UNL     1     -29.607 -19.132  21.466  1.00  0.00    -0.324 OA
HETATM   35  C16 UNL     1     -29.266 -19.358  20.128  1.00  0.00     0.315 C 
BRANCH  33  36
HETATM   36  O9  UNL     1     -30.638 -17.693  22.852  1.00  0.00    -0.369 OA
ATOM     37  H9  UNL     1     -29.854 -17.488  23.349  1.00  0.00     0.212 HD
ENDBRANCH  33  36
BRANCH  35  38
HETATM   38  O7  UNL     1     -28.697 -18.185  19.617  1.00  0.00    -0.367 OA
ATOM     39  H7  UNL     1     -28.047 -17.900  20.249  1.00  0.00     0.212 HD
ENDBRANCH  35  38
ENDBRANCH  28  29
ENDBRANCH   1  28
BRANCH   6  40
HETATM   40  N4  UNL     1     -30.753 -22.980  19.166  1.00  0.00    -0.072 N 
ATOM     41  H43 UNL     1     -30.349 -22.350  19.860  1.00  0.00     0.274 HD
ATOM     42  H42 UNL     1     -30.904 -23.781  19.778  1.00  0.00     0.274 HD
ATOM     43  H41 UNL     1     -30.110 -23.185  18.401  1.00  0.00     0.274 HD
ENDBRANCH   6  40
TORSDOF 13
ENDMDL
MODEL 5
REMARK VINA RESULT: -6.267799633      2.716      4.286
REMARK  13 active torsions:
REMARK  status: ('A' for Active; 'I' for Inactive)
REMARK    1  A    between atoms: C3_4  and  O2_5 
REMARK    2  A    between atoms: O2_5  and  C4_6 
REMARK    3  A    between atoms: C6_8  and  O3_9 
REMARK    4  A    between atoms: O3_9  and  C7_10 
REMARK    5  A    between atoms: C8_12  and  C9_13 
REMARK    6  A    between atoms: C9_13  and  N1_14 
REMARK    7  A    between atoms: C10_18  and  O5_19 
REMARK    8  A    between atoms: C12_22  and  N2_23 
REMARK    9  A    between atoms: N2_23  and  O6_24 
REMARK   10  A    between atoms: C13_26  and  N3_27 
REMARK   11  A    between atoms: C15_32  and  N4_33 
REMARK   12  A    between atoms: C16_37  and  O7_38 
REMARK   13  A    between atoms: C17_41  and  O9_42 
ROOT
HETATM    1  C4  UNL     1     -33.999 -18.320  20.959  1.00  0.00     0.157 C 
HETATM    2  C5  UNL     1     -33.880 -19.737  20.430  1.00  0.00     0.068 C 
HETATM    3  C6  UNL     1     -34.861 -20.651  21.133  1.00  0.00     0.157 C 
HETATM    4  C13 UNL     1     -36.269 -20.173  21.029  1.00  0.00     0.214 C 
HETATM    5  C14 UNL     1     -36.382 -18.828  20.343  1.00  0.00     0.070 C 
HETATM    6  C15 UNL     1     -35.411 -17.814  20.905  1.00  0.00     0.214 C 
ENDROOT
BRANCH   3   7
HETATM    7  O3  UNL     1     -34.771 -21.908  20.503  1.00  0.00    -0.352 OA
BRANCH   7   8
HETATM    8  C7  UNL     1     -33.444 -22.245  20.267  1.00  0.00     0.282 C 
HETATM    9  O4  UNL     1     -33.099 -23.242  21.188  1.00  0.00    -0.350 OA
HETATM   10  C8  UNL     1     -31.744 -23.582  21.054  1.00  0.00     0.178 C 
HETATM   11  C10 UNL     1     -31.413 -24.023  19.670  1.00  0.00     0.150 C 
HETATM   12  C11 UNL     1     -32.723 -24.181  18.887  1.00  0.00     0.063 C 
HETATM   13  C12 UNL     1     -33.355 -22.786  18.847  1.00  0.00     0.164 C 
BRANCH  10  14
HETATM   14  C9  UNL     1     -31.484 -24.701  22.029  1.00  0.00     0.264 C 
BRANCH  14  15
HETATM   15  N1  UNL     1     -30.246 -24.553  22.757  1.00  0.00    -0.077 N 
ATOM     16  H13 UNL     1     -29.488 -24.283  22.130  1.00  0.00     0.274 HD
ATOM     17  H12 UNL     1     -30.274 -23.726  23.355  1.00  0.00     0.274 HD
ATOM     18  H11 UNL     1     -29.991 -25.380  23.297  1.00  0.00     0.274 HD
ENDBRANCH  14  15
ENDBRANCH  10  14
BRANCH  11  19
HETATM   19  O5  UNL     1     -30.772 -25.254  19.712  1.00  0.00    -0.393 OA
ATOM     20  H5  UNL     1     -31.288 -25.900  19.246  1.00  0.00     0.210 HD
ENDBRANCH  11  19
BRANCH  13  21
HETATM   21  N2  UNL     1     -34.661 -22.849  18.225  1.00  0.00    -0.094 NA
BRANCH  21  22
HETATM   22  O6  UNL     1     -35.021 -21.652  17.749  1.00  0.00    -0.295 OA
ATOM     23  H6  UNL     1     -35.873 -21.396  18.083  1.00  0.00     0.238 HD
ENDBRANCH  21  22
ENDBRANCH  13  21
ENDBRANCH   7   8
ENDBRANCH   3   7
BRANCH   4  24
HETATM   24  N3  UNL     1     -37.115 -21.099  20.272  1.00  0.00    -0.072 N 
ATOM     25  H33 UNL     1     -37.123 -20.864  19.279  1.00  0.00     0.274 HD
ATOM     26  H32 UNL     1     -36.690 -22.024  20.215  1.00  0.00     0.274 HD
ATOM     27  H31 UNL     1     -38.062 -21.151  20.647  1.00  0.00     0.274 HD
ENDBRANCH   4  24
BRANCH   1  28
HETATM   28  O2  UNL     1     -33.099 -17.560  20.237  1.00  0.00    -0.349 OA
BRANCH  28  29
HETATM   29  C3  UNL     1     -31.961 -17.336  21.005  1.00  0.00     0.315 C 
HETATM   30  O1  UNL     1     -31.081 -18.402  20.970  1.00  0.00    -0.346 OA
HETATM   31  C2  UNL     1     -30.419 -18.550  19.771  1.00  0.00     0.175 C 
HETATM   32  C1  UNL     1     -29.137 -19.311  20.056  1.00  0.00     0.044 C 
HETATM   33  C17 UNL     1     -30.042 -17.267  19.106  1.00  0.00     0.288 C 
HETATM   34  O8  UNL     1     -31.034 -16.299  19.138  1.00  0.00    -0.324 OA
HETATM   35  C16 UNL     1     -31.317 -16.057  20.487  1.00  0.00     0.315 C 
BRANCH  33  36
HETATM   36  O9  UNL     1     -29.780 -17.544  17.748  1.00  0.00    -0.369 OA
ATOM     37  H9  UNL     1     -29.559 -16.725  17.320  1.00  0.00     0.212 HD
ENDBRANCH  33  36
BRANCH  35  38
HETATM   38  O7  UNL     1     -30.104 -15.913  21.170  1.00  0.00    -0.367 OA
ATOM     39  H7  UNL     1     -30.301 -15.991  22.096  1.00  0.00     0.212 HD
ENDBRANCH  35  38
ENDBRANCH  28  29
ENDBRANCH   1  28
BRANCH   6  40
HETATM   40  N4  UNL     1     -35.451 -16.667  20.023  1.00  0.00    -0.072 N 
ATOM     41  H43 UNL     1     -34.544 -16.209  19.933  1.00  0.00     0.274 HD
ATOM     42  H42 UNL     1     -35.571 -16.929  19.045  1.00  0.00     0.274 HD
ATOM     43  H41 UNL     1     -36.180 -16.033  20.352  1.00  0.00     0.274 HD
ENDBRANCH   6  40
TORSDOF 13
ENDMDL
