MODEL 1
REMARK VINA RESULT: -7.189532214      0.000      0.000
REMARK  11 active torsions:
REMARK  status: ('A' for Active; 'I' for Inactive)
REMARK    1  A    between atoms: N1_2  and  C2_4 
REMARK    2  A    between atoms: N2_5  and  C3_6 
REMARK    3  A    between atoms: C3_6  and  C4_7 
REMARK    4  A    between atoms: C4_7  and  N3_8 
REMARK    5  A    between atoms: C6_14  and  C7_15 
REMARK    6  A    between atoms: C7_15  and  C8_20 
REMARK    7  A    between atoms: N5_16  and  O1_18 
REMARK    8  A    between atoms: C9_23  and  C10_24 
REMARK    9  A    between atoms: C12_29  and  N9_30 
REMARK   10  A    between atoms: N13_43  and  C15_44 
REMARK   11  A    between atoms: C15_44  and  O4_45 
ROOT
HETATM    1  C7  UNL     1     -31.535 -24.514  18.099  1.00  0.00     0.118 C 
HETATM    2  N5  UNL     1     -30.442 -24.667  17.341  1.00  0.00    -0.264 N 
ATOM      3  H5  UNL     1     -30.448 -25.328  16.563  1.00  0.00     0.194 HD
ENDROOT
BRANCH   1   4
HETATM    4  C6  UNL     1     -32.656 -25.328  17.724  1.00  0.00     0.107 A 
HETATM    5  C5  UNL     1     -33.950 -24.837  17.937  1.00  0.00     0.152 A 
HETATM    6  N2  UNL     1     -35.067 -25.468  17.514  1.00  0.00    -0.167 N 
HETATM    7  N4  UNL     1     -34.130 -23.608  18.593  1.00  0.00    -0.081 NA
HETATM    8  C2  UNL     1     -34.971 -26.627  16.849  1.00  0.00     0.691 A 
HETATM    9  N13 UNL     1     -33.692 -27.118  16.635  1.00  0.00    -0.124 N 
HETATM   10  C14 UNL     1     -32.583 -26.503  17.050  1.00  0.00     0.279 A 
HETATM   11  O3  UNL     1     -31.486 -27.084  16.764  1.00  0.00    -0.266 OA
BRANCH   6  12
HETATM   12  C3  UNL     1     -36.362 -24.880  17.793  1.00  0.00     0.176 C 
BRANCH  12  13
HETATM   13  C4  UNL     1     -36.862 -23.946  16.721  1.00  0.00     0.250 C 
BRANCH  13  14
HETATM   14  N3  UNL     1     -36.871 -22.551  17.081  1.00  0.00    -0.078 N 
ATOM     15  H33 UNL     1     -37.164 -22.441  18.052  1.00  0.00     0.274 HD
ATOM     16  H32 UNL     1     -35.917 -22.198  17.141  1.00  0.00     0.274 HD
ATOM     17  H31 UNL     1     -37.431 -21.951  16.475  1.00  0.00     0.274 HD
ENDBRANCH  13  14
ENDBRANCH  12  13
ENDBRANCH   6  12
BRANCH   8  18
HETATM   18  N1  UNL     1     -35.893 -27.274  16.354  1.00  0.00    -0.211 N 
HETATM   19  C1  UNL     1     -36.756 -27.462  15.355  1.00  0.00     0.137 C 
ATOM     20  H1  UNL     1     -36.089 -28.018  17.024  1.00  0.00     0.182 HD
ENDBRANCH   8  18
BRANCH   9  21
HETATM   21  C15 UNL     1     -33.563 -28.389  15.911  1.00  0.00     0.317 C 
BRANCH  21  22
HETATM   22  O4  UNL     1     -32.855 -28.223  14.733  1.00  0.00    -0.381 OA
ATOM     23  H4  UNL     1     -31.923 -28.347  14.873  1.00  0.00     0.211 HD
ENDBRANCH  21  22
ENDBRANCH   9  21
ENDBRANCH   1   4
BRANCH   1  24
HETATM   24  C8  UNL     1     -31.370 -23.571  19.186  1.00  0.00     0.151 A 
HETATM   25  N6  UNL     1     -31.252 -22.204  18.981  1.00  0.00    -0.324 N 
HETATM   26  C9  UNL     1     -31.224 -21.543  20.121  1.00  0.00     0.141 A 
ATOM     27  H6  UNL     1     -31.193 -21.765  18.063  1.00  0.00     0.169 HD
HETATM   28  N11 UNL     1     -31.325 -22.446  21.095  1.00  0.00    -0.283 N 
HETATM   29  N12 UNL     1     -31.413 -23.656  20.514  1.00  0.00    -0.282 N 
ATOM     30  H11 UNL     1     -31.333 -22.255  22.097  1.00  0.00     0.188 HD
ATOM     31  H12 UNL     1     -31.501 -24.533  21.028  1.00  0.00     0.188 HD
BRANCH  26  32
HETATM   32  C10 UNL     1     -31.104 -20.072  20.308  1.00  0.00     0.119 A 
HETATM   33  C11 UNL     1     -32.247 -19.350  20.493  1.00  0.00     0.151 A 
HETATM   34  N7  UNL     1     -33.521 -19.983  20.507  1.00  0.00    -0.081 NA
HETATM   35  N8  UNL     1     -32.115 -18.015  20.661  1.00  0.00    -0.178 N 
HETATM   36  C12 UNL     1     -30.928 -17.388  20.653  1.00  0.00     0.680 A 
ATOM     37  H8  UNL     1     -32.958 -17.457  20.801  1.00  0.00     0.185 HD
HETATM   38  N10 UNL     1     -29.831 -18.137  20.468  1.00  0.00    -0.155 N 
HETATM   39  C13 UNL     1     -29.849 -19.466  20.292  1.00  0.00     0.277 A 
ATOM     40  H10 UNL     1     -28.926 -17.666  20.462  1.00  0.00     0.187 HD
HETATM   41  O2  UNL     1     -28.816 -20.154  20.121  1.00  0.00    -0.267 OA
BRANCH  36  42
HETATM   42  N9  UNL     1     -30.848 -16.090  20.819  1.00  0.00    -0.234 N 
ATOM     43  H92 UNL     1     -30.210 -15.680  21.501  1.00  0.00     0.174 HD
ATOM     44  H91 UNL     1     -31.425 -15.454  20.268  1.00  0.00     0.174 HD
ENDBRANCH  36  42
ENDBRANCH  26  32
ENDBRANCH   1  24
BRANCH   2  45
HETATM   45  O1  UNL     1     -29.338 -23.951  17.606  1.00  0.00    -0.289 OA
ATOM     46  H1  UNL     1     -28.538 -24.117  17.121  1.00  0.00     0.244 HD
ENDBRANCH   2  45
TORSDOF 11
ENDMDL
MODEL 2
REMARK VINA RESULT: -7.176435606      0.935      1.446
REMARK  11 active torsions:
REMARK  status: ('A' for Active; 'I' for Inactive)
REMARK    1  A    between atoms: N1_2  and  C2_4 
REMARK    2  A    between atoms: N2_5  and  C3_6 
REMARK    3  A    between atoms: C3_6  and  C4_7 
REMARK    4  A    between atoms: C4_7  and  N3_8 
REMARK    5  A    between atoms: C6_14  and  C7_15 
REMARK    6  A    between atoms: C7_15  and  C8_20 
REMARK    7  A    between atoms: N5_16  and  O1_18 
REMARK    8  A    between atoms: C9_23  and  C10_24 
REMARK    9  A    between atoms: C12_29  and  N9_30 
REMARK   10  A    between atoms: N13_43  and  C15_44 
REMARK   11  A    between atoms: C15_44  and  O4_45 
ROOT
HETATM    1  C7  UNL     1     -31.573 -24.483  18.127  1.00  0.00     0.118 C 
HETATM    2  N5  UNL     1     -30.474 -24.636  17.377  1.00  0.00    -0.264 N 
ATOM      3  H5  UNL     1     -30.472 -25.299  16.602  1.00  0.00     0.194 HD
ENDROOT
BRANCH   1   4
HETATM    4  C6  UNL     1     -32.688 -25.303  17.747  1.00  0.00     0.107 A 
HETATM    5  C5  UNL     1     -33.985 -24.819  17.953  1.00  0.00     0.152 A 
HETATM    6  N2  UNL     1     -35.097 -25.457  17.525  1.00  0.00    -0.167 N 
HETATM    7  N4  UNL     1     -34.175 -23.590  18.607  1.00  0.00    -0.081 NA
HETATM    8  C2  UNL     1     -34.993 -26.615  16.862  1.00  0.00     0.691 A 
HETATM    9  N13 UNL     1     -33.710 -27.100  16.655  1.00  0.00    -0.124 N 
HETATM   10  C14 UNL     1     -32.606 -26.479  17.075  1.00  0.00     0.279 A 
HETATM   11  O3  UNL     1     -31.505 -27.055  16.795  1.00  0.00    -0.266 OA
BRANCH   6  12
HETATM   12  C3  UNL     1     -36.397 -24.875  17.797  1.00  0.00     0.176 C 
BRANCH  12  13
HETATM   13  C4  UNL     1     -36.894 -23.940  16.724  1.00  0.00     0.250 C 
BRANCH  13  14
HETATM   14  N3  UNL     1     -36.841 -22.540  17.060  1.00  0.00    -0.078 N 
ATOM     15  H33 UNL     1     -37.451 -22.346  17.854  1.00  0.00     0.274 HD
ATOM     16  H32 UNL     1     -35.936 -22.311  17.469  1.00  0.00     0.274 HD
ATOM     17  H31 UNL     1     -37.051 -21.902  16.292  1.00  0.00     0.274 HD
ENDBRANCH  13  14
ENDBRANCH  12  13
ENDBRANCH   6  12
BRANCH   8  18
HETATM   18  N1  UNL     1     -35.908 -27.268  16.363  1.00  0.00    -0.211 N 
HETATM   19  C1  UNL     1     -36.762 -27.463  15.358  1.00  0.00     0.137 C 
ATOM     20  H1  UNL     1     -36.109 -28.008  17.036  1.00  0.00     0.182 HD
ENDBRANCH   8  18
BRANCH   9  21
HETATM   21  C15 UNL     1     -33.571 -28.372  15.933  1.00  0.00     0.317 C 
BRANCH  21  22
HETATM   22  O4  UNL     1     -32.857 -28.203  14.759  1.00  0.00    -0.381 OA
ATOM     23  H4  UNL     1     -32.101 -27.643  14.895  1.00  0.00     0.211 HD
ENDBRANCH  21  22
ENDBRANCH   9  21
ENDBRANCH   1   4
BRANCH   1  24
HETATM   24  C8  UNL     1     -31.420 -23.536  19.211  1.00  0.00     0.151 A 
HETATM   25  N6  UNL     1     -31.340 -22.167  19.004  1.00  0.00    -0.324 N 
HETATM   26  C9  UNL     1     -31.316 -21.504  20.144  1.00  0.00     0.141 A 
ATOM     27  H6  UNL     1     -31.304 -21.727  18.085  1.00  0.00     0.169 HD
HETATM   28  N11 UNL     1     -31.380 -22.409  21.119  1.00  0.00    -0.283 N 
HETATM   29  N12 UNL     1     -31.444 -23.621  20.540  1.00  0.00    -0.282 N 
ATOM     30  H11 UNL     1     -31.381 -22.217  22.121  1.00  0.00     0.188 HD
ATOM     31  H12 UNL     1     -31.502 -24.499  21.056  1.00  0.00     0.188 HD
BRANCH  26  32
HETATM   32  C10 UNL     1     -31.232 -20.031  20.329  1.00  0.00     0.119 A 
HETATM   33  C11 UNL     1     -29.997 -19.449  20.322  1.00  0.00     0.151 A 
HETATM   34  N7  UNL     1     -28.820 -20.227  20.144  1.00  0.00    -0.081 NA
HETATM   35  N8  UNL     1     -29.944 -18.109  20.491  1.00  0.00    -0.178 N 
HETATM   36  C12 UNL     1     -31.036 -17.346  20.661  1.00  0.00     0.680 A 
ATOM     37  H8  UNL     1     -29.031 -17.655  20.489  1.00  0.00     0.185 HD
HETATM   38  N10 UNL     1     -32.228 -17.960  20.661  1.00  0.00    -0.155 N 
HETATM   39  C13 UNL     1     -32.394 -19.281  20.502  1.00  0.00     0.277 A 
ATOM     40  H10 UNL     1     -33.062 -17.386  20.789  1.00  0.00     0.187 HD
HETATM   41  O2  UNL     1     -33.514 -19.842  20.503  1.00  0.00    -0.267 OA
BRANCH  36  42
HETATM   42  N9  UNL     1     -30.936 -16.049  20.823  1.00  0.00    -0.234 N 
ATOM     43  H92 UNL     1     -30.385 -15.649  21.583  1.00  0.00     0.174 HD
ATOM     44  H91 UNL     1     -31.408 -15.403  20.190  1.00  0.00     0.174 HD
ENDBRANCH  36  42
ENDBRANCH  26  32
ENDBRANCH   1  24
BRANCH   2  45
HETATM   45  O1  UNL     1     -29.375 -23.914  17.647  1.00  0.00    -0.289 OA
ATOM     46  H1  UNL     1     -29.115 -23.211  17.064  1.00  0.00     0.244 HD
ENDBRANCH   2  45
TORSDOF 11
ENDMDL
MODEL 3
REMARK VINA RESULT: -7.053541910      2.712      3.532
REMARK  11 active torsions:
REMARK  status: ('A' for Active; 'I' for Inactive)
REMARK    1  A    between atoms: N1_2  and  C2_4 
REMARK    2  A    between atoms: N2_5  and  C3_6 
REMARK    3  A    between atoms: C3_6  and  C4_7 
REMARK    4  A    between atoms: C4_7  and  N3_8 
REMARK    5  A    between atoms: C6_14  and  C7_15 
REMARK    6  A    between atoms: C7_15  and  C8_20 
REMARK    7  A    between atoms: N5_16  and  O1_18 
REMARK    8  A    between atoms: C9_23  and  C10_24 
REMARK    9  A    between atoms: C12_29  and  N9_30 
REMARK   10  A    between atoms: N13_43  and  C15_44 
REMARK   11  A    between atoms: C15_44  and  O4_45 
ROOT
HETATM    1  C7  UNL     1     -31.730 -24.406  18.815  1.00  0.00     0.118 C 
HETATM    2  N5  UNL     1     -30.702 -24.929  18.134  1.00  0.00    -0.264 N 
ATOM      3  H5  UNL     1     -30.635 -25.939  18.004  1.00  0.00     0.194 HD
ENDROOT
BRANCH   1   4
HETATM    4  C6  UNL     1     -32.676 -25.361  19.317  1.00  0.00     0.107 A 
HETATM    5  C5  UNL     1     -33.526 -26.010  18.413  1.00  0.00     0.152 A 
HETATM    6  N2  UNL     1     -34.369 -27.007  18.763  1.00  0.00    -0.167 N 
HETATM    7  N4  UNL     1     -33.504 -25.651  17.055  1.00  0.00    -0.081 NA
HETATM    8  C2  UNL     1     -34.418 -27.427  20.034  1.00  0.00     0.691 A 
HETATM    9  N13 UNL     1     -33.578 -26.788  20.934  1.00  0.00    -0.124 N 
HETATM   10  C14 UNL     1     -32.745 -25.802  20.599  1.00  0.00     0.279 A 
HETATM   11  O3  UNL     1     -32.035 -25.330  21.545  1.00  0.00    -0.266 OA
BRANCH   6  12
HETATM   12  C3  UNL     1     -35.215 -27.607  17.752  1.00  0.00     0.176 C 
BRANCH  12  13
HETATM   13  C4  UNL     1     -34.677 -28.891  17.176  1.00  0.00     0.250 C 
BRANCH  13  14
HETATM   14  N3  UNL     1     -33.577 -28.738  16.259  1.00  0.00    -0.078 N 
ATOM     15  H33 UNL     1     -32.958 -27.992  16.576  1.00  0.00     0.274 HD
ATOM     16  H32 UNL     1     -32.946 -29.536  16.331  1.00  0.00     0.274 HD
ATOM     17  H31 UNL     1     -33.841 -28.586  15.286  1.00  0.00     0.274 HD
ENDBRANCH  13  14
ENDBRANCH  12  13
ENDBRANCH   6  12
BRANCH   8  18
HETATM   18  N1  UNL     1     -35.086 -28.359  20.479  1.00  0.00    -0.211 N 
HETATM   19  C1  UNL     1     -36.277 -28.873  20.784  1.00  0.00     0.137 C 
ATOM     20  H1  UNL     1     -34.408 -29.077  20.736  1.00  0.00     0.182 HD
ENDBRANCH   8  18
BRANCH   9  21
HETATM   21  C15 UNL     1     -33.619 -27.230  22.334  1.00  0.00     0.317 C 
BRANCH  21  22
HETATM   22  O4  UNL     1     -34.528 -26.486  23.066  1.00  0.00    -0.381 OA
ATOM     23  H4  UNL     1     -34.089 -25.959  23.723  1.00  0.00     0.211 HD
ENDBRANCH  21  22
ENDBRANCH   9  21
ENDBRANCH   1   4
BRANCH   1  24
HETATM   24  C8  UNL     1     -31.675 -22.966  18.948  1.00  0.00     0.151 A 
HETATM   25  N6  UNL     1     -31.270 -22.335  20.116  1.00  0.00    -0.324 N 
HETATM   26  C9  UNL     1     -31.196 -21.028  19.961  1.00  0.00     0.141 A 
ATOM     27  H6  UNL     1     -31.056 -22.822  20.986  1.00  0.00     0.169 HD
HETATM   28  N11 UNL     1     -31.544 -20.767  18.702  1.00  0.00    -0.283 N 
HETATM   29  N12 UNL     1     -31.826 -21.942  18.110  1.00  0.00    -0.282 N 
ATOM     30  H11 UNL     1     -31.588 -19.845  18.266  1.00  0.00     0.188 HD
ATOM     31  H12 UNL     1     -32.121 -22.037  17.138  1.00  0.00     0.188 HD
BRANCH  26  32
HETATM   32  C10 UNL     1     -30.802 -20.020  20.981  1.00  0.00     0.119 A 
HETATM   33  C11 UNL     1     -31.540 -19.939  22.126  1.00  0.00     0.151 A 
HETATM   34  N7  UNL     1     -32.657 -20.793  22.341  1.00  0.00    -0.081 NA
HETATM   35  N8  UNL     1     -31.165 -19.016  23.040  1.00  0.00    -0.178 N 
HETATM   36  C12 UNL     1     -30.116 -18.196  22.867  1.00  0.00     0.680 A 
ATOM     37  H8  UNL     1     -31.704 -18.940  23.903  1.00  0.00     0.185 HD
HETATM   38  N10 UNL     1     -29.419 -18.311  21.727  1.00  0.00    -0.155 N 
HETATM   39  C13 UNL     1     -29.705 -19.190  20.756  1.00  0.00     0.277 A 
ATOM     40  H10 UNL     1     -28.621 -17.690  21.590  1.00  0.00     0.187 HD
HETATM   41  O2  UNL     1     -29.045 -19.287  19.696  1.00  0.00    -0.267 OA
BRANCH  36  42
HETATM   42  N9  UNL     1     -29.790 -17.315  23.781  1.00  0.00    -0.234 N 
ATOM     43  H92 UNL     1     -30.153 -16.362  23.755  1.00  0.00     0.174 HD
ATOM     44  H91 UNL     1     -29.162 -17.561  24.547  1.00  0.00     0.174 HD
ENDBRANCH  36  42
ENDBRANCH  26  32
ENDBRANCH   1  24
BRANCH   2  45
HETATM   45  O1  UNL     1     -29.761 -24.122  17.620  1.00  0.00    -0.289 OA
ATOM     46  H1  UNL     1     -28.859 -24.417  17.571  1.00  0.00     0.244 HD
ENDBRANCH   2  45
TORSDOF 11
ENDMDL
MODEL 4
REMARK VINA RESULT: -7.004443428      2.433      3.492
REMARK  11 active torsions:
REMARK  status: ('A' for Active; 'I' for Inactive)
REMARK    1  A    between atoms: N1_2  and  C2_4 
REMARK    2  A    between atoms: N2_5  and  C3_6 
REMARK    3  A    between atoms: C3_6  and  C4_7 
REMARK    4  A    between atoms: C4_7  and  N3_8 
REMARK    5  A    between atoms: C6_14  and  C7_15 
REMARK    6  A    between atoms: C7_15  and  C8_20 
REMARK    7  A    between atoms: N5_16  and  O1_18 
REMARK    8  A    between atoms: C9_23  and  C10_24 
REMARK    9  A    between atoms: C12_29  and  N9_30 
REMARK   10  A    between atoms: N13_43  and  C15_44 
REMARK   11  A    between atoms: C15_44  and  O4_45 
ROOT
HETATM    1  C7  UNL     1     -31.535 -24.575  20.953  1.00  0.00     0.118 C 
HETATM    2  N5  UNL     1     -30.808 -25.360  21.759  1.00  0.00    -0.264 N 
ATOM      3  H5  UNL     1     -30.720 -26.356  21.559  1.00  0.00     0.194 HD
ENDROOT
BRANCH   1   4
HETATM    4  C6  UNL     1     -32.143 -25.243  19.838  1.00  0.00     0.107 A 
HETATM    5  C5  UNL     1     -31.423 -25.355  18.642  1.00  0.00     0.152 A 
HETATM    6  N2  UNL     1     -31.853 -26.064  17.575  1.00  0.00    -0.167 N 
HETATM    7  N4  UNL     1     -30.167 -24.736  18.524  1.00  0.00    -0.081 NA
HETATM    8  C2  UNL     1     -33.024 -26.711  17.628  1.00  0.00     0.691 A 
HETATM    9  N13 UNL     1     -33.742 -26.604  18.810  1.00  0.00    -0.124 N 
HETATM   10  C14 UNL     1     -33.327 -25.905  19.868  1.00  0.00     0.279 A 
HETATM   11  O3  UNL     1     -34.101 -25.917  20.879  1.00  0.00    -0.266 OA
BRANCH   6  12
HETATM   12  C3  UNL     1     -31.036 -26.109  16.379  1.00  0.00     0.176 C 
BRANCH  12  13
HETATM   13  C4  UNL     1     -30.380 -27.442  16.127  1.00  0.00     0.250 C 
BRANCH  13  14
HETATM   14  N3  UNL     1     -29.220 -27.403  15.275  1.00  0.00    -0.078 N 
ATOM     15  H33 UNL     1     -29.446 -27.782  14.356  1.00  0.00     0.274 HD
ATOM     16  H32 UNL     1     -29.003 -26.439  15.022  1.00  0.00     0.274 HD
ATOM     17  H31 UNL     1     -28.390 -27.862  15.650  1.00  0.00     0.274 HD
ENDBRANCH  13  14
ENDBRANCH  12  13
ENDBRANCH   6  12
BRANCH   8  18
HETATM   18  N1  UNL     1     -33.506 -27.440  16.762  1.00  0.00    -0.211 N 
HETATM   19  C1  UNL     1     -34.150 -27.572  15.603  1.00  0.00     0.137 C 
ATOM     20  H1  UNL     1     -33.331 -28.392  17.084  1.00  0.00     0.182 HD
ENDBRANCH   8  18
BRANCH   9  21
HETATM   21  C15 UNL     1     -35.031 -27.302  18.889  1.00  0.00     0.317 C 
BRANCH  21  22
HETATM   22  O4  UNL     1     -36.070 -26.479  18.488  1.00  0.00    -0.381 OA
ATOM     23  H4  UNL     1     -36.752 -26.443  19.147  1.00  0.00     0.211 HD
ENDBRANCH  21  22
ENDBRANCH   9  21
ENDBRANCH   1   4
BRANCH   1  24
HETATM   24  C8  UNL     1     -31.599 -23.193  21.379  1.00  0.00     0.151 A 
HETATM   25  N6  UNL     1     -31.108 -22.147  20.611  1.00  0.00    -0.324 N 
HETATM   26  C9  UNL     1     -31.379 -20.977  21.154  1.00  0.00     0.141 A 
ATOM     27  H6  UNL     1     -30.600 -22.269  19.735  1.00  0.00     0.169 HD
HETATM   28  N11 UNL     1     -32.049 -21.218  22.279  1.00  0.00    -0.283 N 
HETATM   29  N12 UNL     1     -32.173 -22.552  22.396  1.00  0.00    -0.282 N 
ATOM     30  H11 UNL     1     -32.404 -20.519  22.932  1.00  0.00     0.188 HD
ATOM     31  H12 UNL     1     -32.647 -23.017  23.170  1.00  0.00     0.188 HD
BRANCH  26  32
HETATM   32  C10 UNL     1     -31.016 -19.634  20.628  1.00  0.00     0.119 A 
HETATM   33  C11 UNL     1     -31.996 -18.686  20.545  1.00  0.00     0.151 A 
HETATM   34  N7  UNL     1     -33.329 -18.973  20.949  1.00  0.00    -0.081 NA
HETATM   35  N8  UNL     1     -31.644 -17.473  20.066  1.00  0.00    -0.178 N 
HETATM   36  C12 UNL     1     -30.394 -17.171  19.676  1.00  0.00     0.680 A 
ATOM     37  H8  UNL     1     -32.361 -16.751  19.996  1.00  0.00     0.185 HD
HETATM   38  N10 UNL     1     -29.464 -18.132  19.775  1.00  0.00    -0.155 N 
HETATM   39  C13 UNL     1     -29.705 -19.368  20.237  1.00  0.00     0.277 A 
ATOM     40  H10 UNL     1     -28.513 -17.908  19.482  1.00  0.00     0.187 HD
HETATM   41  O2  UNL     1     -28.826 -20.256  20.324  1.00  0.00    -0.267 OA
BRANCH  36  42
HETATM   42  N9  UNL     1     -30.099 -15.980  19.216  1.00  0.00    -0.234 N 
ATOM     43  H92 UNL     1     -30.055 -15.168  19.832  1.00  0.00     0.174 HD
ATOM     44  H91 UNL     1     -29.905 -15.833  18.225  1.00  0.00     0.174 HD
ENDBRANCH  36  42
ENDBRANCH  26  32
ENDBRANCH   1  24
BRANCH   2  45
HETATM   45  O1  UNL     1     -30.195 -24.833  22.831  1.00  0.00    -0.289 OA
ATOM     46  H1  UNL     1     -30.474 -23.991  23.169  1.00  0.00     0.244 HD
ENDBRANCH   2  45
TORSDOF 11
ENDMDL
MODEL 5
REMARK VINA RESULT: -6.996827249      2.631      3.769
REMARK  11 active torsions:
REMARK  status: ('A' for Active; 'I' for Inactive)
REMARK    1  A    between atoms: N1_2  and  C2_4 
REMARK    2  A    between atoms: N2_5  and  C3_6 
REMARK    3  A    between atoms: C3_6  and  C4_7 
REMARK    4  A    between atoms: C4_7  and  N3_8 
REMARK    5  A    between atoms: C6_14  and  C7_15 
REMARK    6  A    between atoms: C7_15  and  C8_20 
REMARK    7  A    between atoms: N5_16  and  O1_18 
REMARK    8  A    between atoms: C9_23  and  C10_24 
REMARK    9  A    between atoms: C12_29  and  N9_30 
REMARK   10  A    between atoms: N13_43  and  C15_44 
REMARK   11  A    between atoms: C15_44  and  O4_45 
ROOT
HETATM    1  C7  UNL     1     -31.566 -24.508  20.927  1.00  0.00     0.118 C 
HETATM    2  N5  UNL     1     -30.815 -25.277  21.726  1.00  0.00    -0.264 N 
ATOM      3  H5  UNL     1     -30.694 -26.268  21.516  1.00  0.00     0.194 HD
ENDROOT
BRANCH   1   4
HETATM    4  C6  UNL     1     -32.150 -25.185  19.805  1.00  0.00     0.107 A 
HETATM    5  C5  UNL     1     -31.404 -25.309  18.626  1.00  0.00     0.152 A 
HETATM    6  N2  UNL     1     -31.812 -26.026  17.556  1.00  0.00    -0.167 N 
HETATM    7  N4  UNL     1     -30.145 -24.694  18.531  1.00  0.00    -0.081 NA
HETATM    8  C2  UNL     1     -32.986 -26.670  17.588  1.00  0.00     0.691 A 
HETATM    9  N13 UNL     1     -33.729 -26.551  18.753  1.00  0.00    -0.124 N 
HETATM   10  C14 UNL     1     -33.337 -25.844  19.814  1.00  0.00     0.279 A 
HETATM   11  O3  UNL     1     -34.133 -25.845  20.808  1.00  0.00    -0.266 OA
BRANCH   6  12
HETATM   12  C3  UNL     1     -30.969 -26.085  16.379  1.00  0.00     0.176 C 
BRANCH  12  13
HETATM   13  C4  UNL     1     -30.381 -27.445  16.104  1.00  0.00     0.250 C 
BRANCH  13  14
HETATM   14  N3  UNL     1     -29.205 -27.447  15.273  1.00  0.00    -0.078 N 
ATOM     15  H33 UNL     1     -29.460 -27.263  14.303  1.00  0.00     0.274 HD
ATOM     16  H32 UNL     1     -28.636 -26.623  15.468  1.00  0.00     0.274 HD
ATOM     17  H31 UNL     1     -28.634 -28.290  15.332  1.00  0.00     0.274 HD
ENDBRANCH  13  14
ENDBRANCH  12  13
ENDBRANCH   6  12
BRANCH   8  18
HETATM   18  N1  UNL     1     -33.451 -27.405  16.719  1.00  0.00    -0.211 N 
HETATM   19  C1  UNL     1     -34.089 -27.546  15.557  1.00  0.00     0.137 C 
ATOM     20  H1  UNL     1     -33.256 -28.355  17.037  1.00  0.00     0.182 HD
ENDBRANCH   8  18
BRANCH   9  21
HETATM   21  C15 UNL     1     -35.022 -27.245  18.810  1.00  0.00     0.317 C 
BRANCH  21  22
HETATM   22  O4  UNL     1     -36.054 -26.413  18.408  1.00  0.00    -0.381 OA
ATOM     23  H4  UNL     1     -36.142 -25.670  18.994  1.00  0.00     0.211 HD
ENDBRANCH  21  22
ENDBRANCH   9  21
ENDBRANCH   1   4
BRANCH   1  24
HETATM   24  C8  UNL     1     -31.675 -23.133  21.367  1.00  0.00     0.151 A 
HETATM   25  N6  UNL     1     -31.195 -22.067  20.621  1.00  0.00    -0.324 N 
HETATM   26  C9  UNL     1     -31.509 -20.910  21.171  1.00  0.00     0.141 A 
ATOM     27  H6  UNL     1     -30.666 -22.165  19.756  1.00  0.00     0.169 HD
HETATM   28  N11 UNL     1     -32.197 -21.181  22.278  1.00  0.00    -0.283 N 
HETATM   29  N12 UNL     1     -32.288 -22.520  22.378  1.00  0.00    -0.282 N 
ATOM     30  H11 UNL     1     -32.584 -20.499  22.931  1.00  0.00     0.188 HD
ATOM     31  H12 UNL     1     -32.767 -23.006  23.136  1.00  0.00     0.188 HD
BRANCH  26  32
HETATM   32  C10 UNL     1     -31.169 -19.552  20.669  1.00  0.00     0.119 A 
HETATM   33  C11 UNL     1     -29.885 -19.313  20.271  1.00  0.00     0.151 A 
HETATM   34  N7  UNL     1     -28.896 -20.333  20.335  1.00  0.00    -0.081 NA
HETATM   35  N8  UNL     1     -29.598 -18.072  19.818  1.00  0.00    -0.178 N 
HETATM   36  C12 UNL     1     -30.509 -17.088  19.746  1.00  0.00     0.680 A 
ATOM     37  H8  UNL     1     -28.645 -17.874  19.516  1.00  0.00     0.185 HD
HETATM   38  N10 UNL     1     -31.758 -17.368  20.146  1.00  0.00    -0.155 N 
HETATM   39  C13 UNL     1     -32.150 -18.563  20.612  1.00  0.00     0.277 A 
ATOM     40  H10 UNL     1     -32.455 -16.624  20.093  1.00  0.00     0.187 HD
HETATM   41  O2  UNL     1     -33.320 -18.810  20.983  1.00  0.00    -0.267 OA
BRANCH  36  42
HETATM   42  N9  UNL     1     -30.185 -15.899  19.300  1.00  0.00    -0.234 N 
ATOM     43  H92 UNL     1     -29.869 -15.759  18.340  1.00  0.00     0.174 HD
ATOM     44  H91 UNL     1     -30.241 -15.079  19.903  1.00  0.00     0.174 HD
ENDBRANCH  36  42
ENDBRANCH  26  32
ENDBRANCH   1  24
BRANCH   2  45
HETATM   45  O1  UNL     1     -30.220 -24.742  22.804  1.00  0.00    -0.289 OA
ATOM     46  H1  UNL     1     -29.595 -25.253  23.303  1.00  0.00     0.244 HD
ENDBRANCH   2  45
TORSDOF 11
ENDMDL
