MODEL 1
REMARK VINA RESULT: -5.404008401      0.000      0.000
REMARK  15 active torsions:
REMARK  status: ('A' for Active; 'I' for Inactive)
REMARK    1  A    between atoms: O1_2  and  C2_3 
REMARK    2  A    between atoms: C3_4  and  N1_5 
REMARK    3  A    between atoms: C5_10  and  N2_11 
REMARK    4  A    between atoms: C7_16  and  O2_17 
REMARK    5  A    between atoms: O2_17  and  C8_18 
REMARK    6  A    between atoms: C9_19  and  N3_20 
REMARK    7  A    between atoms: C11_25  and  N4_26 
REMARK    8  A    between atoms: C12_30  and  N5_31 
REMARK    9  A    between atoms: N5_31  and  C13_34 
REMARK   10  A    between atoms: C13_34  and  C14_35 
REMARK   11  A    between atoms: C14_35  and  N6_36 
REMARK   12  A    between atoms: C15_40  and  N7_41 
REMARK   13  A    between atoms: C17_45  and  N9_46 
REMARK   14  A    between atoms: N10_49  and  N11_50 
REMARK   15  A    between atoms: C18_53  and  O3_54 
ROOT
HETATM    1  C8  UNL     1     -31.761 -22.732  22.529  1.00  0.00     0.202 C 
HETATM    2  C9  UNL     1     -31.789 -23.437  23.841  1.00  0.00     0.220 C 
HETATM    3  C10 UNL     1     -32.153 -22.623  25.040  1.00  0.00     0.071 C 
HETATM    4  C11 UNL     1     -33.378 -21.763  24.848  1.00  0.00     0.222 C 
HETATM    5  C12 UNL     1     -33.863 -21.722  23.453  1.00  0.00     0.266 C 
HETATM    6  C15 UNL     1     -32.781 -21.648  22.383  1.00  0.00     0.079 C 
ENDROOT
BRANCH   1   7
HETATM    7  O2  UNL     1     -31.968 -23.778  21.583  1.00  0.00    -0.370 OA
BRANCH   7   8
HETATM    8  C7  UNL     1     -32.906 -23.486  20.629  1.00  0.00     0.155 C 
HETATM    9  C6  UNL     1     -34.035 -24.480  20.794  1.00  0.00     0.067 C 
HETATM   10  C5  UNL     1     -33.773 -25.797  20.115  1.00  0.00     0.188 C 
HETATM   11  C4  UNL     1     -34.016 -25.773  18.647  1.00  0.00     0.068 C 
HETATM   12  C3  UNL     1     -32.875 -25.298  17.821  1.00  0.00     0.216 C 
HETATM   13  C2  UNL     1     -31.833 -24.665  18.684  1.00  0.00     0.182 C 
HETATM   14  C18 UNL     1     -32.416 -23.385  19.229  1.00  0.00     0.178 C 
BRANCH  10  15
HETATM   15  N2  UNL     1     -34.791 -26.714  20.677  1.00  0.00    -0.075 N 
ATOM     16  H23 UNL     1     -35.438 -26.259  21.322  1.00  0.00     0.274 HD
ATOM     17  H22 UNL     1     -35.489 -27.016  19.997  1.00  0.00     0.274 HD
ATOM     18  H21 UNL     1     -34.270 -27.485  21.096  1.00  0.00     0.274 HD
ENDBRANCH  10  15
BRANCH  12  19
HETATM   19  N1  UNL     1     -32.346 -26.312  16.936  1.00  0.00    -0.072 N 
ATOM     20  H13 UNL     1     -32.950 -27.134  16.924  1.00  0.00     0.274 HD
ATOM     21  H12 UNL     1     -32.435 -26.024  15.962  1.00  0.00     0.274 HD
ATOM     22  H11 UNL     1     -31.383 -26.572  17.152  1.00  0.00     0.274 HD
ENDBRANCH  12  19
BRANCH  13  23
HETATM   23  O1  UNL     1     -30.777 -24.323  17.797  1.00  0.00    -0.386 OA
HETATM   24  C1  UNL     1     -29.710 -25.183  17.892  1.00  0.00     0.202 C 
ENDBRANCH  13  23
BRANCH  14  25
HETATM   25  O3  UNL     1     -31.470 -22.393  19.116  1.00  0.00    -0.390 OA
ATOM     26  H3  UNL     1     -31.578 -21.790  19.843  1.00  0.00     0.210 HD
ENDBRANCH  14  25
ENDBRANCH   7   8
ENDBRANCH   1   7
BRANCH   2  27
HETATM   27  N3  UNL     1     -32.679 -24.586  23.835  1.00  0.00    -0.072 N 
ATOM     28  H33 UNL     1     -32.275 -25.360  23.306  1.00  0.00     0.274 HD
ATOM     29  H32 UNL     1     -32.722 -25.022  24.756  1.00  0.00     0.274 HD
ATOM     30  H31 UNL     1     -33.611 -24.355  23.493  1.00  0.00     0.274 HD
ENDBRANCH   2  27
BRANCH   6  31
HETATM   31  N7  UNL     1     -32.334 -20.335  22.076  1.00  0.00    -0.219 N 
HETATM   32  C16 UNL     1     -31.601 -19.588  22.969  1.00  0.00     0.226 A 
HETATM   33  N8  UNL     1     -31.304 -18.393  22.448  1.00  0.00    -0.183 N 
HETATM   34  C17 UNL     1     -31.832 -18.351  21.234  1.00  0.00     0.713 A 
ATOM     35  H8  UNL     1     -30.771 -17.652  22.901  1.00  0.00     0.185 HD
HETATM   36  N10 UNL     1     -32.448 -19.539  21.039  1.00  0.00    -0.020 N 
BRANCH  34  37
HETATM   37  N9  UNL     1     -31.792 -17.382  20.366  1.00  0.00    -0.231 N 
ATOM     38  H92 UNL     1     -31.849 -17.501  19.354  1.00  0.00     0.174 HD
ATOM     39  H91 UNL     1     -31.700 -16.381  20.537  1.00  0.00     0.174 HD
ENDBRANCH  34  37
BRANCH  36  40
HETATM   40  N11 UNL     1     -33.106 -19.843  19.871  1.00  0.00    -0.309 N 
ATOM     41 2H11 UNL     1     -33.592 -20.729  19.733  1.00  0.00     0.179 HD
ATOM     42 1H11 UNL     1     -33.174 -19.234  19.055  1.00  0.00     0.179 HD
ENDBRANCH  36  40
ENDBRANCH   6  31
BRANCH   5  43
HETATM   43  N5  UNL     1     -34.834 -20.691  23.272  1.00  0.00    -0.062 N 
ATOM     44  H52 UNL     1     -35.330 -20.490  24.140  1.00  0.00     0.278 HD
ATOM     45  H51 UNL     1     -34.390 -19.784  23.128  1.00  0.00     0.278 HD
BRANCH  43  46
HETATM   46  C13 UNL     1     -35.766 -21.007  22.187  1.00  0.00     0.260 C 
BRANCH  46  47
HETATM   47  C14 UNL     1     -36.305 -19.772  21.537  1.00  0.00     0.257 C 
BRANCH  47  48
HETATM   48  N6  UNL     1     -35.666 -18.603  22.066  1.00  0.00    -0.078 N 
ATOM     49  H63 UNL     1     -35.147 -18.098  21.348  1.00  0.00     0.274 HD
ATOM     50  H62 UNL     1     -36.342 -17.878  22.304  1.00  0.00     0.274 HD
ATOM     51  H61 UNL     1     -35.075 -18.845  22.861  1.00  0.00     0.274 HD
ENDBRANCH  47  48
ENDBRANCH  46  47
ENDBRANCH  43  46
ENDBRANCH   5  43
BRANCH   4  52
HETATM   52  N4  UNL     1     -33.210 -20.456  25.469  1.00  0.00    -0.073 N 
ATOM     53  H43 UNL     1     -34.093 -20.098  25.832  1.00  0.00     0.274 HD
ATOM     54  H42 UNL     1     -32.693 -20.522  26.346  1.00  0.00     0.274 HD
ATOM     55  H41 UNL     1     -32.772 -19.795  24.827  1.00  0.00     0.274 HD
ENDBRANCH   4  52
TORSDOF 15
ENDMDL
MODEL 2
REMARK VINA RESULT: -5.387446840      2.099      4.634
REMARK  15 active torsions:
REMARK  status: ('A' for Active; 'I' for Inactive)
REMARK    1  A    between atoms: O1_2  and  C2_3 
REMARK    2  A    between atoms: C3_4  and  N1_5 
REMARK    3  A    between atoms: C5_10  and  N2_11 
REMARK    4  A    between atoms: C7_16  and  O2_17 
REMARK    5  A    between atoms: O2_17  and  C8_18 
REMARK    6  A    between atoms: C9_19  and  N3_20 
REMARK    7  A    between atoms: C11_25  and  N4_26 
REMARK    8  A    between atoms: C12_30  and  N5_31 
REMARK    9  A    between atoms: N5_31  and  C13_34 
REMARK   10  A    between atoms: C13_34  and  C14_35 
REMARK   11  A    between atoms: C14_35  and  N6_36 
REMARK   12  A    between atoms: C15_40  and  N7_41 
REMARK   13  A    between atoms: C17_45  and  N9_46 
REMARK   14  A    between atoms: N10_49  and  N11_50 
REMARK   15  A    between atoms: C18_53  and  O3_54 
ROOT
HETATM    1  C8  UNL     1     -33.928 -23.022  20.337  1.00  0.00     0.202 C 
HETATM    2  C9  UNL     1     -34.710 -21.896  19.755  1.00  0.00     0.220 C 
HETATM    3  C10 UNL     1     -34.934 -20.704  20.629  1.00  0.00     0.071 C 
HETATM    4  C11 UNL     1     -33.689 -20.211  21.325  1.00  0.00     0.222 C 
HETATM    5  C12 UNL     1     -32.531 -21.118  21.183  1.00  0.00     0.266 C 
HETATM    6  C15 UNL     1     -32.845 -22.605  21.280  1.00  0.00     0.079 C 
ENDROOT
BRANCH   1   7
HETATM    7  O2  UNL     1     -33.398 -23.687  19.192  1.00  0.00    -0.370 OA
BRANCH   7   8
HETATM    8  C7  UNL     1     -33.112 -25.009  19.401  1.00  0.00     0.155 C 
HETATM    9  C6  UNL     1     -31.704 -25.246  18.901  1.00  0.00     0.067 C 
HETATM   10  C5  UNL     1     -31.631 -25.478  17.415  1.00  0.00     0.188 C 
HETATM   11  C4  UNL     1     -32.003 -26.860  17.007  1.00  0.00     0.068 C 
HETATM   12  C3  UNL     1     -33.458 -27.097  16.815  1.00  0.00     0.216 C 
HETATM   13  C2  UNL     1     -34.251 -25.959  17.370  1.00  0.00     0.182 C 
HETATM   14  C18 UNL     1     -34.095 -25.991  18.870  1.00  0.00     0.178 C 
BRANCH  10  15
HETATM   15  N2  UNL     1     -30.194 -25.334  17.086  1.00  0.00    -0.075 N 
ATOM     16  H23 UNL     1     -29.601 -26.030  17.537  1.00  0.00     0.274 HD
ATOM     17  H22 UNL     1     -29.968 -25.585  16.124  1.00  0.00     0.274 HD
ATOM     18  H21 UNL     1     -29.950 -24.372  17.325  1.00  0.00     0.274 HD
ENDBRANCH  10  15
BRANCH  12  19
HETATM   19  N1  UNL     1     -33.811 -27.429  15.452  1.00  0.00    -0.072 N 
ATOM     20  H13 UNL     1     -34.702 -27.923  15.419  1.00  0.00     0.274 HD
ATOM     21  H12 UNL     1     -34.063 -26.590  14.929  1.00  0.00     0.274 HD
ATOM     22  H11 UNL     1     -33.086 -27.956  14.965  1.00  0.00     0.274 HD
ENDBRANCH  12  19
BRANCH  13  23
HETATM   23  O1  UNL     1     -35.603 -26.267  17.064  1.00  0.00    -0.386 OA
HETATM   24  C1  UNL     1     -36.204 -25.297  16.298  1.00  0.00     0.202 C 
ENDBRANCH  13  23
BRANCH  14  25
HETATM   25  O3  UNL     1     -35.331 -25.797  19.441  1.00  0.00    -0.390 OA
ATOM     26  H3  UNL     1     -35.280 -26.039  20.358  1.00  0.00     0.210 HD
ENDBRANCH  14  25
ENDBRANCH   7   8
ENDBRANCH   1   7
BRANCH   2  27
HETATM   27  N3  UNL     1     -34.133 -21.399  18.518  1.00  0.00    -0.072 N 
ATOM     28  H33 UNL     1     -34.161 -22.111  17.787  1.00  0.00     0.274 HD
ATOM     29  H32 UNL     1     -34.736 -20.698  18.086  1.00  0.00     0.274 HD
ATOM     30  H31 UNL     1     -33.187 -21.041  18.645  1.00  0.00     0.274 HD
ENDBRANCH   2  27
BRANCH   6  31
HETATM   31  N7  UNL     1     -32.863 -23.126  22.603  1.00  0.00    -0.219 N 
HETATM   32  C16 UNL     1     -33.977 -23.040  23.404  1.00  0.00     0.226 A 
HETATM   33  N8  UNL     1     -33.742 -23.599  24.595  1.00  0.00    -0.183 N 
HETATM   34  C17 UNL     1     -32.496 -24.047  24.581  1.00  0.00     0.713 A 
ATOM     35  H8  UNL     1     -34.400 -23.669  25.371  1.00  0.00     0.185 HD
HETATM   36  N10 UNL     1     -31.991 -23.745  23.363  1.00  0.00    -0.020 N 
BRANCH  34  37
HETATM   37  N9  UNL     1     -31.844 -24.660  25.527  1.00  0.00    -0.231 N 
ATOM     38  H92 UNL     1     -31.987 -25.632  25.798  1.00  0.00     0.174 HD
ATOM     39  H91 UNL     1     -31.110 -24.293  26.132  1.00  0.00     0.174 HD
ENDBRANCH  34  37
BRANCH  36  40
HETATM   40  N11 UNL     1     -30.706 -24.070  22.999  1.00  0.00    -0.309 N 
ATOM     41 2H11 UNL     1     -30.209 -23.579  22.256  1.00  0.00     0.179 HD
ATOM     42 1H11 UNL     1     -30.140 -24.805  23.422  1.00  0.00     0.179 HD
ENDBRANCH  36  40
ENDBRANCH   6  31
BRANCH   5  43
HETATM   43  N5  UNL     1     -31.478 -20.757  22.078  1.00  0.00    -0.062 N 
ATOM     44  H52 UNL     1     -31.841 -20.515  23.000  1.00  0.00     0.278 HD
ATOM     45  H51 UNL     1     -30.915 -21.568  22.335  1.00  0.00     0.278 HD
BRANCH  43  46
HETATM   46  C13 UNL     1     -30.647 -19.681  21.532  1.00  0.00     0.260 C 
BRANCH  46  47
HETATM   47  C14 UNL     1     -30.597 -18.497  22.446  1.00  0.00     0.257 C 
BRANCH  47  48
HETATM   48  N6  UNL     1     -31.366 -17.413  21.910  1.00  0.00    -0.078 N 
ATOM     49  H63 UNL     1     -31.004 -17.103  21.008  1.00  0.00     0.274 HD
ATOM     50  H62 UNL     1     -32.290 -17.718  21.606  1.00  0.00     0.274 HD
ATOM     51  H61 UNL     1     -31.421 -16.646  22.579  1.00  0.00     0.274 HD
ENDBRANCH  47  48
ENDBRANCH  46  47
ENDBRANCH  43  46
ENDBRANCH   5  43
BRANCH   4  52
HETATM   52  N4  UNL     1     -33.974 -19.803  22.693  1.00  0.00    -0.073 N 
ATOM     53  H43 UNL     1     -34.421 -20.552  23.222  1.00  0.00     0.274 HD
ATOM     54  H42 UNL     1     -33.120 -19.711  23.243  1.00  0.00     0.274 HD
ATOM     55  H41 UNL     1     -34.527 -18.946  22.716  1.00  0.00     0.274 HD
ENDBRANCH   4  52
TORSDOF 15
ENDMDL
MODEL 3
REMARK VINA RESULT: -5.096783008      1.877      2.659
REMARK  15 active torsions:
REMARK  status: ('A' for Active; 'I' for Inactive)
REMARK    1  A    between atoms: O1_2  and  C2_3 
REMARK    2  A    between atoms: C3_4  and  N1_5 
REMARK    3  A    between atoms: C5_10  and  N2_11 
REMARK    4  A    between atoms: C7_16  and  O2_17 
REMARK    5  A    between atoms: O2_17  and  C8_18 
REMARK    6  A    between atoms: C9_19  and  N3_20 
REMARK    7  A    between atoms: C11_25  and  N4_26 
REMARK    8  A    between atoms: C12_30  and  N5_31 
REMARK    9  A    between atoms: N5_31  and  C13_34 
REMARK   10  A    between atoms: C13_34  and  C14_35 
REMARK   11  A    between atoms: C14_35  and  N6_36 
REMARK   12  A    between atoms: C15_40  and  N7_41 
REMARK   13  A    between atoms: C17_45  and  N9_46 
REMARK   14  A    between atoms: N10_49  and  N11_50 
REMARK   15  A    between atoms: C18_53  and  O3_54 
ROOT
HETATM    1  C8  UNL     1     -32.853 -23.082  22.580  1.00  0.00     0.202 C 
HETATM    2  C9  UNL     1     -33.059 -23.328  24.034  1.00  0.00     0.220 C 
HETATM    3  C10 UNL     1     -32.824 -22.174  24.955  1.00  0.00     0.071 C 
HETATM    4  C11 UNL     1     -33.484 -20.892  24.512  1.00  0.00     0.222 C 
HETATM    5  C12 UNL     1     -34.057 -20.957  23.152  1.00  0.00     0.266 C 
HETATM    6  C15 UNL     1     -33.221 -21.707  22.122  1.00  0.00     0.079 C 
ENDROOT
BRANCH   1   7
HETATM    7  O2  UNL     1     -33.663 -24.077  21.956  1.00  0.00    -0.370 OA
BRANCH   7   8
HETATM    8  C7  UNL     1     -32.953 -25.135  21.454  1.00  0.00     0.155 C 
HETATM    9  C6  UNL     1     -31.790 -24.562  20.674  1.00  0.00     0.067 C 
HETATM   10  C5  UNL     1     -32.156 -24.158  19.270  1.00  0.00     0.188 C 
HETATM   11  C4  UNL     1     -32.226 -25.300  18.318  1.00  0.00     0.068 C 
HETATM   12  C3  UNL     1     -33.526 -26.019  18.282  1.00  0.00     0.216 C 
HETATM   13  C2  UNL     1     -34.381 -25.614  19.439  1.00  0.00     0.182 C 
HETATM   14  C18 UNL     1     -33.728 -26.148  20.690  1.00  0.00     0.178 C 
BRANCH  10  15
HETATM   15  N2  UNL     1     -31.020 -23.324  18.816  1.00  0.00    -0.075 N 
ATOM     16  H23 UNL     1     -30.444 -22.968  19.579  1.00  0.00     0.274 HD
ATOM     17  H22 UNL     1     -30.285 -23.854  18.347  1.00  0.00     0.274 HD
ATOM     18  H21 UNL     1     -31.428 -22.591  18.235  1.00  0.00     0.274 HD
ENDBRANCH  10  15
BRANCH  12  19
HETATM   19  N1  UNL     1     -34.204 -25.919  17.009  1.00  0.00    -0.072 N 
ATOM     20  H13 UNL     1     -35.155 -26.280  17.075  1.00  0.00     0.274 HD
ATOM     21  H12 UNL     1     -34.408 -24.945  16.783  1.00  0.00     0.274 HD
ATOM     22  H11 UNL     1     -33.698 -26.370  16.246  1.00  0.00     0.274 HD
ENDBRANCH  12  19
BRANCH  13  23
HETATM   23  O1  UNL     1     -35.606 -26.306  19.255  1.00  0.00    -0.386 OA
HETATM   24  C1  UNL     1     -36.691 -25.463  19.246  1.00  0.00     0.202 C 
ENDBRANCH  13  23
BRANCH  14  25
HETATM   25  O3  UNL     1     -34.701 -26.713  21.482  1.00  0.00    -0.390 OA
ATOM     26  H3  UNL     1     -35.015 -26.053  22.089  1.00  0.00     0.210 HD
ENDBRANCH  14  25
ENDBRANCH   7   8
ENDBRANCH   1   7
BRANCH   2  27
HETATM   27  N3  UNL     1     -34.390 -23.830  24.330  1.00  0.00    -0.072 N 
ATOM     28  H33 UNL     1     -34.839 -24.199  23.491  1.00  0.00     0.274 HD
ATOM     29  H32 UNL     1     -34.346 -24.686  24.882  1.00  0.00     0.274 HD
ATOM     30  H31 UNL     1     -34.979 -23.131  24.783  1.00  0.00     0.274 HD
ENDBRANCH   2  27
BRANCH   6  31
HETATM   31  N7  UNL     1     -32.230 -20.922  21.472  1.00  0.00    -0.219 N 
HETATM   32  C16 UNL     1     -30.979 -20.736  22.013  1.00  0.00     0.226 A 
HETATM   33  N8  UNL     1     -30.235 -19.962  21.216  1.00  0.00    -0.183 N 
HETATM   34  C17 UNL     1     -30.980 -19.645  20.169  1.00  0.00     0.713 A 
ATOM     35  H8  UNL     1     -29.272 -19.671  21.384  1.00  0.00     0.185 HD
HETATM   36  N10 UNL     1     -32.180 -20.240  20.354  1.00  0.00    -0.020 N 
BRANCH  34  37
HETATM   37  N9  UNL     1     -30.663 -18.909  19.142  1.00  0.00    -0.231 N 
ATOM     38  H92 UNL     1     -30.440 -19.268  18.214  1.00  0.00     0.174 HD
ATOM     39  H91 UNL     1     -30.586 -17.894  19.089  1.00  0.00     0.174 HD
ENDBRANCH  34  37
BRANCH  36  40
HETATM   40  N11 UNL     1     -33.206 -20.122  19.446  1.00  0.00    -0.309 N 
ATOM     41 2H11 UNL     1     -34.169 -20.367  19.677  1.00  0.00     0.179 HD
ATOM     42 1H11 UNL     1     -33.112 -19.788  18.487  1.00  0.00     0.179 HD
ENDBRANCH  36  40
ENDBRANCH   6  31
BRANCH   5  43
HETATM   43  N5  UNL     1     -34.412 -19.658  22.676  1.00  0.00    -0.062 N 
ATOM     44  H52 UNL     1     -34.375 -18.966  23.424  1.00  0.00     0.278 HD
ATOM     45  H51 UNL     1     -33.689 -19.276  22.067  1.00  0.00     0.278 HD
BRANCH  43  46
HETATM   46  C13 UNL     1     -35.720 -19.661  22.015  1.00  0.00     0.260 C 
BRANCH  46  47
HETATM   47  C14 UNL     1     -36.630 -18.615  22.577  1.00  0.00     0.257 C 
BRANCH  47  48
HETATM   48  N6  UNL     1     -36.291 -17.321  22.063  1.00  0.00    -0.078 N 
ATOM     49  H63 UNL     1     -35.409 -16.981  22.446  1.00  0.00     0.274 HD
ATOM     50  H62 UNL     1     -36.023 -17.363  21.080  1.00  0.00     0.274 HD
ATOM     51  H61 UNL     1     -37.052 -16.661  22.220  1.00  0.00     0.274 HD
ENDBRANCH  47  48
ENDBRANCH  46  47
ENDBRANCH  43  46
ENDBRANCH   5  43
BRANCH   4  52
HETATM   52  N4  UNL     1     -32.621 -19.743  24.751  1.00  0.00    -0.073 N 
ATOM     53  H43 UNL     1     -33.161 -18.915  25.003  1.00  0.00     0.274 HD
ATOM     54  H42 UNL     1     -32.084 -19.850  25.612  1.00  0.00     0.274 HD
ATOM     55  H41 UNL     1     -32.013 -19.565  23.952  1.00  0.00     0.274 HD
ENDBRANCH   4  52
TORSDOF 15
ENDMDL
MODEL 4
REMARK VINA RESULT: -5.043394479      2.551      4.680
REMARK  15 active torsions:
REMARK  status: ('A' for Active; 'I' for Inactive)
REMARK    1  A    between atoms: O1_2  and  C2_3 
REMARK    2  A    between atoms: C3_4  and  N1_5 
REMARK    3  A    between atoms: C5_10  and  N2_11 
REMARK    4  A    between atoms: C7_16  and  O2_17 
REMARK    5  A    between atoms: O2_17  and  C8_18 
REMARK    6  A    between atoms: C9_19  and  N3_20 
REMARK    7  A    between atoms: C11_25  and  N4_26 
REMARK    8  A    between atoms: C12_30  and  N5_31 
REMARK    9  A    between atoms: N5_31  and  C13_34 
REMARK   10  A    between atoms: C13_34  and  C14_35 
REMARK   11  A    between atoms: C14_35  and  N6_36 
REMARK   12  A    between atoms: C15_40  and  N7_41 
REMARK   13  A    between atoms: C17_45  and  N9_46 
REMARK   14  A    between atoms: N10_49  and  N11_50 
REMARK   15  A    between atoms: C18_53  and  O3_54 
ROOT
HETATM    1  C8  UNL     1     -35.085 -23.336  19.735  1.00  0.00     0.202 C 
HETATM    2  C9  UNL     1     -36.301 -22.766  19.091  1.00  0.00     0.220 C 
HETATM    3  C10 UNL     1     -36.919 -21.574  19.747  1.00  0.00     0.071 C 
HETATM    4  C11 UNL     1     -35.930 -20.494  20.113  1.00  0.00     0.222 C 
HETATM    5  C12 UNL     1     -34.519 -20.902  19.953  1.00  0.00     0.266 C 
HETATM    6  C15 UNL     1     -34.193 -22.326  20.384  1.00  0.00     0.079 C 
ENDROOT
BRANCH   1   7
HETATM    7  O2  UNL     1     -34.425 -24.009  18.665  1.00  0.00    -0.370 OA
BRANCH   7   8
HETATM    8  C7  UNL     1     -33.843 -25.193  19.029  1.00  0.00     0.155 C 
HETATM    9  C6  UNL     1     -32.352 -25.041  18.819  1.00  0.00     0.067 C 
HETATM   10  C5  UNL     1     -31.924 -25.283  17.396  1.00  0.00     0.188 C 
HETATM   11  C4  UNL     1     -31.822 -26.724  17.039  1.00  0.00     0.068 C 
HETATM   12  C3  UNL     1     -33.091 -27.361  16.600  1.00  0.00     0.216 C 
HETATM   13  C2  UNL     1     -34.255 -26.476  16.905  1.00  0.00     0.182 C 
HETATM   14  C18 UNL     1     -34.399 -26.423  18.406  1.00  0.00     0.178 C 
BRANCH  10  15
HETATM   15  N2  UNL     1     -30.543 -24.753  17.329  1.00  0.00    -0.075 N 
ATOM     16  H23 UNL     1     -30.433 -23.842  17.775  1.00  0.00     0.274 HD
ATOM     17  H22 UNL     1     -29.882 -25.259  17.918  1.00  0.00     0.274 HD
ATOM     18  H21 UNL     1     -30.292 -24.756  16.340  1.00  0.00     0.274 HD
ENDBRANCH  10  15
BRANCH  12  19
HETATM   19  N1  UNL     1     -33.062 -27.814  15.226  1.00  0.00    -0.072 N 
ATOM     20  H13 UNL     1     -32.132 -27.698  14.826  1.00  0.00     0.274 HD
ATOM     21  H12 UNL     1     -33.141 -28.829  15.178  1.00  0.00     0.274 HD
ATOM     22  H11 UNL     1     -33.768 -27.366  14.640  1.00  0.00     0.274 HD
ENDBRANCH  12  19
BRANCH  13  23
HETATM   23  O1  UNL     1     -35.386 -27.155  16.380  1.00  0.00    -0.386 OA
HETATM   24  C1  UNL     1     -36.102 -26.383  15.498  1.00  0.00     0.202 C 
ENDBRANCH  13  23
BRANCH  14  25
HETATM   25  O3  UNL     1     -35.731 -26.567  18.721  1.00  0.00    -0.390 OA
ATOM     26  H3  UNL     1     -35.797 -26.864  19.621  1.00  0.00     0.210 HD
ENDBRANCH  14  25
ENDBRANCH   7   8
ENDBRANCH   1   7
BRANCH   2  27
HETATM   27  N3  UNL     1     -36.077 -22.405  17.702  1.00  0.00    -0.072 N 
ATOM     28  H33 UNL     1     -35.624 -23.165  17.193  1.00  0.00     0.274 HD
ATOM     29  H32 UNL     1     -36.956 -22.363  17.186  1.00  0.00     0.274 HD
ATOM     30  H31 UNL     1     -35.552 -21.536  17.605  1.00  0.00     0.274 HD
ENDBRANCH   2  27
BRANCH   6  31
HETATM   31  N7  UNL     1     -33.892 -22.477  21.764  1.00  0.00    -0.219 N 
HETATM   32  C16 UNL     1     -34.876 -22.650  22.710  1.00  0.00     0.226 A 
HETATM   33  N8  UNL     1     -34.339 -22.766  23.929  1.00  0.00    -0.183 N 
HETATM   34  C17 UNL     1     -33.026 -22.673  23.791  1.00  0.00     0.713 A 
ATOM     35  H8  UNL     1     -34.847 -22.902  24.803  1.00  0.00     0.185 HD
HETATM   36  N10 UNL     1     -32.787 -22.499  22.471  1.00  0.00    -0.020 N 
BRANCH  34  37
HETATM   37  N9  UNL     1     -32.108 -22.732  24.713  1.00  0.00    -0.231 N 
ATOM     38  H92 UNL     1     -32.269 -22.576  25.708  1.00  0.00     0.174 HD
ATOM     39  H91 UNL     1     -31.114 -22.935  24.607  1.00  0.00     0.174 HD
ENDBRANCH  34  37
BRANCH  36  40
HETATM   40  N11 UNL     1     -31.515 -22.365  21.966  1.00  0.00    -0.309 N 
ATOM     41 2H11 UNL     1     -30.770 -21.898  22.482  1.00  0.00     0.179 HD
ATOM     42 1H11 UNL     1     -31.201 -22.709  21.059  1.00  0.00     0.179 HD
ENDBRANCH  36  40
ENDBRANCH   6  31
BRANCH   5  43
HETATM   43  N5  UNL     1     -33.635 -19.965  20.569  1.00  0.00    -0.062 N 
ATOM     44  H52 UNL     1     -34.092 -19.066  20.718  1.00  0.00     0.278 HD
ATOM     45  H51 UNL     1     -33.450 -20.214  21.541  1.00  0.00     0.278 HD
BRANCH  43  46
HETATM   46  C13 UNL     1     -32.391 -19.812  19.811  1.00  0.00     0.260 C 
BRANCH  46  47
HETATM   47  C14 UNL     1     -31.463 -18.831  20.455  1.00  0.00     0.257 C 
BRANCH  47  48
HETATM   48  N6  UNL     1     -32.201 -17.834  21.172  1.00  0.00    -0.078 N 
ATOM     49  H63 UNL     1     -31.984 -17.847  22.169  1.00  0.00     0.274 HD
ATOM     50  H62 UNL     1     -31.872 -16.893  20.957  1.00  0.00     0.274 HD
ATOM     51  H61 UNL     1     -33.201 -17.934  21.001  1.00  0.00     0.274 HD
ENDBRANCH  47  48
ENDBRANCH  46  47
ENDBRANCH  43  46
ENDBRANCH   5  43
BRANCH   4  52
HETATM   52  N4  UNL     1     -36.246 -19.905  21.407  1.00  0.00    -0.073 N 
ATOM     53  H43 UNL     1     -36.401 -18.899  21.331  1.00  0.00     0.274 HD
ATOM     54  H42 UNL     1     -37.173 -20.183  21.730  1.00  0.00     0.274 HD
ATOM     55  H41 UNL     1     -35.529 -20.123  22.099  1.00  0.00     0.274 HD
ENDBRANCH   4  52
TORSDOF 15
ENDMDL
MODEL 5
REMARK VINA RESULT: -5.025222419      3.097      6.487
REMARK  15 active torsions:
REMARK  status: ('A' for Active; 'I' for Inactive)
REMARK    1  A    between atoms: O1_2  and  C2_3 
REMARK    2  A    between atoms: C3_4  and  N1_5 
REMARK    3  A    between atoms: C5_10  and  N2_11 
REMARK    4  A    between atoms: C7_16  and  O2_17 
REMARK    5  A    between atoms: O2_17  and  C8_18 
REMARK    6  A    between atoms: C9_19  and  N3_20 
REMARK    7  A    between atoms: C11_25  and  N4_26 
REMARK    8  A    between atoms: C12_30  and  N5_31 
REMARK    9  A    between atoms: N5_31  and  C13_34 
REMARK   10  A    between atoms: C13_34  and  C14_35 
REMARK   11  A    between atoms: C14_35  and  N6_36 
REMARK   12  A    between atoms: C15_40  and  N7_41 
REMARK   13  A    between atoms: C17_45  and  N9_46 
REMARK   14  A    between atoms: N10_49  and  N11_50 
REMARK   15  A    between atoms: C18_53  and  O3_54 
ROOT
HETATM    1  C8  UNL     1     -34.440 -20.366  20.540  1.00  0.00     0.202 C 
HETATM    2  C9  UNL     1     -34.620 -21.376  19.461  1.00  0.00     0.220 C 
HETATM    3  C10 UNL     1     -33.379 -21.959  18.865  1.00  0.00     0.071 C 
HETATM    4  C11 UNL     1     -32.365 -22.414  19.885  1.00  0.00     0.222 C 
HETATM    5  C12 UNL     1     -32.689 -22.008  21.268  1.00  0.00     0.266 C 
HETATM    6  C15 UNL     1     -33.258 -20.603  21.424  1.00  0.00     0.079 C 
ENDROOT
BRANCH   1   7
HETATM    7  O2  UNL     1     -35.663 -20.435  21.270  1.00  0.00    -0.370 OA
BRANCH   7   8
HETATM    8  C7  UNL     1     -35.567 -19.983  22.559  1.00  0.00     0.155 C 
HETATM    9  C6  UNL     1     -35.836 -21.164  23.467  1.00  0.00     0.067 C 
HETATM   10  C5  UNL     1     -37.303 -21.426  23.682  1.00  0.00     0.188 C 
HETATM   11  C4  UNL     1     -37.933 -20.520  24.680  1.00  0.00     0.068 C 
HETATM   12  C3  UNL     1     -38.405 -19.216  24.147  1.00  0.00     0.216 C 
HETATM   13  C2  UNL     1     -37.866 -18.986  22.773  1.00  0.00     0.182 C 
HETATM   14  C18 UNL     1     -36.376 -18.784  22.902  1.00  0.00     0.178 C 
BRANCH  10  15
HETATM   15  N2  UNL     1     -37.354 -22.781  24.278  1.00  0.00    -0.075 N 
ATOM     16  H23 UNL     1     -38.160 -22.929  24.886  1.00  0.00     0.274 HD
ATOM     17  H22 UNL     1     -37.572 -23.516  23.605  1.00  0.00     0.274 HD
ATOM     18  H21 UNL     1     -36.458 -22.912  24.748  1.00  0.00     0.274 HD
ENDBRANCH  10  15
BRANCH  12  19
HETATM   19  N1  UNL     1     -39.838 -19.044  24.235  1.00  0.00    -0.072 N 
ATOM     20  H13 UNL     1     -40.269 -19.115  23.313  1.00  0.00     0.274 HD
ATOM     21  H12 UNL     1     -40.273 -19.849  24.686  1.00  0.00     0.274 HD
ATOM     22  H11 UNL     1     -40.113 -18.177  24.697  1.00  0.00     0.274 HD
ENDBRANCH  12  19
BRANCH  13  23
HETATM   23  O1  UNL     1     -38.439 -17.758  22.351  1.00  0.00    -0.386 OA
HETATM   24  C1  UNL     1     -39.114 -17.873  21.160  1.00  0.00     0.202 C 
ENDBRANCH  13  23
BRANCH  14  25
HETATM   25  O3  UNL     1     -36.013 -17.714  22.119  1.00  0.00    -0.390 OA
ATOM     26  H3  UNL     1     -35.065 -17.696  22.055  1.00  0.00     0.210 HD
ENDBRANCH  14  25
ENDBRANCH   7   8
ENDBRANCH   1   7
BRANCH   2  27
HETATM   27  N3  UNL     1     -35.444 -22.497  19.881  1.00  0.00    -0.072 N 
ATOM     28  H33 UNL     1     -36.424 -22.341  19.646  1.00  0.00     0.274 HD
ATOM     29  H32 UNL     1     -35.266 -23.320  19.305  1.00  0.00     0.274 HD
ATOM     30  H31 UNL     1     -35.334 -22.712  20.872  1.00  0.00     0.274 HD
ENDBRANCH   2  27
BRANCH   6  31
HETATM   31  N7  UNL     1     -32.284 -19.575  21.542  1.00  0.00    -0.219 N 
HETATM   32  C16 UNL     1     -31.745 -18.953  20.440  1.00  0.00     0.226 A 
HETATM   33  N8  UNL     1     -30.855 -18.028  20.813  1.00  0.00    -0.183 N 
HETATM   34  C17 UNL     1     -30.808 -18.038  22.137  1.00  0.00     0.713 A 
ATOM     35  H8  UNL     1     -30.313 -17.426  20.194  1.00  0.00     0.185 HD
HETATM   36  N10 UNL     1     -31.682 -18.984  22.547  1.00  0.00    -0.020 N 
BRANCH  34  37
HETATM   37  N9  UNL     1     -30.080 -17.303  22.927  1.00  0.00    -0.231 N 
ATOM     38  H92 UNL     1     -30.445 -16.702  23.666  1.00  0.00     0.174 HD
ATOM     39  H91 UNL     1     -29.065 -17.204  22.946  1.00  0.00     0.174 HD
ENDBRANCH  34  37
BRANCH  36  40
HETATM   40  N11 UNL     1     -31.892 -19.264  23.877  1.00  0.00    -0.309 N 
ATOM     41 2H11 UNL     1     -32.788 -19.601  24.229  1.00  0.00     0.179 HD
ATOM     42 1H11 UNL     1     -31.197 -19.168  24.618  1.00  0.00     0.179 HD
ENDBRANCH  36  40
ENDBRANCH   6  31
BRANCH   5  43
HETATM   43  N5  UNL     1     -31.579 -22.211  22.143  1.00  0.00    -0.062 N 
ATOM     44  H52 UNL     1     -30.765 -22.558  21.635  1.00  0.00     0.278 HD
ATOM     45  H51 UNL     1     -31.197 -21.324  22.470  1.00  0.00     0.278 HD
BRANCH  43  46
HETATM   46  C13 UNL     1     -31.923 -23.090  23.263  1.00  0.00     0.260 C 
BRANCH  46  47
HETATM   47  C14 UNL     1     -31.667 -24.528  22.942  1.00  0.00     0.257 C 
BRANCH  47  48
HETATM   48  N6  UNL     1     -30.268 -24.826  23.036  1.00  0.00    -0.078 N 
ATOM     49  H63 UNL     1     -30.105 -25.803  23.280  1.00  0.00     0.274 HD
ATOM     50  H62 UNL     1     -29.817 -24.819  22.122  1.00  0.00     0.274 HD
ATOM     51  H61 UNL     1     -29.809 -24.191  23.689  1.00  0.00     0.274 HD
ENDBRANCH  47  48
ENDBRANCH  46  47
ENDBRANCH  43  46
ENDBRANCH   5  43
BRANCH   4  52
HETATM   52  N4  UNL     1     -31.009 -22.093  19.463  1.00  0.00    -0.073 N 
ATOM     53  H43 UNL     1     -30.484 -22.933  19.218  1.00  0.00     0.274 HD
ATOM     54  H42 UNL     1     -30.999 -21.631  18.553  1.00  0.00     0.274 HD
ATOM     55  H41 UNL     1     -30.522 -21.539  20.168  1.00  0.00     0.274 HD
ENDBRANCH   4  52
TORSDOF 15
ENDMDL
