MODEL 1
REMARK VINA RESULT: -8.747574888      0.000      0.000
REMARK  11 active torsions:
REMARK  status: ('A' for Active; 'I' for Inactive)
REMARK    1  A    between atoms: C1_2  and  C2_4 
REMARK    2  A    between atoms: C3_7  and  C4_8 
REMARK    3  A    between atoms: C4_8  and  N3_9 
REMARK    4  A    between atoms: C4_8  and  N4_13 
REMARK    5  A    between atoms: C5_19  and  N6_20 
REMARK       I    between atoms: N6_20  and  C6_22 
REMARK       I    between atoms: C6_22  and  N7_23 
REMARK       I    between atoms: C6_22  and  N8_27 
REMARK    6  A    between atoms: C7_31  and  C8_32 
REMARK    7  A    between atoms: C8_32  and  N9_33 
REMARK    8  A    between atoms: C10_35  and  C11_36 
REMARK    9  A    between atoms: C15_41  and  C16_42 
REMARK   10  A    between atoms: C16_42  and  O3_43 
REMARK   11  A    between atoms: C16_42  and  O4_45 
ROOT
HETATM    1  C2  UNL     1     -31.110 -18.090  20.771  1.00  0.00     0.111 A 
HETATM    2  N2  UNL     1     -30.437 -17.636  21.889  1.00  0.00    -0.338 N 
ATOM      3  H2  UNL     1     -29.738 -16.904  21.760  1.00  0.00     0.167 HD
HETATM    4  C3  UNL     1     -30.641 -18.089  23.118  1.00  0.00     0.142 A 
HETATM    5  N5  UNL     1     -31.564 -19.046  23.262  1.00  0.00    -0.329 N 
ATOM      6  H5  UNL     1     -31.742 -19.411  24.197  1.00  0.00     0.168 HD
HETATM    7  C5  UNL     1     -32.264 -19.549  22.238  1.00  0.00     0.115 A 
HETATM    8  C7  UNL     1     -32.044 -19.075  20.956  1.00  0.00     0.037 A 
ENDROOT
BRANCH   8   9
HETATM    9  C8  UNL     1     -32.763 -19.745  19.864  1.00  0.00     0.194 C 
BRANCH   9  10
HETATM   10  N9  UNL     1     -32.111 -21.002  19.485  1.00  0.00    -0.282 N 
HETATM   11  C9  UNL     1     -32.733 -22.066  18.887  1.00  0.00     0.145 A 
HETATM   12  C10 UNL     1     -31.816 -23.096  18.678  1.00  0.00     0.100 A 
HETATM   13  N10 UNL     1     -30.660 -22.608  19.163  1.00  0.00    -0.282 N 
HETATM   14  N11 UNL     1     -30.874 -21.397  19.618  1.00  0.00    -0.240 N 
ATOM     15  H10 UNL     1     -29.766 -23.098  19.174  1.00  0.00     0.188 HD
ATOM     16  H11 UNL     1     -30.145 -20.819  20.036  1.00  0.00     0.208 HD
BRANCH  12  17
HETATM   17  C11 UNL     1     -32.068 -24.397  18.071  1.00  0.00     0.109 A 
HETATM   18  C12 UNL     1     -33.265 -25.047  18.278  1.00  0.00     0.094 A 
HETATM   19  C13 UNL     1     -33.537 -26.283  17.718  1.00  0.00     0.177 A 
HETATM   20  O2  UNL     1     -34.613 -26.890  17.890  1.00  0.00    -0.288 OA
HETATM   21  C14 UNL     1     -32.511 -26.820  16.931  1.00  0.00     0.092 A 
HETATM   22  C15 UNL     1     -31.327 -26.141  16.746  1.00  0.00     0.112 A 
HETATM   23  O5  UNL     1     -31.183 -24.974  17.329  1.00  0.00    -0.307 OA
BRANCH  22  24
HETATM   24  C16 UNL     1     -30.244 -26.729  15.904  1.00  0.00     0.312 C 
BRANCH  24  25
HETATM   25  O3  UNL     1     -30.205 -28.091  16.084  1.00  0.00    -0.365 OA
ATOM     26  H3  UNL     1     -29.443 -28.451  15.646  1.00  0.00     0.213 HD
ENDBRANCH  24  25
BRANCH  24  27
HETATM   27  O4  UNL     1     -29.039 -26.191  16.372  1.00  0.00    -0.365 OA
ATOM     28  H4  UNL     1     -28.409 -26.902  16.375  1.00  0.00     0.213 HD
ENDBRANCH  24  27
ENDBRANCH  22  24
ENDBRANCH  12  17
ENDBRANCH   9  10
ENDBRANCH   8   9
BRANCH   1  29
HETATM   29  C1  UNL     1     -30.803 -17.455  19.499  1.00  0.00     0.282 C 
HETATM   30  N1  UNL     1     -30.050 -17.945  18.429  1.00  0.00    -0.056 NA
HETATM   31  O1  UNL     1     -31.294 -16.285  19.327  1.00  0.00    -0.269 OA
ENDBRANCH   1  29
BRANCH   7  32
HETATM   32  N6  UNL     1     -33.149 -20.460  22.481  1.00  0.00    -0.327 N 
HETATM   33  C6  UNL     1     -32.974 -21.575  23.355  1.00  0.00     0.481 C 
HETATM   34  N7  UNL     1     -34.231 -22.266  23.617  1.00  0.00    -0.033 N 
HETATM   35  N8  UNL     1     -32.117 -22.554  22.696  1.00  0.00    -0.033 N 
ATOM     36  H73 UNL     1     -34.939 -21.624  23.974  1.00  0.00     0.278 HD
ATOM     37  H72 UNL     1     -34.689 -22.545  22.749  1.00  0.00     0.278 HD
ATOM     38  H71 UNL     1     -34.106 -23.063  24.241  1.00  0.00     0.278 HD
ATOM     39  H83 UNL     1     -32.471 -22.827  21.779  1.00  0.00     0.278 HD
ATOM     40  H82 UNL     1     -31.230 -22.154  22.390  1.00  0.00     0.278 HD
ATOM     41  H81 UNL     1     -31.992 -23.350  23.319  1.00  0.00     0.278 HD
ATOM     42  H6  UNL     1     -34.049 -20.374  22.008  1.00  0.00     0.164 HD
ENDBRANCH   7  32
BRANCH   4  43
HETATM   43  C4  UNL     1     -29.900 -17.583  24.307  1.00  0.00     0.444 C 
BRANCH  43  44
HETATM   44  N3  UNL     1     -30.766 -17.445  25.460  1.00  0.00    -0.043 N 
ATOM     45  H33 UNL     1     -31.324 -16.593  25.406  1.00  0.00     0.277 HD
ATOM     46  H32 UNL     1     -31.520 -18.131  25.442  1.00  0.00     0.277 HD
ATOM     47  H31 UNL     1     -30.242 -17.491  26.334  1.00  0.00     0.277 HD
ENDBRANCH  43  44
BRANCH  43  48
HETATM   48  N4  UNL     1     -29.149 -16.401  24.021  1.00  0.00    -0.043 N 
ATOM     49  H43 UNL     1     -28.630 -16.498  23.148  1.00  0.00     0.277 HD
ATOM     50  H42 UNL     1     -29.763 -15.629  23.761  1.00  0.00     0.277 HD
ATOM     51  H41 UNL     1     -28.531 -16.137  24.788  1.00  0.00     0.277 HD
ENDBRANCH  43  48
ENDBRANCH   4  43
TORSDOF 11
ENDMDL
MODEL 2
REMARK VINA RESULT: -8.415348282      1.379      2.258
REMARK  11 active torsions:
REMARK  status: ('A' for Active; 'I' for Inactive)
REMARK    1  A    between atoms: C1_2  and  C2_4 
REMARK    2  A    between atoms: C3_7  and  C4_8 
REMARK    3  A    between atoms: C4_8  and  N3_9 
REMARK    4  A    between atoms: C4_8  and  N4_13 
REMARK    5  A    between atoms: C5_19  and  N6_20 
REMARK       I    between atoms: N6_20  and  C6_22 
REMARK       I    between atoms: C6_22  and  N7_23 
REMARK       I    between atoms: C6_22  and  N8_27 
REMARK    6  A    between atoms: C7_31  and  C8_32 
REMARK    7  A    between atoms: C8_32  and  N9_33 
REMARK    8  A    between atoms: C10_35  and  C11_36 
REMARK    9  A    between atoms: C15_41  and  C16_42 
REMARK   10  A    between atoms: C16_42  and  O3_43 
REMARK   11  A    between atoms: C16_42  and  O4_45 
ROOT
HETATM    1  C2  UNL     1     -30.701 -18.961  21.002  1.00  0.00     0.111 A 
HETATM    2  N2  UNL     1     -30.081 -18.404  22.103  1.00  0.00    -0.338 N 
ATOM      3  H2  UNL     1     -29.134 -18.041  21.984  1.00  0.00     0.167 HD
HETATM    4  C3  UNL     1     -30.635 -18.310  23.303  1.00  0.00     0.142 A 
HETATM    5  N5  UNL     1     -31.876 -18.791  23.434  1.00  0.00    -0.329 N 
ATOM      6  H5  UNL     1     -32.327 -18.729  24.347  1.00  0.00     0.168 HD
HETATM    7  C5  UNL     1     -32.555 -19.349  22.425  1.00  0.00     0.115 A 
HETATM    8  C7  UNL     1     -31.970 -19.448  21.173  1.00  0.00     0.037 A 
ENDROOT
BRANCH   8   9
HETATM    9  C8  UNL     1     -32.724 -20.171  20.140  1.00  0.00     0.194 C 
BRANCH   9  10
HETATM   10  N9  UNL     1     -32.293 -21.569  20.042  1.00  0.00    -0.282 N 
HETATM   11  C9  UNL     1     -32.312 -22.323  18.898  1.00  0.00     0.145 A 
HETATM   12  C10 UNL     1     -31.843 -23.608  19.169  1.00  0.00     0.100 A 
HETATM   13  N10 UNL     1     -31.552 -23.580  20.483  1.00  0.00    -0.282 N 
HETATM   14  N11 UNL     1     -31.826 -22.384  20.947  1.00  0.00    -0.240 N 
ATOM     15  H10 UNL     1     -31.182 -24.358  21.026  1.00  0.00     0.188 HD
ATOM     16  H11 UNL     1     -31.688 -22.118  21.922  1.00  0.00     0.208 HD
BRANCH  12  17
HETATM   17  C11 UNL     1     -31.703 -24.717  18.233  1.00  0.00     0.109 A 
HETATM   18  C12 UNL     1     -30.480 -25.010  17.671  1.00  0.00     0.094 A 
HETATM   19  C13 UNL     1     -30.312 -26.055  16.780  1.00  0.00     0.177 A 
HETATM   20  O2  UNL     1     -29.216 -26.340  16.258  1.00  0.00    -0.288 OA
HETATM   21  C14 UNL     1     -31.471 -26.787  16.494  1.00  0.00     0.092 A 
HETATM   22  C15 UNL     1     -32.678 -26.464  17.075  1.00  0.00     0.112 A 
HETATM   23  O5  UNL     1     -32.714 -25.450  17.907  1.00  0.00    -0.307 OA
BRANCH  22  24
HETATM   24  C16 UNL     1     -33.902 -27.256  16.758  1.00  0.00     0.312 C 
BRANCH  24  25
HETATM   25  O3  UNL     1     -33.620 -28.172  15.773  1.00  0.00    -0.365 OA
ATOM     26  H3  UNL     1     -32.774 -27.977  15.386  1.00  0.00     0.213 HD
ENDBRANCH  24  25
BRANCH  24  27
HETATM   27  O4  UNL     1     -34.843 -26.349  16.254  1.00  0.00    -0.365 OA
ATOM     28  H4  UNL     1     -35.310 -26.801  15.561  1.00  0.00     0.213 HD
ENDBRANCH  24  27
ENDBRANCH  22  24
ENDBRANCH  12  17
ENDBRANCH   9  10
ENDBRANCH   8   9
BRANCH   1  29
HETATM   29  C1  UNL     1     -29.974 -18.945  19.742  1.00  0.00     0.282 C 
HETATM   30  N1  UNL     1     -30.157 -18.123  18.629  1.00  0.00    -0.056 NA
HETATM   31  O1  UNL     1     -29.025 -19.801  19.636  1.00  0.00    -0.269 OA
ENDBRANCH   1  29
BRANCH   7  32
HETATM   32  N6  UNL     1     -33.759 -19.767  22.644  1.00  0.00    -0.327 N 
HETATM   33  C6  UNL     1     -34.203 -20.435  23.826  1.00  0.00     0.481 C 
HETATM   34  N7  UNL     1     -35.657 -20.542  23.880  1.00  0.00    -0.033 N 
HETATM   35  N8  UNL     1     -33.708 -21.806  23.800  1.00  0.00    -0.033 N 
ATOM     36  H73 UNL     1     -36.099 -19.628  23.783  1.00  0.00     0.278 HD
ATOM     37  H72 UNL     1     -36.026 -20.989  23.041  1.00  0.00     0.278 HD
ATOM     38  H71 UNL     1     -35.973 -21.019  24.724  1.00  0.00     0.278 HD
ATOM     39  H83 UNL     1     -33.974 -22.301  22.949  1.00  0.00     0.278 HD
ATOM     40  H82 UNL     1     -32.697 -21.855  23.681  1.00  0.00     0.278 HD
ATOM     41  H81 UNL     1     -34.025 -22.283  24.644  1.00  0.00     0.278 HD
ATOM     42  H6  UNL     1     -34.450 -19.607  21.912  1.00  0.00     0.164 HD
ENDBRANCH   7  32
BRANCH   4  43
HETATM   43  C4  UNL     1     -29.944 -17.705  24.476  1.00  0.00     0.444 C 
BRANCH  43  44
HETATM   44  N3  UNL     1     -30.850 -17.501  25.587  1.00  0.00    -0.043 N 
ATOM     45  H33 UNL     1     -31.459 -18.307  25.723  1.00  0.00     0.277 HD
ATOM     46  H32 UNL     1     -30.355 -17.523  26.479  1.00  0.00     0.277 HD
ATOM     47  H31 UNL     1     -31.389 -16.642  25.483  1.00  0.00     0.277 HD
ENDBRANCH  43  44
BRANCH  43  48
HETATM   48  N4  UNL     1     -29.202 -16.533  24.129  1.00  0.00    -0.043 N 
ATOM     49  H43 UNL     1     -28.206 -16.664  24.304  1.00  0.00     0.277 HD
ATOM     50  H42 UNL     1     -29.175 -16.402  23.118  1.00  0.00     0.277 HD
ATOM     51  H41 UNL     1     -29.551 -15.698  24.598  1.00  0.00     0.277 HD
ENDBRANCH  43  48
ENDBRANCH   4  43
TORSDOF 11
ENDMDL
MODEL 3
REMARK VINA RESULT: -8.371611768      0.738      1.987
REMARK  11 active torsions:
REMARK  status: ('A' for Active; 'I' for Inactive)
REMARK    1  A    between atoms: C1_2  and  C2_4 
REMARK    2  A    between atoms: C3_7  and  C4_8 
REMARK    3  A    between atoms: C4_8  and  N3_9 
REMARK    4  A    between atoms: C4_8  and  N4_13 
REMARK    5  A    between atoms: C5_19  and  N6_20 
REMARK       I    between atoms: N6_20  and  C6_22 
REMARK       I    between atoms: C6_22  and  N7_23 
REMARK       I    between atoms: C6_22  and  N8_27 
REMARK    6  A    between atoms: C7_31  and  C8_32 
REMARK    7  A    between atoms: C8_32  and  N9_33 
REMARK    8  A    between atoms: C10_35  and  C11_36 
REMARK    9  A    between atoms: C15_41  and  C16_42 
REMARK   10  A    between atoms: C16_42  and  O3_43 
REMARK   11  A    between atoms: C16_42  and  O4_45 
ROOT
HETATM    1  C2  UNL     1     -31.133 -18.064  20.944  1.00  0.00     0.111 A 
HETATM    2  N2  UNL     1     -30.434 -17.559  22.023  1.00  0.00    -0.338 N 
ATOM      3  H2  UNL     1     -29.790 -16.785  21.855  1.00  0.00     0.167 HD
HETATM    4  C3  UNL     1     -30.547 -18.013  23.264  1.00  0.00     0.142 A 
HETATM    5  N5  UNL     1     -31.399 -19.026  23.460  1.00  0.00    -0.329 N 
ATOM      6  H5  UNL     1     -31.506 -19.393  24.405  1.00  0.00     0.168 HD
HETATM    7  C5  UNL     1     -32.116 -19.580  22.475  1.00  0.00     0.115 A 
HETATM    8  C7  UNL     1     -31.992 -19.104  21.181  1.00  0.00     0.037 A 
ENDROOT
BRANCH   8   9
HETATM    9  C8  UNL     1     -32.721 -19.828  20.131  1.00  0.00     0.194 C 
BRANCH   9  10
HETATM   10  N9  UNL     1     -31.930 -20.940  19.599  1.00  0.00    -0.282 N 
HETATM   11  C9  UNL     1     -32.443 -22.054  18.988  1.00  0.00     0.145 A 
HETATM   12  C10 UNL     1     -31.408 -22.910  18.614  1.00  0.00     0.100 A 
HETATM   13  N10 UNL     1     -30.294 -22.272  19.017  1.00  0.00    -0.282 N 
HETATM   14  N11 UNL     1     -30.640 -21.139  19.580  1.00  0.00    -0.240 N 
ATOM     15  H10 UNL     1     -29.340 -22.613  18.904  1.00  0.00     0.188 HD
ATOM     16  H11 UNL     1     -29.966 -20.477  19.966  1.00  0.00     0.208 HD
BRANCH  12  17
HETATM   17  C11 UNL     1     -31.522 -24.198  17.940  1.00  0.00     0.109 A 
HETATM   18  C12 UNL     1     -30.415 -24.793  17.374  1.00  0.00     0.094 A 
HETATM   19  C13 UNL     1     -30.488 -26.015  16.728  1.00  0.00     0.177 A 
HETATM   20  O2  UNL     1     -29.501 -26.573  16.208  1.00  0.00    -0.288 OA
HETATM   21  C14 UNL     1     -31.761 -26.596  16.693  1.00  0.00     0.092 A 
HETATM   22  C15 UNL     1     -32.844 -25.972  17.271  1.00  0.00     0.112 A 
HETATM   23  O5  UNL     1     -32.653 -24.813  17.856  1.00  0.00    -0.307 OA
BRANCH  22  24
HETATM   24  C16 UNL     1     -34.194 -26.607  17.223  1.00  0.00     0.312 C 
BRANCH  24  25
HETATM   25  O3  UNL     1     -34.154 -27.721  16.417  1.00  0.00    -0.365 OA
ATOM     26  H3  UNL     1     -34.287 -28.501  16.941  1.00  0.00     0.213 HD
ENDBRANCH  24  25
BRANCH  24  27
HETATM   27  O4  UNL     1     -35.054 -25.672  16.634  1.00  0.00    -0.365 OA
ATOM     28  H4  UNL     1     -35.866 -26.129  16.450  1.00  0.00     0.213 HD
ENDBRANCH  24  27
ENDBRANCH  22  24
ENDBRANCH  12  17
ENDBRANCH   9  10
ENDBRANCH   8   9
BRANCH   1  29
HETATM   29  C1  UNL     1     -30.930 -17.422  19.655  1.00  0.00     0.282 C 
HETATM   30  N1  UNL     1     -30.284 -17.913  18.518  1.00  0.00    -0.056 NA
HETATM   31  O1  UNL     1     -31.417 -16.243  19.537  1.00  0.00    -0.269 OA
ENDBRANCH   1  29
BRANCH   7  32
HETATM   32  N6  UNL     1     -32.929 -20.542  22.768  1.00  0.00    -0.327 N 
HETATM   33  C6  UNL     1     -32.591 -21.719  23.502  1.00  0.00     0.481 C 
HETATM   34  N7  UNL     1     -33.774 -22.480  23.890  1.00  0.00    -0.033 N 
HETATM   35  N8  UNL     1     -31.821 -22.604  22.636  1.00  0.00    -0.033 N 
ATOM     36  H73 UNL     1     -34.434 -21.899  24.406  1.00  0.00     0.278 HD
ATOM     37  H72 UNL     1     -34.353 -22.702  23.081  1.00  0.00     0.278 HD
ATOM     38  H71 UNL     1     -33.532 -23.321  24.414  1.00  0.00     0.278 HD
ATOM     39  H83 UNL     1     -32.305 -22.814  21.763  1.00  0.00     0.278 HD
ATOM     40  H82 UNL     1     -31.003 -22.145  22.236  1.00  0.00     0.278 HD
ATOM     41  H81 UNL     1     -31.580 -23.445  23.160  1.00  0.00     0.278 HD
ATOM     42  H6  UNL     1     -33.893 -20.454  22.447  1.00  0.00     0.164 HD
ENDBRANCH   7  32
BRANCH   4  43
HETATM   43  C4  UNL     1     -29.780 -17.451  24.411  1.00  0.00     0.444 C 
BRANCH  43  44
HETATM   44  N3  UNL     1     -30.613 -17.288  25.585  1.00  0.00    -0.043 N 
ATOM     45  H33 UNL     1     -31.332 -16.580  25.435  1.00  0.00     0.277 HD
ATOM     46  H32 UNL     1     -31.216 -18.099  25.728  1.00  0.00     0.277 HD
ATOM     47  H31 UNL     1     -30.059 -17.086  26.416  1.00  0.00     0.277 HD
ENDBRANCH  43  44
BRANCH  43  48
HETATM   48  N4  UNL     1     -29.061 -16.267  24.060  1.00  0.00    -0.043 N 
ATOM     49  H43 UNL     1     -28.054 -16.428  24.087  1.00  0.00     0.277 HD
ATOM     50  H42 UNL     1     -29.166 -16.053  23.068  1.00  0.00     0.277 HD
ATOM     51  H41 UNL     1     -29.321 -15.468  24.638  1.00  0.00     0.277 HD
ENDBRANCH  43  48
ENDBRANCH   4  43
TORSDOF 11
ENDMDL
MODEL 4
REMARK VINA RESULT: -7.867904023      2.064      2.891
REMARK  11 active torsions:
REMARK  status: ('A' for Active; 'I' for Inactive)
REMARK    1  A    between atoms: C1_2  and  C2_4 
REMARK    2  A    between atoms: C3_7  and  C4_8 
REMARK    3  A    between atoms: C4_8  and  N3_9 
REMARK    4  A    between atoms: C4_8  and  N4_13 
REMARK    5  A    between atoms: C5_19  and  N6_20 
REMARK       I    between atoms: N6_20  and  C6_22 
REMARK       I    between atoms: C6_22  and  N7_23 
REMARK       I    between atoms: C6_22  and  N8_27 
REMARK    6  A    between atoms: C7_31  and  C8_32 
REMARK    7  A    between atoms: C8_32  and  N9_33 
REMARK    8  A    between atoms: C10_35  and  C11_36 
REMARK    9  A    between atoms: C15_41  and  C16_42 
REMARK   10  A    between atoms: C16_42  and  O3_43 
REMARK   11  A    between atoms: C16_42  and  O4_45 
ROOT
HETATM    1  C2  UNL     1     -33.491 -20.449  20.696  1.00  0.00     0.111 A 
HETATM    2  N2  UNL     1     -32.858 -19.223  20.617  1.00  0.00    -0.338 N 
ATOM      3  H2  UNL     1     -33.023 -18.654  19.787  1.00  0.00     0.167 HD
HETATM    4  C3  UNL     1     -32.052 -18.739  21.551  1.00  0.00     0.142 A 
HETATM    5  N5  UNL     1     -31.853 -19.502  22.631  1.00  0.00    -0.329 N 
ATOM      6  H5  UNL     1     -31.238 -19.152  23.366  1.00  0.00     0.168 HD
HETATM    7  C5  UNL     1     -32.421 -20.703  22.794  1.00  0.00     0.115 A 
HETATM    8  C7  UNL     1     -33.260 -21.206  21.815  1.00  0.00     0.037 A 
ENDROOT
BRANCH   8   9
HETATM    9  C8  UNL     1     -33.761 -22.574  22.003  1.00  0.00     0.194 C 
BRANCH   9  10
HETATM   10  N9  UNL     1     -32.969 -23.544  21.242  1.00  0.00    -0.282 N 
HETATM   11  C9  UNL     1     -33.360 -24.140  20.072  1.00  0.00     0.145 A 
HETATM   12  C10 UNL     1     -32.367 -25.013  19.628  1.00  0.00     0.100 A 
HETATM   13  N10 UNL     1     -31.401 -24.909  20.558  1.00  0.00    -0.282 N 
HETATM   14  N11 UNL     1     -31.788 -24.050  21.471  1.00  0.00    -0.240 N 
ATOM     15  H10 UNL     1     -30.515 -25.413  20.554  1.00  0.00     0.188 HD
ATOM     16  H11 UNL     1     -31.221 -23.802  22.282  1.00  0.00     0.208 HD
BRANCH  12  17
HETATM   17  C11 UNL     1     -32.386 -25.842  18.429  1.00  0.00     0.109 A 
HETATM   18  C12 UNL     1     -33.527 -26.525  18.067  1.00  0.00     0.094 A 
HETATM   19  C13 UNL     1     -33.580 -27.320  16.936  1.00  0.00     0.177 A 
HETATM   20  O2  UNL     1     -34.600 -27.948  16.588  1.00  0.00    -0.288 OA
HETATM   21  C14 UNL     1     -32.395 -27.377  16.192  1.00  0.00     0.092 A 
HETATM   22  C15 UNL     1     -31.274 -26.680  16.584  1.00  0.00     0.112 A 
HETATM   23  O5  UNL     1     -31.344 -25.958  17.677  1.00  0.00    -0.307 OA
BRANCH  22  24
HETATM   24  C16 UNL     1     -30.020 -26.754  15.777  1.00  0.00     0.312 C 
BRANCH  24  25
HETATM   25  O3  UNL     1     -29.576 -28.054  15.728  1.00  0.00    -0.365 OA
ATOM     26  H3  UNL     1     -29.293 -28.329  16.592  1.00  0.00     0.213 HD
ENDBRANCH  24  25
BRANCH  24  27
HETATM   27  O4  UNL     1     -29.064 -25.991  16.458  1.00  0.00    -0.365 OA
ATOM     28  H4  UNL     1     -28.986 -26.368  17.327  1.00  0.00     0.213 HD
ENDBRANCH  24  27
ENDBRANCH  22  24
ENDBRANCH  12  17
ENDBRANCH   9  10
ENDBRANCH   8   9
BRANCH   1  29
HETATM   29  C1  UNL     1     -34.383 -20.814  19.607  1.00  0.00     0.282 C 
HETATM   30  N1  UNL     1     -35.778 -20.777  19.561  1.00  0.00    -0.056 NA
HETATM   31  O1  UNL     1     -33.814 -21.223  18.534  1.00  0.00    -0.269 OA
ENDBRANCH   1  29
BRANCH   7  32
HETATM   32  N6  UNL     1     -32.183 -21.358  23.884  1.00  0.00    -0.327 N 
HETATM   33  C6  UNL     1     -32.935 -21.257  25.093  1.00  0.00     0.481 C 
HETATM   34  N7  UNL     1     -32.582 -22.305  26.045  1.00  0.00    -0.033 N 
HETATM   35  N8  UNL     1     -32.595 -20.000  25.750  1.00  0.00    -0.033 N 
ATOM     36  H73 UNL     1     -32.675 -23.231  25.627  1.00  0.00     0.278 HD
ATOM     37  H72 UNL     1     -31.580 -22.314  26.232  1.00  0.00     0.278 HD
ATOM     38  H71 UNL     1     -33.119 -22.233  26.909  1.00  0.00     0.278 HD
ATOM     39  H83 UNL     1     -31.592 -19.899  25.904  1.00  0.00     0.278 HD
ATOM     40  H82 UNL     1     -32.726 -19.193  25.140  1.00  0.00     0.278 HD
ATOM     41  H81 UNL     1     -33.132 -19.928  26.614  1.00  0.00     0.278 HD
ATOM     42  H6  UNL     1     -31.391 -22.000  23.879  1.00  0.00     0.164 HD
ENDBRANCH   7  32
BRANCH   4  43
HETATM   43  C4  UNL     1     -31.380 -17.414  21.441  1.00  0.00     0.444 C 
BRANCH  43  44
HETATM   44  N3  UNL     1     -30.627 -17.093  22.636  1.00  0.00    -0.043 N 
ATOM     45  H33 UNL     1     -30.524 -17.908  23.241  1.00  0.00     0.277 HD
ATOM     46  H32 UNL     1     -29.643 -16.927  22.422  1.00  0.00     0.277 HD
ATOM     47  H31 UNL     1     -31.034 -16.306  23.140  1.00  0.00     0.277 HD
ENDBRANCH  43  44
BRANCH  43  48
HETATM   48  N4  UNL     1     -32.280 -16.376  21.045  1.00  0.00    -0.043 N 
ATOM     49  H43 UNL     1     -31.795 -15.483  20.959  1.00  0.00     0.277 HD
ATOM     50  H42 UNL     1     -32.575 -16.496  20.076  1.00  0.00     0.277 HD
ATOM     51  H41 UNL     1     -33.084 -16.299  21.667  1.00  0.00     0.277 HD
ENDBRANCH  43  48
ENDBRANCH   4  43
TORSDOF 11
ENDMDL
MODEL 5
REMARK VINA RESULT: -7.853737612      1.860      3.902
REMARK  11 active torsions:
REMARK  status: ('A' for Active; 'I' for Inactive)
REMARK    1  A    between atoms: C1_2  and  C2_4 
REMARK    2  A    between atoms: C3_7  and  C4_8 
REMARK    3  A    between atoms: C4_8  and  N3_9 
REMARK    4  A    between atoms: C4_8  and  N4_13 
REMARK    5  A    between atoms: C5_19  and  N6_20 
REMARK       I    between atoms: N6_20  and  C6_22 
REMARK       I    between atoms: C6_22  and  N7_23 
REMARK       I    between atoms: C6_22  and  N8_27 
REMARK    6  A    between atoms: C7_31  and  C8_32 
REMARK    7  A    between atoms: C8_32  and  N9_33 
REMARK    8  A    between atoms: C10_35  and  C11_36 
REMARK    9  A    between atoms: C15_41  and  C16_42 
REMARK   10  A    between atoms: C16_42  and  O3_43 
REMARK   11  A    between atoms: C16_42  and  O4_45 
ROOT
HETATM    1  C2  UNL     1     -32.281 -19.841  23.408  1.00  0.00     0.111 A 
HETATM    2  N2  UNL     1     -31.508 -19.068  24.252  1.00  0.00    -0.338 N 
ATOM      3  H2  UNL     1     -31.638 -19.183  25.258  1.00  0.00     0.167 HD
HETATM    4  C3  UNL     1     -30.607 -18.187  23.840  1.00  0.00     0.142 A 
HETATM    5  N5  UNL     1     -30.453 -18.055  22.518  1.00  0.00    -0.329 N 
ATOM      6  H5  UNL     1     -29.765 -17.385  22.174  1.00  0.00     0.168 HD
HETATM    7  C5  UNL     1     -31.158 -18.759  21.625  1.00  0.00     0.115 A 
HETATM    8  C7  UNL     1     -32.100 -19.676  22.060  1.00  0.00     0.037 A 
ENDROOT
BRANCH   8   9
HETATM    9  C8  UNL     1     -32.917 -20.333  21.031  1.00  0.00     0.194 C 
BRANCH   9  10
HETATM   10  N9  UNL     1     -32.442 -21.693  20.757  1.00  0.00    -0.282 N 
HETATM   11  C9  UNL     1     -32.482 -22.312  19.536  1.00  0.00     0.145 A 
HETATM   12  C10 UNL     1     -31.957 -23.600  19.640  1.00  0.00     0.100 A 
HETATM   13  N10 UNL     1     -31.615 -23.710  20.937  1.00  0.00    -0.282 N 
HETATM   14  N11 UNL     1     -31.912 -22.587  21.545  1.00  0.00    -0.240 N 
ATOM     15  H10 UNL     1     -31.196 -24.531  21.373  1.00  0.00     0.188 HD
ATOM     16  H11 UNL     1     -31.743 -22.428  22.539  1.00  0.00     0.208 HD
BRANCH  12  17
HETATM   17  C11 UNL     1     -31.817 -24.589  18.578  1.00  0.00     0.109 A 
HETATM   18  C12 UNL     1     -30.578 -24.879  18.049  1.00  0.00     0.094 A 
HETATM   19  C13 UNL     1     -30.410 -25.811  17.041  1.00  0.00     0.177 A 
HETATM   20  O2  UNL     1     -29.299 -26.090  16.546  1.00  0.00    -0.288 OA
HETATM   21  C14 UNL     1     -31.584 -26.435  16.602  1.00  0.00     0.092 A 
HETATM   22  C15 UNL     1     -32.806 -26.120  17.156  1.00  0.00     0.112 A 
HETATM   23  O5  UNL     1     -32.841 -25.217  18.108  1.00  0.00    -0.307 OA
BRANCH  22  24
HETATM   24  C16 UNL     1     -34.047 -26.795  16.675  1.00  0.00     0.312 C 
BRANCH  24  25
HETATM   25  O3  UNL     1     -33.784 -27.473  15.508  1.00  0.00    -0.365 OA
ATOM     26  H3  UNL     1     -33.717 -28.404  15.686  1.00  0.00     0.213 HD
ENDBRANCH  24  25
BRANCH  24  27
HETATM   27  O4  UNL     1     -34.968 -25.779  16.392  1.00  0.00    -0.365 OA
ATOM     28  H4  UNL     1     -35.108 -25.307  17.205  1.00  0.00     0.213 HD
ENDBRANCH  24  27
ENDBRANCH  22  24
ENDBRANCH  12  17
ENDBRANCH   9  10
ENDBRANCH   8   9
BRANCH   1  29
HETATM   29  C1  UNL     1     -33.191 -20.797  24.019  1.00  0.00     0.282 C 
HETATM   30  N1  UNL     1     -34.557 -20.668  24.283  1.00  0.00    -0.056 NA
HETATM   31  O1  UNL     1     -32.675 -21.919  24.361  1.00  0.00    -0.269 OA
ENDBRANCH   1  29
BRANCH   7  32
HETATM   32  N6  UNL     1     -30.923 -18.575  20.366  1.00  0.00    -0.327 N 
HETATM   33  C6  UNL     1     -30.439 -17.366  19.781  1.00  0.00     0.481 C 
HETATM   34  N7  UNL     1     -30.030 -17.557  18.393  1.00  0.00    -0.033 N 
HETATM   35  N8  UNL     1     -31.530 -16.399  19.740  1.00  0.00    -0.033 N 
ATOM     36  H73 UNL     1     -29.346 -18.308  18.309  1.00  0.00     0.278 HD
ATOM     37  H72 UNL     1     -30.783 -17.962  17.838  1.00  0.00     0.278 HD
ATOM     38  H71 UNL     1     -29.685 -16.693  17.975  1.00  0.00     0.278 HD
ATOM     39  H83 UNL     1     -32.355 -16.762  19.263  1.00  0.00     0.278 HD
ATOM     40  H82 UNL     1     -31.952 -16.248  20.656  1.00  0.00     0.278 HD
ATOM     41  H81 UNL     1     -31.184 -15.536  19.322  1.00  0.00     0.278 HD
ATOM     42  H6  UNL     1     -31.098 -19.360  19.739  1.00  0.00     0.164 HD
ENDBRANCH   7  32
BRANCH   4  43
HETATM   43  C4  UNL     1     -29.786 -17.364  24.772  1.00  0.00     0.444 C 
BRANCH  43  44
HETATM   44  N3  UNL     1     -30.545 -16.950  25.934  1.00  0.00    -0.043 N 
ATOM     45  H33 UNL     1     -31.250 -17.644  26.183  1.00  0.00     0.277 HD
ATOM     46  H32 UNL     1     -29.978 -16.988  26.781  1.00  0.00     0.277 HD
ATOM     47  H31 UNL     1     -30.961 -16.028  25.806  1.00  0.00     0.277 HD
ENDBRANCH  43  44
BRANCH  43  48
HETATM   48  N4  UNL     1     -29.131 -16.279  24.110  1.00  0.00    -0.043 N 
ATOM     49  H43 UNL     1     -28.147 -16.490  23.946  1.00  0.00     0.277 HD
ATOM     50  H42 UNL     1     -29.444 -16.196  23.143  1.00  0.00     0.277 HD
ATOM     51  H41 UNL     1     -29.239 -15.396  24.608  1.00  0.00     0.277 HD
ENDBRANCH  43  48
ENDBRANCH   4  43
TORSDOF 11
ENDMDL
