MODEL 1
REMARK VINA RESULT: -7.515649385      0.000      0.000
REMARK  13 active torsions:
REMARK  status: ('A' for Active; 'I' for Inactive)
REMARK    1  A    between atoms: C3_3  and  C4_4 
REMARK    2  A    between atoms: C5_5  and  C6_6 
REMARK    3  A    between atoms: C6_6  and  N1_7 
REMARK    4  A    between atoms: C6_6  and  C7_11 
REMARK    5  A    between atoms: C7_11  and  O1_12 
REMARK    6  A    between atoms: N3_21  and  O4_22 
REMARK    7  A    between atoms: N6_30  and  C13_31 
REMARK    8  A    between atoms: C13_31  and  O5_32 
REMARK    9  A    between atoms: C13_31  and  C14_34 
REMARK   10  A    between atoms: C14_34  and  N7_35 
REMARK   11  A    between atoms: C14_34  and  C15_39 
REMARK       I    between atoms: C15_39  and  N8_41 
REMARK   12  A    between atoms: N8_41  and  N9_43 
REMARK   13  A    between atoms: C16_46  and  O7_47 
ROOT
HETATM    1  C1  UNL     1     -32.266 -24.004  21.680  1.00  0.00     0.055 C 
HETATM    2  C2  UNL     1     -32.017 -22.896  20.671  1.00  0.00     0.019 A 
HETATM    3  C3  UNL     1     -32.297 -22.934  19.334  1.00  0.00     0.071 A 
HETATM    4  N5  UNL     1     -31.899 -21.734  18.881  1.00  0.00    -0.293 N 
ATOM      5  H5  UNL     1     -31.969 -21.449  17.904  1.00  0.00     0.187 HD
HETATM    6  N6  UNL     1     -31.409 -20.963  19.835  1.00  0.00    -0.238 N 
HETATM    7  C16 UNL     1     -31.463 -21.669  20.973  1.00  0.00     0.168 A 
ENDROOT
BRANCH   3   8
HETATM    8  C4  UNL     1     -32.901 -24.029  18.603  1.00  0.00     0.030 A 
HETATM    9  C5  UNL     1     -34.250 -24.253  18.692  1.00  0.00     0.058 A 
HETATM   10  N2  UNL     1     -34.753 -25.325  18.030  1.00  0.00    -0.323 N 
HETATM   11  C8  UNL     1     -33.930 -26.133  17.317  1.00  0.00     0.262 A 
ATOM     12  H2  UNL     1     -35.753 -25.523  18.070  1.00  0.00     0.169 HD
HETATM   13  O2  UNL     1     -34.431 -27.129  16.706  1.00  0.00    -0.267 OA
HETATM   14  C9  UNL     1     -32.578 -25.935  17.216  1.00  0.00     0.116 A 
HETATM   15  C10 UNL     1     -31.702 -26.779  16.542  1.00  0.00     0.303 A 
HETATM   16  C12 UNL     1     -32.039 -24.829  17.888  1.00  0.00     0.017 A 
HETATM   17  O3  UNL     1     -32.255 -27.759  15.965  1.00  0.00    -0.263 OA
HETATM   18  N3  UNL     1     -30.381 -26.568  16.519  1.00  0.00    -0.122 N 
HETATM   19  N4  UNL     1     -29.889 -25.519  17.156  1.00  0.00    -0.282 N 
HETATM   20  C11 UNL     1     -30.679 -24.650  17.832  1.00  0.00     0.123 A 
ATOM     21  H4  UNL     1     -28.882 -25.358  17.138  1.00  0.00     0.188 HD
BRANCH   9  22
HETATM   22  C6  UNL     1     -35.077 -23.252  19.441  1.00  0.00     0.257 C 
BRANCH  22  23
HETATM   23  N1  UNL     1     -36.091 -22.688  18.523  1.00  0.00    -0.068 N 
ATOM     24  H13 UNL     1     -35.780 -22.688  17.552  1.00  0.00     0.275 HD
ATOM     25  H12 UNL     1     -36.899 -23.300  18.412  1.00  0.00     0.275 HD
ATOM     26  H11 UNL     1     -36.349 -21.757  18.850  1.00  0.00     0.275 HD
ENDBRANCH  22  23
BRANCH  22  27
HETATM   27  C7  UNL     1     -35.936 -24.077  20.435  1.00  0.00     0.203 C 
BRANCH  27  28
HETATM   28  O1  UNL     1     -35.426 -25.263  20.834  1.00  0.00    -0.398 OA
ATOM     29  H1  UNL     1     -36.049 -25.961  20.999  1.00  0.00     0.209 HD
ENDBRANCH  27  28
ENDBRANCH  22  27
ENDBRANCH   9  22
BRANCH  18  30
HETATM   30  O4  UNL     1     -29.575 -27.469  15.840  1.00  0.00    -0.265 OA
ATOM     31  H4  UNL     1     -28.633 -27.342  15.859  1.00  0.00     0.247 HD
ENDBRANCH  18  30
ENDBRANCH   3   8
BRANCH   7  32
HETATM   32  O7  UNL     1     -31.012 -21.170  22.206  1.00  0.00    -0.344 OA
ATOM     33  H7  UNL     1     -31.265 -20.379  22.668  1.00  0.00     0.219 HD
ENDBRANCH   7  32
BRANCH   6  34
HETATM   34  C13 UNL     1     -30.972 -19.630  19.588  1.00  0.00     0.283 C 
BRANCH  34  35
HETATM   35  O5  UNL     1     -29.659 -19.484  20.181  1.00  0.00    -0.372 OA
ATOM     36  H5  UNL     1     -29.166 -18.878  19.639  1.00  0.00     0.212 HD
ENDBRANCH  34  35
BRANCH  34  37
HETATM   37  C14 UNL     1     -31.723 -18.488  20.170  1.00  0.00     0.326 C 
BRANCH  37  38
HETATM   38  N7  UNL     1     -32.907 -19.135  20.905  1.00  0.00    -0.062 N 
ATOM     39  H73 UNL     1     -33.024 -20.130  20.709  1.00  0.00     0.275 HD
ATOM     40  H72 UNL     1     -32.769 -19.232  21.910  1.00  0.00     0.275 HD
ATOM     41  H71 UNL     1     -33.713 -18.564  20.649  1.00  0.00     0.275 HD
ENDBRANCH  37  38
BRANCH  37  42
HETATM   42  C15 UNL     1     -31.094 -17.781  21.301  1.00  0.00     0.270 C 
HETATM   43  O6  UNL     1     -30.444 -16.704  21.103  1.00  0.00    -0.269 OA
HETATM   44  N8  UNL     1     -31.182 -18.258  22.628  1.00  0.00    -0.275 N 
ATOM     45  H8  UNL     1     -31.707 -19.112  22.812  1.00  0.00     0.189 HD
BRANCH  44  46
HETATM   46  N9  UNL     1     -30.577 -17.601  23.688  1.00  0.00    -0.343 N 
ATOM     47  H92 UNL     1     -31.108 -17.499  24.553  1.00  0.00     0.176 HD
ATOM     48  H91 UNL     1     -29.631 -17.224  23.623  1.00  0.00     0.176 HD
ENDBRANCH  44  46
ENDBRANCH  37  42
ENDBRANCH  34  37
ENDBRANCH   6  34
TORSDOF 13
ENDMDL
MODEL 2
REMARK VINA RESULT: -7.311799710      1.344      1.494
REMARK  13 active torsions:
REMARK  status: ('A' for Active; 'I' for Inactive)
REMARK    1  A    between atoms: C3_3  and  C4_4 
REMARK    2  A    between atoms: C5_5  and  C6_6 
REMARK    3  A    between atoms: C6_6  and  N1_7 
REMARK    4  A    between atoms: C6_6  and  C7_11 
REMARK    5  A    between atoms: C7_11  and  O1_12 
REMARK    6  A    between atoms: N3_21  and  O4_22 
REMARK    7  A    between atoms: N6_30  and  C13_31 
REMARK    8  A    between atoms: C13_31  and  O5_32 
REMARK    9  A    between atoms: C13_31  and  C14_34 
REMARK   10  A    between atoms: C14_34  and  N7_35 
REMARK   11  A    between atoms: C14_34  and  C15_39 
REMARK       I    between atoms: C15_39  and  N8_41 
REMARK   12  A    between atoms: N8_41  and  N9_43 
REMARK   13  A    between atoms: C16_46  and  O7_47 
ROOT
HETATM    1  C1  UNL     1     -32.358 -25.040  22.088  1.00  0.00     0.055 C 
HETATM    2  C2  UNL     1     -32.473 -23.694  21.393  1.00  0.00     0.019 A 
HETATM    3  C3  UNL     1     -32.829 -23.475  20.092  1.00  0.00     0.071 A 
HETATM    4  N5  UNL     1     -32.783 -22.140  19.958  1.00  0.00    -0.293 N 
ATOM      5  H5  UNL     1     -32.993 -21.654  19.087  1.00  0.00     0.187 HD
HETATM    6  N6  UNL     1     -32.438 -21.525  21.075  1.00  0.00    -0.238 N 
HETATM    7  C16 UNL     1     -32.228 -22.476  21.996  1.00  0.00     0.168 A 
ENDROOT
BRANCH   3   8
HETATM    8  C4  UNL     1     -33.185 -24.478  19.109  1.00  0.00     0.030 A 
HETATM    9  C5  UNL     1     -34.472 -24.943  19.038  1.00  0.00     0.058 A 
HETATM   10  N2  UNL     1     -34.737 -25.921  18.136  1.00  0.00    -0.323 N 
HETATM   11  C8  UNL     1     -33.746 -26.406  17.346  1.00  0.00     0.262 A 
ATOM     12  H2  UNL     1     -35.683 -26.292  18.052  1.00  0.00     0.169 HD
HETATM   13  O2  UNL     1     -34.026 -27.320  16.508  1.00  0.00    -0.267 OA
HETATM   14  C9  UNL     1     -32.451 -25.961  17.399  1.00  0.00     0.116 A 
HETATM   15  C10 UNL     1     -31.405 -26.479  16.645  1.00  0.00     0.303 A 
HETATM   16  C12 UNL     1     -32.158 -24.947  18.322  1.00  0.00     0.017 A 
HETATM   17  O3  UNL     1     -31.739 -27.394  15.839  1.00  0.00    -0.263 OA
HETATM   18  N3  UNL     1     -30.146 -26.044  16.775  1.00  0.00    -0.122 N 
HETATM   19  N4  UNL     1     -29.887 -25.086  17.648  1.00  0.00    -0.282 N 
HETATM   20  C11 UNL     1     -30.854 -24.529  18.417  1.00  0.00     0.123 A 
ATOM     21  H4  UNL     1     -28.927 -24.754  17.747  1.00  0.00     0.188 HD
BRANCH   9  22
HETATM   22  C6  UNL     1     -35.504 -24.283  19.902  1.00  0.00     0.257 C 
BRANCH  22  23
HETATM   23  N1  UNL     1     -36.597 -23.781  19.039  1.00  0.00    -0.068 N 
ATOM     24  H13 UNL     1     -37.255 -23.192  19.548  1.00  0.00     0.275 HD
ATOM     25  H12 UNL     1     -36.274 -23.086  18.367  1.00  0.00     0.275 HD
ATOM     26  H11 UNL     1     -37.052 -24.576  18.590  1.00  0.00     0.275 HD
ENDBRANCH  22  23
BRANCH  22  27
HETATM   27  C7  UNL     1     -36.188 -25.429  20.691  1.00  0.00     0.203 C 
BRANCH  27  28
HETATM   28  O1  UNL     1     -35.431 -26.517  20.953  1.00  0.00    -0.398 OA
ATOM     29  H1  UNL     1     -35.062 -26.578  21.827  1.00  0.00     0.209 HD
ENDBRANCH  27  28
ENDBRANCH  22  27
ENDBRANCH   9  22
BRANCH  18  30
HETATM   30  O4  UNL     1     -29.157 -26.628  15.999  1.00  0.00    -0.265 OA
ATOM     31  H4  UNL     1     -28.888 -26.192  15.199  1.00  0.00     0.247 HD
ENDBRANCH  18  30
ENDBRANCH   3   8
BRANCH   7  32
HETATM   32  O7  UNL     1     -31.833 -22.193  23.313  1.00  0.00    -0.344 OA
ATOM     33  H7  UNL     1     -31.528 -21.377  23.692  1.00  0.00     0.219 HD
ENDBRANCH   7  32
BRANCH   6  34
HETATM   34  C13 UNL     1     -32.374 -20.105  21.175  1.00  0.00     0.283 C 
BRANCH  34  35
HETATM   35  O5  UNL     1     -32.736 -19.560  19.883  1.00  0.00    -0.372 OA
ATOM     36  H5  UNL     1     -33.655 -19.751  19.739  1.00  0.00     0.212 HD
ENDBRANCH  34  35
BRANCH  34  37
HETATM   37  C14 UNL     1     -31.075 -19.444  21.458  1.00  0.00     0.326 C 
BRANCH  37  38
HETATM   38  N7  UNL     1     -30.083 -20.101  20.485  1.00  0.00    -0.062 N 
ATOM     39  H73 UNL     1     -29.517 -20.838  20.904  1.00  0.00     0.275 HD
ATOM     40  H72 UNL     1     -30.524 -20.684  19.775  1.00  0.00     0.275 HD
ATOM     41  H71 UNL     1     -29.541 -19.325  20.107  1.00  0.00     0.275 HD
ENDBRANCH  37  38
BRANCH  37  42
HETATM   42  C15 UNL     1     -30.934 -18.038  21.034  1.00  0.00     0.270 C 
HETATM   43  O6  UNL     1     -29.829 -17.616  20.564  1.00  0.00    -0.269 OA
HETATM   44  N8  UNL     1     -32.000 -17.114  21.131  1.00  0.00    -0.275 N 
ATOM     45  H8  UNL     1     -32.898 -17.432  21.494  1.00  0.00     0.189 HD
BRANCH  44  46
HETATM   46  N9  UNL     1     -31.862 -15.789  20.747  1.00  0.00    -0.343 N 
ATOM     47  H92 UNL     1     -31.061 -15.540  20.168  1.00  0.00     0.176 HD
ATOM     48  H91 UNL     1     -32.532 -15.072  21.026  1.00  0.00     0.176 HD
ENDBRANCH  44  46
ENDBRANCH  37  42
ENDBRANCH  34  37
ENDBRANCH   6  34
TORSDOF 13
ENDMDL
MODEL 3
REMARK VINA RESULT: -7.275428791      1.486      1.592
REMARK  13 active torsions:
REMARK  status: ('A' for Active; 'I' for Inactive)
REMARK    1  A    between atoms: C3_3  and  C4_4 
REMARK    2  A    between atoms: C5_5  and  C6_6 
REMARK    3  A    between atoms: C6_6  and  N1_7 
REMARK    4  A    between atoms: C6_6  and  C7_11 
REMARK    5  A    between atoms: C7_11  and  O1_12 
REMARK    6  A    between atoms: N3_21  and  O4_22 
REMARK    7  A    between atoms: N6_30  and  C13_31 
REMARK    8  A    between atoms: C13_31  and  O5_32 
REMARK    9  A    between atoms: C13_31  and  C14_34 
REMARK   10  A    between atoms: C14_34  and  N7_35 
REMARK   11  A    between atoms: C14_34  and  C15_39 
REMARK       I    between atoms: C15_39  and  N8_41 
REMARK   12  A    between atoms: N8_41  and  N9_43 
REMARK   13  A    between atoms: C16_46  and  O7_47 
ROOT
HETATM    1  C1  UNL     1     -32.234 -23.059  21.974  1.00  0.00     0.055 C 
HETATM    2  C2  UNL     1     -31.960 -22.028  20.892  1.00  0.00     0.019 A 
HETATM    3  C3  UNL     1     -32.213 -22.161  19.556  1.00  0.00     0.071 A 
HETATM    4  N5  UNL     1     -31.801 -20.998  19.026  1.00  0.00    -0.293 N 
ATOM      5  H5  UNL     1     -31.849 -20.785  18.030  1.00  0.00     0.187 HD
HETATM    6  N6  UNL     1     -31.327 -20.162  19.932  1.00  0.00    -0.238 N 
HETATM    7  C16 UNL     1     -31.407 -20.783  21.117  1.00  0.00     0.168 A 
ENDROOT
BRANCH   3   8
HETATM    8  C4  UNL     1     -32.807 -23.304  18.894  1.00  0.00     0.030 A 
HETATM    9  C5  UNL     1     -34.151 -23.543  19.009  1.00  0.00     0.058 A 
HETATM   10  N2  UNL     1     -34.644 -24.658  18.414  1.00  0.00    -0.323 N 
HETATM   11  C8  UNL     1     -33.815 -25.493  17.738  1.00  0.00     0.262 A 
ATOM     12  H2  UNL     1     -35.640 -24.869  18.475  1.00  0.00     0.169 HD
HETATM   13  O2  UNL     1     -34.306 -26.528  17.189  1.00  0.00    -0.267 OA
HETATM   14  C9  UNL     1     -32.467 -25.280  17.612  1.00  0.00     0.116 A 
HETATM   15  C10 UNL     1     -31.585 -26.147  16.978  1.00  0.00     0.303 A 
HETATM   16  C12 UNL     1     -31.939 -24.130  18.216  1.00  0.00     0.017 A 
HETATM   17  O3  UNL     1     -32.127 -27.166  16.462  1.00  0.00    -0.263 OA
HETATM   18  N3  UNL     1     -30.267 -25.918  16.929  1.00  0.00    -0.122 N 
HETATM   19  N4  UNL     1     -29.786 -24.828  17.502  1.00  0.00    -0.282 N 
HETATM   20  C11 UNL     1     -30.583 -23.934  18.136  1.00  0.00     0.123 A 
ATOM     21  H4  UNL     1     -28.782 -24.653  17.465  1.00  0.00     0.188 HD
BRANCH   9  22
HETATM   22  C6  UNL     1     -34.987 -22.514  19.709  1.00  0.00     0.257 C 
BRANCH  22  23
HETATM   23  N1  UNL     1     -35.880 -21.871  18.720  1.00  0.00    -0.068 N 
ATOM     24  H13 UNL     1     -35.367 -21.474  17.933  1.00  0.00     0.275 HD
ATOM     25  H12 UNL     1     -36.436 -22.549  18.199  1.00  0.00     0.275 HD
ATOM     26  H11 UNL     1     -36.456 -21.180  19.199  1.00  0.00     0.275 HD
ENDBRANCH  22  23
BRANCH  22  27
HETATM   27  C7  UNL     1     -35.977 -23.312  20.597  1.00  0.00     0.203 C 
BRANCH  27  28
HETATM   28  O1  UNL     1     -35.472 -24.377  21.259  1.00  0.00    -0.398 OA
ATOM     29  H1  UNL     1     -34.881 -24.939  20.772  1.00  0.00     0.209 HD
ENDBRANCH  27  28
ENDBRANCH  22  27
ENDBRANCH   9  22
BRANCH  18  30
HETATM   30  O4  UNL     1     -29.454 -26.843  16.294  1.00  0.00    -0.265 OA
ATOM     31  H4  UNL     1     -28.525 -26.658  16.218  1.00  0.00     0.247 HD
ENDBRANCH  18  30
ENDBRANCH   3   8
BRANCH   7  32
HETATM   32  O7  UNL     1     -30.979 -20.197  22.319  1.00  0.00    -0.344 OA
ATOM     33  H7  UNL     1     -30.213 -20.388  22.847  1.00  0.00     0.219 HD
ENDBRANCH   7  32
BRANCH   6  34
HETATM   34  C13 UNL     1     -30.879 -18.851  19.598  1.00  0.00     0.283 C 
BRANCH  34  35
HETATM   35  O5  UNL     1     -29.438 -18.834  19.734  1.00  0.00    -0.372 OA
ATOM     36  H5  UNL     1     -29.207 -18.065  20.241  1.00  0.00     0.212 HD
ENDBRANCH  34  35
BRANCH  34  37
HETATM   37  C14 UNL     1     -31.301 -17.694  20.429  1.00  0.00     0.326 C 
BRANCH  37  38
HETATM   38  N7  UNL     1     -30.235 -17.596  21.530  1.00  0.00    -0.062 N 
ATOM     39  H73 UNL     1     -30.617 -17.493  22.470  1.00  0.00     0.275 HD
ATOM     40  H72 UNL     1     -29.736 -18.469  21.704  1.00  0.00     0.275 HD
ATOM     41  H71 UNL     1     -29.633 -16.826  21.240  1.00  0.00     0.275 HD
ENDBRANCH  37  38
BRANCH  37  42
HETATM   42  C15 UNL     1     -31.155 -16.354  19.831  1.00  0.00     0.270 C 
HETATM   43  O6  UNL     1     -30.648 -16.219  18.671  1.00  0.00    -0.269 OA
HETATM   44  N8  UNL     1     -31.563 -15.181  20.506  1.00  0.00    -0.275 N 
ATOM     45  H8  UNL     1     -31.983 -15.265  21.432  1.00  0.00     0.189 HD
BRANCH  44  46
HETATM   46  N9  UNL     1     -31.411 -13.920  19.950  1.00  0.00    -0.343 N 
ATOM     47  H92 UNL     1     -31.138 -13.861  18.969  1.00  0.00     0.176 HD
ATOM     48  H91 UNL     1     -31.564 -13.068  20.490  1.00  0.00     0.176 HD
ENDBRANCH  44  46
ENDBRANCH  37  42
ENDBRANCH  34  37
ENDBRANCH   6  34
TORSDOF 13
ENDMDL
MODEL 4
REMARK VINA RESULT: -7.148809839      2.353      7.831
REMARK  13 active torsions:
REMARK  status: ('A' for Active; 'I' for Inactive)
REMARK    1  A    between atoms: C3_3  and  C4_4 
REMARK    2  A    between atoms: C5_5  and  C6_6 
REMARK    3  A    between atoms: C6_6  and  N1_7 
REMARK    4  A    between atoms: C6_6  and  C7_11 
REMARK    5  A    between atoms: C7_11  and  O1_12 
REMARK    6  A    between atoms: N3_21  and  O4_22 
REMARK    7  A    between atoms: N6_30  and  C13_31 
REMARK    8  A    between atoms: C13_31  and  O5_32 
REMARK    9  A    between atoms: C13_31  and  C14_34 
REMARK   10  A    between atoms: C14_34  and  N7_35 
REMARK   11  A    between atoms: C14_34  and  C15_39 
REMARK       I    between atoms: C15_39  and  N8_41 
REMARK   12  A    between atoms: N8_41  and  N9_43 
REMARK   13  A    between atoms: C16_46  and  O7_47 
ROOT
HETATM    1  C1  UNL     1     -34.796 -20.672  20.225  1.00  0.00     0.055 C 
HETATM    2  C2  UNL     1     -33.653 -21.662  20.085  1.00  0.00     0.019 A 
HETATM    3  C3  UNL     1     -32.417 -21.568  20.662  1.00  0.00     0.071 A 
HETATM    4  N5  UNL     1     -31.773 -22.668  20.241  1.00  0.00    -0.293 N 
ATOM      5  H5  UNL     1     -30.811 -22.890  20.496  1.00  0.00     0.187 HD
HETATM    6  N6  UNL     1     -32.519 -23.432  19.463  1.00  0.00    -0.238 N 
HETATM    7  C16 UNL     1     -33.706 -22.822  19.339  1.00  0.00     0.168 A 
ENDROOT
BRANCH   3   8
HETATM    8  C4  UNL     1     -31.945 -20.515  21.537  1.00  0.00     0.030 A 
HETATM    9  C5  UNL     1     -32.198 -20.574  22.882  1.00  0.00     0.058 A 
HETATM   10  N2  UNL     1     -31.780 -19.534  23.646  1.00  0.00    -0.323 N 
HETATM   11  C8  UNL     1     -31.141 -18.483  23.075  1.00  0.00     0.262 A 
ATOM     12  H2  UNL     1     -31.948 -19.543  24.652  1.00  0.00     0.169 HD
HETATM   13  O2  UNL     1     -30.759 -17.524  23.818  1.00  0.00    -0.267 OA
HETATM   14  C9  UNL     1     -30.880 -18.396  21.733  1.00  0.00     0.116 A 
HETATM   15  C10 UNL     1     -30.280 -17.306  21.112  1.00  0.00     0.303 A 
HETATM   16  C12 UNL     1     -31.299 -19.464  20.926  1.00  0.00     0.017 A 
HETATM   17  O3  UNL     1     -29.934 -16.378  21.897  1.00  0.00    -0.263 OA
HETATM   18  N3  UNL     1     -30.096 -17.249  19.788  1.00  0.00    -0.122 N 
HETATM   19  N4  UNL     1     -30.496 -18.266  19.042  1.00  0.00    -0.282 N 
HETATM   20  C11 UNL     1     -31.085 -19.363  19.574  1.00  0.00     0.123 A 
ATOM     21  H4  UNL     1     -30.355 -18.222  18.033  1.00  0.00     0.188 HD
BRANCH   9  22
HETATM   22  C6  UNL     1     -32.840 -21.818  23.419  1.00  0.00     0.257 C 
BRANCH  22  23
HETATM   23  N1  UNL     1     -32.155 -22.206  24.671  1.00  0.00    -0.068 N 
ATOM     24  H13 UNL     1     -31.540 -23.010  24.546  1.00  0.00     0.275 HD
ATOM     25  H12 UNL     1     -31.446 -21.529  24.953  1.00  0.00     0.275 HD
ATOM     26  H11 UNL     1     -32.857 -22.360  25.395  1.00  0.00     0.275 HD
ENDBRANCH  22  23
BRANCH  22  27
HETATM   27  C7  UNL     1     -34.244 -21.385  23.915  1.00  0.00     0.203 C 
BRANCH  27  28
HETATM   28  O1  UNL     1     -34.529 -20.066  23.846  1.00  0.00    -0.398 OA
ATOM     29  H1  UNL     1     -35.031 -19.779  23.092  1.00  0.00     0.209 HD
ENDBRANCH  27  28
ENDBRANCH  22  27
ENDBRANCH   9  22
BRANCH  18  30
HETATM   30  O4  UNL     1     -29.509 -16.117  19.245  1.00  0.00    -0.265 OA
ATOM     31  H4  UNL     1     -30.033 -15.329  19.155  1.00  0.00     0.247 HD
ENDBRANCH  18  30
ENDBRANCH   3   8
BRANCH   7  32
HETATM   32  O7  UNL     1     -34.758 -23.343  18.568  1.00  0.00    -0.344 OA
ATOM     33  H7  UNL     1     -34.853 -24.202  18.175  1.00  0.00     0.219 HD
ENDBRANCH   7  32
BRANCH   6  34
HETATM   34  C13 UNL     1     -32.054 -24.674  18.943  1.00  0.00     0.283 C 
BRANCH  34  35
HETATM   35  O5  UNL     1     -31.030 -25.168  19.840  1.00  0.00    -0.372 OA
ATOM     36  H5  UNL     1     -31.301 -26.028  20.139  1.00  0.00     0.212 HD
ENDBRANCH  34  35
BRANCH  34  37
HETATM   37  C14 UNL     1     -31.378 -24.713  17.621  1.00  0.00     0.326 C 
BRANCH  37  38
HETATM   38  N7  UNL     1     -29.905 -24.402  17.927  1.00  0.00    -0.062 N 
ATOM     39  H73 UNL     1     -29.448 -23.823  17.222  1.00  0.00     0.275 HD
ATOM     40  H72 UNL     1     -29.770 -23.761  18.708  1.00  0.00     0.275 HD
ATOM     41  H71 UNL     1     -29.471 -25.316  18.059  1.00  0.00     0.275 HD
ENDBRANCH  37  38
BRANCH  37  42
HETATM   42  C15 UNL     1     -31.220 -26.037  16.990  1.00  0.00     0.270 C 
HETATM   43  O6  UNL     1     -30.086 -26.406  16.546  1.00  0.00    -0.269 OA
HETATM   44  N8  UNL     1     -32.301 -26.938  16.852  1.00  0.00    -0.275 N 
ATOM     45  H8  UNL     1     -33.217 -26.669  17.211  1.00  0.00     0.189 HD
BRANCH  44  46
HETATM   46  N9  UNL     1     -32.155 -28.176  16.245  1.00  0.00    -0.343 N 
ATOM     47  H92 UNL     1     -31.795 -28.945  16.810  1.00  0.00     0.176 HD
ATOM     48  H91 UNL     1     -32.395 -28.330  15.266  1.00  0.00     0.176 HD
ENDBRANCH  44  46
ENDBRANCH  37  42
ENDBRANCH  34  37
ENDBRANCH   6  34
TORSDOF 13
ENDMDL
MODEL 5
REMARK VINA RESULT: -7.026142301      3.632      6.738
REMARK  13 active torsions:
REMARK  status: ('A' for Active; 'I' for Inactive)
REMARK    1  A    between atoms: C3_3  and  C4_4 
REMARK    2  A    between atoms: C5_5  and  C6_6 
REMARK    3  A    between atoms: C6_6  and  N1_7 
REMARK    4  A    between atoms: C6_6  and  C7_11 
REMARK    5  A    between atoms: C7_11  and  O1_12 
REMARK    6  A    between atoms: N3_21  and  O4_22 
REMARK    7  A    between atoms: N6_30  and  C13_31 
REMARK    8  A    between atoms: C13_31  and  O5_32 
REMARK    9  A    between atoms: C13_31  and  C14_34 
REMARK   10  A    between atoms: C14_34  and  N7_35 
REMARK   11  A    between atoms: C14_34  and  C15_39 
REMARK       I    between atoms: C15_39  and  N8_41 
REMARK   12  A    between atoms: N8_41  and  N9_43 
REMARK   13  A    between atoms: C16_46  and  O7_47 
ROOT
HETATM    1  C1  UNL     1     -35.193 -27.462  19.778  1.00  0.00     0.055 C 
HETATM    2  C2  UNL     1     -35.688 -26.878  18.465  1.00  0.00     0.019 A 
HETATM    3  C3  UNL     1     -35.045 -25.956  17.689  1.00  0.00     0.071 A 
HETATM    4  N5  UNL     1     -35.874 -25.763  16.651  1.00  0.00    -0.293 N 
ATOM      5  H5  UNL     1     -35.680 -25.115  15.888  1.00  0.00     0.187 HD
HETATM    6  N6  UNL     1     -36.967 -26.501  16.725  1.00  0.00    -0.238 N 
HETATM    7  C16 UNL     1     -36.884 -27.209  17.860  1.00  0.00     0.168 A 
ENDROOT
BRANCH   3   8
HETATM    8  C4  UNL     1     -33.753 -25.352  17.947  1.00  0.00     0.030 A 
HETATM    9  C5  UNL     1     -33.667 -24.208  18.696  1.00  0.00     0.058 A 
HETATM   10  N2  UNL     1     -32.439 -23.656  18.860  1.00  0.00    -0.323 N 
HETATM   11  C8  UNL     1     -31.351 -24.233  18.290  1.00  0.00     0.262 A 
ATOM     12  H2  UNL     1     -32.333 -22.806  19.413  1.00  0.00     0.169 HD
HETATM   13  O2  UNL     1     -30.213 -23.693  18.463  1.00  0.00    -0.267 OA
HETATM   14  C9  UNL     1     -31.410 -25.373  17.533  1.00  0.00     0.116 A 
HETATM   15  C10 UNL     1     -30.323 -25.952  16.888  1.00  0.00     0.303 A 
HETATM   16  C12 UNL     1     -32.671 -25.962  17.356  1.00  0.00     0.017 A 
HETATM   17  O3  UNL     1     -29.221 -25.366  17.085  1.00  0.00    -0.263 OA
HETATM   18  N3  UNL     1     -30.445 -27.038  16.115  1.00  0.00    -0.122 N 
HETATM   19  N4  UNL     1     -31.641 -27.582  15.961  1.00  0.00    -0.282 N 
HETATM   20  C11 UNL     1     -32.746 -27.077  16.559  1.00  0.00     0.123 A 
ATOM     21  H4  UNL     1     -31.733 -28.410  15.372  1.00  0.00     0.188 HD
BRANCH   9  22
HETATM   22  C6  UNL     1     -34.919 -23.701  19.346  1.00  0.00     0.257 C 
BRANCH  22  23
HETATM   23  N1  UNL     1     -34.857 -23.994  20.795  1.00  0.00    -0.068 N 
ATOM     24  H13 UNL     1     -34.148 -23.440  21.274  1.00  0.00     0.275 HD
ATOM     25  H12 UNL     1     -35.673 -23.646  21.298  1.00  0.00     0.275 HD
ATOM     26  H11 UNL     1     -34.720 -24.997  20.921  1.00  0.00     0.275 HD
ENDBRANCH  22  23
BRANCH  22  27
HETATM   27  C7  UNL     1     -34.817 -22.154  19.304  1.00  0.00     0.203 C 
BRANCH  27  28
HETATM   28  O1  UNL     1     -34.682 -21.590  18.083  1.00  0.00    -0.398 OA
ATOM     29  H1  UNL     1     -34.706 -22.179  17.338  1.00  0.00     0.209 HD
ENDBRANCH  27  28
ENDBRANCH  22  27
ENDBRANCH   9  22
BRANCH  18  30
HETATM   30  O4  UNL     1     -29.315 -27.542  15.491  1.00  0.00    -0.265 OA
ATOM     31  H4  UNL     1     -29.309 -28.454  15.225  1.00  0.00     0.247 HD
ENDBRANCH  18  30
ENDBRANCH   3   8
BRANCH   7  32
HETATM   32  O7  UNL     1     -37.881 -28.104  18.280  1.00  0.00    -0.344 OA
ATOM     33  H7  UNL     1     -37.911 -29.051  18.215  1.00  0.00     0.219 HD
ENDBRANCH   7  32
BRANCH   6  34
HETATM   34  C13 UNL     1     -37.963 -26.493  15.706  1.00  0.00     0.283 C 
BRANCH  34  35
HETATM   35  O5  UNL     1     -37.303 -26.773  14.448  1.00  0.00    -0.372 OA
ATOM     36  H5  UNL     1     -37.280 -27.717  14.341  1.00  0.00     0.212 HD
ENDBRANCH  34  35
BRANCH  34  37
HETATM   37  C14 UNL     1     -38.709 -25.242  15.415  1.00  0.00     0.326 C 
BRANCH  37  38
HETATM   38  N7  UNL     1     -39.644 -25.056  16.620  1.00  0.00    -0.062 N 
ATOM     39  H73 UNL     1     -39.556 -25.784  17.329  1.00  0.00     0.275 HD
ATOM     40  H72 UNL     1     -39.390 -24.276  17.225  1.00  0.00     0.275 HD
ATOM     41  H71 UNL     1     -40.576 -24.982  16.214  1.00  0.00     0.275 HD
ENDBRANCH  37  38
BRANCH  37  42
HETATM   42  C15 UNL     1     -37.953 -23.978  15.498  1.00  0.00     0.270 C 
HETATM   43  O6  UNL     1     -37.036 -23.721  14.653  1.00  0.00    -0.269 OA
HETATM   44  N8  UNL     1     -38.207 -23.015  16.500  1.00  0.00    -0.275 N 
ATOM     45  H8  UNL     1     -38.945 -23.194  17.181  1.00  0.00     0.189 HD
BRANCH  44  46
HETATM   46  N9  UNL     1     -37.485 -21.834  16.587  1.00  0.00    -0.343 N 
ATOM     47  H92 UNL     1     -37.330 -21.306  15.729  1.00  0.00     0.176 HD
ATOM     48  H91 UNL     1     -37.114 -21.491  17.472  1.00  0.00     0.176 HD
ENDBRANCH  44  46
ENDBRANCH  37  42
ENDBRANCH  34  37
ENDBRANCH   6  34
TORSDOF 13
ENDMDL
