MODEL 1
REMARK VINA RESULT: -6.697727792      0.000      0.000
REMARK  14 active torsions:
REMARK  status: ('A' for Active; 'I' for Inactive)
REMARK    1  A    between atoms: C2_2  and  O1_3 
REMARK    2  A    between atoms: C4_6  and  N1_7 
REMARK    3  A    between atoms: N1_7  and  N2_8 
REMARK    4  A    between atoms: C6_14  and  S1_15 
REMARK    5  A    between atoms: S1_15  and  C7_16 
REMARK    6  A    between atoms: C7_16  and  C8_17 
REMARK    7  A    between atoms: C8_17  and  O2_18 
REMARK    8  A    between atoms: C8_17  and  C9_20 
REMARK    9  A    between atoms: C9_20  and  O3_21 
REMARK   10  A    between atoms: C9_20  and  C10_23 
REMARK   11  A    between atoms: C10_23  and  O4_24 
REMARK   12  A    between atoms: C12_33  and  C13_34 
REMARK   13  A    between atoms: C13_34  and  O5_35 
REMARK   14  A    between atoms: C13_34  and  O6_37 
ROOT
HETATM    1  C1  UNL     1     -36.096 -22.741  18.948  1.00  0.00     0.052 C 
HETATM    2  C2  UNL     1     -34.783 -22.180  19.240  1.00  0.00     0.121 C 
HETATM    3  C3  UNL     1     -33.628 -23.145  18.955  1.00  0.00     0.118 C 
HETATM    4  C4  UNL     1     -32.325 -22.422  19.000  1.00  0.00     0.179 C 
HETATM    5  C5  UNL     1     -32.404 -21.115  19.725  1.00  0.00     0.127 A 
HETATM    6  N3  UNL     1     -31.398 -20.257  19.511  1.00  0.00    -0.324 N 
ATOM      7  H3  UNL     1     -30.628 -20.521  18.896  1.00  0.00     0.169 HD
HETATM    8  C6  UNL     1     -31.397 -19.046  20.104  1.00  0.00     0.161 A 
HETATM    9  N4  UNL     1     -32.432 -18.739  20.907  1.00  0.00    -0.170 N 
ATOM     10  H4  UNL     1     -32.453 -17.828  21.367  1.00  0.00     0.186 HD
HETATM   11  C11 UNL     1     -33.455 -19.618  21.122  1.00  0.00     0.684 A 
HETATM   12  N5  UNL     1     -34.403 -19.218  21.894  1.00  0.00    -0.234 N 
ATOM     13  H51 UNL     1     -35.167 -19.874  22.055  1.00  0.00     0.174 HD
ATOM     14  H52 UNL     1     -34.409 -18.302  22.344  1.00  0.00     0.174 HD
HETATM   15  N6  UNL     1     -33.448 -20.811  20.534  1.00  0.00    -0.129 N 
HETATM   16  C12 UNL     1     -34.436 -21.841  20.661  1.00  0.00     0.242 C 
HETATM   17  O7  UNL     1     -33.696 -22.954  21.164  1.00  0.00    -0.313 OA
HETATM   18  C14 UNL     1     -33.738 -23.947  20.239  1.00  0.00     0.197 A 
HETATM   19  C15 UNL     1     -34.342 -25.186  20.233  1.00  0.00     0.240 A 
HETATM   20  O8  UNL     1     -32.909 -25.025  20.475  1.00  0.00    -0.347 OA
ENDROOT
BRANCH   8  21
HETATM   21  S1  UNL     1     -30.046 -17.952  19.785  1.00  0.00    -0.091 SA
BRANCH  21  22
HETATM   22  C7  UNL     1     -30.551 -16.438  18.967  1.00  0.00     0.116 C 
BRANCH  22  23
HETATM   23  C8  UNL     1     -31.017 -15.401  19.938  1.00  0.00     0.158 C 
BRANCH  23  24
HETATM   24  O2  UNL     1     -32.373 -15.504  20.231  1.00  0.00    -0.392 OA
ATOM     25  H2  UNL     1     -32.544 -16.004  21.021  1.00  0.00     0.210 HD
ENDBRANCH  23  24
BRANCH  23  26
HETATM   26  C9  UNL     1     -30.738 -13.997  19.479  1.00  0.00     0.171 C 
BRANCH  26  27
HETATM   27  O3  UNL     1     -29.416 -13.625  19.675  1.00  0.00    -0.391 OA
ATOM     28  H3  UNL     1     -29.254 -13.303  20.554  1.00  0.00     0.210 HD
ENDBRANCH  26  27
BRANCH  26  29
HETATM   29  C10 UNL     1     -31.636 -13.062  20.300  1.00  0.00     0.198 C 
BRANCH  29  30
HETATM   30  O4  UNL     1     -31.406 -11.748  19.900  1.00  0.00    -0.398 OA
ATOM     31  H4  UNL     1     -32.026 -11.179  20.340  1.00  0.00     0.209 HD
ENDBRANCH  29  30
ENDBRANCH  26  29
ENDBRANCH  23  26
ENDBRANCH  22  23
ENDBRANCH  21  22
ENDBRANCH   8  21
BRANCH   4  32
HETATM   32  N1  UNL     1     -31.273 -23.195  19.609  1.00  0.00    -0.135 NA
BRANCH  32  33
HETATM   33  N2  UNL     1     -30.636 -24.030  18.675  1.00  0.00    -0.348 N 
ATOM     34  H22 UNL     1     -31.104 -24.409  17.852  1.00  0.00     0.172 HD
ATOM     35  H21 UNL     1     -29.664 -24.203  18.928  1.00  0.00     0.172 HD
ENDBRANCH  32  33
ENDBRANCH   4  32
BRANCH  16  36
HETATM   36  C13 UNL     1     -35.535 -21.702  21.603  1.00  0.00     0.314 C 
BRANCH  36  37
HETATM   37  O5  UNL     1     -36.368 -22.850  21.459  1.00  0.00    -0.367 OA
ATOM     38  H5  UNL     1     -35.828 -23.552  21.115  1.00  0.00     0.212 HD
ENDBRANCH  36  37
BRANCH  36  39
HETATM   39  O6  UNL     1     -35.049 -21.923  22.925  1.00  0.00    -0.367 OA
ATOM     40  H6  UNL     1     -34.430 -21.237  23.149  1.00  0.00     0.212 HD
ENDBRANCH  36  39
ENDBRANCH  16  36
BRANCH   2  41
HETATM   41  O1  UNL     1     -34.563 -21.100  18.364  1.00  0.00    -0.384 OA
ATOM     42  H1  UNL     1     -34.577 -21.431  17.474  1.00  0.00     0.210 HD
ENDBRANCH   2  41
TORSDOF 14
ENDMDL
MODEL 2
REMARK VINA RESULT: -6.452459027      2.470      4.398
REMARK  14 active torsions:
REMARK  status: ('A' for Active; 'I' for Inactive)
REMARK    1  A    between atoms: C2_2  and  O1_3 
REMARK    2  A    between atoms: C4_6  and  N1_7 
REMARK    3  A    between atoms: N1_7  and  N2_8 
REMARK    4  A    between atoms: C6_14  and  S1_15 
REMARK    5  A    between atoms: S1_15  and  C7_16 
REMARK    6  A    between atoms: C7_16  and  C8_17 
REMARK    7  A    between atoms: C8_17  and  O2_18 
REMARK    8  A    between atoms: C8_17  and  C9_20 
REMARK    9  A    between atoms: C9_20  and  O3_21 
REMARK   10  A    between atoms: C9_20  and  C10_23 
REMARK   11  A    between atoms: C10_23  and  O4_24 
REMARK   12  A    between atoms: C12_33  and  C13_34 
REMARK   13  A    between atoms: C13_34  and  O5_35 
REMARK   14  A    between atoms: C13_34  and  O6_37 
ROOT
HETATM    1  C1  UNL     1     -35.285 -26.739  19.891  1.00  0.00     0.052 C 
HETATM    2  C2  UNL     1     -34.840 -25.374  19.645  1.00  0.00     0.121 C 
HETATM    3  C3  UNL     1     -35.932 -24.470  19.062  1.00  0.00     0.118 C 
HETATM    4  C4  UNL     1     -35.502 -23.045  19.103  1.00  0.00     0.179 C 
HETATM    5  C5  UNL     1     -34.022 -22.881  19.258  1.00  0.00     0.127 A 
HETATM    6  N3  UNL     1     -33.597 -21.674  19.654  1.00  0.00    -0.324 N 
ATOM      7  H3  UNL     1     -34.271 -20.926  19.813  1.00  0.00     0.169 HD
HETATM    8  C6  UNL     1     -32.282 -21.443  19.842  1.00  0.00     0.161 A 
HETATM    9  N4  UNL     1     -31.428 -22.459  19.621  1.00  0.00    -0.170 N 
ATOM     10  H4  UNL     1     -30.428 -22.307  19.758  1.00  0.00     0.186 HD
HETATM   11  C11 UNL     1     -31.867 -23.687  19.218  1.00  0.00     0.684 A 
HETATM   12  N5  UNL     1     -30.968 -24.592  19.051  1.00  0.00    -0.234 N 
ATOM     13  H51 UNL     1     -31.295 -25.510  18.750  1.00  0.00     0.174 HD
ATOM     14  H52 UNL     1     -29.972 -24.424  19.194  1.00  0.00     0.174 HD
HETATM   15  N6  UNL     1     -33.166 -23.907  19.032  1.00  0.00    -0.129 N 
HETATM   16  C12 UNL     1     -33.781 -25.129  18.609  1.00  0.00     0.242 C 
HETATM   17  O7  UNL     1     -34.474 -24.758  17.415  1.00  0.00    -0.313 OA
HETATM   18  C14 UNL     1     -35.803 -24.934  17.622  1.00  0.00     0.197 A 
HETATM   19  C15 UNL     1     -36.716 -25.824  17.095  1.00  0.00     0.240 A 
HETATM   20  O8  UNL     1     -36.636 -24.437  16.640  1.00  0.00    -0.347 OA
ENDROOT
BRANCH   8  21
HETATM   21  S1  UNL     1     -31.776 -19.833  20.367  1.00  0.00    -0.091 SA
BRANCH  21  22
HETATM   22  C7  UNL     1     -30.031 -19.525  20.092  1.00  0.00     0.116 C 
BRANCH  22  23
HETATM   23  C8  UNL     1     -29.731 -18.066  19.955  1.00  0.00     0.158 C 
BRANCH  23  24
HETATM   24  O2  UNL     1     -29.854 -17.372  21.154  1.00  0.00    -0.392 OA
ATOM     25  H2  UNL     1     -29.837 -16.429  21.040  1.00  0.00     0.210 HD
ENDBRANCH  23  24
BRANCH  23  26
HETATM   26  C9  UNL     1     -30.586 -17.385  18.924  1.00  0.00     0.171 C 
BRANCH  26  27
HETATM   27  O3  UNL     1     -29.993 -17.362  17.670  1.00  0.00    -0.391 OA
ATOM     28  H3  UNL     1     -30.048 -16.509  17.255  1.00  0.00     0.210 HD
ENDBRANCH  26  27
BRANCH  26  29
HETATM   29  C10 UNL     1     -30.797 -15.938  19.391  1.00  0.00     0.198 C 
BRANCH  29  30
HETATM   30  O4  UNL     1     -32.097 -15.804  19.874  1.00  0.00    -0.398 OA
ATOM     31  H4  UNL     1     -32.344 -16.606  20.319  1.00  0.00     0.209 HD
ENDBRANCH  29  30
ENDBRANCH  26  29
ENDBRANCH  23  26
ENDBRANCH  22  23
ENDBRANCH  21  22
ENDBRANCH   8  21
BRANCH   4  32
HETATM   32  N1  UNL     1     -35.901 -22.302  17.935  1.00  0.00    -0.135 NA
BRANCH  32  33
HETATM   33  N2  UNL     1     -37.142 -21.669  18.122  1.00  0.00    -0.348 N 
ATOM     34  H22 UNL     1     -37.259 -20.656  18.131  1.00  0.00     0.172 HD
ATOM     35  H21 UNL     1     -37.894 -22.346  18.246  1.00  0.00     0.172 HD
ENDBRANCH  32  33
ENDBRANCH   4  32
BRANCH  16  36
HETATM   36  C13 UNL     1     -32.971 -26.265  18.199  1.00  0.00     0.314 C 
BRANCH  36  37
HETATM   37  O5  UNL     1     -33.859 -27.271  17.718  1.00  0.00    -0.367 OA
ATOM     38  H5  UNL     1     -34.476 -26.849  17.132  1.00  0.00     0.212 HD
ENDBRANCH  36  37
BRANCH  36  39
HETATM   39  O6  UNL     1     -32.292 -25.944  16.988  1.00  0.00    -0.367 OA
ATOM     40  H6  UNL     1     -31.365 -25.840  17.167  1.00  0.00     0.212 HD
ENDBRANCH  36  39
ENDBRANCH  16  36
BRANCH   2  41
HETATM   41  O1  UNL     1     -34.522 -24.785  20.883  1.00  0.00    -0.384 OA
ATOM     42  H1  UNL     1     -35.179 -25.051  21.516  1.00  0.00     0.210 HD
ENDBRANCH   2  41
TORSDOF 14
ENDMDL
MODEL 3
REMARK VINA RESULT: -6.444615595      2.665      4.475
REMARK  14 active torsions:
REMARK  status: ('A' for Active; 'I' for Inactive)
REMARK    1  A    between atoms: C2_2  and  O1_3 
REMARK    2  A    between atoms: C4_6  and  N1_7 
REMARK    3  A    between atoms: N1_7  and  N2_8 
REMARK    4  A    between atoms: C6_14  and  S1_15 
REMARK    5  A    between atoms: S1_15  and  C7_16 
REMARK    6  A    between atoms: C7_16  and  C8_17 
REMARK    7  A    between atoms: C8_17  and  O2_18 
REMARK    8  A    between atoms: C8_17  and  C9_20 
REMARK    9  A    between atoms: C9_20  and  O3_21 
REMARK   10  A    between atoms: C9_20  and  C10_23 
REMARK   11  A    between atoms: C10_23  and  O4_24 
REMARK   12  A    between atoms: C12_33  and  C13_34 
REMARK   13  A    between atoms: C13_34  and  O5_35 
REMARK   14  A    between atoms: C13_34  and  O6_37 
ROOT
HETATM    1  C1  UNL     1     -35.119 -26.858  19.801  1.00  0.00     0.052 C 
HETATM    2  C2  UNL     1     -34.813 -25.447  19.601  1.00  0.00     0.121 C 
HETATM    3  C3  UNL     1     -35.962 -24.656  18.966  1.00  0.00     0.118 C 
HETATM    4  C4  UNL     1     -35.695 -23.193  19.052  1.00  0.00     0.179 C 
HETATM    5  C5  UNL     1     -34.253 -22.873  19.297  1.00  0.00     0.127 A 
HETATM    6  N3  UNL     1     -33.986 -21.635  19.734  1.00  0.00    -0.324 N 
ATOM      7  H3  UNL     1     -34.747 -20.968  19.863  1.00  0.00     0.169 HD
HETATM    8  C6  UNL     1     -32.718 -21.266  20.004  1.00  0.00     0.161 A 
HETATM    9  N4  UNL     1     -31.746 -22.178  19.820  1.00  0.00    -0.170 N 
ATOM     10  H4  UNL     1     -30.778 -21.921  20.018  1.00  0.00     0.186 HD
HETATM   11  C11 UNL     1     -32.023 -23.439  19.375  1.00  0.00     0.684 A 
HETATM   12  N5  UNL     1     -31.022 -24.237  19.249  1.00  0.00    -0.234 N 
ATOM     13  H51 UNL     1     -31.229 -25.179  18.916  1.00  0.00     0.174 HD
ATOM     14  H52 UNL     1     -30.060 -23.964  19.453  1.00  0.00     0.174 HD
HETATM   15  N6  UNL     1     -33.277 -23.795  19.109  1.00  0.00    -0.129 N 
HETATM   16  C12 UNL     1     -33.729 -25.068  18.633  1.00  0.00     0.242 C 
HETATM   17  O7  UNL     1     -34.389 -24.750  17.406  1.00  0.00    -0.313 OA
HETATM   18  C14 UNL     1     -35.701 -25.074  17.530  1.00  0.00     0.197 A 
HETATM   19  C15 UNL     1     -36.478 -26.047  16.938  1.00  0.00     0.240 A 
HETATM   20  O8  UNL     1     -36.525 -24.650  16.507  1.00  0.00    -0.347 OA
ENDROOT
BRANCH   8  21
HETATM   21  S1  UNL     1     -32.423 -19.622  20.580  1.00  0.00    -0.091 SA
BRANCH  21  22
HETATM   22  C7  UNL     1     -30.691 -19.159  20.517  1.00  0.00     0.116 C 
BRANCH  22  23
HETATM   23  C8  UNL     1     -30.507 -17.701  20.239  1.00  0.00     0.158 C 
BRANCH  23  24
HETATM   24  O2  UNL     1     -29.177 -17.354  20.029  1.00  0.00    -0.392 OA
ATOM     25  H2  UNL     1     -29.078 -16.554  19.525  1.00  0.00     0.210 HD
ENDBRANCH  23  24
BRANCH  23  26
HETATM   26  C9  UNL     1     -31.060 -16.821  21.324  1.00  0.00     0.171 C 
BRANCH  26  27
HETATM   27  O3  UNL     1     -30.726 -15.486  21.150  1.00  0.00    -0.391 OA
ATOM     28  H3  UNL     1     -29.805 -15.316  21.308  1.00  0.00     0.210 HD
ENDBRANCH  26  27
BRANCH  26  29
HETATM   29  C10 UNL     1     -30.462 -17.305  22.652  1.00  0.00     0.198 C 
BRANCH  29  30
HETATM   30  O4  UNL     1     -29.476 -16.408  23.056  1.00  0.00    -0.398 OA
ATOM     31  H4  UNL     1     -28.719 -16.898  23.355  1.00  0.00     0.209 HD
ENDBRANCH  29  30
ENDBRANCH  26  29
ENDBRANCH  23  26
ENDBRANCH  22  23
ENDBRANCH  21  22
ENDBRANCH   8  21
BRANCH   4  32
HETATM   32  N1  UNL     1     -36.105 -22.475  17.873  1.00  0.00    -0.135 NA
BRANCH  32  33
HETATM   33  N2  UNL     1     -37.424 -22.005  17.985  1.00  0.00    -0.348 N 
ATOM     34  H22 UNL     1     -38.077 -21.972  17.202  1.00  0.00     0.172 HD
ATOM     35  H21 UNL     1     -37.637 -21.707  18.937  1.00  0.00     0.172 HD
ENDBRANCH  32  33
ENDBRANCH   4  32
BRANCH  16  36
HETATM   36  C13 UNL     1     -32.777 -26.100  18.257  1.00  0.00     0.314 C 
BRANCH  36  37
HETATM   37  O5  UNL     1     -33.519 -27.186  17.707  1.00  0.00    -0.367 OA
ATOM     38  H5  UNL     1     -33.791 -27.739  18.429  1.00  0.00     0.212 HD
ENDBRANCH  36  37
BRANCH  36  39
HETATM   39  O6  UNL     1     -32.066 -25.681  17.094  1.00  0.00    -0.367 OA
ATOM     40  H6  UNL     1     -32.075 -26.383  16.453  1.00  0.00     0.212 HD
ENDBRANCH  36  39
ENDBRANCH  16  36
BRANCH   2  41
HETATM   41  O1  UNL     1     -34.634 -24.852  20.864  1.00  0.00    -0.384 OA
ATOM     42  H1  UNL     1     -35.224 -24.111  20.930  1.00  0.00     0.210 HD
ENDBRANCH   2  41
TORSDOF 14
ENDMDL
MODEL 4
REMARK VINA RESULT: -6.438186518      1.460      1.642
REMARK  14 active torsions:
REMARK  status: ('A' for Active; 'I' for Inactive)
REMARK    1  A    between atoms: C2_2  and  O1_3 
REMARK    2  A    between atoms: C4_6  and  N1_7 
REMARK    3  A    between atoms: N1_7  and  N2_8 
REMARK    4  A    between atoms: C6_14  and  S1_15 
REMARK    5  A    between atoms: S1_15  and  C7_16 
REMARK    6  A    between atoms: C7_16  and  C8_17 
REMARK    7  A    between atoms: C8_17  and  O2_18 
REMARK    8  A    between atoms: C8_17  and  C9_20 
REMARK    9  A    between atoms: C9_20  and  O3_21 
REMARK   10  A    between atoms: C9_20  and  C10_23 
REMARK   11  A    between atoms: C10_23  and  O4_24 
REMARK   12  A    between atoms: C12_33  and  C13_34 
REMARK   13  A    between atoms: C13_34  and  O5_35 
REMARK   14  A    between atoms: C13_34  and  O6_37 
ROOT
HETATM    1  C1  UNL     1     -35.088 -23.116  21.515  1.00  0.00     0.052 C 
HETATM    2  C2  UNL     1     -33.948 -22.370  20.998  1.00  0.00     0.121 C 
HETATM    3  C3  UNL     1     -33.102 -23.163  19.996  1.00  0.00     0.118 C 
HETATM    4  C4  UNL     1     -32.139 -22.262  19.303  1.00  0.00     0.179 C 
HETATM    5  C5  UNL     1     -31.913 -20.973  20.030  1.00  0.00     0.127 A 
HETATM    6  N3  UNL     1     -31.357 -19.982  19.321  1.00  0.00    -0.324 N 
ATOM      7  H3  UNL     1     -31.098 -20.138  18.347  1.00  0.00     0.169 HD
HETATM    8  C6  UNL     1     -31.138 -18.778  19.888  1.00  0.00     0.161 A 
HETATM    9  N4  UNL     1     -31.496 -18.615  21.174  1.00  0.00    -0.170 N 
ATOM     10  H4  UNL     1     -31.340 -17.713  21.625  1.00  0.00     0.186 HD
HETATM   11  C11 UNL     1     -32.062 -19.629  21.893  1.00  0.00     0.684 A 
HETATM   12  N5  UNL     1     -32.382 -19.362  23.110  1.00  0.00    -0.234 N 
ATOM     13  H51 UNL     1     -32.805 -20.119  23.646  1.00  0.00     0.174 HD
ATOM     14  H52 UNL     1     -32.220 -18.453  23.544  1.00  0.00     0.174 HD
HETATM   15  N6  UNL     1     -32.274 -20.814  21.327  1.00  0.00    -0.129 N 
HETATM   16  C12 UNL     1     -32.849 -21.973  21.942  1.00  0.00     0.242 C 
HETATM   17  O7  UNL     1     -31.831 -22.965  21.803  1.00  0.00    -0.313 OA
HETATM   18  C14 UNL     1     -32.311 -23.961  21.016  1.00  0.00     0.197 A 
HETATM   19  C15 UNL     1     -32.641 -25.275  21.277  1.00  0.00     0.240 A 
HETATM   20  O8  UNL     1     -31.390 -24.908  20.615  1.00  0.00    -0.347 OA
ENDROOT
BRANCH   8  21
HETATM   21  S1  UNL     1     -30.403 -17.505  18.906  1.00  0.00    -0.091 SA
BRANCH  21  22
HETATM   22  C7  UNL     1     -29.944 -16.060  19.865  1.00  0.00     0.116 C 
BRANCH  22  23
HETATM   23  C8  UNL     1     -31.109 -15.160  20.121  1.00  0.00     0.158 C 
BRANCH  23  24
HETATM   24  O2  UNL     1     -32.316 -15.700  19.690  1.00  0.00    -0.392 OA
ATOM     25  H2  UNL     1     -32.890 -15.055  19.291  1.00  0.00     0.210 HD
ENDBRANCH  23  24
BRANCH  23  26
HETATM   26  C9  UNL     1     -30.950 -13.801  19.499  1.00  0.00     0.171 C 
BRANCH  26  27
HETATM   27  O3  UNL     1     -29.629 -13.377  19.473  1.00  0.00    -0.391 OA
ATOM     28  H3  UNL     1     -29.254 -13.299  20.342  1.00  0.00     0.210 HD
ENDBRANCH  26  27
BRANCH  26  29
HETATM   29  C10 UNL     1     -31.763 -12.814  20.347  1.00  0.00     0.198 C 
BRANCH  29  30
HETATM   30  O4  UNL     1     -31.457 -11.515  19.946  1.00  0.00    -0.398 OA
ATOM     31  H4  UNL     1     -31.964 -10.904  20.468  1.00  0.00     0.209 HD
ENDBRANCH  29  30
ENDBRANCH  26  29
ENDBRANCH  23  26
ENDBRANCH  22  23
ENDBRANCH  21  22
ENDBRANCH   8  21
BRANCH   4  32
HETATM   32  N1  UNL     1     -30.852 -22.871  19.087  1.00  0.00    -0.135 NA
BRANCH  32  33
HETATM   33  N2  UNL     1     -30.853 -23.697  17.951  1.00  0.00    -0.348 N 
ATOM     34  H22 UNL     1     -31.277 -24.625  17.932  1.00  0.00     0.172 HD
ATOM     35  H21 UNL     1     -30.382 -23.253  17.163  1.00  0.00     0.172 HD
ENDBRANCH  32  33
ENDBRANCH   4  32
BRANCH  16  36
HETATM   36  C13 UNL     1     -33.152 -21.985  23.364  1.00  0.00     0.314 C 
BRANCH  36  37
HETATM   37  O5  UNL     1     -33.872 -23.185  23.637  1.00  0.00    -0.367 OA
ATOM     38  H5  UNL     1     -34.797 -22.968  23.639  1.00  0.00     0.212 HD
ENDBRANCH  36  37
BRANCH  36  39
HETATM   39  O6  UNL     1     -31.957 -22.249  24.095  1.00  0.00    -0.367 OA
ATOM     40  H6  UNL     1     -32.090 -22.011  25.005  1.00  0.00     0.212 HD
ENDBRANCH  36  39
ENDBRANCH  16  36
BRANCH   2  41
HETATM   41  O1  UNL     1     -34.437 -21.277  20.257  1.00  0.00    -0.384 OA
ATOM     42  H1  UNL     1     -33.890 -20.524  20.444  1.00  0.00     0.210 HD
ENDBRANCH   2  41
TORSDOF 14
ENDMDL
MODEL 5
REMARK VINA RESULT: -6.410711961      1.611      3.682
REMARK  14 active torsions:
REMARK  status: ('A' for Active; 'I' for Inactive)
REMARK    1  A    between atoms: C2_2  and  O1_3 
REMARK    2  A    between atoms: C4_6  and  N1_7 
REMARK    3  A    between atoms: N1_7  and  N2_8 
REMARK    4  A    between atoms: C6_14  and  S1_15 
REMARK    5  A    between atoms: S1_15  and  C7_16 
REMARK    6  A    between atoms: C7_16  and  C8_17 
REMARK    7  A    between atoms: C8_17  and  O2_18 
REMARK    8  A    between atoms: C8_17  and  C9_20 
REMARK    9  A    between atoms: C9_20  and  O3_21 
REMARK   10  A    between atoms: C9_20  and  C10_23 
REMARK   11  A    between atoms: C10_23  and  O4_24 
REMARK   12  A    between atoms: C12_33  and  C13_34 
REMARK   13  A    between atoms: C13_34  and  O5_35 
REMARK   14  A    between atoms: C13_34  and  O6_37 
ROOT
HETATM    1  C1  UNL     1     -35.227 -23.629  21.697  1.00  0.00     0.052 C 
HETATM    2  C2  UNL     1     -34.750 -22.256  21.601  1.00  0.00     0.121 C 
HETATM    3  C3  UNL     1     -35.650 -21.244  22.319  1.00  0.00     0.118 C 
HETATM    4  C4  UNL     1     -34.966 -19.925  22.425  1.00  0.00     0.179 C 
HETATM    5  C5  UNL     1     -33.832 -19.772  21.460  1.00  0.00     0.127 A 
HETATM    6  N3  UNL     1     -32.959 -18.790  21.721  1.00  0.00    -0.324 N 
ATOM      7  H3  UNL     1     -33.101 -18.188  22.531  1.00  0.00     0.169 HD
HETATM    8  C6  UNL     1     -31.893 -18.595  20.919  1.00  0.00     0.161 A 
HETATM    9  N4  UNL     1     -31.744 -19.413  19.861  1.00  0.00    -0.170 N 
ATOM     10  H4  UNL     1     -30.945 -19.284  19.240  1.00  0.00     0.186 HD
HETATM   11  C11 UNL     1     -32.637 -20.413  19.599  1.00  0.00     0.684 A 
HETATM   12  N5  UNL     1     -32.391 -21.148  18.573  1.00  0.00    -0.234 N 
ATOM     13  H51 UNL     1     -33.058 -21.895  18.377  1.00  0.00     0.174 HD
ATOM     14  H52 UNL     1     -31.586 -21.006  17.963  1.00  0.00     0.174 HD
HETATM   15  N6  UNL     1     -33.687 -20.599  20.395  1.00  0.00    -0.129 N 
HETATM   16  C12 UNL     1     -34.710 -21.592  20.255  1.00  0.00     0.242 C 
HETATM   17  O7  UNL     1     -35.910 -20.823  20.157  1.00  0.00    -0.313 OA
HETATM   18  C14 UNL     1     -36.694 -21.119  21.224  1.00  0.00     0.197 A 
HETATM   19  C15 UNL     1     -37.900 -21.778  21.337  1.00  0.00     0.240 A 
HETATM   20  O8  UNL     1     -37.807 -20.320  21.394  1.00  0.00    -0.347 OA
ENDROOT
BRANCH   8  21
HETATM   21  S1  UNL     1     -30.772 -17.286  21.311  1.00  0.00    -0.091 SA
BRANCH  21  22
HETATM   22  C7  UNL     1     -31.455 -15.659  20.987  1.00  0.00     0.116 C 
BRANCH  22  23
HETATM   23  C8  UNL     1     -31.365 -15.287  19.542  1.00  0.00     0.158 C 
BRANCH  23  24
HETATM   24  O2  UNL     1     -30.569 -16.160  18.806  1.00  0.00    -0.392 OA
ATOM     25  H2  UNL     1     -30.134 -15.738  18.075  1.00  0.00     0.210 HD
ENDBRANCH  23  24
BRANCH  23  26
HETATM   26  C9  UNL     1     -30.858 -13.889  19.325  1.00  0.00     0.171 C 
BRANCH  26  27
HETATM   27  O3  UNL     1     -29.521 -13.747  19.665  1.00  0.00    -0.391 OA
ATOM     28  H3  UNL     1     -29.394 -13.593  20.594  1.00  0.00     0.210 HD
ENDBRANCH  26  27
BRANCH  26  29
HETATM   29  C10 UNL     1     -31.691 -12.960  20.219  1.00  0.00     0.198 C 
BRANCH  29  30
HETATM   30  O4  UNL     1     -31.378 -11.638  19.911  1.00  0.00    -0.398 OA
ATOM     31  H4  UNL     1     -31.101 -11.194  20.704  1.00  0.00     0.209 HD
ENDBRANCH  29  30
ENDBRANCH  26  29
ENDBRANCH  23  26
ENDBRANCH  22  23
ENDBRANCH  21  22
ENDBRANCH   8  21
BRANCH   4  32
HETATM   32  N1  UNL     1     -35.857 -18.811  22.228  1.00  0.00    -0.135 NA
BRANCH  32  33
HETATM   33  N2  UNL     1     -36.404 -18.364  23.443  1.00  0.00    -0.348 N 
ATOM     34  H22 UNL     1     -36.218 -18.811  24.340  1.00  0.00     0.172 HD
ATOM     35  H21 UNL     1     -37.001 -17.547  23.308  1.00  0.00     0.172 HD
ENDBRANCH  32  33
ENDBRANCH   4  32
BRANCH  16  36
HETATM   36  C13 UNL     1     -34.753 -22.452  19.083  1.00  0.00     0.314 C 
BRANCH  36  37
HETATM   37  O5  UNL     1     -35.853 -23.343  19.249  1.00  0.00    -0.367 OA
ATOM     38  H5  UNL     1     -36.282 -23.426  18.405  1.00  0.00     0.212 HD
ENDBRANCH  36  37
BRANCH  36  39
HETATM   39  O6  UNL     1     -35.219 -21.699  17.966  1.00  0.00    -0.367 OA
ATOM     40  H6  UNL     1     -35.954 -22.152  17.569  1.00  0.00     0.212 HD
ENDBRANCH  36  39
ENDBRANCH  16  36
BRANCH   2  41
HETATM   41  O1  UNL     1     -33.518 -22.170  22.276  1.00  0.00    -0.384 OA
ATOM     42  H1  UNL     1     -33.664 -21.735  23.108  1.00  0.00     0.210 HD
ENDBRANCH   2  41
TORSDOF 14
ENDMDL
