MODEL 1
REMARK VINA RESULT: -7.857572737      0.000      0.000
REMARK  10 active torsions:
REMARK  status: ('A' for Active; 'I' for Inactive)
REMARK    1  A    between atoms: C4_12  and  C5_13 
REMARK    2  A    between atoms: C5_13  and  O2_14 
REMARK    3  A    between atoms: C5_13  and  O3_16 
REMARK    4  A    between atoms: C6_21  and  N6_22 
REMARK    5  A    between atoms: N6_22  and  C7_24 
REMARK    6  A    between atoms: C7_24  and  C8_25 
REMARK    7  A    between atoms: C8_25  and  N7_26 
REMARK    8  A    between atoms: N7_26  and  C9_28 
REMARK    9  A    between atoms: C12_35  and  O4_36 
REMARK   10  A    between atoms: C12_35  and  C13_38 
ROOT
HETATM    1  N1  UNL     1      -2.245  39.398   1.308  1.00  0.00    -0.234 N 
ATOM      2  H11 UNL     1      -1.366  38.917   1.496  1.00  0.00     0.174 HD
ATOM      3  H12 UNL     1      -2.239  40.418   1.260  1.00  0.00     0.174 HD
HETATM    4  C1  UNL     1      -3.351  38.729   1.133  1.00  0.00     0.692 A 
HETATM    5  N2  UNL     1      -4.511  39.363   0.885  1.00  0.00    -0.168 N 
ATOM      6  H2  UNL     1      -4.525  40.382   0.833  1.00  0.00     0.186 HD
HETATM    7  C2  UNL     1      -5.668  38.665   0.703  1.00  0.00     0.228 A 
HETATM    8  C3  UNL     1      -6.858  39.287   0.449  1.00  0.00     0.294 A 
HETATM    9  O1  UNL     1      -6.859  40.557   0.387  1.00  0.00    -0.264 OA
HETATM   10  N3  UNL     1      -7.966  38.561   0.277  1.00  0.00    -0.305 N 
ATOM     11  H3  UNL     1      -8.849  39.037   0.089  1.00  0.00     0.170 HD
HETATM   12  C4  UNL     1      -7.948  37.219   0.345  1.00  0.00     0.155 A 
HETATM   13  N4  UNL     1      -6.769  36.624   0.596  1.00  0.00    -0.262 N 
ATOM     14  H4  UNL     1      -6.729  35.607   0.654  1.00  0.00     0.189 HD
HETATM   15  N5  UNL     1      -5.660  37.321   0.769  1.00  0.00    -0.062 N 
HETATM   16  C6  UNL     1      -4.485  36.681   1.021  1.00  0.00     0.716 A 
HETATM   17  N10 UNL     1      -3.359  37.382   1.198  1.00  0.00    -0.021 N 
ATOM     18  H10 UNL     1      -2.487  36.886   1.385  1.00  0.00     0.203 HD
ENDROOT
BRANCH  16  19
HETATM   19  N6  UNL     1      -4.531  35.407   1.075  1.00  0.00    -0.222 N 
ATOM     20  H6  UNL     1      -5.208  34.915   0.491  1.00  0.00     0.177 HD
BRANCH  19  21
HETATM   21  C7  UNL     1      -3.668  34.642   1.922  1.00  0.00     0.157 C 
BRANCH  21  22
HETATM   22  C8  UNL     1      -2.791  33.739   1.053  1.00  0.00     0.141 C 
BRANCH  22  23
HETATM   23  N7  UNL     1      -3.268  32.395   1.133  1.00  0.00    -0.374 N 
ATOM     24  H7  UNL     1      -3.056  31.824   1.952  1.00  0.00     0.161 HD
BRANCH  23  25
HETATM   25  C9  UNL     1      -4.039  31.853   0.067  1.00  0.00     0.118 A 
HETATM   26  C10 UNL     1      -4.762  32.515  -0.900  1.00  0.00     0.141 A 
HETATM   27  N8  UNL     1      -5.367  31.618  -1.749  1.00  0.00    -0.330 N 
HETATM   28  C11 UNL     1      -5.009  30.420  -1.292  1.00  0.00     0.151 A 
HETATM   29  C14 UNL     1      -6.199  31.641  -2.911  1.00  0.00     0.192 C 
HETATM   30  N9  UNL     1      -4.222  30.528  -0.218  1.00  0.00    -0.322 N 
HETATM   31  S1  UNL     1      -5.797  29.222  -2.357  1.00  0.00    -0.043 SA
ATOM     32  H9  UNL     1      -3.822  29.748   0.305  1.00  0.00     0.169 HD
HETATM   33  C12 UNL     1      -7.083  30.417  -2.959  1.00  0.00     0.219 C 
BRANCH  33  34
HETATM   34  O4  UNL     1      -8.143  30.468  -2.087  1.00  0.00    -0.368 OA
ATOM     35  H4  UNL     1      -8.896  30.875  -2.498  1.00  0.00     0.212 HD
ENDBRANCH  33  34
BRANCH  33  36
HETATM   36  C13 UNL     1      -7.467  30.088  -4.339  1.00  0.00     0.222 C 
HETATM   37  O5  UNL     1      -8.150  29.081  -4.577  1.00  0.00    -0.645 OA
HETATM   38  O6  UNL     1      -7.061  30.912  -5.366  1.00  0.00    -0.645 OA
ENDBRANCH  33  36
ENDBRANCH  23  25
ENDBRANCH  22  23
ENDBRANCH  21  22
ENDBRANCH  19  21
ENDBRANCH  16  19
BRANCH  12  39
HETATM   39  C5  UNL     1      -9.205  36.426   0.149  1.00  0.00     0.325 C 
BRANCH  39  40
HETATM   40  O2  UNL     1     -10.262  37.277  -0.132  1.00  0.00    -0.365 OA
ATOM     41  H2  UNL     1     -10.471  37.798   0.635  1.00  0.00     0.213 HD
ENDBRANCH  39  40
BRANCH  39  42
HETATM   42  O3  UNL     1      -9.025  35.517  -0.893  1.00  0.00    -0.365 OA
ATOM     43  H3  UNL     1      -8.481  34.796  -0.597  1.00  0.00     0.213 HD
ENDBRANCH  39  42
ENDBRANCH  12  39
TORSDOF 10
ENDMDL
MODEL 2
REMARK VINA RESULT: -7.480119839      2.532      3.306
REMARK  10 active torsions:
REMARK  status: ('A' for Active; 'I' for Inactive)
REMARK    1  A    between atoms: C4_12  and  C5_13 
REMARK    2  A    between atoms: C5_13  and  O2_14 
REMARK    3  A    between atoms: C5_13  and  O3_16 
REMARK    4  A    between atoms: C6_21  and  N6_22 
REMARK    5  A    between atoms: N6_22  and  C7_24 
REMARK    6  A    between atoms: C7_24  and  C8_25 
REMARK    7  A    between atoms: C8_25  and  N7_26 
REMARK    8  A    between atoms: N7_26  and  C9_28 
REMARK    9  A    between atoms: C12_35  and  O4_36 
REMARK   10  A    between atoms: C12_35  and  C13_38 
ROOT
HETATM    1  N1  UNL     1      -2.408  36.423   1.514  1.00  0.00    -0.234 N 
ATOM      2  H11 UNL     1      -1.925  35.532   1.400  1.00  0.00     0.174 HD
ATOM      3  H12 UNL     1      -1.886  37.210   1.901  1.00  0.00     0.174 HD
HETATM    4  C1  UNL     1      -3.660  36.555   1.173  1.00  0.00     0.692 A 
HETATM    5  N2  UNL     1      -4.297  37.731   1.324  1.00  0.00    -0.168 N 
ATOM      6  H2  UNL     1      -3.793  38.529   1.709  1.00  0.00     0.186 HD
HETATM    7  C2  UNL     1      -5.606  37.870   0.969  1.00  0.00     0.228 A 
HETATM    8  C3  UNL     1      -6.274  39.053   1.111  1.00  0.00     0.294 A 
HETATM    9  O1  UNL     1      -5.631  40.039   1.593  1.00  0.00    -0.264 OA
HETATM   10  N3  UNL     1      -7.557  39.143   0.750  1.00  0.00    -0.305 N 
ATOM     11  H3  UNL     1      -8.045  40.032   0.863  1.00  0.00     0.170 HD
HETATM   12  C4  UNL     1      -8.222  38.091   0.242  1.00  0.00     0.155 A 
HETATM   13  N4  UNL     1      -7.549  36.935   0.109  1.00  0.00    -0.262 N 
ATOM     14  H4  UNL     1      -8.032  36.121  -0.273  1.00  0.00     0.189 HD
HETATM   15  N5  UNL     1      -6.281  36.822   0.459  1.00  0.00    -0.062 N 
HETATM   16  C6  UNL     1      -5.634  35.634   0.309  1.00  0.00     0.716 A 
HETATM   17  N10 UNL     1      -4.349  35.514   0.662  1.00  0.00    -0.021 N 
ATOM     18  H10 UNL     1      -3.880  34.616   0.542  1.00  0.00     0.203 HD
ENDROOT
BRANCH  16  19
HETATM   19  N6  UNL     1      -6.317  34.672  -0.178  1.00  0.00    -0.222 N 
ATOM     20  H6  UNL     1      -7.269  34.857  -0.494  1.00  0.00     0.177 HD
BRANCH  19  21
HETATM   21  C7  UNL     1      -5.797  33.344  -0.298  1.00  0.00     0.157 C 
BRANCH  21  22
HETATM   22  C8  UNL     1      -5.762  32.955  -1.776  1.00  0.00     0.141 C 
BRANCH  22  23
HETATM   23  N7  UNL     1      -6.466  31.726  -1.961  1.00  0.00    -0.374 N 
ATOM     24  H7  UNL     1      -7.335  31.553  -1.455  1.00  0.00     0.161 HD
BRANCH  23  25
HETATM   25  C9  UNL     1      -5.954  30.744  -2.854  1.00  0.00     0.118 A 
HETATM   26  C10 UNL     1      -6.518  30.243  -4.006  1.00  0.00     0.141 A 
HETATM   27  N8  UNL     1      -5.694  29.304  -4.579  1.00  0.00    -0.330 N 
HETATM   28  C11 UNL     1      -4.638  29.238  -3.772  1.00  0.00     0.151 A 
HETATM   29  C14 UNL     1      -5.676  28.461  -5.734  1.00  0.00     0.192 C 
HETATM   30  N9  UNL     1      -4.763  30.080  -2.742  1.00  0.00    -0.322 N 
HETATM   31  S1  UNL     1      -3.550  28.006  -4.470  1.00  0.00    -0.043 SA
ATOM     32  H9  UNL     1      -4.081  30.208  -1.995  1.00  0.00     0.169 HD
HETATM   33  C12 UNL     1      -4.897  27.196  -5.458  1.00  0.00     0.219 C 
BRANCH  33  34
HETATM   34  O4  UNL     1      -5.579  26.284  -4.690  1.00  0.00    -0.368 OA
ATOM     35  H4  UNL     1      -6.187  25.785  -5.223  1.00  0.00     0.212 HD
ENDBRANCH  33  34
BRANCH  33  36
HETATM   36  C13 UNL     1      -4.341  26.630  -6.695  1.00  0.00     0.222 C 
HETATM   37  O5  UNL     1      -3.468  25.752  -6.646  1.00  0.00    -0.645 OA
HETATM   38  O6  UNL     1      -4.802  27.086  -7.911  1.00  0.00    -0.645 OA
ENDBRANCH  33  36
ENDBRANCH  23  25
ENDBRANCH  22  23
ENDBRANCH  21  22
ENDBRANCH  19  21
ENDBRANCH  16  19
BRANCH  12  39
HETATM   39  C5  UNL     1      -9.661  38.216  -0.157  1.00  0.00     0.325 C 
BRANCH  39  40
HETATM   40  O2  UNL     1     -10.264  36.968  -0.147  1.00  0.00    -0.365 OA
ATOM     41  H2  UNL     1     -11.209  37.066  -0.137  1.00  0.00     0.213 HD
ENDBRANCH  39  40
BRANCH  39  42
HETATM   42  O3  UNL     1     -10.316  39.078   0.722  1.00  0.00    -0.365 OA
ATOM     43  H3  UNL     1     -10.627  38.590   1.476  1.00  0.00     0.213 HD
ENDBRANCH  39  42
ENDBRANCH  12  39
TORSDOF 10
ENDMDL
MODEL 3
REMARK VINA RESULT: -7.429798446      2.014      2.459
REMARK  10 active torsions:
REMARK  status: ('A' for Active; 'I' for Inactive)
REMARK    1  A    between atoms: C4_12  and  C5_13 
REMARK    2  A    between atoms: C5_13  and  O2_14 
REMARK    3  A    between atoms: C5_13  and  O3_16 
REMARK    4  A    between atoms: C6_21  and  N6_22 
REMARK    5  A    between atoms: N6_22  and  C7_24 
REMARK    6  A    between atoms: C7_24  and  C8_25 
REMARK    7  A    between atoms: C8_25  and  N7_26 
REMARK    8  A    between atoms: N7_26  and  C9_28 
REMARK    9  A    between atoms: C12_35  and  O4_36 
REMARK   10  A    between atoms: C12_35  and  C13_38 
ROOT
HETATM    1  N1  UNL     1      -2.349  37.190   1.918  1.00  0.00    -0.234 N 
ATOM      2  H11 UNL     1      -1.799  36.330   1.931  1.00  0.00     0.174 HD
ATOM      3  H12 UNL     1      -1.899  38.056   2.215  1.00  0.00     0.174 HD
HETATM    4  C1  UNL     1      -3.594  37.183   1.532  1.00  0.00     0.692 A 
HETATM    5  N2  UNL     1      -4.319  38.317   1.515  1.00  0.00    -0.168 N 
ATOM      6  H2  UNL     1      -3.887  39.193   1.807  1.00  0.00     0.186 HD
HETATM    7  C2  UNL     1      -5.621  38.311   1.112  1.00  0.00     0.228 A 
HETATM    8  C3  UNL     1      -6.377  39.449   1.085  1.00  0.00     0.294 A 
HETATM    9  O1  UNL     1      -5.824  40.533   1.453  1.00  0.00    -0.264 OA
HETATM   10  N3  UNL     1      -7.650  39.395   0.683  1.00  0.00    -0.305 N 
ATOM     11  H3  UNL     1      -8.204  40.252   0.669  1.00  0.00     0.170 HD
HETATM   12  C4  UNL     1      -8.219  38.241   0.296  1.00  0.00     0.155 A 
HETATM   13  N4  UNL     1      -7.461  37.131   0.329  1.00  0.00    -0.262 N 
ATOM     14  H4  UNL     1      -7.871  36.242   0.042  1.00  0.00     0.189 HD
HETATM   15  N5  UNL     1      -6.201  37.160   0.723  1.00  0.00    -0.062 N 
HETATM   16  C6  UNL     1      -5.466  36.014   0.742  1.00  0.00     0.716 A 
HETATM   17  N10 UNL     1      -4.189  36.037   1.140  1.00  0.00    -0.021 N 
ATOM     18  H10 UNL     1      -3.653  35.169   1.147  1.00  0.00     0.203 HD
ENDROOT
BRANCH  16  19
HETATM   19  N6  UNL     1      -6.061  34.950   0.364  1.00  0.00    -0.222 N 
ATOM     20  H6  UNL     1      -6.355  34.872  -0.609  1.00  0.00     0.177 HD
BRANCH  19  21
HETATM   21  C7  UNL     1      -6.329  33.863   1.255  1.00  0.00     0.157 C 
BRANCH  21  22
HETATM   22  C8  UNL     1      -5.405  32.695   0.907  1.00  0.00     0.141 C 
BRANCH  22  23
HETATM   23  N7  UNL     1      -6.187  31.520   0.686  1.00  0.00    -0.374 N 
ATOM     24  H7  UNL     1      -6.791  31.161   1.426  1.00  0.00     0.161 HD
BRANCH  23  25
HETATM   25  C9  UNL     1      -6.122  30.851  -0.568  1.00  0.00     0.118 A 
HETATM   26  C10 UNL     1      -5.452  29.693  -0.897  1.00  0.00     0.141 A 
HETATM   27  N8  UNL     1      -5.646  29.383  -2.222  1.00  0.00    -0.330 N 
HETATM   28  C11 UNL     1      -6.430  30.352  -2.688  1.00  0.00     0.151 A 
HETATM   29  C14 UNL     1      -5.268  28.360  -3.147  1.00  0.00     0.192 C 
HETATM   30  N9  UNL     1      -6.729  31.235  -1.732  1.00  0.00    -0.322 N 
HETATM   31  S1  UNL     1      -6.689  29.998  -4.420  1.00  0.00    -0.043 SA
ATOM     32  H9  UNL     1      -7.315  32.062  -1.850  1.00  0.00     0.169 HD
HETATM   33  C12 UNL     1      -5.188  28.913  -4.551  1.00  0.00     0.219 C 
BRANCH  33  34
HETATM   34  O4  UNL     1      -4.063  29.668  -4.783  1.00  0.00    -0.368 OA
ATOM     35  H4  UNL     1      -3.300  29.262  -4.390  1.00  0.00     0.212 HD
ENDBRANCH  33  34
BRANCH  33  36
HETATM   36  C13 UNL     1      -5.413  27.863  -5.553  1.00  0.00     0.222 C 
HETATM   37  O5  UNL     1      -5.465  26.671  -5.213  1.00  0.00    -0.645 OA
HETATM   38  O6  UNL     1      -5.568  28.216  -6.876  1.00  0.00    -0.645 OA
ENDBRANCH  33  36
ENDBRANCH  23  25
ENDBRANCH  22  23
ENDBRANCH  21  22
ENDBRANCH  19  21
ENDBRANCH  16  19
BRANCH  12  39
HETATM   39  C5  UNL     1      -9.649  38.206  -0.152  1.00  0.00     0.325 C 
BRANCH  39  40
HETATM   40  O2  UNL     1     -10.132  36.908  -0.089  1.00  0.00    -0.365 OA
ATOM     41  H2  UNL     1     -10.615  36.704  -0.882  1.00  0.00     0.213 HD
ENDBRANCH  39  40
BRANCH  39  42
HETATM   42  O3  UNL     1     -10.413  39.046   0.657  1.00  0.00    -0.365 OA
ATOM     43  H3  UNL     1     -10.329  38.779   1.565  1.00  0.00     0.213 HD
ENDBRANCH  39  42
ENDBRANCH  12  39
TORSDOF 10
ENDMDL
MODEL 4
REMARK VINA RESULT: -7.269893615      2.499      3.122
REMARK  10 active torsions:
REMARK  status: ('A' for Active; 'I' for Inactive)
REMARK    1  A    between atoms: C4_12  and  C5_13 
REMARK    2  A    between atoms: C5_13  and  O2_14 
REMARK    3  A    between atoms: C5_13  and  O3_16 
REMARK    4  A    between atoms: C6_21  and  N6_22 
REMARK    5  A    between atoms: N6_22  and  C7_24 
REMARK    6  A    between atoms: C7_24  and  C8_25 
REMARK    7  A    between atoms: C8_25  and  N7_26 
REMARK    8  A    between atoms: N7_26  and  C9_28 
REMARK    9  A    between atoms: C12_35  and  O4_36 
REMARK   10  A    between atoms: C12_35  and  C13_38 
ROOT
HETATM    1  N1  UNL     1      -2.283  37.185   1.806  1.00  0.00    -0.234 N 
ATOM      2  H11 UNL     1      -1.704  36.353   1.688  1.00  0.00     0.174 HD
ATOM      3  H12 UNL     1      -1.866  38.008   2.241  1.00  0.00     0.174 HD
HETATM    4  C1  UNL     1      -3.526  37.198   1.411  1.00  0.00     0.692 A 
HETATM    5  N2  UNL     1      -4.290  38.294   1.566  1.00  0.00    -0.168 N 
ATOM      6  H2  UNL     1      -3.890  39.127   1.999  1.00  0.00     0.186 HD
HETATM    7  C2  UNL     1      -5.589  38.309   1.154  1.00  0.00     0.228 A 
HETATM    8  C3  UNL     1      -6.384  39.410   1.301  1.00  0.00     0.294 A 
HETATM    9  O1  UNL     1      -5.871  40.440   1.842  1.00  0.00    -0.264 OA
HETATM   10  N3  UNL     1      -7.652  39.378   0.882  1.00  0.00    -0.305 N 
ATOM     11  H3  UNL     1      -8.236  40.207   0.998  1.00  0.00     0.170 HD
HETATM   12  C4  UNL     1      -8.179  38.282   0.311  1.00  0.00     0.155 A 
HETATM   13  N4  UNL     1      -7.383  37.207   0.176  1.00  0.00    -0.262 N 
ATOM     14  H4  UNL     1      -7.760  36.361  -0.253  1.00  0.00     0.189 HD
HETATM   15  N5  UNL     1      -6.126  37.215   0.582  1.00  0.00    -0.062 N 
HETATM   16  C6  UNL     1      -5.352  36.107   0.426  1.00  0.00     0.716 A 
HETATM   17  N10 UNL     1      -4.078  36.109   0.836  1.00  0.00    -0.021 N 
ATOM     18  H10 UNL     1      -3.512  35.270   0.711  1.00  0.00     0.203 HD
ENDROOT
BRANCH  16  19
HETATM   19  N6  UNL     1      -5.907  35.096  -0.121  1.00  0.00    -0.222 N 
ATOM     20  H6  UNL     1      -6.808  35.222  -0.583  1.00  0.00     0.177 HD
BRANCH  19  21
HETATM   21  C7  UNL     1      -5.313  33.795  -0.113  1.00  0.00     0.157 C 
BRANCH  21  22
HETATM   22  C8  UNL     1      -4.817  33.465  -1.521  1.00  0.00     0.141 C 
BRANCH  22  23
HETATM   23  N7  UNL     1      -5.812  32.707  -2.211  1.00  0.00    -0.374 N 
ATOM     24  H7  UNL     1      -6.592  33.182  -2.667  1.00  0.00     0.161 HD
BRANCH  23  25
HETATM   25  C9  UNL     1      -5.713  31.289  -2.262  1.00  0.00     0.118 A 
HETATM   26  C10 UNL     1      -6.298  30.351  -1.440  1.00  0.00     0.141 A 
HETATM   27  N8  UNL     1      -5.947  29.081  -1.832  1.00  0.00    -0.330 N 
HETATM   28  C11 UNL     1      -5.153  29.255  -2.885  1.00  0.00     0.151 A 
HETATM   29  C14 UNL     1      -6.210  27.731  -1.439  1.00  0.00     0.192 C 
HETATM   30  N9  UNL     1      -4.997  30.552  -3.164  1.00  0.00    -0.322 N 
HETATM   31  S1  UNL     1      -4.654  27.622  -3.411  1.00  0.00    -0.043 SA
ATOM     32  H9  UNL     1      -4.434  30.930  -3.926  1.00  0.00     0.169 HD
HETATM   33  C12 UNL     1      -5.036  26.841  -1.771  1.00  0.00     0.219 C 
BRANCH  33  34
HETATM   34  O4  UNL     1      -3.976  26.982  -0.909  1.00  0.00    -0.368 OA
ATOM     35  H4  UNL     1      -3.294  26.352  -1.110  1.00  0.00     0.212 HD
ENDBRANCH  33  34
BRANCH  33  36
HETATM   36  C13 UNL     1      -5.459  25.447  -1.965  1.00  0.00     0.222 C 
HETATM   37  O5  UNL     1      -4.763  24.514  -1.539  1.00  0.00    -0.645 OA
HETATM   38  O6  UNL     1      -6.640  25.188  -2.626  1.00  0.00    -0.645 OA
ENDBRANCH  33  36
ENDBRANCH  23  25
ENDBRANCH  22  23
ENDBRANCH  21  22
ENDBRANCH  19  21
ENDBRANCH  16  19
BRANCH  12  39
HETATM   39  C5  UNL     1      -9.605  38.270  -0.151  1.00  0.00     0.325 C 
BRANCH  39  40
HETATM   40  O2  UNL     1     -10.106  36.978  -0.104  1.00  0.00    -0.365 OA
ATOM     41  H2  UNL     1     -11.014  36.973  -0.384  1.00  0.00     0.213 HD
ENDBRANCH  39  40
BRANCH  39  42
HETATM   42  O3  UNL     1     -10.365  39.115   0.656  1.00  0.00    -0.365 OA
ATOM     43  H3  UNL     1     -11.285  38.891   0.574  1.00  0.00     0.213 HD
ENDBRANCH  39  42
ENDBRANCH  12  39
TORSDOF 10
ENDMDL
MODEL 5
REMARK VINA RESULT: -7.258623413      3.885      9.343
REMARK  10 active torsions:
REMARK  status: ('A' for Active; 'I' for Inactive)
REMARK    1  A    between atoms: C4_12  and  C5_13 
REMARK    2  A    between atoms: C5_13  and  O2_14 
REMARK    3  A    between atoms: C5_13  and  O3_16 
REMARK    4  A    between atoms: C6_21  and  N6_22 
REMARK    5  A    between atoms: N6_22  and  C7_24 
REMARK    6  A    between atoms: C7_24  and  C8_25 
REMARK    7  A    between atoms: C8_25  and  N7_26 
REMARK    8  A    between atoms: N7_26  and  C9_28 
REMARK    9  A    between atoms: C12_35  and  O4_36 
REMARK   10  A    between atoms: C12_35  and  C13_38 
ROOT
HETATM    1  N1  UNL     1      -1.384  25.078  -5.751  1.00  0.00    -0.234 N 
ATOM      2  H11 UNL     1      -0.522  24.932  -5.225  1.00  0.00     0.174 HD
ATOM      3  H12 UNL     1      -1.577  24.464  -6.543  1.00  0.00     0.174 HD
HETATM    4  C1  UNL     1      -2.219  26.023  -5.422  1.00  0.00     0.692 A 
HETATM    5  N2  UNL     1      -3.355  26.215  -6.116  1.00  0.00    -0.168 N 
ATOM      6  H2  UNL     1      -3.566  25.612  -6.911  1.00  0.00     0.186 HD
HETATM    7  C2  UNL     1      -4.229  27.204  -5.773  1.00  0.00     0.228 A 
HETATM    8  C3  UNL     1      -5.390  27.418  -6.462  1.00  0.00     0.294 A 
HETATM    9  O1  UNL     1      -5.637  26.657  -7.450  1.00  0.00    -0.264 OA
HETATM   10  N3  UNL     1      -6.216  28.399  -6.090  1.00  0.00    -0.305 N 
ATOM     11  H3  UNL     1      -7.078  28.549  -6.613  1.00  0.00     0.170 HD
HETATM   12  C4  UNL     1      -5.939  29.194  -5.042  1.00  0.00     0.155 A 
HETATM   13  N4  UNL     1      -4.793  28.970  -4.376  1.00  0.00    -0.262 N 
ATOM     14  H4  UNL     1      -4.559  29.561  -3.578  1.00  0.00     0.189 HD
HETATM   15  N5  UNL     1      -3.961  28.006  -4.726  1.00  0.00    -0.062 N 
HETATM   16  C6  UNL     1      -2.810  27.810  -4.025  1.00  0.00     0.716 A 
HETATM   17  N10 UNL     1      -1.964  26.835  -4.375  1.00  0.00    -0.021 N 
ATOM     18  H10 UNL     1      -1.106  26.703  -3.839  1.00  0.00     0.203 HD
ENDROOT
BRANCH  16  19
HETATM   19  N6  UNL     1      -2.602  28.596  -3.042  1.00  0.00    -0.222 N 
ATOM     20  H6  UNL     1      -2.355  29.567  -3.233  1.00  0.00     0.177 HD
BRANCH  19  21
HETATM   21  C7  UNL     1      -2.703  28.167  -1.680  1.00  0.00     0.157 C 
BRANCH  21  22
HETATM   22  C8  UNL     1      -3.484  29.213  -0.885  1.00  0.00     0.141 C 
BRANCH  22  23
HETATM   23  N7  UNL     1      -3.504  30.444  -1.610  1.00  0.00    -0.374 N 
ATOM     24  H7  UNL     1      -2.945  30.548  -2.458  1.00  0.00     0.161 HD
BRANCH  23  25
HETATM   25  C9  UNL     1      -4.306  31.525  -1.149  1.00  0.00     0.118 A 
HETATM   26  C10 UNL     1      -5.085  32.397  -1.877  1.00  0.00     0.141 A 
HETATM   27  N8  UNL     1      -5.702  33.302  -1.046  1.00  0.00    -0.330 N 
HETATM   28  C11 UNL     1      -5.294  32.975   0.178  1.00  0.00     0.151 A 
HETATM   29  C14 UNL     1      -6.610  34.402  -1.150  1.00  0.00     0.192 C 
HETATM   30  N9  UNL     1      -4.468  31.927   0.149  1.00  0.00    -0.322 N 
HETATM   31  S1  UNL     1      -6.059  34.147   1.289  1.00  0.00    -0.043 SA
ATOM     32  H9  UNL     1      -4.028  31.496   0.962  1.00  0.00     0.169 HD
HETATM   33  C12 UNL     1      -6.366  35.401  -0.044  1.00  0.00     0.219 C 
BRANCH  33  34
HETATM   34  O4  UNL     1      -5.253  36.182  -0.241  1.00  0.00    -0.368 OA
ATOM     35  H4  UNL     1      -5.416  36.834  -0.912  1.00  0.00     0.212 HD
ENDBRANCH  33  34
BRANCH  33  36
HETATM   36  C13 UNL     1      -7.581  36.169   0.260  1.00  0.00     0.222 C 
HETATM   37  O5  UNL     1      -8.700  35.654   0.123  1.00  0.00    -0.645 OA
HETATM   38  O6  UNL     1      -7.464  37.470   0.701  1.00  0.00    -0.645 OA
ENDBRANCH  33  36
ENDBRANCH  23  25
ENDBRANCH  22  23
ENDBRANCH  21  22
ENDBRANCH  19  21
ENDBRANCH  16  19
BRANCH  12  39
HETATM   39  C5  UNL     1      -6.881  30.289  -4.643  1.00  0.00     0.325 C 
BRANCH  39  40
HETATM   40  O2  UNL     1      -7.242  31.032  -5.756  1.00  0.00    -0.365 OA
ATOM     41  H2  UNL     1      -8.185  31.152  -5.773  1.00  0.00     0.213 HD
ENDBRANCH  39  40
BRANCH  39  42
HETATM   42  O3  UNL     1      -8.012  29.737  -4.042  1.00  0.00    -0.365 OA
ATOM     43  H3  UNL     1      -8.687  30.400  -3.961  1.00  0.00     0.213 HD
ENDBRANCH  39  42
ENDBRANCH  12  39
TORSDOF 10
ENDMDL
