MODEL 1
REMARK VINA RESULT: -6.944793076      0.000      0.000
REMARK  12 active torsions:
REMARK  status: ('A' for Active; 'I' for Inactive)
REMARK    1  A    between atoms: O1_2  and  C2_3 
REMARK    2  A    between atoms: C2_3  and  C3_4 
REMARK    3  A    between atoms: C2_3  and  C5_10 
REMARK    4  A    between atoms: C3_4  and  O2_5 
REMARK    5  A    between atoms: C3_4  and  C4_7 
REMARK    6  A    between atoms: C4_7  and  O3_8 
REMARK    7  A    between atoms: C5_10  and  O4_11 
REMARK    8  A    between atoms: C5_10  and  C6_13 
REMARK    9  A    between atoms: N3_18  and  C7_19 
REMARK   10  A    between atoms: C7_19  and  O5_20 
REMARK   11  A    between atoms: C13_35  and  N8_36 
REMARK   12  A    between atoms: C15_44  and  O7_45 
ROOT
HETATM    1  C7  UNL     1      -5.879  32.944  -0.797  1.00  0.00     0.195 C 
HETATM    2  C8  UNL     1      -5.443  34.069  -0.261  1.00  0.00     0.118 A 
HETATM    3  N4  UNL     1      -4.115  34.245   0.181  1.00  0.00    -0.347 N 
ATOM      4  H4  UNL     1      -3.445  33.481   0.099  1.00  0.00     0.167 HD
HETATM    5  C9  UNL     1      -3.704  35.503   0.746  1.00  0.00     0.182 A 
HETATM    6  N5  UNL     1      -4.533  36.473   0.854  1.00  0.00    -0.336 N 
ATOM      7  H5  UNL     1      -4.216  37.354   1.257  1.00  0.00     0.168 HD
HETATM    8  C10 UNL     1      -5.880  36.353   0.429  1.00  0.00     0.164 A 
HETATM    9  C11 UNL     1      -6.365  35.189  -0.124  1.00  0.00     0.125 A 
HETATM   10  N6  UNL     1      -7.665  35.354  -0.436  1.00  0.00    -0.184 N 
ATOM     11  H6  UNL     1      -8.275  34.653  -0.858  1.00  0.00     0.184 HD
HETATM   12  C12 UNL     1      -8.015  36.605  -0.090  1.00  0.00     0.709 A 
HETATM   13  N7  UNL     1      -9.201  37.267  -0.194  1.00  0.00    -0.022 N 
ATOM     14  H7  UNL     1     -10.020  36.807  -0.591  1.00  0.00     0.203 HD
HETATM   15  C13 UNL     1      -9.273  38.538   0.237  1.00  0.00     0.694 A 
HETATM   16  N9  UNL     1      -8.171  39.132   0.763  1.00  0.00    -0.140 N 
ATOM     17  H9  UNL     1      -8.233  40.098   1.088  1.00  0.00     0.189 HD
HETATM   18  C14 UNL     1      -7.000  38.480   0.866  1.00  0.00     0.361 A 
HETATM   19  O6  UNL     1      -5.971  39.011   1.348  1.00  0.00    -0.245 OA
HETATM   20  N10 UNL     1      -6.939  37.211   0.432  1.00  0.00    -0.077 N 
ENDROOT
BRANCH   1  21
HETATM   21  N3  UNL     1      -4.955  31.873  -0.930  1.00  0.00    -0.193 N 
HETATM   22  N2  UNL     1      -3.716  32.099  -1.395  1.00  0.00    -0.232 N 
HETATM   23  N1  UNL     1      -3.092  30.938  -1.403  1.00  0.00    -0.283 N 
ATOM     24  H2  UNL     1      -3.331  32.998  -1.686  1.00  0.00     0.209 HD
HETATM   25  C6  UNL     1      -3.911  29.973  -0.952  1.00  0.00     0.111 A 
ATOM     26  H1  UNL     1      -2.128  30.793  -1.707  1.00  0.00     0.188 HD
HETATM   27  C15 UNL     1      -5.123  30.571  -0.644  1.00  0.00     0.192 A 
BRANCH  25  28
HETATM   28  C5  UNL     1      -3.614  28.509  -0.822  1.00  0.00     0.205 C 
BRANCH  28  29
HETATM   29  C2  UNL     1      -4.164  27.729  -2.011  1.00  0.00     0.186 C 
BRANCH  29  30
HETATM   30  O1  UNL     1      -4.341  28.559  -3.108  1.00  0.00    -0.385 OA
HETATM   31  C1  UNL     1      -3.689  28.163  -4.251  1.00  0.00     0.202 C 
ENDBRANCH  29  30
BRANCH  29  32
HETATM   32  C3  UNL     1      -5.427  26.992  -1.650  1.00  0.00     0.173 C 
BRANCH  32  33
HETATM   33  O2  UNL     1      -6.595  27.707  -1.907  1.00  0.00    -0.391 OA
ATOM     34  H2  UNL     1      -7.388  27.268  -1.625  1.00  0.00     0.210 HD
ENDBRANCH  32  33
BRANCH  32  35
HETATM   35  C4  UNL     1      -5.453  25.618  -2.230  1.00  0.00     0.198 C 
BRANCH  35  36
HETATM   36  O3  UNL     1      -6.715  25.218  -2.634  1.00  0.00    -0.398 OA
ATOM     37  H3  UNL     1      -6.830  25.228  -3.578  1.00  0.00     0.209 HD
ENDBRANCH  35  36
ENDBRANCH  32  35
ENDBRANCH  29  32
ENDBRANCH  28  29
BRANCH  28  38
HETATM   38  O4  UNL     1      -4.425  28.077   0.272  1.00  0.00    -0.387 OA
ATOM     39  H4  UNL     1      -4.509  28.855   0.811  1.00  0.00     0.210 HD
ENDBRANCH  28  38
ENDBRANCH  25  28
BRANCH  27  40
HETATM   40  O7  UNL     1      -6.287  30.002  -0.145  1.00  0.00    -0.343 OA
ATOM     41  H7  UNL     1      -7.157  30.375  -0.068  1.00  0.00     0.219 HD
ENDBRANCH  27  40
ENDBRANCH   1  21
BRANCH   1  42
HETATM   42  O5  UNL     1      -7.200  32.814  -1.219  1.00  0.00    -0.343 OA
ATOM     43  H5  UNL     1      -7.763  32.136  -0.866  1.00  0.00     0.219 HD
ENDBRANCH   1  42
BRANCH  15  44
HETATM   44  N8  UNL     1     -10.360  39.229   0.174  1.00  0.00    -0.234 N 
ATOM     45  H82 UNL     1     -11.011  39.028  -0.586  1.00  0.00     0.174 HD
ATOM     46  H81 UNL     1     -10.585  39.959   0.850  1.00  0.00     0.174 HD
ENDBRANCH  15  44
TORSDOF 12
ENDMDL
MODEL 2
REMARK VINA RESULT: -6.906887569      2.040      3.285
REMARK  12 active torsions:
REMARK  status: ('A' for Active; 'I' for Inactive)
REMARK    1  A    between atoms: O1_2  and  C2_3 
REMARK    2  A    between atoms: C2_3  and  C3_4 
REMARK    3  A    between atoms: C2_3  and  C5_10 
REMARK    4  A    between atoms: C3_4  and  O2_5 
REMARK    5  A    between atoms: C3_4  and  C4_7 
REMARK    6  A    between atoms: C4_7  and  O3_8 
REMARK    7  A    between atoms: C5_10  and  O4_11 
REMARK    8  A    between atoms: C5_10  and  C6_13 
REMARK    9  A    between atoms: N3_18  and  C7_19 
REMARK   10  A    between atoms: C7_19  and  O5_20 
REMARK   11  A    between atoms: C13_35  and  N8_36 
REMARK   12  A    between atoms: C15_44  and  O7_45 
ROOT
HETATM    1  C7  UNL     1      -5.468  33.611   0.157  1.00  0.00     0.195 C 
HETATM    2  C8  UNL     1      -6.361  34.579   0.076  1.00  0.00     0.118 A 
HETATM    3  N4  UNL     1      -7.661  34.385  -0.437  1.00  0.00    -0.347 N 
ATOM      4  H4  UNL     1      -7.943  33.464  -0.774  1.00  0.00     0.167 HD
HETATM    5  C9  UNL     1      -8.588  35.483  -0.485  1.00  0.00     0.182 A 
HETATM    6  N5  UNL     1      -8.249  36.645  -0.065  1.00  0.00    -0.336 N 
ATOM      7  H5  UNL     1      -8.927  37.406  -0.109  1.00  0.00     0.168 HD
HETATM    8  C10 UNL     1      -6.958  36.900   0.459  1.00  0.00     0.164 A 
HETATM    9  C11 UNL     1      -6.002  35.911   0.546  1.00  0.00     0.125 A 
HETATM   10  N6  UNL     1      -4.877  36.427   1.078  1.00  0.00    -0.184 N 
ATOM     11  H6  UNL     1      -4.010  35.920   1.256  1.00  0.00     0.184 HD
HETATM   12  C12 UNL     1      -5.102  37.727   1.333  1.00  0.00     0.709 A 
HETATM   13  N7  UNL     1      -4.300  38.690   1.867  1.00  0.00    -0.022 N 
ATOM     14  H7  UNL     1      -3.345  38.471   2.151  1.00  0.00     0.203 HD
HETATM   15  C13 UNL     1      -4.789  39.933   2.014  1.00  0.00     0.694 A 
HETATM   16  N9  UNL     1      -6.063  40.203   1.629  1.00  0.00    -0.140 N 
ATOM     17  H9  UNL     1      -6.428  41.149   1.743  1.00  0.00     0.189 HD
HETATM   18  C14 UNL     1      -6.856  39.254   1.101  1.00  0.00     0.361 A 
HETATM   19  O6  UNL     1      -8.035  39.483   0.740  1.00  0.00    -0.245 OA
HETATM   20  N10 UNL     1      -6.358  38.016   0.960  1.00  0.00    -0.077 N 
ENDROOT
BRANCH   1  21
HETATM   21  N3  UNL     1      -5.849  32.319  -0.296  1.00  0.00    -0.193 N 
HETATM   22  N2  UNL     1      -5.935  31.295   0.568  1.00  0.00    -0.232 N 
HETATM   23  N1  UNL     1      -6.310  30.239  -0.126  1.00  0.00    -0.283 N 
ATOM     24  H2  UNL     1      -5.746  31.328   1.570  1.00  0.00     0.209 HD
HETATM   25  C6  UNL     1      -6.466  30.570  -1.419  1.00  0.00     0.111 A 
ATOM     26  H1  UNL     1      -6.461  29.307   0.262  1.00  0.00     0.188 HD
HETATM   27  C15 UNL     1      -6.167  31.919  -1.538  1.00  0.00     0.192 A 
BRANCH  25  28
HETATM   28  C5  UNL     1      -6.856  29.670  -2.553  1.00  0.00     0.205 C 
BRANCH  28  29
HETATM   29  C2  UNL     1      -5.704  29.487  -3.533  1.00  0.00     0.186 C 
BRANCH  29  30
HETATM   30  O1  UNL     1      -6.153  28.953  -4.732  1.00  0.00    -0.385 OA
HETATM   31  C1  UNL     1      -5.169  28.656  -5.644  1.00  0.00     0.202 C 
ENDBRANCH  29  30
BRANCH  29  32
HETATM   32  C3  UNL     1      -4.594  28.667  -2.931  1.00  0.00     0.173 C 
BRANCH  32  33
HETATM   33  O2  UNL     1      -3.681  29.408  -2.183  1.00  0.00    -0.391 OA
ATOM     34  H2  UNL     1      -4.079  30.062  -1.623  1.00  0.00     0.210 HD
ENDBRANCH  32  33
BRANCH  32  35
HETATM   35  C4  UNL     1      -5.118  27.483  -2.189  1.00  0.00     0.198 C 
BRANCH  35  36
HETATM   36  O3  UNL     1      -5.484  26.435  -3.016  1.00  0.00    -0.398 OA
ATOM     37  H3  UNL     1      -4.766  25.846  -3.217  1.00  0.00     0.209 HD
ENDBRANCH  35  36
ENDBRANCH  32  35
ENDBRANCH  29  32
ENDBRANCH  28  29
BRANCH  28  38
HETATM   38  O4  UNL     1      -7.815  30.427  -3.293  1.00  0.00    -0.387 OA
ATOM     39  H4  UNL     1      -8.339  29.764  -3.727  1.00  0.00     0.210 HD
ENDBRANCH  28  38
ENDBRANCH  25  28
BRANCH  27  40
HETATM   40  O7  UNL     1      -6.179  32.729  -2.665  1.00  0.00    -0.343 OA
ATOM     41  H7  UNL     1      -6.450  33.635  -2.755  1.00  0.00     0.219 HD
ENDBRANCH  27  40
ENDBRANCH   1  21
BRANCH   1  42
HETATM   42  O5  UNL     1      -4.195  33.848   0.670  1.00  0.00    -0.343 OA
ATOM     43  H5  UNL     1      -3.599  34.453   0.244  1.00  0.00     0.219 HD
ENDBRANCH   1  42
BRANCH  15  44
HETATM   44  N8  UNL     1      -4.090  40.897   2.510  1.00  0.00    -0.234 N 
ATOM     45  H82 UNL     1      -3.947  40.913   3.520  1.00  0.00     0.174 HD
ATOM     46  H81 UNL     1      -3.683  41.632   1.931  1.00  0.00     0.174 HD
ENDBRANCH  15  44
TORSDOF 12
ENDMDL
MODEL 3
REMARK VINA RESULT: -6.847780565      1.167      1.313
REMARK  12 active torsions:
REMARK  status: ('A' for Active; 'I' for Inactive)
REMARK    1  A    between atoms: O1_2  and  C2_3 
REMARK    2  A    between atoms: C2_3  and  C3_4 
REMARK    3  A    between atoms: C2_3  and  C5_10 
REMARK    4  A    between atoms: C3_4  and  O2_5 
REMARK    5  A    between atoms: C3_4  and  C4_7 
REMARK    6  A    between atoms: C4_7  and  O3_8 
REMARK    7  A    between atoms: C5_10  and  O4_11 
REMARK    8  A    between atoms: C5_10  and  C6_13 
REMARK    9  A    between atoms: N3_18  and  C7_19 
REMARK   10  A    between atoms: C7_19  and  O5_20 
REMARK   11  A    between atoms: C13_35  and  N8_36 
REMARK   12  A    between atoms: C15_44  and  O7_45 
ROOT
HETATM    1  C7  UNL     1      -5.814  31.812  -1.194  1.00  0.00     0.195 C 
HETATM    2  C8  UNL     1      -5.318  32.896  -0.627  1.00  0.00     0.118 A 
HETATM    3  N4  UNL     1      -3.981  32.991  -0.187  1.00  0.00    -0.347 N 
ATOM      4  H4  UNL     1      -3.353  32.195  -0.294  1.00  0.00     0.167 HD
HETATM    5  C9  UNL     1      -3.504  34.208   0.412  1.00  0.00     0.182 A 
HETATM    6  N5  UNL     1      -4.280  35.216   0.553  1.00  0.00    -0.336 N 
ATOM      7  H5  UNL     1      -3.916  36.068   0.980  1.00  0.00     0.168 HD
HETATM    8  C10 UNL     1      -5.633  35.180   0.131  1.00  0.00     0.164 A 
HETATM    9  C11 UNL     1      -6.180  34.059  -0.454  1.00  0.00     0.125 A 
HETATM   10  N6  UNL     1      -7.471  34.300  -0.753  1.00  0.00    -0.184 N 
ATOM     11  H6  UNL     1      -8.118  33.645  -1.193  1.00  0.00     0.184 HD
HETATM   12  C12 UNL     1      -7.754  35.557  -0.370  1.00  0.00     0.709 A 
HETATM   13  N7  UNL     1      -8.904  36.283  -0.448  1.00  0.00    -0.022 N 
ATOM     14  H7  UNL     1      -9.747  35.878  -0.855  1.00  0.00     0.203 HD
HETATM   15  C13 UNL     1      -8.908  37.543   0.019  1.00  0.00     0.694 A 
HETATM   16  N9  UNL     1      -7.774  38.063   0.557  1.00  0.00    -0.140 N 
ATOM     17  H9  UNL     1      -7.785  39.020   0.911  1.00  0.00     0.189 HD
HETATM   18  C14 UNL     1      -6.639  37.348   0.635  1.00  0.00     0.361 A 
HETATM   19  O6  UNL     1      -5.582  37.810   1.128  1.00  0.00    -0.245 OA
HETATM   20  N10 UNL     1      -6.646  36.091   0.165  1.00  0.00    -0.077 N 
ENDROOT
BRANCH   1  21
HETATM   21  N3  UNL     1      -4.948  30.699  -1.363  1.00  0.00    -0.193 N 
HETATM   22  N2  UNL     1      -3.654  30.885  -1.667  1.00  0.00    -0.232 N 
HETATM   23  N1  UNL     1      -3.104  29.690  -1.754  1.00  0.00    -0.283 N 
ATOM     24  H2  UNL     1      -3.186  31.781  -1.805  1.00  0.00     0.209 HD
HETATM   25  C6  UNL     1      -4.025  28.742  -1.510  1.00  0.00     0.111 A 
ATOM     26  H1  UNL     1      -2.124  29.512  -1.974  1.00  0.00     0.188 HD
HETATM   27  C15 UNL     1      -5.225  29.388  -1.256  1.00  0.00     0.192 A 
BRANCH  25  28
HETATM   28  C5  UNL     1      -3.834  27.255  -1.531  1.00  0.00     0.205 C 
BRANCH  28  29
HETATM   29  C2  UNL     1      -4.515  26.630  -2.743  1.00  0.00     0.186 C 
BRANCH  29  30
HETATM   30  O1  UNL     1      -5.122  27.601  -3.526  1.00  0.00    -0.385 OA
HETATM   31  C1  UNL     1      -4.589  27.755  -4.783  1.00  0.00     0.202 C 
ENDBRANCH  29  30
BRANCH  29  32
HETATM   32  C3  UNL     1      -5.482  25.550  -2.334  1.00  0.00     0.173 C 
BRANCH  32  33
HETATM   33  O2  UNL     1      -6.722  26.026  -1.915  1.00  0.00    -0.391 OA
ATOM     34  H2  UNL     1      -7.140  25.488  -1.254  1.00  0.00     0.210 HD
ENDBRANCH  32  33
BRANCH  32  35
HETATM   35  C4  UNL     1      -5.595  24.485  -3.373  1.00  0.00     0.198 C 
BRANCH  35  36
HETATM   36  O3  UNL     1      -6.433  24.827  -4.420  1.00  0.00    -0.398 OA
ATOM     37  H3  UNL     1      -6.681  25.744  -4.420  1.00  0.00     0.209 HD
ENDBRANCH  35  36
ENDBRANCH  32  35
ENDBRANCH  29  32
ENDBRANCH  28  29
BRANCH  28  38
HETATM   38  O4  UNL     1      -4.605  26.782  -0.426  1.00  0.00    -0.387 OA
ATOM     39  H4  UNL     1      -4.093  26.056  -0.089  1.00  0.00     0.210 HD
ENDBRANCH  28  38
ENDBRANCH  25  28
BRANCH  27  40
HETATM   40  O7  UNL     1      -6.469  28.853  -0.951  1.00  0.00    -0.343 OA
ATOM     41  H7  UNL     1      -7.158  28.555  -1.533  1.00  0.00     0.219 HD
ENDBRANCH  27  40
ENDBRANCH   1  21
BRANCH   1  42
HETATM   42  O5  UNL     1      -7.141  31.763  -1.612  1.00  0.00    -0.343 OA
ATOM     43  H5  UNL     1      -7.391  32.034  -2.488  1.00  0.00     0.219 HD
ENDBRANCH   1  42
BRANCH  15  44
HETATM   44  N8  UNL     1      -9.958  38.291  -0.019  1.00  0.00    -0.234 N 
ATOM     45  H82 UNL     1     -10.625  38.141  -0.776  1.00  0.00     0.174 HD
ATOM     46  H81 UNL     1     -10.137  39.017   0.675  1.00  0.00     0.174 HD
ENDBRANCH  15  44
TORSDOF 12
ENDMDL
MODEL 4
REMARK VINA RESULT: -6.833354882      1.893      2.721
REMARK  12 active torsions:
REMARK  status: ('A' for Active; 'I' for Inactive)
REMARK    1  A    between atoms: O1_2  and  C2_3 
REMARK    2  A    between atoms: C2_3  and  C3_4 
REMARK    3  A    between atoms: C2_3  and  C5_10 
REMARK    4  A    between atoms: C3_4  and  O2_5 
REMARK    5  A    between atoms: C3_4  and  C4_7 
REMARK    6  A    between atoms: C4_7  and  O3_8 
REMARK    7  A    between atoms: C5_10  and  O4_11 
REMARK    8  A    between atoms: C5_10  and  C6_13 
REMARK    9  A    between atoms: N3_18  and  C7_19 
REMARK   10  A    between atoms: C7_19  and  O5_20 
REMARK   11  A    between atoms: C13_35  and  N8_36 
REMARK   12  A    between atoms: C15_44  and  O7_45 
ROOT
HETATM    1  C7  UNL     1      -5.847  30.878  -2.282  1.00  0.00     0.195 C 
HETATM    2  C8  UNL     1      -5.144  31.822  -1.684  1.00  0.00     0.118 A 
HETATM    3  N4  UNL     1      -3.756  31.720  -1.459  1.00  0.00    -0.347 N 
ATOM      4  H4  UNL     1      -3.251  30.885  -1.756  1.00  0.00     0.167 HD
HETATM    5  C9  UNL     1      -3.050  32.794  -0.812  1.00  0.00     0.182 A 
HETATM    6  N5  UNL     1      -3.668  33.850  -0.435  1.00  0.00    -0.336 N 
ATOM      7  H5  UNL     1      -3.143  34.596   0.020  1.00  0.00     0.168 HD
HETATM    8  C10 UNL     1      -5.063  34.007  -0.633  1.00  0.00     0.164 A 
HETATM    9  C11 UNL     1      -5.823  33.034  -1.244  1.00  0.00     0.125 A 
HETATM   10  N6  UNL     1      -7.105  33.444  -1.301  1.00  0.00    -0.184 N 
ATOM     11  H6  UNL     1      -7.885  32.922  -1.701  1.00  0.00     0.184 HD
HETATM   12  C12 UNL     1      -7.173  34.663  -0.738  1.00  0.00     0.709 A 
HETATM   13  N7  UNL     1      -8.224  35.507  -0.547  1.00  0.00    -0.022 N 
ATOM     14  H7  UNL     1      -9.161  35.247  -0.854  1.00  0.00     0.203 HD
HETATM   15  C13 UNL     1      -8.006  36.689   0.054  1.00  0.00     0.694 A 
HETATM   16  N9  UNL     1      -6.750  37.015   0.456  1.00  0.00    -0.140 N 
ATOM     17  H9  UNL     1      -6.591  37.915   0.912  1.00  0.00     0.189 HD
HETATM   18  C14 UNL     1      -5.711  36.183   0.268  1.00  0.00     0.361 A 
HETATM   19  O6  UNL     1      -4.544  36.466   0.631  1.00  0.00    -0.245 OA
HETATM   20  N10 UNL     1      -5.940  35.005  -0.334  1.00  0.00    -0.077 N 
ENDROOT
BRANCH   1  21
HETATM   21  N3  UNL     1      -5.158  29.713  -2.712  1.00  0.00    -0.193 N 
HETATM   22  N2  UNL     1      -4.304  29.773  -3.746  1.00  0.00    -0.232 N 
HETATM   23  N1  UNL     1      -3.816  28.559  -3.912  1.00  0.00    -0.283 N 
ATOM     24  H2  UNL     1      -4.076  30.600  -4.298  1.00  0.00     0.209 HD
HETATM   25  C6  UNL     1      -4.344  27.724  -3.002  1.00  0.00     0.111 A 
ATOM     26  H1  UNL     1      -3.138  28.294  -4.627  1.00  0.00     0.188 HD
HETATM   27  C15 UNL     1      -5.217  28.464  -2.220  1.00  0.00     0.192 A 
BRANCH  25  28
HETATM   28  C5  UNL     1      -4.086  26.255  -2.850  1.00  0.00     0.205 C 
BRANCH  28  29
HETATM   29  C2  UNL     1      -4.996  25.439  -3.761  1.00  0.00     0.186 C 
BRANCH  29  30
HETATM   30  O1  UNL     1      -5.488  26.220  -4.797  1.00  0.00    -0.385 OA
HETATM   31  C1  UNL     1      -4.941  25.963  -6.032  1.00  0.00     0.202 C 
ENDBRANCH  29  30
BRANCH  29  32
HETATM   32  C3  UNL     1      -6.100  24.774  -2.982  1.00  0.00     0.173 C 
BRANCH  32  33
HETATM   33  O2  UNL     1      -6.869  25.653  -2.223  1.00  0.00    -0.391 OA
ATOM     34  H2  UNL     1      -6.688  26.569  -2.390  1.00  0.00     0.210 HD
ENDBRANCH  32  33
BRANCH  32  35
HETATM   35  C4  UNL     1      -6.929  23.882  -3.846  1.00  0.00     0.198 C 
BRANCH  35  36
HETATM   36  O3  UNL     1      -7.908  24.559  -4.552  1.00  0.00    -0.398 OA
ATOM     37  H3  UNL     1      -7.859  24.422  -5.491  1.00  0.00     0.209 HD
ENDBRANCH  35  36
ENDBRANCH  32  35
ENDBRANCH  29  32
ENDBRANCH  28  29
BRANCH  28  38
HETATM   38  O4  UNL     1      -4.553  25.945  -1.537  1.00  0.00    -0.387 OA
ATOM     39  H4  UNL     1      -3.754  25.839  -1.032  1.00  0.00     0.210 HD
ENDBRANCH  28  38
ENDBRANCH  25  28
BRANCH  27  40
HETATM   40  O7  UNL     1      -6.003  28.060  -1.150  1.00  0.00    -0.343 OA
ATOM     41  H7  UNL     1      -6.910  28.265  -0.954  1.00  0.00     0.219 HD
ENDBRANCH  27  40
ENDBRANCH   1  21
BRANCH   1  42
HETATM   42  O5  UNL     1      -7.218  31.020  -2.482  1.00  0.00    -0.343 OA
ATOM     43  H5  UNL     1      -7.558  31.517  -3.216  1.00  0.00     0.219 HD
ENDBRANCH   1  42
BRANCH  15  44
HETATM   44  N8  UNL     1      -8.950  37.539   0.271  1.00  0.00    -0.234 N 
ATOM     45  H82 UNL     1      -8.730  38.531   0.183  1.00  0.00     0.174 HD
ATOM     46  H81 UNL     1      -9.896  37.253   0.525  1.00  0.00     0.174 HD
ENDBRANCH  15  44
TORSDOF 12
ENDMDL
MODEL 5
REMARK VINA RESULT: -6.797847132      1.820      2.703
REMARK  12 active torsions:
REMARK  status: ('A' for Active; 'I' for Inactive)
REMARK    1  A    between atoms: O1_2  and  C2_3 
REMARK    2  A    between atoms: C2_3  and  C3_4 
REMARK    3  A    between atoms: C2_3  and  C5_10 
REMARK    4  A    between atoms: C3_4  and  O2_5 
REMARK    5  A    between atoms: C3_4  and  C4_7 
REMARK    6  A    between atoms: C4_7  and  O3_8 
REMARK    7  A    between atoms: C5_10  and  O4_11 
REMARK    8  A    between atoms: C5_10  and  C6_13 
REMARK    9  A    between atoms: N3_18  and  C7_19 
REMARK   10  A    between atoms: C7_19  and  O5_20 
REMARK   11  A    between atoms: C13_35  and  N8_36 
REMARK   12  A    between atoms: C15_44  and  O7_45 
ROOT
HETATM    1  C7  UNL     1      -4.763  33.943  -0.084  1.00  0.00     0.195 C 
HETATM    2  C8  UNL     1      -5.847  34.690  -0.184  1.00  0.00     0.118 A 
HETATM    3  N4  UNL     1      -7.024  34.255  -0.827  1.00  0.00    -0.347 N 
ATOM      4  H4  UNL     1      -7.061  33.327  -1.250  1.00  0.00     0.167 HD
HETATM    5  C9  UNL     1      -8.174  35.118  -0.888  1.00  0.00     0.182 A 
HETATM    6  N5  UNL     1      -8.144  36.285  -0.362  1.00  0.00    -0.336 N 
ATOM      7  H5  UNL     1      -8.973  36.876  -0.418  1.00  0.00     0.168 HD
HETATM    8  C10 UNL     1      -6.989  36.776   0.297  1.00  0.00     0.164 A 
HETATM    9  C11 UNL     1      -5.841  36.023   0.406  1.00  0.00     0.125 A 
HETATM   10  N6  UNL     1      -4.909  36.729   1.075  1.00  0.00    -0.184 N 
ATOM     11  H6  UNL     1      -3.965  36.416   1.298  1.00  0.00     0.184 HD
HETATM   12  C12 UNL     1      -5.446  37.919   1.394  1.00  0.00     0.709 A 
HETATM   13  N7  UNL     1      -4.930  38.987   2.064  1.00  0.00    -0.022 N 
ATOM     14  H7  UNL     1      -3.975  38.964   2.421  1.00  0.00     0.203 HD
HETATM   15  C13 UNL     1      -5.702  40.072   2.248  1.00  0.00     0.694 A 
HETATM   16  N9  UNL     1      -6.972  40.082   1.764  1.00  0.00    -0.140 N 
ATOM     17  H9  UNL     1      -7.552  40.909   1.907  1.00  0.00     0.189 HD
HETATM   18  C14 UNL     1      -7.482  39.028   1.102  1.00  0.00     0.361 A 
HETATM   19  O6  UNL     1      -8.652  39.018   0.649  1.00  0.00    -0.245 OA
HETATM   20  N10 UNL     1      -6.702  37.950   0.925  1.00  0.00    -0.077 N 
ENDROOT
BRANCH   1  21
HETATM   21  N3  UNL     1      -4.801  32.643  -0.657  1.00  0.00    -0.193 N 
HETATM   22  N2  UNL     1      -4.109  32.373  -1.775  1.00  0.00    -0.232 N 
HETATM   23  N1  UNL     1      -4.326  31.106  -2.065  1.00  0.00    -0.283 N 
ATOM     24  H2  UNL     1      -3.525  33.025  -2.300  1.00  0.00     0.209 HD
HETATM   25  C6  UNL     1      -5.147  30.560  -1.150  1.00  0.00     0.111 A 
ATOM     26  H1  UNL     1      -3.930  30.612  -2.865  1.00  0.00     0.188 HD
HETATM   27  C15 UNL     1      -5.461  31.551  -0.234  1.00  0.00     0.192 A 
BRANCH  25  28
HETATM   28  C5  UNL     1      -5.670  29.156  -1.115  1.00  0.00     0.205 C 
BRANCH  28  29
HETATM   29  C2  UNL     1      -5.348  28.415  -2.407  1.00  0.00     0.186 C 
BRANCH  29  30
HETATM   30  O1  UNL     1      -6.244  28.755  -3.409  1.00  0.00    -0.385 OA
HETATM   31  C1  UNL     1      -5.681  29.318  -4.530  1.00  0.00     0.202 C 
ENDBRANCH  29  30
BRANCH  29  32
HETATM   32  C3  UNL     1      -5.284  26.927  -2.188  1.00  0.00     0.173 C 
BRANCH  32  33
HETATM   33  O2  UNL     1      -6.514  26.344  -1.887  1.00  0.00    -0.391 OA
ATOM     34  H2  UNL     1      -7.166  26.441  -2.571  1.00  0.00     0.210 HD
ENDBRANCH  32  33
BRANCH  32  35
HETATM   35  C4  UNL     1      -4.575  26.231  -3.301  1.00  0.00     0.198 C 
BRANCH  35  36
HETATM   36  O3  UNL     1      -5.407  25.886  -4.351  1.00  0.00    -0.398 OA
ATOM     37  H3  UNL     1      -5.125  26.240  -5.187  1.00  0.00     0.209 HD
ENDBRANCH  35  36
ENDBRANCH  32  35
ENDBRANCH  29  32
ENDBRANCH  28  29
BRANCH  28  38
HETATM   38  O4  UNL     1      -7.090  29.304  -1.153  1.00  0.00    -0.387 OA
ATOM     39  H4  UNL     1      -7.221  30.242  -1.076  1.00  0.00     0.210 HD
ENDBRANCH  28  38
ENDBRANCH  25  28
BRANCH  27  40
HETATM   40  O7  UNL     1      -6.269  31.488   0.893  1.00  0.00    -0.343 OA
ATOM     41  H7  UNL     1      -6.341  30.805   1.548  1.00  0.00     0.219 HD
ENDBRANCH  27  40
ENDBRANCH   1  21
BRANCH   1  42
HETATM   42  O5  UNL     1      -3.622  34.414   0.560  1.00  0.00    -0.343 OA
ATOM     43  H5  UNL     1      -2.763  34.321   0.167  1.00  0.00     0.219 HD
ENDBRANCH   1  42
BRANCH  15  44
HETATM   44  N8  UNL     1      -5.284  41.121   2.870  1.00  0.00    -0.234 N 
ATOM     45  H82 UNL     1      -4.314  41.404   2.732  1.00  0.00     0.174 HD
ATOM     46  H81 UNL     1      -5.885  41.666   3.488  1.00  0.00     0.174 HD
ENDBRANCH  15  44
TORSDOF 12
ENDMDL
