MODEL 1
REMARK VINA RESULT: -7.925182420      0.000      0.000
REMARK  11 active torsions:
REMARK  status: ('A' for Active; 'I' for Inactive)
REMARK       I    between atoms: C2_2  and  N1_4 
REMARK    1  A    between atoms: N1_4  and  C3_6 
REMARK    2  A    between atoms: N4_11  and  C4_12 
REMARK    3  A    between atoms: C4_12  and  C5_13 
REMARK    4  A    between atoms: C6_16  and  N5_17 
REMARK    5  A    between atoms: N5_17  and  C7_19 
REMARK    6  A    between atoms: C7_19  and  O4_20 
REMARK    7  A    between atoms: C7_19  and  N6_22 
REMARK    8  A    between atoms: N6_22  and  C8_25 
REMARK    9  A    between atoms: C9_26  and  N7_27 
REMARK   10  A    between atoms: N7_27  and  O5_28 
REMARK   11  A    between atoms: C13_36  and  C14_37 
ROOT
HETATM    1  C7  UNL     1      -5.361  34.040  -0.440  1.00  0.00     0.441 C 
ENDROOT
BRANCH   1   2
HETATM    2  N5  UNL     1      -5.504  34.875   0.732  1.00  0.00    -0.172 N 
ATOM      3  H5  UNL     1      -5.571  34.444   1.655  1.00  0.00     0.182 HD
BRANCH   2   4
HETATM    4  C6  UNL     1      -5.549  36.176   0.620  1.00  0.00     0.714 A 
HETATM    5  N4  UNL     1      -6.755  36.759   0.775  1.00  0.00    -0.098 N 
HETATM    6  N3  UNL     1      -6.830  38.071   0.666  1.00  0.00    -0.211 N 
HETATM    7  N2  UNL     1      -5.741  38.795   0.411  1.00  0.00    -0.116 N 
ATOM      8  H3  UNL     1      -7.731  38.536   0.779  1.00  0.00     0.209 HD
HETATM    9  C3  UNL     1      -4.526  38.248   0.251  1.00  0.00     0.715 A 
ATOM     10  H2  UNL     1      -5.835  39.808   0.333  1.00  0.00     0.207 HD
HETATM   11  N10 UNL     1      -4.443  36.892   0.363  1.00  0.00    -0.019 N 
ATOM     12  H10 UNL     1      -3.544  36.422   0.250  1.00  0.00     0.203 HD
BRANCH   5  13
HETATM   13  C4  UNL     1      -7.945  36.005   1.050  1.00  0.00     0.282 C 
BRANCH  13  14
HETATM   14  C5  UNL     1      -8.922  36.101  -0.044  1.00  0.00     0.194 C 
HETATM   15  O2  UNL     1      -8.848  35.313  -1.017  1.00  0.00    -0.647 OA
HETATM   16  O3  UNL     1      -9.936  37.044  -0.035  1.00  0.00    -0.647 OA
ENDBRANCH  13  14
ENDBRANCH   5  13
BRANCH   9  17
HETATM   17  N1  UNL     1      -3.490  38.957   0.007  1.00  0.00    -0.158 N 
HETATM   18  C2  UNL     1      -3.514  40.273  -0.497  1.00  0.00     0.232 C 
HETATM   19  C1  UNL     1      -2.495  41.255  -0.046  1.00  0.00     0.118 C 
HETATM   20  O1  UNL     1      -4.402  40.588  -1.320  1.00  0.00    -0.273 OA
ATOM     21  H1  UNL     1      -2.578  38.540   0.192  1.00  0.00     0.187 HD
ENDBRANCH   9  17
ENDBRANCH   2   4
ENDBRANCH   1   2
BRANCH   1  22
HETATM   22  O4  UNL     1      -5.856  34.686  -1.583  1.00  0.00    -0.354 OA
ATOM     23  H4  UNL     1      -5.153  34.907  -2.183  1.00  0.00     0.214 HD
ENDBRANCH   1  22
BRANCH   1  24
HETATM   24  N6  UNL     1      -6.090  32.788  -0.220  1.00  0.00    -0.021 N 
ATOM     25  H62 UNL     1      -6.372  32.653   0.751  1.00  0.00     0.283 HD
ATOM     26  H61 UNL     1      -7.025  32.792  -0.627  1.00  0.00     0.283 HD
BRANCH  24  27
HETATM   27  C8  UNL     1      -5.265  31.739  -0.717  1.00  0.00     0.264 C 
HETATM   28  C9  UNL     1      -5.737  30.347  -0.331  1.00  0.00     0.338 C 
HETATM   29  N8  UNL     1      -5.009  29.450  -1.222  1.00  0.00    -0.043 N 
HETATM   30  C10 UNL     1      -4.584  30.228  -2.365  1.00  0.00     0.243 C 
ATOM     31  H82 UNL     1      -4.238  28.967  -0.760  1.00  0.00     0.280 HD
ATOM     32  H81 UNL     1      -5.546  28.622  -1.481  1.00  0.00     0.280 HD
HETATM   33  C11 UNL     1      -5.196  29.755  -3.623  1.00  0.00    -0.018 C 
HETATM   34  C15 UNL     1      -5.198  31.600  -2.202  1.00  0.00     0.151 C 
HETATM   35  C12 UNL     1      -4.614  28.659  -4.468  1.00  0.00     0.048 C 
HETATM   36  C13 UNL     1      -6.284  30.450  -3.831  1.00  0.00     0.110 C 
HETATM   37  N9  UNL     1      -6.498  31.404  -2.800  1.00  0.00    -0.375 N 
ATOM     38  H9  UNL     1      -7.376  31.853  -2.539  1.00  0.00     0.160 HD
BRANCH  28  39
HETATM   39  N7  UNL     1      -7.161  30.206  -0.530  1.00  0.00    -0.068 NA
BRANCH  39  40
HETATM   40  O5  UNL     1      -7.443  29.039  -1.131  1.00  0.00    -0.294 OA
ATOM     41  H5  UNL     1      -7.972  29.180  -1.908  1.00  0.00     0.238 HD
ENDBRANCH  39  40
ENDBRANCH  28  39
BRANCH  36  42
HETATM   42  C14 UNL     1      -7.173  30.270  -4.988  1.00  0.00     0.226 C 
HETATM   43  O6  UNL     1      -7.911  29.229  -5.079  1.00  0.00    -0.643 OA
HETATM   44  O7  UNL     1      -7.275  31.166  -6.015  1.00  0.00    -0.643 OA
ENDBRANCH  36  42
ENDBRANCH  24  27
ENDBRANCH   1  24
TORSDOF 11
ENDMDL
MODEL 2
REMARK VINA RESULT: -7.656791477      2.316      8.708
REMARK  11 active torsions:
REMARK  status: ('A' for Active; 'I' for Inactive)
REMARK       I    between atoms: C2_2  and  N1_4 
REMARK    1  A    between atoms: N1_4  and  C3_6 
REMARK    2  A    between atoms: N4_11  and  C4_12 
REMARK    3  A    between atoms: C4_12  and  C5_13 
REMARK    4  A    between atoms: C6_16  and  N5_17 
REMARK    5  A    between atoms: N5_17  and  C7_19 
REMARK    6  A    between atoms: C7_19  and  O4_20 
REMARK    7  A    between atoms: C7_19  and  N6_22 
REMARK    8  A    between atoms: N6_22  and  C8_25 
REMARK    9  A    between atoms: C9_26  and  N7_27 
REMARK   10  A    between atoms: N7_27  and  O5_28 
REMARK   11  A    between atoms: C13_36  and  C14_37 
ROOT
HETATM    1  C7  UNL     1      -5.395  30.822   0.313  1.00  0.00     0.441 C 
ENDROOT
BRANCH   1   2
HETATM    2  N5  UNL     1      -6.168  30.131  -0.695  1.00  0.00    -0.172 N 
ATOM      3  H5  UNL     1      -7.168  30.314  -0.779  1.00  0.00     0.182 HD
BRANCH   2   4
HETATM    4  C6  UNL     1      -5.597  29.274  -1.498  1.00  0.00     0.714 A 
HETATM    5  N4  UNL     1      -5.716  29.506  -2.821  1.00  0.00    -0.098 N 
HETATM    6  N3  UNL     1      -5.150  28.657  -3.656  1.00  0.00    -0.211 N 
HETATM    7  N2  UNL     1      -4.480  27.599  -3.199  1.00  0.00    -0.116 N 
ATOM      8  H3  UNL     1      -5.226  28.811  -4.661  1.00  0.00     0.209 HD
HETATM    9  C3  UNL     1      -4.342  27.337  -1.890  1.00  0.00     0.715 A 
ATOM     10  H2  UNL     1      -4.055  26.962  -3.873  1.00  0.00     0.207 HD
HETATM   11  N10 UNL     1      -4.925  28.213  -1.023  1.00  0.00    -0.019 N 
ATOM     12  H10 UNL     1      -4.853  28.063  -0.016  1.00  0.00     0.203 HD
BRANCH   5  13
HETATM   13  C4  UNL     1      -6.431  30.636  -3.343  1.00  0.00     0.282 C 
BRANCH  13  14
HETATM   14  C5  UNL     1      -7.247  30.279  -4.513  1.00  0.00     0.194 C 
HETATM   15  O2  UNL     1      -7.995  29.273  -4.468  1.00  0.00    -0.647 OA
HETATM   16  O3  UNL     1      -7.217  31.026  -5.678  1.00  0.00    -0.647 OA
ENDBRANCH  13  14
ENDBRANCH   5  13
BRANCH   9  17
HETATM   17  N1  UNL     1      -3.695  26.319  -1.468  1.00  0.00    -0.158 N 
HETATM   18  C2  UNL     1      -4.253  25.260  -0.723  1.00  0.00     0.232 C 
HETATM   19  C1  UNL     1      -3.764  23.873  -0.931  1.00  0.00     0.118 C 
HETATM   20  O1  UNL     1      -5.158  25.515   0.103  1.00  0.00    -0.273 OA
ATOM     21  H1  UNL     1      -2.700  26.268  -1.686  1.00  0.00     0.187 HD
ENDBRANCH   9  17
ENDBRANCH   2   4
ENDBRANCH   1   2
BRANCH   1  22
HETATM   22  O4  UNL     1      -4.932  29.932   1.293  1.00  0.00    -0.354 OA
ATOM     23  H4  UNL     1      -5.395  30.055   2.113  1.00  0.00     0.214 HD
ENDBRANCH   1  22
BRANCH   1  24
HETATM   24  N6  UNL     1      -6.237  31.849   0.932  1.00  0.00    -0.021 N 
ATOM     25  H62 UNL     1      -7.159  31.925   0.501  1.00  0.00     0.283 HD
ATOM     26  H61 UNL     1      -6.552  31.599   1.868  1.00  0.00     0.283 HD
BRANCH  24  27
HETATM   27  C8  UNL     1      -5.498  33.066   0.894  1.00  0.00     0.264 C 
HETATM   28  C9  UNL     1      -5.102  33.505  -0.506  1.00  0.00     0.338 C 
HETATM   29  N8  UNL     1      -4.710  34.903  -0.356  1.00  0.00    -0.043 N 
HETATM   30  C10 UNL     1      -5.323  35.396   0.857  1.00  0.00     0.243 C 
ATOM     31  H82 UNL     1      -3.699  35.038  -0.376  1.00  0.00     0.280 HD
ATOM     32  H81 UNL     1      -4.934  35.470  -1.174  1.00  0.00     0.280 HD
HETATM   33  C11 UNL     1      -6.289  36.482   0.595  1.00  0.00    -0.018 C 
HETATM   34  C15 UNL     1      -6.213  34.287   1.369  1.00  0.00     0.151 C 
HETATM   35  C12 UNL     1      -5.904  37.930   0.498  1.00  0.00     0.048 C 
HETATM   36  C13 UNL     1      -7.476  35.948   0.473  1.00  0.00     0.110 C 
HETATM   37  N9  UNL     1      -7.432  34.537   0.635  1.00  0.00    -0.375 N 
ATOM     38  H9  UNL     1      -8.111  33.851   0.306  1.00  0.00     0.160 HD
BRANCH  28  39
HETATM   39  N7  UNL     1      -6.214  33.391  -1.421  1.00  0.00    -0.068 NA
BRANCH  39  40
HETATM   40  O5  UNL     1      -6.265  34.453  -2.241  1.00  0.00    -0.294 OA
ATOM     41  H5  UNL     1      -7.151  34.593  -2.554  1.00  0.00     0.238 HD
ENDBRANCH  39  40
ENDBRANCH  28  39
BRANCH  36  42
HETATM   42  C14 UNL     1      -8.704  36.712   0.206  1.00  0.00     0.226 C 
HETATM   43  O6  UNL     1      -9.794  36.104  -0.070  1.00  0.00    -0.643 OA
HETATM   44  O7  UNL     1      -8.771  38.076   0.232  1.00  0.00    -0.643 OA
ENDBRANCH  36  42
ENDBRANCH  24  27
ENDBRANCH   1  24
TORSDOF 11
ENDMDL
MODEL 3
REMARK VINA RESULT: -7.528692573      2.950      4.650
REMARK  11 active torsions:
REMARK  status: ('A' for Active; 'I' for Inactive)
REMARK       I    between atoms: C2_2  and  N1_4 
REMARK    1  A    between atoms: N1_4  and  C3_6 
REMARK    2  A    between atoms: N4_11  and  C4_12 
REMARK    3  A    between atoms: C4_12  and  C5_13 
REMARK    4  A    between atoms: C6_16  and  N5_17 
REMARK    5  A    between atoms: N5_17  and  C7_19 
REMARK    6  A    between atoms: C7_19  and  O4_20 
REMARK    7  A    between atoms: C7_19  and  N6_22 
REMARK    8  A    between atoms: N6_22  and  C8_25 
REMARK    9  A    between atoms: C9_26  and  N7_27 
REMARK   10  A    between atoms: N7_27  and  O5_28 
REMARK   11  A    between atoms: C13_36  and  C14_37 
ROOT
HETATM    1  C7  UNL     1      -4.680  33.461  -1.556  1.00  0.00     0.441 C 
ENDROOT
BRANCH   1   2
HETATM    2  N5  UNL     1      -5.892  34.170  -1.212  1.00  0.00    -0.172 N 
ATOM      3  H5  UNL     1      -6.398  34.687  -1.932  1.00  0.00     0.182 HD
BRANCH   2   4
HETATM    4  C6  UNL     1      -6.344  34.157   0.014  1.00  0.00     0.714 A 
HETATM    5  N4  UNL     1      -7.387  34.967   0.287  1.00  0.00    -0.098 N 
HETATM    6  N3  UNL     1      -7.864  34.974   1.516  1.00  0.00    -0.211 N 
HETATM    7  N2  UNL     1      -7.327  34.201   2.458  1.00  0.00    -0.116 N 
ATOM      8  H3  UNL     1      -8.652  35.579   1.748  1.00  0.00     0.209 HD
HETATM    9  C3  UNL     1      -6.289  33.382   2.221  1.00  0.00     0.715 A 
ATOM     10  H2  UNL     1      -7.721  34.231   3.399  1.00  0.00     0.207 HD
HETATM   11  N10 UNL     1      -5.792  33.371   0.952  1.00  0.00    -0.019 N 
ATOM     12  H10 UNL     1      -5.004  32.768   0.715  1.00  0.00     0.203 HD
BRANCH   5  13
HETATM   13  C4  UNL     1      -7.986  35.812  -0.707  1.00  0.00     0.282 C 
BRANCH  13  14
HETATM   14  C5  UNL     1      -8.691  36.954  -0.106  1.00  0.00     0.194 C 
HETATM   15  O2  UNL     1      -9.943  36.956  -0.052  1.00  0.00    -0.647 OA
HETATM   16  O3  UNL     1      -8.008  38.042   0.411  1.00  0.00    -0.647 OA
ENDBRANCH  13  14
ENDBRANCH   5  13
BRANCH   9  17
HETATM   17  N1  UNL     1      -5.786  32.644   3.136  1.00  0.00    -0.158 N 
HETATM   18  C2  UNL     1      -6.424  31.530   3.717  1.00  0.00     0.232 C 
HETATM   19  C1  UNL     1      -5.624  30.345   4.115  1.00  0.00     0.118 C 
HETATM   20  O1  UNL     1      -7.664  31.565   3.886  1.00  0.00    -0.273 OA
ATOM     21  H1  UNL     1      -4.852  32.880   3.471  1.00  0.00     0.187 HD
ENDBRANCH   9  17
ENDBRANCH   2   4
ENDBRANCH   1   2
BRANCH   1  22
HETATM   22  O4  UNL     1      -3.729  34.328  -2.118  1.00  0.00    -0.354 OA
ATOM     23  H4  UNL     1      -3.571  35.074  -1.552  1.00  0.00     0.214 HD
ENDBRANCH   1  22
BRANCH   1  24
HETATM   24  N6  UNL     1      -5.009  32.399  -2.510  1.00  0.00    -0.021 N 
ATOM     25  H62 UNL     1      -5.623  32.711  -3.263  1.00  0.00     0.283 HD
ATOM     26  H61 UNL     1      -4.219  32.123  -3.093  1.00  0.00     0.283 HD
BRANCH  24  27
HETATM   27  C8  UNL     1      -5.552  31.320  -1.754  1.00  0.00     0.264 C 
HETATM   28  C9  UNL     1      -6.944  30.897  -2.194  1.00  0.00     0.338 C 
HETATM   29  N8  UNL     1      -7.144  29.590  -1.576  1.00  0.00    -0.043 N 
HETATM   30  C10 UNL     1      -5.837  29.052  -1.271  1.00  0.00     0.243 C 
ATOM     31  H82 UNL     1      -7.760  29.624  -0.763  1.00  0.00     0.280 HD
ATOM     32  H81 UNL     1      -7.711  28.962  -2.146  1.00  0.00     0.280 HD
HETATM   33  C11 UNL     1      -5.554  27.811  -2.022  1.00  0.00    -0.018 C 
HETATM   34  C15 UNL     1      -4.829  30.018  -1.851  1.00  0.00     0.151 C 
HETATM   35  C12 UNL     1      -5.952  26.444  -1.546  1.00  0.00     0.048 C 
HETATM   36  C13 UNL     1      -4.922  28.137  -3.120  1.00  0.00     0.110 C 
HETATM   37  N9  UNL     1      -4.725  29.541  -3.210  1.00  0.00    -0.375 N 
ATOM     38  H9  UNL     1      -4.549  30.091  -4.051  1.00  0.00     0.160 HD
BRANCH  28  39
HETATM   39  N7  UNL     1      -7.025  30.790  -3.632  1.00  0.00    -0.068 NA
BRANCH  39  40
HETATM   40  O5  UNL     1      -7.849  29.791  -3.988  1.00  0.00    -0.294 OA
ATOM     41  H5  UNL     1      -7.390  28.959  -3.983  1.00  0.00     0.238 HD
ENDBRANCH  39  40
ENDBRANCH  28  39
BRANCH  36  42
HETATM   42  C14 UNL     1      -4.469  27.171  -4.132  1.00  0.00     0.226 C 
HETATM   43  O6  UNL     1      -5.278  26.748  -5.027  1.00  0.00    -0.643 OA
HETATM   44  O7  UNL     1      -3.198  26.671  -4.190  1.00  0.00    -0.643 OA
ENDBRANCH  36  42
ENDBRANCH  24  27
ENDBRANCH   1  24
TORSDOF 11
ENDMDL
MODEL 4
REMARK VINA RESULT: -7.493037255      3.305      5.893
REMARK  11 active torsions:
REMARK  status: ('A' for Active; 'I' for Inactive)
REMARK       I    between atoms: C2_2  and  N1_4 
REMARK    1  A    between atoms: N1_4  and  C3_6 
REMARK    2  A    between atoms: N4_11  and  C4_12 
REMARK    3  A    between atoms: C4_12  and  C5_13 
REMARK    4  A    between atoms: C6_16  and  N5_17 
REMARK    5  A    between atoms: N5_17  and  C7_19 
REMARK    6  A    between atoms: C7_19  and  O4_20 
REMARK    7  A    between atoms: C7_19  and  N6_22 
REMARK    8  A    between atoms: N6_22  and  C8_25 
REMARK    9  A    between atoms: C9_26  and  N7_27 
REMARK   10  A    between atoms: N7_27  and  O5_28 
REMARK   11  A    between atoms: C13_36  and  C14_37 
ROOT
HETATM    1  C7  UNL     1      -3.598  28.954  -0.877  1.00  0.00     0.441 C 
ENDROOT
BRANCH   1   2
HETATM    2  N5  UNL     1      -3.830  30.020  -1.826  1.00  0.00    -0.172 N 
ATOM      3  H5  UNL     1      -3.234  30.103  -2.650  1.00  0.00     0.182 HD
BRANCH   2   4
HETATM    4  C6  UNL     1      -4.797  30.879  -1.638  1.00  0.00     0.714 A 
HETATM    5  N4  UNL     1      -5.734  30.962  -2.605  1.00  0.00    -0.098 N 
HETATM    6  N3  UNL     1      -6.721  31.821  -2.442  1.00  0.00    -0.211 N 
HETATM    7  N2  UNL     1      -6.786  32.583  -1.351  1.00  0.00    -0.116 N 
ATOM      8  H3  UNL     1      -7.442  31.902  -3.159  1.00  0.00     0.209 HD
HETATM    9  C3  UNL     1      -5.872  32.526  -0.370  1.00  0.00     0.715 A 
ATOM     10  H2  UNL     1      -7.564  33.237  -1.257  1.00  0.00     0.207 HD
HETATM   11  N10 UNL     1      -4.849  31.639  -0.533  1.00  0.00    -0.019 N 
ATOM     12  H10 UNL     1      -4.125  31.554   0.181  1.00  0.00     0.203 HD
BRANCH   5  13
HETATM   13  C4  UNL     1      -5.690  30.155  -3.791  1.00  0.00     0.282 C 
BRANCH  13  14
HETATM   14  C5  UNL     1      -6.960  30.195  -4.531  1.00  0.00     0.194 C 
HETATM   15  O2  UNL     1      -7.100  30.993  -5.487  1.00  0.00    -0.647 OA
HETATM   16  O3  UNL     1      -8.022  29.369  -4.202  1.00  0.00    -0.647 OA
ENDBRANCH  13  14
ENDBRANCH   5  13
BRANCH   9  17
HETATM   17  N1  UNL     1      -5.949  33.263   0.672  1.00  0.00    -0.158 N 
HETATM   18  C2  UNL     1      -6.351  34.614   0.676  1.00  0.00     0.232 C 
HETATM   19  C1  UNL     1      -7.139  35.146   1.816  1.00  0.00     0.118 C 
HETATM   20  O1  UNL     1      -6.031  35.341  -0.291  1.00  0.00    -0.273 OA
ATOM     21  H1  UNL     1      -5.702  32.842   1.567  1.00  0.00     0.187 HD
ENDBRANCH   9  17
ENDBRANCH   2   4
ENDBRANCH   1   2
BRANCH   1  22
HETATM   22  O4  UNL     1      -2.380  28.306  -1.133  1.00  0.00    -0.354 OA
ATOM     23  H4  UNL     1      -1.862  28.226  -0.341  1.00  0.00     0.214 HD
ENDBRANCH   1  22
BRANCH   1  24
HETATM   24  N6  UNL     1      -4.701  27.994  -0.966  1.00  0.00    -0.021 N 
ATOM     25  H62 UNL     1      -5.210  27.884  -0.089  1.00  0.00     0.283 HD
ATOM     26  H61 UNL     1      -5.483  28.332  -1.527  1.00  0.00     0.283 HD
BRANCH  24  27
HETATM   27  C8  UNL     1      -4.148  26.775  -1.451  1.00  0.00     0.264 C 
HETATM   28  C9  UNL     1      -5.118  25.605  -1.433  1.00  0.00     0.338 C 
HETATM   29  N8  UNL     1      -4.499  24.599  -2.290  1.00  0.00    -0.043 N 
HETATM   30  C10 UNL     1      -3.564  25.285  -3.154  1.00  0.00     0.243 C 
ATOM     31  H82 UNL     1      -4.071  23.836  -1.765  1.00  0.00     0.280 HD
ATOM     32  H81 UNL     1      -5.180  24.040  -2.804  1.00  0.00     0.280 HD
HETATM   33  C11 UNL     1      -3.937  25.177  -4.580  1.00  0.00    -0.018 C 
HETATM   34  C15 UNL     1      -3.736  26.762  -2.886  1.00  0.00     0.151 C 
HETATM   35  C12 UNL     1      -3.527  24.032  -5.461  1.00  0.00     0.048 C 
HETATM   36  C13 UNL     1      -4.655  26.224  -4.892  1.00  0.00     0.110 C 
HETATM   37  N9  UNL     1      -4.823  27.091  -3.778  1.00  0.00    -0.375 N 
ATOM     38  H9  UNL     1      -5.552  27.791  -3.639  1.00  0.00     0.160 HD
BRANCH  28  39
HETATM   39  N7  UNL     1      -6.407  25.990  -1.959  1.00  0.00    -0.068 NA
BRANCH  39  40
HETATM   40  O5  UNL     1      -6.948  24.987  -2.669  1.00  0.00    -0.294 OA
ATOM     41  H5  UNL     1      -7.298  25.308  -3.492  1.00  0.00     0.238 HD
ENDBRANCH  39  40
ENDBRANCH  28  39
BRANCH  36  42
HETATM   42  C14 UNL     1      -5.215  26.476  -6.228  1.00  0.00     0.226 C 
HETATM   43  O6  UNL     1      -6.480  26.538  -6.396  1.00  0.00    -0.643 OA
HETATM   44  O7  UNL     1      -4.454  26.657  -7.349  1.00  0.00    -0.643 OA
ENDBRANCH  36  42
ENDBRANCH  24  27
ENDBRANCH   1  24
TORSDOF 11
ENDMDL
MODEL 5
REMARK VINA RESULT: -7.472959947      2.191      8.217
REMARK  11 active torsions:
REMARK  status: ('A' for Active; 'I' for Inactive)
REMARK       I    between atoms: C2_2  and  N1_4 
REMARK    1  A    between atoms: N1_4  and  C3_6 
REMARK    2  A    between atoms: N4_11  and  C4_12 
REMARK    3  A    between atoms: C4_12  and  C5_13 
REMARK    4  A    between atoms: C6_16  and  N5_17 
REMARK    5  A    between atoms: N5_17  and  C7_19 
REMARK    6  A    between atoms: C7_19  and  O4_20 
REMARK    7  A    between atoms: C7_19  and  N6_22 
REMARK    8  A    between atoms: N6_22  and  C8_25 
REMARK    9  A    between atoms: C9_26  and  N7_27 
REMARK   10  A    between atoms: N7_27  and  O5_28 
REMARK   11  A    between atoms: C13_36  and  C14_37 
ROOT
HETATM    1  C7  UNL     1      -5.487  31.684   0.468  1.00  0.00     0.441 C 
ENDROOT
BRANCH   1   2
HETATM    2  N5  UNL     1      -6.075  30.956  -0.634  1.00  0.00    -0.172 N 
ATOM      3  H5  UNL     1      -7.088  30.954  -0.756  1.00  0.00     0.182 HD
BRANCH   2   4
HETATM    4  C6  UNL     1      -5.320  30.299  -1.475  1.00  0.00     0.714 A 
HETATM    5  N4  UNL     1      -5.862  29.999  -2.673  1.00  0.00    -0.098 N 
HETATM    6  N3  UNL     1      -5.123  29.336  -3.541  1.00  0.00    -0.211 N 
HETATM    7  N2  UNL     1      -3.877  28.975  -3.237  1.00  0.00    -0.116 N 
ATOM      8  H3  UNL     1      -5.510  29.097  -4.453  1.00  0.00     0.209 HD
HETATM    9  C3  UNL     1      -3.307  29.258  -2.055  1.00  0.00     0.715 A 
ATOM     10  H2  UNL     1      -3.333  28.463  -3.932  1.00  0.00     0.207 HD
HETATM   11  N10 UNL     1      -4.066  29.943  -1.154  1.00  0.00    -0.019 N 
ATOM     12  H10 UNL     1      -3.684  30.184  -0.240  1.00  0.00     0.203 HD
BRANCH   5  13
HETATM   13  C4  UNL     1      -7.201  30.374  -3.028  1.00  0.00     0.282 C 
BRANCH  13  14
HETATM   14  C5  UNL     1      -7.491  30.103  -4.444  1.00  0.00     0.194 C 
HETATM   15  O2  UNL     1      -8.074  29.042  -4.769  1.00  0.00    -0.647 OA
HETATM   16  O3  UNL     1      -7.137  30.993  -5.444  1.00  0.00    -0.647 OA
ENDBRANCH  13  14
ENDBRANCH   5  13
BRANCH   9  17
HETATM   17  N1  UNL     1      -2.109  28.905  -1.780  1.00  0.00    -0.158 N 
HETATM   18  C2  UNL     1      -1.521  27.681  -2.155  1.00  0.00     0.232 C 
HETATM   19  C1  UNL     1      -0.082  27.633  -2.517  1.00  0.00     0.118 C 
HETATM   20  O1  UNL     1      -2.233  26.651  -2.177  1.00  0.00    -0.273 OA
ATOM     21  H1  UNL     1      -1.535  29.560  -1.248  1.00  0.00     0.187 HD
ENDBRANCH   9  17
ENDBRANCH   2   4
ENDBRANCH   1   2
BRANCH   1  22
HETATM   22  O4  UNL     1      -5.200  30.829   1.543  1.00  0.00    -0.354 OA
ATOM     23  H4  UNL     1      -4.282  30.588   1.552  1.00  0.00     0.214 HD
ENDBRANCH   1  22
BRANCH   1  24
HETATM   24  N6  UNL     1      -6.423  32.727   0.897  1.00  0.00    -0.021 N 
ATOM     25  H62 UNL     1      -7.263  32.775   0.320  1.00  0.00     0.283 HD
ATOM     26  H61 UNL     1      -6.884  32.513   1.781  1.00  0.00     0.283 HD
BRANCH  24  27
HETATM   27  C8  UNL     1      -5.692  33.949   0.927  1.00  0.00     0.264 C 
HETATM   28  C9  UNL     1      -5.247  34.436  -0.442  1.00  0.00     0.338 C 
HETATM   29  N8  UNL     1      -4.872  35.831  -0.233  1.00  0.00    -0.043 N 
HETATM   30  C10 UNL     1      -5.534  36.280   0.972  1.00  0.00     0.243 C 
ATOM     31  H82 UNL     1      -3.862  35.973  -0.210  1.00  0.00     0.280 HD
ATOM     32  H81 UNL     1      -5.070  36.423  -1.040  1.00  0.00     0.280 HD
HETATM   33  C11 UNL     1      -6.499  37.368   0.708  1.00  0.00    -0.018 C 
HETATM   34  C15 UNL     1      -6.434  35.149   1.413  1.00  0.00     0.151 C 
HETATM   35  C12 UNL     1      -6.122  38.821   0.672  1.00  0.00     0.048 C 
HETATM   36  C13 UNL     1      -7.676  36.830   0.524  1.00  0.00     0.110 C 
HETATM   37  N9  UNL     1      -7.626  35.415   0.642  1.00  0.00    -0.375 N 
ATOM     38  H9  UNL     1      -8.287  34.735   0.265  1.00  0.00     0.160 HD
BRANCH  28  39
HETATM   39  N7  UNL     1      -6.323  34.344  -1.402  1.00  0.00    -0.068 NA
BRANCH  39  40
HETATM   40  O5  UNL     1      -6.021  33.462  -2.369  1.00  0.00    -0.294 OA
ATOM     41  H5  UNL     1      -6.027  32.575  -2.029  1.00  0.00     0.238 HD
ENDBRANCH  39  40
ENDBRANCH  28  39
BRANCH  36  42
HETATM   42  C14 UNL     1      -8.899  37.593   0.235  1.00  0.00     0.226 C 
HETATM   43  O6  UNL     1      -9.960  36.991  -0.146  1.00  0.00    -0.643 OA
HETATM   44  O7  UNL     1      -8.991  38.953   0.347  1.00  0.00    -0.643 OA
ENDBRANCH  36  42
ENDBRANCH  24  27
ENDBRANCH   1  24
TORSDOF 11
ENDMDL
