MODEL 1
REMARK VINA RESULT: -6.010461439      0.000      0.000
REMARK  7 active torsions:
REMARK  status: ('A' for Active; 'I' for Inactive)
REMARK    1  A    between atoms: N1_1  and  N2_4 
REMARK    2  A    between atoms: N2_4  and  C1_6 
REMARK    3  A    between atoms: C3_11  and  C4_12 
REMARK    4  A    between atoms: C4_12  and  O2_13 
REMARK    5  A    between atoms: C4_12  and  O3_15 
REMARK    6  A    between atoms: C5_17  and  C6_18 
REMARK    7  A    between atoms: C8_22  and  N5_23 
ROOT
HETATM    1  C1  UNL     1      -9.796 -29.404  10.482  1.00  0.00     0.246 A 
HETATM    2  N3  UNL     1      -9.772 -30.544   9.781  1.00  0.00    -0.300 N 
ATOM      3  H3  UNL     1     -10.331 -30.665   8.936  1.00  0.00     0.171 HD
HETATM    4  C2  UNL     1      -8.973 -31.527  10.247  1.00  0.00     0.167 A 
HETATM    5  O1  UNL     1      -8.773 -32.739   9.739  1.00  0.00    -0.291 OA
HETATM    6  C3  UNL     1      -7.936 -33.346  10.499  1.00  0.00     0.126 A 
HETATM    7  C5  UNL     1      -7.547 -32.503  11.577  1.00  0.00     0.083 A 
HETATM    8  C7  UNL     1      -8.231 -31.337  11.391  1.00  0.00     0.091 A 
HETATM    9  C8  UNL     1      -8.278 -30.159  12.087  1.00  0.00     0.233 A 
HETATM   10  O7  UNL     1      -9.101 -29.225  11.556  1.00  0.00    -0.254 OA
ENDROOT
BRANCH   1  11
HETATM   11  N2  UNL     1     -10.579 -28.457  10.016  1.00  0.00    -0.271 N 
ATOM     12  H2  UNL     1     -10.221 -27.514   9.861  1.00  0.00     0.190 HD
BRANCH  11  13
HETATM   13  N1  UNL     1     -11.912 -28.768   9.736  1.00  0.00    -0.342 N 
ATOM     14  H12 UNL     1     -12.334 -29.599  10.148  1.00  0.00     0.176 HD
ATOM     15  H11 UNL     1     -12.438 -28.150   9.118  1.00  0.00     0.176 HD
ENDBRANCH  11  13
ENDBRANCH   1  11
BRANCH   9  16
HETATM   16  N5  UNL     1      -7.593 -29.836  13.249  1.00  0.00    -0.089 N 
HETATM   17  O5  UNL     1      -6.457 -29.246  13.042  1.00  0.00    -0.530 OA
HETATM   18  O6  UNL     1      -7.835 -29.997  14.524  1.00  0.00    -0.530 OA
ENDBRANCH   9  16
BRANCH   6  19
HETATM   19  C4  UNL     1      -7.435 -34.722  10.300  1.00  0.00     0.313 C 
BRANCH  19  20
HETATM   20  O2  UNL     1      -8.300 -35.652  10.910  1.00  0.00    -0.365 OA
ATOM     21  H2  UNL     1      -8.238 -35.591  11.855  1.00  0.00     0.213 HD
ENDBRANCH  19  20
BRANCH  19  22
HETATM   22  O3  UNL     1      -7.380 -35.077   8.950  1.00  0.00    -0.365 OA
ATOM     23  H3  UNL     1      -7.504 -36.009   8.817  1.00  0.00     0.213 HD
ENDBRANCH  19  22
ENDBRANCH   6  19
BRANCH   7  24
HETATM   24  C6  UNL     1      -6.604 -32.966  12.568  1.00  0.00     0.268 C 
HETATM   25  N4  UNL     1      -5.215 -32.649  12.362  1.00  0.00    -0.057 NA
HETATM   26  O4  UNL     1      -6.885 -33.615  13.600  1.00  0.00    -0.271 OA
ENDBRANCH   7  24
TORSDOF 7
ENDMDL
MODEL 2
REMARK VINA RESULT: -5.985684163      1.263      1.371
REMARK  7 active torsions:
REMARK  status: ('A' for Active; 'I' for Inactive)
REMARK    1  A    between atoms: N1_1  and  N2_4 
REMARK    2  A    between atoms: N2_4  and  C1_6 
REMARK    3  A    between atoms: C3_11  and  C4_12 
REMARK    4  A    between atoms: C4_12  and  O2_13 
REMARK    5  A    between atoms: C4_12  and  O3_15 
REMARK    6  A    between atoms: C5_17  and  C6_18 
REMARK    7  A    between atoms: C8_22  and  N5_23 
ROOT
HETATM    1  C1  UNL     1      -9.887 -29.416  10.375  1.00  0.00     0.246 A 
HETATM    2  N3  UNL     1     -10.064 -30.680   9.971  1.00  0.00    -0.300 N 
ATOM      3  H3  UNL     1     -10.929 -30.983   9.525  1.00  0.00     0.171 HD
HETATM    4  C2  UNL     1      -9.040 -31.533  10.182  1.00  0.00     0.167 A 
HETATM    5  O1  UNL     1      -8.965 -32.825   9.875  1.00  0.00    -0.291 OA
HETATM    6  C3  UNL     1      -7.814 -33.248  10.253  1.00  0.00     0.126 A 
HETATM    7  C5  UNL     1      -7.069 -32.191  10.844  1.00  0.00     0.083 A 
HETATM    8  C7  UNL     1      -7.882 -31.097  10.787  1.00  0.00     0.091 A 
HETATM    9  C8  UNL     1      -7.733 -29.797  11.191  1.00  0.00     0.233 A 
HETATM   10  O7  UNL     1      -8.802 -29.005  10.944  1.00  0.00    -0.254 OA
ENDROOT
BRANCH   1  11
HETATM   11  N2  UNL     1     -10.893 -28.597  10.163  1.00  0.00    -0.271 N 
ATOM     12  H2  UNL     1     -11.550 -28.374  10.911  1.00  0.00     0.190 HD
BRANCH  11  13
HETATM   13  N1  UNL     1     -11.042 -28.037   8.892  1.00  0.00    -0.342 N 
ATOM     14  H12 UNL     1     -10.436 -28.341   8.131  1.00  0.00     0.176 HD
ATOM     15  H11 UNL     1     -11.762 -27.328   8.752  1.00  0.00     0.176 HD
ENDBRANCH  11  13
ENDBRANCH   1  11
BRANCH   9  16
HETATM   16  N5  UNL     1      -6.632 -29.228  11.813  1.00  0.00    -0.089 N 
HETATM   17  O5  UNL     1      -5.760 -28.735  10.991  1.00  0.00    -0.530 OA
HETATM   18  O6  UNL     1      -6.268 -29.074  13.061  1.00  0.00    -0.530 OA
ENDBRANCH   9  16
BRANCH   6  19
HETATM   19  C4  UNL     1      -7.315 -34.631  10.103  1.00  0.00     0.313 C 
BRANCH  19  20
HETATM   20  O2  UNL     1      -8.164 -35.535  10.771  1.00  0.00    -0.365 OA
ATOM     21  H2  UNL     1      -8.062 -35.452  11.712  1.00  0.00     0.213 HD
ENDBRANCH  19  20
BRANCH  19  22
HETATM   22  O3  UNL     1      -7.289 -35.044   8.769  1.00  0.00    -0.365 OA
ATOM     23  H3  UNL     1      -6.457 -34.858   8.350  1.00  0.00     0.213 HD
ENDBRANCH  19  22
ENDBRANCH   6  19
BRANCH   7  24
HETATM   24  C6  UNL     1      -5.734 -32.423  11.345  1.00  0.00     0.268 C 
HETATM   25  N4  UNL     1      -5.609 -32.992  12.661  1.00  0.00    -0.057 NA
HETATM   26  O4  UNL     1      -4.669 -32.181  10.734  1.00  0.00    -0.271 OA
ENDBRANCH   7  24
TORSDOF 7
ENDMDL
MODEL 3
REMARK VINA RESULT: -5.533503752      1.933      2.175
REMARK  7 active torsions:
REMARK  status: ('A' for Active; 'I' for Inactive)
REMARK    1  A    between atoms: N1_1  and  N2_4 
REMARK    2  A    between atoms: N2_4  and  C1_6 
REMARK    3  A    between atoms: C3_11  and  C4_12 
REMARK    4  A    between atoms: C4_12  and  O2_13 
REMARK    5  A    between atoms: C4_12  and  O3_15 
REMARK    6  A    between atoms: C5_17  and  C6_18 
REMARK    7  A    between atoms: C8_22  and  N5_23 
ROOT
HETATM    1  C1  UNL     1     -11.629 -30.164  11.232  1.00  0.00     0.246 A 
HETATM    2  N3  UNL     1     -10.934 -30.806  10.285  1.00  0.00    -0.300 N 
ATOM      3  H3  UNL     1     -11.352 -31.051   9.388  1.00  0.00     0.171 HD
HETATM    4  C2  UNL     1      -9.652 -31.113  10.575  1.00  0.00     0.167 A 
HETATM    5  O1  UNL     1      -8.760 -31.740   9.814  1.00  0.00    -0.291 OA
HETATM    6  C3  UNL     1      -7.668 -31.822  10.481  1.00  0.00     0.126 A 
HETATM    7  C5  UNL     1      -7.824 -31.218  11.760  1.00  0.00     0.083 A 
HETATM    8  C7  UNL     1      -9.113 -30.771  11.795  1.00  0.00     0.091 A 
HETATM    9  C8  UNL     1      -9.850 -30.115  12.744  1.00  0.00     0.233 A 
HETATM   10  O7  UNL     1     -11.124 -29.843  12.378  1.00  0.00    -0.254 OA
ENDROOT
BRANCH   1  11
HETATM   11  N2  UNL     1     -12.875 -29.872  10.935  1.00  0.00    -0.271 N 
ATOM     12  H2  UNL     1     -13.643 -30.227  11.504  1.00  0.00     0.190 HD
BRANCH  11  13
HETATM   13  N1  UNL     1     -13.126 -29.065   9.823  1.00  0.00    -0.342 N 
ATOM     14  H12 UNL     1     -12.372 -28.861   9.166  1.00  0.00     0.176 HD
ATOM     15  H11 UNL     1     -14.066 -28.693   9.691  1.00  0.00     0.176 HD
ENDBRANCH  11  13
ENDBRANCH   1  11
BRANCH   9  16
HETATM   16  N5  UNL     1      -9.438 -29.718  14.007  1.00  0.00    -0.089 N 
HETATM   17  O5  UNL     1      -8.894 -28.542  14.037  1.00  0.00    -0.530 OA
HETATM   18  O6  UNL     1      -9.474 -30.269  15.193  1.00  0.00    -0.530 OA
ENDBRANCH   9  16
BRANCH   6  19
HETATM   19  C4  UNL     1      -6.415 -32.447  10.008  1.00  0.00     0.313 C 
BRANCH  19  20
HETATM   20  O2  UNL     1      -6.657 -33.215   8.851  1.00  0.00    -0.365 OA
ATOM     21  H2  UNL     1      -5.906 -33.763   8.656  1.00  0.00     0.213 HD
ENDBRANCH  19  20
BRANCH  19  22
HETATM   22  O3  UNL     1      -5.454 -31.501   9.646  1.00  0.00    -0.365 OA
ATOM     23  H3  UNL     1      -5.794 -30.855   9.038  1.00  0.00     0.213 HD
ENDBRANCH  19  22
ENDBRANCH   6  19
BRANCH   7  24
HETATM   24  C6  UNL     1      -6.724 -31.182  12.695  1.00  0.00     0.268 C 
HETATM   25  N4  UNL     1      -5.780 -30.103  12.568  1.00  0.00    -0.057 NA
HETATM   26  O4  UNL     1      -6.518 -32.004  13.616  1.00  0.00    -0.271 OA
ENDBRANCH   7  24
TORSDOF 7
ENDMDL
MODEL 4
REMARK VINA RESULT: -5.449722731      2.648      5.005
REMARK  7 active torsions:
REMARK  status: ('A' for Active; 'I' for Inactive)
REMARK    1  A    between atoms: N1_1  and  N2_4 
REMARK    2  A    between atoms: N2_4  and  C1_6 
REMARK    3  A    between atoms: C3_11  and  C4_12 
REMARK    4  A    between atoms: C4_12  and  O2_13 
REMARK    5  A    between atoms: C4_12  and  O3_15 
REMARK    6  A    between atoms: C5_17  and  C6_18 
REMARK    7  A    between atoms: C8_22  and  N5_23 
ROOT
HETATM    1  C1  UNL     1      -6.640 -34.500   9.444  1.00  0.00     0.246 A 
HETATM    2  N3  UNL     1      -7.929 -34.145   9.384  1.00  0.00    -0.300 N 
ATOM      3  H3  UNL     1      -8.637 -34.763   8.989  1.00  0.00     0.171 HD
HETATM    4  C2  UNL     1      -8.246 -32.927   9.873  1.00  0.00     0.167 A 
HETATM    5  O1  UNL     1      -9.441 -32.346   9.930  1.00  0.00    -0.291 OA
HETATM    6  C3  UNL     1      -9.287 -31.192  10.470  1.00  0.00     0.126 A 
HETATM    7  C5  UNL     1      -7.919 -30.978  10.796  1.00  0.00     0.083 A 
HETATM    8  C7  UNL     1      -7.270 -32.111  10.400  1.00  0.00     0.091 A 
HETATM    9  C8  UNL     1      -5.959 -32.503  10.446  1.00  0.00     0.233 A 
HETATM   10  O7  UNL     1      -5.722 -33.736   9.938  1.00  0.00    -0.254 OA
ENDROOT
BRANCH   1  11
HETATM   11  N2  UNL     1      -6.347 -35.688   8.965  1.00  0.00    -0.271 N 
ATOM     12  H2  UNL     1      -5.977 -36.418   9.574  1.00  0.00     0.190 HD
BRANCH  11  13
HETATM   13  N1  UNL     1      -6.554 -35.931   7.606  1.00  0.00    -0.342 N 
ATOM     14  H12 UNL     1      -7.471 -35.759   7.195  1.00  0.00     0.176 HD
ATOM     15  H11 UNL     1      -5.774 -36.280   7.048  1.00  0.00     0.176 HD
ENDBRANCH  11  13
ENDBRANCH   1  11
BRANCH   9  16
HETATM   16  N5  UNL     1      -4.880 -31.787  10.940  1.00  0.00    -0.089 N 
HETATM   17  O5  UNL     1      -4.356 -30.967  10.083  1.00  0.00    -0.530 OA
HETATM   18  O6  UNL     1      -4.260 -31.751  12.092  1.00  0.00    -0.530 OA
ENDBRANCH   9  16
BRANCH   6  19
HETATM   19  C4  UNL     1     -10.362 -30.211  10.725  1.00  0.00     0.313 C 
BRANCH  19  20
HETATM   20  O2  UNL     1     -10.254 -29.122   9.837  1.00  0.00    -0.365 OA
ATOM     21  H2  UNL     1     -10.545 -28.322  10.258  1.00  0.00     0.213 HD
ENDBRANCH  19  20
BRANCH  19  22
HETATM   22  O3  UNL     1     -11.633 -30.751  10.516  1.00  0.00    -0.365 OA
ATOM     23  H3  UNL     1     -12.050 -30.403   9.737  1.00  0.00     0.213 HD
ENDBRANCH  19  22
ENDBRANCH   6  19
BRANCH   7  24
HETATM   24  C6  UNL     1      -7.496 -29.747  11.420  1.00  0.00     0.268 C 
HETATM   25  N4  UNL     1      -7.382 -29.735  12.855  1.00  0.00    -0.057 NA
HETATM   26  O4  UNL     1      -7.210 -28.684  10.825  1.00  0.00    -0.271 OA
ENDBRANCH   7  24
TORSDOF 7
ENDMDL
MODEL 5
REMARK VINA RESULT: -5.422267684      2.269      4.766
REMARK  7 active torsions:
REMARK  status: ('A' for Active; 'I' for Inactive)
REMARK    1  A    between atoms: N1_1  and  N2_4 
REMARK    2  A    between atoms: N2_4  and  C1_6 
REMARK    3  A    between atoms: C3_11  and  C4_12 
REMARK    4  A    between atoms: C4_12  and  O2_13 
REMARK    5  A    between atoms: C4_12  and  O3_15 
REMARK    6  A    between atoms: C5_17  and  C6_18 
REMARK    7  A    between atoms: C8_22  and  N5_23 
ROOT
HETATM    1  C1  UNL     1      -6.929 -34.315   9.881  1.00  0.00     0.246 A 
HETATM    2  N3  UNL     1      -7.963 -33.657   9.343  1.00  0.00    -0.300 N 
ATOM      3  H3  UNL     1      -8.351 -33.918   8.437  1.00  0.00     0.171 HD
HETATM    4  C2  UNL     1      -8.467 -32.630  10.059  1.00  0.00     0.167 A 
HETATM    5  O1  UNL     1      -9.482 -31.827   9.751  1.00  0.00    -0.291 OA
HETATM    6  C3  UNL     1      -9.622 -30.990  10.713  1.00  0.00     0.126 A 
HETATM    7  C5  UNL     1      -8.655 -31.237  11.727  1.00  0.00     0.083 A 
HETATM    8  C7  UNL     1      -7.923 -32.298  11.280  1.00  0.00     0.091 A 
HETATM    9  C8  UNL     1      -6.864 -32.991  11.803  1.00  0.00     0.233 A 
HETATM   10  O7  UNL     1      -6.417 -34.005  11.026  1.00  0.00    -0.254 OA
ENDROOT
BRANCH   1  11
HETATM   11  N2  UNL     1      -6.449 -35.313   9.172  1.00  0.00    -0.271 N 
ATOM     12  H2  UNL     1      -5.548 -35.731   9.405  1.00  0.00     0.190 HD
BRANCH  11  13
HETATM   13  N1  UNL     1      -7.199 -35.788   8.094  1.00  0.00    -0.342 N 
ATOM     14  H12 UNL     1      -7.749 -35.136   7.534  1.00  0.00     0.176 HD
ATOM     15  H11 UNL     1      -7.179 -36.786   7.887  1.00  0.00     0.176 HD
ENDBRANCH  11  13
ENDBRANCH   1  11
BRANCH   9  16
HETATM   16  N5  UNL     1      -6.218 -32.763  13.009  1.00  0.00    -0.089 N 
HETATM   17  O5  UNL     1      -6.715 -33.429  14.005  1.00  0.00    -0.530 OA
HETATM   18  O6  UNL     1      -5.208 -32.017  13.375  1.00  0.00    -0.530 OA
ENDBRANCH   9  16
BRANCH   6  19
HETATM   19  C4  UNL     1     -10.636 -29.918  10.779  1.00  0.00     0.313 C 
BRANCH  19  20
HETATM   20  O2  UNL     1     -10.399 -28.956   9.777  1.00  0.00    -0.365 OA
ATOM     21  H2  UNL     1     -11.140 -28.366   9.703  1.00  0.00     0.213 HD
ENDBRANCH  19  20
BRANCH  19  22
HETATM   22  O3  UNL     1     -11.929 -30.396  10.554  1.00  0.00    -0.365 OA
ATOM     23  H3  UNL     1     -12.460 -30.384  11.341  1.00  0.00     0.213 HD
ENDBRANCH  19  22
ENDBRANCH   6  19
BRANCH   7  24
HETATM   24  C6  UNL     1      -8.616 -30.423  12.919  1.00  0.00     0.268 C 
HETATM   25  N4  UNL     1      -7.631 -29.375  12.975  1.00  0.00    -0.057 NA
HETATM   26  O4  UNL     1      -9.370 -30.540  13.912  1.00  0.00    -0.271 OA
ENDBRANCH   7  24
TORSDOF 7
ENDMDL
