MODEL 1
REMARK VINA RESULT: -6.889731796      0.000      0.000
REMARK  5 active torsions:
REMARK  status: ('A' for Active; 'I' for Inactive)
REMARK    1  A    between atoms: C2_7  and  N3_8 
REMARK    2  A    between atoms: N3_8  and  O1_10 
REMARK    3  A    between atoms: N5_17  and  C6_18 
REMARK    4  A    between atoms: C6_18  and  O2_19 
REMARK    5  A    between atoms: O2_19  and  N6_20 
ROOT
HETATM    1  N1  UNL     1     -14.799 -30.101  11.139  1.00  0.00    -0.384 N 
ATOM      2  H11 UNL     1     -14.164 -30.865  11.371  1.00  0.00     0.157 HD
ATOM      3  H12 UNL     1     -15.796 -30.185  11.335  1.00  0.00     0.157 HD
HETATM    4  C1  UNL     1     -14.336 -29.040  10.601  1.00  0.00     0.127 A 
HETATM    5  N2  UNL     1     -15.194 -28.007  10.289  1.00  0.00    -0.175 N 
ATOM      6  H2  UNL     1     -16.190 -28.103  10.490  1.00  0.00     0.186 HD
HETATM    7  C2  UNL     1     -14.740 -26.886   9.728  1.00  0.00     0.705 A 
HETATM    8  N4  UNL     1     -13.438 -26.745   9.457  1.00  0.00    -0.168 N 
ATOM      9  H4  UNL     1     -13.099 -25.884   9.028  1.00  0.00     0.186 HD
HETATM   10  C3  UNL     1     -12.562 -27.747   9.754  1.00  0.00     0.169 A 
HETATM   11  C4  UNL     1     -12.994 -28.927  10.337  1.00  0.00     0.066 A 
HETATM   12  C5  UNL     1     -12.211 -30.098  10.716  1.00  0.00     0.322 C 
HETATM   13  N5  UNL     1     -10.816 -30.013  10.333  1.00  0.00     0.120 N 
HETATM   14  C7  UNL     1     -10.136 -28.906  10.960  1.00  0.00     0.302 C 
HETATM   15  C8  UNL     1     -10.048 -27.698  10.046  1.00  0.00     0.207 C 
HETATM   16  O5  UNL     1     -11.260 -27.417   9.401  1.00  0.00    -0.333 OA
ENDROOT
BRANCH  13  17
HETATM   17  C6  UNL     1     -10.182 -31.244  10.772  1.00  0.00     0.480 C 
BRANCH  17  18
HETATM   18  O2  UNL     1      -9.468 -31.789   9.688  1.00  0.00    -0.191 OA
BRANCH  18  19
HETATM   19  N6  UNL     1      -8.366 -32.582   9.819  1.00  0.00     0.006 N 
HETATM   20  O3  UNL     1      -7.319 -32.429   9.161  1.00  0.00    -0.511 OA
HETATM   21  O4  UNL     1      -8.414 -33.609  10.731  1.00  0.00    -0.511 OA
ENDBRANCH  18  19
ENDBRANCH  17  18
ENDBRANCH  13  17
BRANCH   7  22
HETATM   22  N3  UNL     1     -15.593 -25.942   9.454  1.00  0.00    -0.098 N 
ATOM     23  H3  UNL     1     -16.324 -26.127   8.766  1.00  0.00     0.213 HD
BRANCH  22  24
HETATM   24  O1  UNL     1     -15.551 -24.725  10.042  1.00  0.00    -0.276 OA
ATOM     25  H1  UNL     1     -14.749 -24.221  10.123  1.00  0.00     0.245 HD
ENDBRANCH  22  24
ENDBRANCH   7  22
TORSDOF 5
ENDMDL
MODEL 2
REMARK VINA RESULT: -6.202059454      1.233      1.241
REMARK  5 active torsions:
REMARK  status: ('A' for Active; 'I' for Inactive)
REMARK    1  A    between atoms: C2_7  and  N3_8 
REMARK    2  A    between atoms: N3_8  and  O1_10 
REMARK    3  A    between atoms: N5_17  and  C6_18 
REMARK    4  A    between atoms: C6_18  and  O2_19 
REMARK    5  A    between atoms: O2_19  and  N6_20 
ROOT
HETATM    1  N1  UNL     1     -14.783 -29.966  11.025  1.00  0.00    -0.384 N 
ATOM      2  H11 UNL     1     -14.084 -30.692  11.181  1.00  0.00     0.157 HD
ATOM      3  H12 UNL     1     -15.759 -30.132  11.269  1.00  0.00     0.157 HD
HETATM    4  C1  UNL     1     -14.428 -28.848  10.520  1.00  0.00     0.127 A 
HETATM    5  N2  UNL     1     -15.373 -27.868  10.310  1.00  0.00    -0.175 N 
ATOM      6  H2  UNL     1     -16.346 -28.045  10.558  1.00  0.00     0.186 HD
HETATM    7  C2  UNL     1     -15.032 -26.690   9.786  1.00  0.00     0.705 A 
HETATM    8  N4  UNL     1     -13.761 -26.440   9.454  1.00  0.00    -0.168 N 
ATOM      9  H4  UNL     1     -13.508 -25.536   9.054  1.00  0.00     0.186 HD
HETATM   10  C3  UNL     1     -12.801 -27.389   9.649  1.00  0.00     0.169 A 
HETATM   11  C4  UNL     1     -13.114 -28.624  10.191  1.00  0.00     0.066 A 
HETATM   12  C5  UNL     1     -12.230 -29.751  10.465  1.00  0.00     0.322 C 
HETATM   13  N5  UNL     1     -10.869 -29.546  10.013  1.00  0.00     0.120 N 
HETATM   14  C7  UNL     1     -10.234 -28.424  10.661  1.00  0.00     0.302 C 
HETATM   15  C8  UNL     1     -10.284 -27.169   9.810  1.00  0.00     0.207 C 
HETATM   16  O5  UNL     1     -11.547 -26.946   9.246  1.00  0.00    -0.333 OA
ENDROOT
BRANCH  13  17
HETATM   17  C6  UNL     1     -10.125 -30.747  10.351  1.00  0.00     0.480 C 
BRANCH  17  18
HETATM   18  O2  UNL     1      -8.760 -30.415  10.447  1.00  0.00    -0.191 OA
BRANCH  18  19
HETATM   19  N6  UNL     1      -7.883 -31.024  11.295  1.00  0.00     0.006 N 
HETATM   20  O3  UNL     1      -7.137 -31.966  10.962  1.00  0.00    -0.511 OA
HETATM   21  O4  UNL     1      -7.819 -30.575  12.592  1.00  0.00    -0.511 OA
ENDBRANCH  18  19
ENDBRANCH  17  18
ENDBRANCH  13  17
BRANCH   7  22
HETATM   22  N3  UNL     1     -15.964 -25.798   9.608  1.00  0.00    -0.098 N 
ATOM     23  H3  UNL     1     -16.793 -25.832  10.201  1.00  0.00     0.213 HD
BRANCH  22  24
HETATM   24  O1  UNL     1     -15.877 -24.828   8.670  1.00  0.00    -0.276 OA
ATOM     25  H1  UNL     1     -15.149 -24.220   8.625  1.00  0.00     0.245 HD
ENDBRANCH  22  24
ENDBRANCH   7  22
TORSDOF 5
ENDMDL
MODEL 3
REMARK VINA RESULT: -5.859769064      2.468      3.577
REMARK  5 active torsions:
REMARK  status: ('A' for Active; 'I' for Inactive)
REMARK    1  A    between atoms: C2_7  and  N3_8 
REMARK    2  A    between atoms: N3_8  and  O1_10 
REMARK    3  A    between atoms: N5_17  and  C6_18 
REMARK    4  A    between atoms: C6_18  and  O2_19 
REMARK    5  A    between atoms: O2_19  and  N6_20 
ROOT
HETATM    1  N1  UNL     1     -11.193 -26.679   9.114  1.00  0.00    -0.384 N 
ATOM      2  H11 UNL     1     -10.179 -26.573   9.146  1.00  0.00     0.157 HD
ATOM      3  H12 UNL     1     -11.770 -25.967   8.668  1.00  0.00     0.157 HD
HETATM    4  C1  UNL     1     -11.734 -27.709   9.640  1.00  0.00     0.127 A 
HETATM    5  N2  UNL     1     -13.104 -27.853   9.596  1.00  0.00    -0.175 N 
ATOM      6  H2  UNL     1     -13.671 -27.134   9.147  1.00  0.00     0.186 HD
HETATM    7  C2  UNL     1     -13.698 -28.918  10.134  1.00  0.00     0.705 A 
HETATM    8  N4  UNL     1     -12.970 -29.871  10.727  1.00  0.00    -0.168 N 
ATOM      9  H4  UNL     1     -13.432 -30.683  11.137  1.00  0.00     0.186 HD
HETATM   10  C3  UNL     1     -11.612 -29.760  10.787  1.00  0.00     0.169 A 
HETATM   11  C4  UNL     1     -10.957 -28.669  10.240  1.00  0.00     0.066 A 
HETATM   12  C5  UNL     1      -9.528 -28.381  10.213  1.00  0.00     0.322 C 
HETATM   13  N5  UNL     1      -8.728 -29.342  10.945  1.00  0.00     0.120 N 
HETATM   14  C7  UNL     1      -8.837 -30.677  10.408  1.00  0.00     0.302 C 
HETATM   15  C8  UNL     1      -9.836 -31.522  11.175  1.00  0.00     0.207 C 
HETATM   16  O5  UNL     1     -11.033 -30.842  11.438  1.00  0.00    -0.333 OA
ENDROOT
BRANCH  13  17
HETATM   17  C6  UNL     1      -7.344 -28.917  10.828  1.00  0.00     0.480 C 
BRANCH  17  18
HETATM   18  O2  UNL     1      -6.513 -30.024  11.087  1.00  0.00    -0.191 OA
BRANCH  18  19
HETATM   19  N6  UNL     1      -5.356 -30.284  10.414  1.00  0.00     0.006 N 
HETATM   20  O3  UNL     1      -5.215 -31.231   9.617  1.00  0.00    -0.511 OA
HETATM   21  O4  UNL     1      -4.282 -29.454  10.631  1.00  0.00    -0.511 OA
ENDBRANCH  18  19
ENDBRANCH  17  18
ENDBRANCH  13  17
BRANCH   7  22
HETATM   22  N3  UNL     1     -14.995 -29.005  10.066  1.00  0.00    -0.098 N 
ATOM     23  H3  UNL     1     -15.499 -28.342   9.477  1.00  0.00     0.213 HD
BRANCH  22  24
HETATM   24  O1  UNL     1     -15.702 -29.936  10.745  1.00  0.00    -0.276 OA
ATOM     25  H1  UNL     1     -15.818 -30.825  10.430  1.00  0.00     0.245 HD
ENDBRANCH  22  24
ENDBRANCH   7  22
TORSDOF 5
ENDMDL
MODEL 4
REMARK VINA RESULT: -5.834991455      1.758      2.843
REMARK  5 active torsions:
REMARK  status: ('A' for Active; 'I' for Inactive)
REMARK    1  A    between atoms: C2_7  and  N3_8 
REMARK    2  A    between atoms: N3_8  and  O1_10 
REMARK    3  A    between atoms: N5_17  and  C6_18 
REMARK    4  A    between atoms: C6_18  and  O2_19 
REMARK    5  A    between atoms: O2_19  and  N6_20 
ROOT
HETATM    1  N1  UNL     1     -10.925 -26.434   9.178  1.00  0.00    -0.384 N 
ATOM      2  H11 UNL     1      -9.923 -26.595   9.277  1.00  0.00     0.157 HD
ATOM      3  H12 UNL     1     -11.269 -25.558   8.784  1.00  0.00     0.157 HD
HETATM    4  C1  UNL     1     -11.747 -27.336   9.555  1.00  0.00     0.127 A 
HETATM    5  N2  UNL     1     -13.101 -27.118   9.421  1.00  0.00    -0.175 N 
ATOM      6  H2  UNL     1     -13.433 -26.239   9.025  1.00  0.00     0.186 HD
HETATM    7  C2  UNL     1     -13.983 -28.042   9.803  1.00  0.00     0.705 A 
HETATM    8  N4  UNL     1     -13.566 -29.201  10.324  1.00  0.00    -0.168 N 
ATOM      9  H4  UNL     1     -14.247 -29.903  10.614  1.00  0.00     0.186 HD
HETATM   10  C3  UNL     1     -12.233 -29.448  10.469  1.00  0.00     0.169 A 
HETATM   11  C4  UNL     1     -11.285 -28.514  10.085  1.00  0.00     0.066 A 
HETATM   12  C5  UNL     1      -9.831 -28.601  10.168  1.00  0.00     0.322 C 
HETATM   13  N5  UNL     1      -9.358 -29.801  10.830  1.00  0.00     0.120 N 
HETATM   14  C7  UNL     1      -9.753 -31.005  10.142  1.00  0.00     0.302 C 
HETATM   15  C8  UNL     1     -10.989 -31.635  10.754  1.00  0.00     0.207 C 
HETATM   16  O5  UNL     1     -11.996 -30.699  11.026  1.00  0.00    -0.333 OA
ENDROOT
BRANCH  13  17
HETATM   17  C6  UNL     1      -7.907 -29.735  10.838  1.00  0.00     0.480 C 
BRANCH  17  18
HETATM   18  O2  UNL     1      -7.401 -31.049  10.849  1.00  0.00    -0.191 OA
BRANCH  18  19
HETATM   19  N6  UNL     1      -6.264 -31.436  10.203  1.00  0.00     0.006 N 
HETATM   20  O3  UNL     1      -5.150 -30.906  10.381  1.00  0.00    -0.511 OA
HETATM   21  O4  UNL     1      -6.353 -32.469   9.301  1.00  0.00    -0.511 OA
ENDBRANCH  18  19
ENDBRANCH  17  18
ENDBRANCH  13  17
BRANCH   7  22
HETATM   22  N3  UNL     1     -15.251 -27.786   9.655  1.00  0.00    -0.098 N 
ATOM     23  H3  UNL     1     -15.881 -28.554   9.423  1.00  0.00     0.213 HD
BRANCH  22  24
HETATM   24  O1  UNL     1     -15.767 -26.545   9.797  1.00  0.00    -0.276 OA
ATOM     25  H1  UNL     1     -15.985 -25.991   9.057  1.00  0.00     0.245 HD
ENDBRANCH  22  24
ENDBRANCH   7  22
TORSDOF 5
ENDMDL
MODEL 5
REMARK VINA RESULT: -5.824456935      3.002      4.157
REMARK  5 active torsions:
REMARK  status: ('A' for Active; 'I' for Inactive)
REMARK    1  A    between atoms: C2_7  and  N3_8 
REMARK    2  A    between atoms: N3_8  and  O1_10 
REMARK    3  A    between atoms: N5_17  and  C6_18 
REMARK    4  A    between atoms: C6_18  and  O2_19 
REMARK    5  A    between atoms: O2_19  and  N6_20 
ROOT
HETATM    1  N1  UNL     1     -10.342 -26.700   9.647  1.00  0.00    -0.384 N 
ATOM      2  H11 UNL     1      -9.333 -26.654   9.792  1.00  0.00     0.157 HD
ATOM      3  H12 UNL     1     -10.846 -25.890   9.287  1.00  0.00     0.157 HD
HETATM    4  C1  UNL     1     -10.968 -27.778   9.922  1.00  0.00     0.127 A 
HETATM    5  N2  UNL     1     -12.331 -27.840   9.726  1.00  0.00    -0.175 N 
ATOM      6  H2  UNL     1     -12.825 -27.023   9.365  1.00  0.00     0.186 HD
HETATM    7  C2  UNL     1     -13.012 -28.952  10.002  1.00  0.00     0.705 A 
HETATM    8  N4  UNL     1     -12.381 -30.032  10.476  1.00  0.00    -0.168 N 
ATOM      9  H4  UNL     1     -12.909 -30.879  10.685  1.00  0.00     0.186 HD
HETATM   10  C3  UNL     1     -11.033 -30.004  10.681  1.00  0.00     0.169 A 
HETATM   11  C4  UNL     1     -10.289 -28.868  10.406  1.00  0.00     0.066 A 
HETATM   12  C5  UNL     1      -8.855 -28.655  10.566  1.00  0.00     0.322 C 
HETATM   13  N5  UNL     1      -8.167 -29.772  11.181  1.00  0.00     0.120 N 
HETATM   14  C7  UNL     1      -8.267 -30.981  10.401  1.00  0.00     0.302 C 
HETATM   15  C8  UNL     1      -9.367 -31.897  10.905  1.00  0.00     0.207 C 
HETATM   16  O5  UNL     1     -10.560 -31.214  11.174  1.00  0.00    -0.333 OA
ENDROOT
BRANCH  13  17
HETATM   17  C6  UNL     1      -6.764 -29.405  11.273  1.00  0.00     0.480 C 
BRANCH  17  18
HETATM   18  O2  UNL     1      -6.556 -28.240  10.512  1.00  0.00    -0.191 OA
BRANCH  18  19
HETATM   19  N6  UNL     1      -5.513 -28.065   9.651  1.00  0.00     0.006 N 
HETATM   20  O3  UNL     1      -5.379 -27.068   8.917  1.00  0.00    -0.511 OA
HETATM   21  O4  UNL     1      -4.555 -29.048   9.589  1.00  0.00    -0.511 OA
ENDBRANCH  18  19
ENDBRANCH  17  18
ENDBRANCH  13  17
BRANCH   7  22
HETATM   22  N3  UNL     1     -14.298 -28.957   9.799  1.00  0.00    -0.098 N 
ATOM     23  H3  UNL     1     -14.671 -28.431   9.009  1.00  0.00     0.213 HD
BRANCH  22  24
HETATM   24  O1  UNL     1     -15.160 -29.631  10.593  1.00  0.00    -0.276 OA
ATOM     25  H1  UNL     1     -16.047 -29.333  10.758  1.00  0.00     0.245 HD
ENDBRANCH  22  24
ENDBRANCH   7  22
TORSDOF 5
ENDMDL
