MODEL 1
REMARK VINA RESULT: -6.849683776      0.000      0.000
REMARK  5 active torsions:
REMARK  status: ('A' for Active; 'I' for Inactive)
REMARK    1  A    between atoms: C3_4  and  N2_5 
REMARK    2  A    between atoms: C4_8  and  C5_9 
REMARK    3  A    between atoms: N3_10  and  N4_12 
REMARK    4  A    between atoms: N4_12  and  C6_14 
REMARK    5  A    between atoms: C9_21  and  O3_22 
ROOT
HETATM    1  N1  UNL     1      -3.846 -31.624  12.000  1.00  0.00    -0.191 NA
HETATM    2  C1  UNL     1      -4.944 -31.681  11.645  1.00  0.00     0.107 C 
HETATM    3  C2  UNL     1      -6.325 -31.731  11.208  1.00  0.00     0.146 A 
HETATM    4  C3  UNL     1      -7.111 -30.603  11.127  1.00  0.00     0.145 A 
HETATM    5  C4  UNL     1      -8.426 -30.655  10.709  1.00  0.00     0.066 A 
HETATM    6  C9  UNL     1      -8.952 -31.875  10.371  1.00  0.00     0.157 A 
HETATM    7  N7  UNL     1      -8.175 -32.994  10.449  1.00  0.00    -0.302 N 
ATOM      8  H7  UNL     1      -8.582 -33.893  10.193  1.00  0.00     0.171 HD
HETATM    9  C10 UNL     1      -6.885 -32.954  10.856  1.00  0.00     0.270 A 
HETATM   10  O4  UNL     1      -6.145 -33.958  10.942  1.00  0.00    -0.266 OA
ENDROOT
BRANCH   4  11
HETATM   11  N2  UNL     1      -6.561 -29.344  11.482  1.00  0.00    -0.113 N 
HETATM   12  O1  UNL     1      -6.627 -28.997  12.688  1.00  0.00    -0.532 OA
HETATM   13  O2  UNL     1      -5.964 -28.506  10.551  1.00  0.00    -0.532 OA
ENDBRANCH   4  11
BRANCH   5  14
HETATM   14  C5  UNL     1      -9.213 -29.423  10.643  1.00  0.00     0.125 C 
HETATM   15  N3  UNL     1     -10.056 -29.186   9.710  1.00  0.00    -0.308 N 
ATOM     16  H3  UNL     1     -10.206 -29.869   8.967  1.00  0.00     0.186 HD
BRANCH  15  17
HETATM   17  N4  UNL     1     -10.764 -27.992   9.718  1.00  0.00    -0.272 N 
ATOM     18  H4  UNL     1     -10.226 -27.129   9.799  1.00  0.00     0.190 HD
BRANCH  17  19
HETATM   19  C6  UNL     1     -12.180 -27.876   9.623  1.00  0.00     0.190 C 
HETATM   20  N5  UNL     1     -13.028 -28.810   9.800  1.00  0.00    -0.360 N 
HETATM   21  C7  UNL     1     -14.402 -28.355   9.628  1.00  0.00     0.142 C 
ATOM     22  H5  UNL     1     -12.775 -29.769  10.036  1.00  0.00     0.162 HD
HETATM   23  C8  UNL     1     -14.249 -26.865   9.879  1.00  0.00     0.142 C 
HETATM   24  N6  UNL     1     -12.907 -26.675   9.301  1.00  0.00    -0.360 N 
ATOM     25  H6  UNL     1     -12.566 -25.866   8.784  1.00  0.00     0.162 HD
ENDBRANCH  17  19
ENDBRANCH  15  17
ENDBRANCH   5  14
BRANCH   6  26
HETATM   26  O3  UNL     1     -10.281 -31.979   9.942  1.00  0.00    -0.345 OA
ATOM     27  H3  UNL     1     -10.866 -32.611  10.342  1.00  0.00     0.219 HD
ENDBRANCH   6  26
TORSDOF 5
ENDMDL
MODEL 2
REMARK VINA RESULT: -6.812206674      2.583      7.257
REMARK  5 active torsions:
REMARK  status: ('A' for Active; 'I' for Inactive)
REMARK    1  A    between atoms: C3_4  and  N2_5 
REMARK    2  A    between atoms: C4_8  and  C5_9 
REMARK    3  A    between atoms: N3_10  and  N4_12 
REMARK    4  A    between atoms: N4_12  and  C6_14 
REMARK    5  A    between atoms: C9_21  and  O3_22 
ROOT
HETATM    1  N1  UNL     1     -15.643 -30.242  11.251  1.00  0.00    -0.191 NA
HETATM    2  C1  UNL     1     -14.777 -29.593  10.847  1.00  0.00     0.107 C 
HETATM    3  C2  UNL     1     -13.676 -28.791  10.353  1.00  0.00     0.146 A 
HETATM    4  C3  UNL     1     -12.363 -29.182  10.491  1.00  0.00     0.145 A 
HETATM    5  C4  UNL     1     -11.316 -28.416  10.018  1.00  0.00     0.066 A 
HETATM    6  C9  UNL     1     -11.610 -27.230   9.395  1.00  0.00     0.157 A 
HETATM    7  N7  UNL     1     -12.910 -26.841   9.256  1.00  0.00    -0.302 N 
ATOM      8  H7  UNL     1     -13.110 -25.956   8.789  1.00  0.00     0.171 HD
HETATM    9  C10 UNL     1     -13.943 -27.585   9.715  1.00  0.00     0.270 A 
HETATM   10  O4  UNL     1     -15.145 -27.258   9.607  1.00  0.00    -0.266 OA
ENDROOT
BRANCH   4  11
HETATM   11  N2  UNL     1     -12.067 -30.409  11.139  1.00  0.00    -0.113 N 
HETATM   12  O1  UNL     1     -12.259 -30.476  12.380  1.00  0.00    -0.532 OA
HETATM   13  O2  UNL     1     -11.581 -31.513  10.453  1.00  0.00    -0.532 OA
ENDBRANCH   4  11
BRANCH   5  14
HETATM   14  C5  UNL     1      -9.941 -28.883  10.193  1.00  0.00     0.125 C 
HETATM   15  N3  UNL     1      -9.427 -29.115  11.342  1.00  0.00    -0.308 N 
ATOM     16  H3  UNL     1      -9.978 -28.977  12.190  1.00  0.00     0.186 HD
BRANCH  15  17
HETATM   17  N4  UNL     1      -8.114 -29.557  11.425  1.00  0.00    -0.272 N 
ATOM     18  H4  UNL     1      -7.424 -28.908  11.803  1.00  0.00     0.190 HD
BRANCH  17  19
HETATM   19  C6  UNL     1      -7.653 -30.844  11.023  1.00  0.00     0.190 C 
HETATM   20  N5  UNL     1      -6.476 -31.137  10.634  1.00  0.00    -0.360 N 
HETATM   21  C7  UNL     1      -6.337 -32.547  10.296  1.00  0.00     0.142 C 
ATOM     22  H5  UNL     1      -5.717 -30.460  10.566  1.00  0.00     0.162 HD
HETATM   23  C8  UNL     1      -7.478 -33.153  11.096  1.00  0.00     0.142 C 
HETATM   24  N6  UNL     1      -8.444 -32.047  10.983  1.00  0.00    -0.360 N 
ATOM     25  H6  UNL     1      -9.457 -32.118  10.895  1.00  0.00     0.162 HD
ENDBRANCH  17  19
ENDBRANCH  15  17
ENDBRANCH   5  14
BRANCH   6  26
HETATM   26  O3  UNL     1     -10.583 -26.418   8.899  1.00  0.00    -0.345 OA
ATOM     27  H3  UNL     1      -9.865 -26.799   8.408  1.00  0.00     0.219 HD
ENDBRANCH   6  26
TORSDOF 5
ENDMDL
MODEL 3
REMARK VINA RESULT: -6.541055382      0.996      1.228
REMARK  5 active torsions:
REMARK  status: ('A' for Active; 'I' for Inactive)
REMARK    1  A    between atoms: C3_4  and  N2_5 
REMARK    2  A    between atoms: C4_8  and  C5_9 
REMARK    3  A    between atoms: N3_10  and  N4_12 
REMARK    4  A    between atoms: N4_12  and  C6_14 
REMARK    5  A    between atoms: C9_21  and  O3_22 
ROOT
HETATM    1  N1  UNL     1      -4.722 -31.859  14.152  1.00  0.00    -0.191 NA
HETATM    2  C1  UNL     1      -5.594 -31.889  13.395  1.00  0.00     0.107 C 
HETATM    3  C2  UNL     1      -6.694 -31.904  12.451  1.00  0.00     0.146 A 
HETATM    4  C3  UNL     1      -7.357 -30.757  12.078  1.00  0.00     0.145 A 
HETATM    5  C4  UNL     1      -8.404 -30.775  11.178  1.00  0.00     0.066 A 
HETATM    6  C9  UNL     1      -8.785 -31.982  10.650  1.00  0.00     0.157 A 
HETATM    7  N7  UNL     1      -8.129 -33.120  11.018  1.00  0.00    -0.302 N 
ATOM      8  H7  UNL     1      -8.425 -34.009  10.615  1.00  0.00     0.171 HD
HETATM    9  C10 UNL     1      -7.101 -33.113  11.898  1.00  0.00     0.270 A 
HETATM   10  O4  UNL     1      -6.479 -34.136  12.259  1.00  0.00    -0.266 OA
ENDROOT
BRANCH   4  11
HETATM   11  N2  UNL     1      -6.959 -29.511  12.630  1.00  0.00    -0.113 N 
HETATM   12  O1  UNL     1      -6.057 -28.869  12.035  1.00  0.00    -0.532 OA
HETATM   13  O2  UNL     1      -7.529 -28.996  13.785  1.00  0.00    -0.532 OA
ENDBRANCH   4  11
BRANCH   5  14
HETATM   14  C5  UNL     1      -9.071 -29.523  10.818  1.00  0.00     0.125 C 
HETATM   15  N3  UNL     1     -10.034 -29.465   9.978  1.00  0.00    -0.308 N 
ATOM     16  H3  UNL     1     -10.373 -30.314   9.524  1.00  0.00     0.186 HD
BRANCH  15  17
HETATM   17  N4  UNL     1     -10.615 -28.238   9.691  1.00  0.00    -0.272 N 
ATOM     18  H4  UNL     1      -9.989 -27.446   9.543  1.00  0.00     0.190 HD
BRANCH  17  19
HETATM   19  C6  UNL     1     -12.014 -27.995   9.587  1.00  0.00     0.190 C 
HETATM   20  N5  UNL     1     -12.946 -28.825   9.844  1.00  0.00    -0.360 N 
HETATM   21  C7  UNL     1     -14.271 -28.257   9.634  1.00  0.00     0.142 C 
ATOM     22  H5  UNL     1     -12.783 -29.780  10.161  1.00  0.00     0.162 HD
HETATM   23  C8  UNL     1     -13.975 -26.772   9.757  1.00  0.00     0.142 C 
HETATM   24  N6  UNL     1     -12.626 -26.761   9.164  1.00  0.00    -0.360 N 
ATOM     25  H6  UNL     1     -12.213 -26.035   8.579  1.00  0.00     0.162 HD
ENDBRANCH  17  19
ENDBRANCH  15  17
ENDBRANCH   5  14
BRANCH   6  26
HETATM   26  O3  UNL     1      -9.841 -32.052   9.734  1.00  0.00    -0.345 OA
ATOM     27  H3  UNL     1      -9.812 -31.550   8.928  1.00  0.00     0.219 HD
ENDBRANCH   6  26
TORSDOF 5
ENDMDL
MODEL 4
REMARK VINA RESULT: -6.313173494      1.887      2.809
REMARK  5 active torsions:
REMARK  status: ('A' for Active; 'I' for Inactive)
REMARK    1  A    between atoms: C3_4  and  N2_5 
REMARK    2  A    between atoms: C4_8  and  C5_9 
REMARK    3  A    between atoms: N3_10  and  N4_12 
REMARK    4  A    between atoms: N4_12  and  C6_14 
REMARK    5  A    between atoms: C9_21  and  O3_22 
ROOT
HETATM    1  N1  UNL     1      -6.306 -34.759  11.822  1.00  0.00    -0.191 NA
HETATM    2  C1  UNL     1      -6.726 -33.726  12.125  1.00  0.00     0.107 C 
HETATM    3  C2  UNL     1      -7.255 -32.425  12.483  1.00  0.00     0.146 A 
HETATM    4  C3  UNL     1      -7.857 -31.599  11.561  1.00  0.00     0.145 A 
HETATM    5  C4  UNL     1      -8.361 -30.360  11.906  1.00  0.00     0.066 A 
HETATM    6  C9  UNL     1      -8.247 -29.954  13.210  1.00  0.00     0.157 A 
HETATM    7  N7  UNL     1      -7.652 -30.771  14.126  1.00  0.00    -0.302 N 
ATOM      8  H7  UNL     1      -7.577 -30.453  15.092  1.00  0.00     0.171 HD
HETATM    9  C10 UNL     1      -7.156 -31.987  13.799  1.00  0.00     0.270 A 
HETATM   10  O4  UNL     1      -6.603 -32.761  14.610  1.00  0.00    -0.266 OA
ENDROOT
BRANCH   4  11
HETATM   11  N2  UNL     1      -7.968 -32.025  10.212  1.00  0.00    -0.113 N 
HETATM   12  O1  UNL     1      -9.101 -32.387   9.805  1.00  0.00    -0.532 OA
HETATM   13  O2  UNL     1      -6.882 -32.050   9.350  1.00  0.00    -0.532 OA
ENDBRANCH   4  11
BRANCH   5  14
HETATM   14  C5  UNL     1      -8.991 -29.525  10.882  1.00  0.00     0.125 C 
HETATM   15  N3  UNL     1     -10.260 -29.419  10.756  1.00  0.00    -0.308 N 
ATOM     16  H3  UNL     1     -10.884 -29.928  11.383  1.00  0.00     0.186 HD
BRANCH  15  17
HETATM   17  N4  UNL     1     -10.780 -28.606   9.759  1.00  0.00    -0.272 N 
ATOM     18  H4  UNL     1     -10.129 -28.246   9.061  1.00  0.00     0.190 HD
BRANCH  17  19
HETATM   19  C6  UNL     1     -12.149 -28.234   9.633  1.00  0.00     0.190 C 
HETATM   20  N5  UNL     1     -13.158 -28.960   9.910  1.00  0.00    -0.360 N 
HETATM   21  C7  UNL     1     -14.421 -28.275   9.668  1.00  0.00     0.142 C 
ATOM     22  H5  UNL     1     -13.090 -29.915  10.262  1.00  0.00     0.162 HD
HETATM   23  C8  UNL     1     -13.983 -26.822   9.742  1.00  0.00     0.142 C 
HETATM   24  N6  UNL     1     -12.636 -26.963   9.162  1.00  0.00    -0.360 N 
ATOM     25  H6  UNL     1     -12.152 -26.301   8.556  1.00  0.00     0.162 HD
ENDBRANCH  17  19
ENDBRANCH  15  17
ENDBRANCH   5  14
BRANCH   6  26
HETATM   26  O3  UNL     1      -8.742 -28.706  13.608  1.00  0.00    -0.345 OA
ATOM     27  H3  UNL     1      -9.308 -28.633  14.367  1.00  0.00     0.219 HD
ENDBRANCH   6  26
TORSDOF 5
ENDMDL
MODEL 5
REMARK VINA RESULT: -6.108409122      2.956      7.364
REMARK  5 active torsions:
REMARK  status: ('A' for Active; 'I' for Inactive)
REMARK    1  A    between atoms: C3_4  and  N2_5 
REMARK    2  A    between atoms: C4_8  and  C5_9 
REMARK    3  A    between atoms: N3_10  and  N4_12 
REMARK    4  A    between atoms: N4_12  and  C6_14 
REMARK    5  A    between atoms: C9_21  and  O3_22 
ROOT
HETATM    1  N1  UNL     1     -15.718 -30.186  11.183  1.00  0.00    -0.191 NA
HETATM    2  C1  UNL     1     -14.831 -29.553  10.802  1.00  0.00     0.107 C 
HETATM    3  C2  UNL     1     -13.703 -28.771  10.335  1.00  0.00     0.146 A 
HETATM    4  C3  UNL     1     -12.403 -29.201  10.478  1.00  0.00     0.145 A 
HETATM    5  C4  UNL     1     -11.331 -28.454  10.032  1.00  0.00     0.066 A 
HETATM    6  C9  UNL     1     -11.585 -27.248   9.432  1.00  0.00     0.157 A 
HETATM    7  N7  UNL     1     -12.872 -26.820   9.288  1.00  0.00    -0.302 N 
ATOM      8  H7  UNL     1     -13.044 -25.920   8.839  1.00  0.00     0.171 HD
HETATM    9  C10 UNL     1     -13.930 -27.545   9.721  1.00  0.00     0.270 A 
HETATM   10  O4  UNL     1     -15.122 -27.183   9.608  1.00  0.00    -0.266 OA
ENDROOT
BRANCH   4  11
HETATM   11  N2  UNL     1     -12.146 -30.449  11.103  1.00  0.00    -0.113 N 
HETATM   12  O1  UNL     1     -12.418 -30.557  12.326  1.00  0.00    -0.532 OA
HETATM   13  O2  UNL     1     -11.617 -31.529  10.413  1.00  0.00    -0.532 OA
ENDBRANCH   4  11
BRANCH   5  14
HETATM   14  C5  UNL     1      -9.970 -28.962  10.211  1.00  0.00     0.125 C 
HETATM   15  N3  UNL     1      -9.266 -28.711  11.250  1.00  0.00    -0.308 N 
ATOM     16  H3  UNL     1      -9.644 -28.134  12.001  1.00  0.00     0.186 HD
BRANCH  15  17
HETATM   17  N4  UNL     1      -7.983 -29.231  11.344  1.00  0.00    -0.272 N 
ATOM     18  H4  UNL     1      -7.372 -29.124  10.534  1.00  0.00     0.190 HD
BRANCH  17  19
HETATM   19  C6  UNL     1      -7.450 -29.903  12.482  1.00  0.00     0.190 C 
HETATM   20  N5  UNL     1      -7.315 -31.162  12.621  1.00  0.00    -0.360 N 
HETATM   21  C7  UNL     1      -6.736 -31.521  13.909  1.00  0.00     0.142 C 
ATOM     22  H5  UNL     1      -7.583 -31.843  11.911  1.00  0.00     0.162 HD
HETATM   23  C8  UNL     1      -6.024 -30.231  14.278  1.00  0.00     0.142 C 
HETATM   24  N6  UNL     1      -6.972 -29.272  13.685  1.00  0.00    -0.360 N 
ATOM     25  H6  UNL     1      -7.235 -28.357  14.050  1.00  0.00     0.162 HD
ENDBRANCH  17  19
ENDBRANCH  15  17
ENDBRANCH   5  14
BRANCH   6  26
HETATM   26  O3  UNL     1     -10.531 -26.454   8.963  1.00  0.00    -0.345 OA
ATOM     27  H3  UNL     1     -10.069 -25.872   9.555  1.00  0.00     0.219 HD
ENDBRANCH   6  26
TORSDOF 5
ENDMDL
