MODEL 1
REMARK VINA RESULT: -5.720453847      0.000      0.000
REMARK  5 active torsions:
REMARK  status: ('A' for Active; 'I' for Inactive)
REMARK    1  A    between atoms: N1_1  and  N2_4 
REMARK    2  A    between atoms: C1_6  and  C2_8 
REMARK    3  A    between atoms: C3_9  and  N4_10 
REMARK    4  A    between atoms: C4_13  and  N5_14 
REMARK    5  A    between atoms: C7_20  and  O5_21 
ROOT
HETATM    1  C2  UNL     1      -7.507 -32.001  10.410  1.00  0.00     0.115 A 
HETATM    2  C3  UNL     1      -6.403 -31.241  10.609  1.00  0.00     0.170 A 
HETATM    3  C4  UNL     1      -6.759 -29.966  10.924  1.00  0.00     0.183 A 
HETATM    4  C5  UNL     1      -8.164 -29.954  10.914  1.00  0.00     0.159 A 
HETATM    5  N6  UNL     1      -8.592 -31.178  10.606  1.00  0.00    -0.317 N 
HETATM    6  C6  UNL     1      -9.985 -31.523  10.524  1.00  0.00     0.216 A 
HETATM    7  C7  UNL     1     -10.910 -30.411  10.734  1.00  0.00     0.149 A 
HETATM    8  N7  UNL     1     -10.438 -29.126  11.063  1.00  0.00    -0.281 N 
ATOM      9  H7  UNL     1     -11.103 -28.372  11.234  1.00  0.00     0.189 HD
HETATM   10  N8  UNL     1      -9.077 -28.877  11.157  1.00  0.00    -0.281 N 
ATOM     11  H8  UNL     1      -8.734 -27.947  11.394  1.00  0.00     0.188 HD
ENDROOT
BRANCH   1  12
HETATM   12  C1  UNL     1      -7.535 -33.415  10.053  1.00  0.00     0.160 C 
HETATM   13  N2  UNL     1      -7.179 -33.758   8.850  1.00  0.00    -0.292 N 
ATOM     14  H2  UNL     1      -6.893 -33.027   8.199  1.00  0.00     0.187 HD
HETATM   15  N3  UNL     1      -7.945 -34.350  11.024  1.00  0.00    -0.079 NA
BRANCH  13  16
HETATM   16  N1  UNL     1      -7.170 -35.085   8.411  1.00  0.00    -0.344 N 
ATOM     17  H12 UNL     1      -7.289 -35.815   9.114  1.00  0.00     0.176 HD
ATOM     18  H11 UNL     1      -7.051 -35.343   7.431  1.00  0.00     0.176 HD
ENDBRANCH  13  16
ENDBRANCH   1  12
BRANCH   2  19
HETATM   19  N4  UNL     1      -5.017 -31.631  10.525  1.00  0.00    -0.110 N 
HETATM   20  O1  UNL     1      -4.517 -32.535  11.211  1.00  0.00    -0.532 OA
HETATM   21  O2  UNL     1      -4.245 -30.939   9.629  1.00  0.00    -0.532 OA
ENDBRANCH   2  19
BRANCH   3  22
HETATM   22  N5  UNL     1      -5.919 -28.841  11.211  1.00  0.00    -0.109 N 
HETATM   23  O3  UNL     1      -5.455 -28.691  12.340  1.00  0.00    -0.532 OA
HETATM   24  O4  UNL     1      -5.658 -27.949  10.188  1.00  0.00    -0.532 OA
ENDBRANCH   3  22
BRANCH   7  25
HETATM   25  O5  UNL     1     -12.191 -30.609  10.616  1.00  0.00    -0.347 OA
ATOM     26  H5  UNL     1     -12.708 -30.808  11.388  1.00  0.00     0.219 HD
ENDBRANCH   7  25
TORSDOF 5
ENDMDL
MODEL 2
REMARK VINA RESULT: -5.636456669      2.739      5.074
REMARK  5 active torsions:
REMARK  status: ('A' for Active; 'I' for Inactive)
REMARK    1  A    between atoms: N1_1  and  N2_4 
REMARK    2  A    between atoms: C1_6  and  C2_8 
REMARK    3  A    between atoms: C3_9  and  N4_10 
REMARK    4  A    between atoms: C4_13  and  N5_14 
REMARK    5  A    between atoms: C7_20  and  O5_21 
ROOT
HETATM    1  C2  UNL     1      -9.268 -30.794  11.578  1.00  0.00     0.115 A 
HETATM    2  C3  UNL     1      -8.903 -30.509  12.852  1.00  0.00     0.170 A 
HETATM    3  C4  UNL     1      -7.874 -31.312  13.238  1.00  0.00     0.183 A 
HETATM    4  C5  UNL     1      -7.601 -32.133  12.131  1.00  0.00     0.159 A 
HETATM    5  N6  UNL     1      -8.443 -31.808  11.150  1.00  0.00    -0.317 N 
HETATM    6  C6  UNL     1      -8.427 -32.446   9.862  1.00  0.00     0.216 A 
HETATM    7  C7  UNL     1      -7.462 -33.535   9.723  1.00  0.00     0.149 A 
HETATM    8  N7  UNL     1      -6.579 -33.859  10.770  1.00  0.00    -0.281 N 
ATOM      9  H7  UNL     1      -5.894 -34.604  10.640  1.00  0.00     0.189 HD
HETATM   10  N8  UNL     1      -6.631 -33.176  11.975  1.00  0.00    -0.281 N 
ATOM     11  H8  UNL     1      -5.992 -33.410  12.734  1.00  0.00     0.188 HD
ENDROOT
BRANCH   1  12
HETATM   12  C1  UNL     1     -10.332 -30.151  10.816  1.00  0.00     0.160 C 
HETATM   13  N2  UNL     1     -10.050 -29.073  10.145  1.00  0.00    -0.292 N 
ATOM     14  H2  UNL     1      -9.094 -28.716  10.175  1.00  0.00     0.187 HD
HETATM   15  N3  UNL     1     -11.621 -30.721  10.837  1.00  0.00    -0.079 NA
BRANCH  13  16
HETATM   16  N1  UNL     1     -10.997 -28.382   9.384  1.00  0.00    -0.344 N 
ATOM     17  H12 UNL     1     -11.843 -28.885   9.116  1.00  0.00     0.176 HD
ATOM     18  H11 UNL     1     -10.873 -27.412   9.094  1.00  0.00     0.176 HD
ENDBRANCH  13  16
ENDBRANCH   1  12
BRANCH   2  19
HETATM   19  N4  UNL     1      -9.458 -29.523  13.746  1.00  0.00    -0.110 N 
HETATM   20  O1  UNL     1      -9.010 -28.372  13.857  1.00  0.00    -0.532 OA
HETATM   21  O2  UNL     1     -10.533 -29.920  14.497  1.00  0.00    -0.532 OA
ENDBRANCH   2  19
BRANCH   3  22
HETATM   22  N5  UNL     1      -7.184 -31.351  14.494  1.00  0.00    -0.109 N 
HETATM   23  O3  UNL     1      -7.262 -32.348  15.208  1.00  0.00    -0.532 OA
HETATM   24  O4  UNL     1      -6.444 -30.243  14.861  1.00  0.00    -0.532 OA
ENDBRANCH   3  22
BRANCH   7  25
HETATM   25  O5  UNL     1      -7.417 -34.216   8.615  1.00  0.00    -0.347 OA
ATOM     26  H5  UNL     1      -6.739 -34.871   8.494  1.00  0.00     0.219 HD
ENDBRANCH   7  25
TORSDOF 5
ENDMDL
MODEL 3
REMARK VINA RESULT: -5.553885562      0.392      1.001
REMARK  5 active torsions:
REMARK  status: ('A' for Active; 'I' for Inactive)
REMARK    1  A    between atoms: N1_1  and  N2_4 
REMARK    2  A    between atoms: C1_6  and  C2_8 
REMARK    3  A    between atoms: C3_9  and  N4_10 
REMARK    4  A    between atoms: C4_13  and  N5_14 
REMARK    5  A    between atoms: C7_20  and  O5_21 
ROOT
HETATM    1  C2  UNL     1      -7.355 -31.899  10.493  1.00  0.00     0.115 A 
HETATM    2  C3  UNL     1      -6.270 -31.101  10.642  1.00  0.00     0.170 A 
HETATM    3  C4  UNL     1      -6.659 -29.813  10.850  1.00  0.00     0.183 A 
HETATM    4  C5  UNL     1      -8.063 -29.833  10.826  1.00  0.00     0.159 A 
HETATM    5  N6  UNL     1      -8.460 -31.087  10.612  1.00  0.00    -0.317 N 
HETATM    6  C6  UNL     1      -9.844 -31.470  10.544  1.00  0.00     0.216 A 
HETATM    7  C7  UNL     1     -10.796 -30.366  10.656  1.00  0.00     0.149 A 
HETATM    8  N7  UNL     1     -10.356 -29.049  10.886  1.00  0.00    -0.281 N 
ATOM      9  H7  UNL     1     -11.040 -28.299  10.990  1.00  0.00     0.189 HD
HETATM   10  N8  UNL     1      -9.002 -28.762  10.973  1.00  0.00    -0.281 N 
ATOM     11  H8  UNL     1      -8.682 -27.809  11.140  1.00  0.00     0.188 HD
ENDROOT
BRANCH   1  12
HETATM   12  C1  UNL     1      -7.347 -33.337  10.250  1.00  0.00     0.160 C 
HETATM   13  N2  UNL     1      -7.588 -34.136  11.248  1.00  0.00    -0.292 N 
ATOM     14  H2  UNL     1      -7.773 -33.728  12.164  1.00  0.00     0.187 HD
HETATM   15  N3  UNL     1      -7.080 -33.802   8.947  1.00  0.00    -0.079 NA
BRANCH  13  16
HETATM   16  N1  UNL     1      -7.603 -35.527  11.120  1.00  0.00    -0.344 N 
ATOM     17  H12 UNL     1      -7.289 -36.077  11.920  1.00  0.00     0.176 HD
ATOM     18  H11 UNL     1      -7.911 -36.002  10.271  1.00  0.00     0.176 HD
ENDBRANCH  13  16
ENDBRANCH   1  12
BRANCH   2  19
HETATM   19  N4  UNL     1      -4.876 -31.464  10.602  1.00  0.00    -0.110 N 
HETATM   20  O1  UNL     1      -4.357 -32.276  11.384  1.00  0.00    -0.532 OA
HETATM   21  O2  UNL     1      -4.116 -30.855   9.638  1.00  0.00    -0.532 OA
ENDBRANCH   2  19
BRANCH   3  22
HETATM   22  N5  UNL     1      -5.847 -28.649  11.056  1.00  0.00    -0.109 N 
HETATM   23  O3  UNL     1      -5.268 -28.483  12.128  1.00  0.00    -0.532 OA
HETATM   24  O4  UNL     1      -5.744 -27.740  10.019  1.00  0.00    -0.532 OA
ENDBRANCH   3  22
BRANCH   7  25
HETATM   25  O5  UNL     1     -12.071 -30.602  10.542  1.00  0.00    -0.347 OA
ATOM     26  H5  UNL     1     -12.495 -30.494   9.698  1.00  0.00     0.219 HD
ENDBRANCH   7  25
TORSDOF 5
ENDMDL
MODEL 4
REMARK VINA RESULT: -5.471304957      2.715      4.983
REMARK  5 active torsions:
REMARK  status: ('A' for Active; 'I' for Inactive)
REMARK    1  A    between atoms: N1_1  and  N2_4 
REMARK    2  A    between atoms: C1_6  and  C2_8 
REMARK    3  A    between atoms: C3_9  and  N4_10 
REMARK    4  A    between atoms: C4_13  and  N5_14 
REMARK    5  A    between atoms: C7_20  and  O5_21 
ROOT
HETATM    1  C2  UNL     1      -9.003 -31.185  11.413  1.00  0.00     0.115 A 
HETATM    2  C3  UNL     1      -8.605 -30.907  12.679  1.00  0.00     0.170 A 
HETATM    3  C4  UNL     1      -7.559 -31.705  13.030  1.00  0.00     0.183 A 
HETATM    4  C5  UNL     1      -7.311 -32.515  11.909  1.00  0.00     0.159 A 
HETATM    5  N6  UNL     1      -8.182 -32.189  10.955  1.00  0.00    -0.317 N 
HETATM    6  C6  UNL     1      -8.197 -32.817   9.661  1.00  0.00     0.216 A 
HETATM    7  C7  UNL     1      -7.229 -33.897   9.487  1.00  0.00     0.149 A 
HETATM    8  N7  UNL     1      -6.314 -34.223  10.506  1.00  0.00    -0.281 N 
ATOM      9  H7  UNL     1      -5.627 -34.961  10.352  1.00  0.00     0.189 HD
HETATM   10  N8  UNL     1      -6.338 -33.549  11.718  1.00  0.00    -0.281 N 
ATOM     11  H8  UNL     1      -5.676 -33.784  12.457  1.00  0.00     0.188 HD
ENDROOT
BRANCH   1  12
HETATM   12  C1  UNL     1     -10.092 -30.544  10.686  1.00  0.00     0.160 C 
HETATM   13  N2  UNL     1      -9.896 -29.354  10.198  1.00  0.00    -0.292 N 
ATOM     14  H2  UNL     1      -8.988 -28.912  10.341  1.00  0.00     0.187 HD
HETATM   15  N3  UNL     1     -11.310 -31.237  10.542  1.00  0.00    -0.079 NA
BRANCH  13  16
HETATM   16  N1  UNL     1     -10.875 -28.655   9.487  1.00  0.00    -0.344 N 
ATOM     17  H12 UNL     1     -10.566 -28.081   8.702  1.00  0.00     0.176 HD
ATOM     18  H11 UNL     1     -11.867 -28.698   9.721  1.00  0.00     0.176 HD
ENDBRANCH  13  16
ENDBRANCH   1  12
BRANCH   2  19
HETATM   19  N4  UNL     1      -9.141 -29.932  13.596  1.00  0.00    -0.110 N 
HETATM   20  O1  UNL     1      -9.802 -30.230  14.602  1.00  0.00    -0.532 OA
HETATM   21  O2  UNL     1      -8.888 -28.618  13.302  1.00  0.00    -0.532 OA
ENDBRANCH   2  19
BRANCH   3  22
HETATM   22  N5  UNL     1      -6.834 -31.749  14.266  1.00  0.00    -0.109 N 
HETATM   23  O3  UNL     1      -5.818 -31.072  14.408  1.00  0.00    -0.532 OA
HETATM   24  O4  UNL     1      -7.315 -32.568  15.270  1.00  0.00    -0.532 OA
ENDBRANCH   3  22
BRANCH   7  25
HETATM   25  O5  UNL     1      -7.209 -34.569   8.373  1.00  0.00    -0.347 OA
ATOM     26  H5  UNL     1      -6.470 -34.477   7.782  1.00  0.00     0.219 HD
ENDBRANCH   7  25
TORSDOF 5
ENDMDL
MODEL 5
REMARK VINA RESULT: -5.307804494      1.049      1.201
REMARK  5 active torsions:
REMARK  status: ('A' for Active; 'I' for Inactive)
REMARK    1  A    between atoms: N1_1  and  N2_4 
REMARK    2  A    between atoms: C1_6  and  C2_8 
REMARK    3  A    between atoms: C3_9  and  N4_10 
REMARK    4  A    between atoms: C4_13  and  N5_14 
REMARK    5  A    between atoms: C7_20  and  O5_21 
ROOT
HETATM    1  C2  UNL     1      -7.285 -31.859  11.445  1.00  0.00     0.115 A 
HETATM    2  C3  UNL     1      -6.187 -31.065  11.453  1.00  0.00     0.170 A 
HETATM    3  C4  UNL     1      -6.535 -29.777  11.181  1.00  0.00     0.183 A 
HETATM    4  C5  UNL     1      -7.928 -29.794  10.998  1.00  0.00     0.159 A 
HETATM    5  N6  UNL     1      -8.357 -31.045  11.160  1.00  0.00    -0.317 N 
HETATM    6  C6  UNL     1      -9.742 -31.417  11.058  1.00  0.00     0.216 A 
HETATM    7  C7  UNL     1     -10.647 -30.331  10.688  1.00  0.00     0.149 A 
HETATM    8  N7  UNL     1     -10.174 -29.015  10.526  1.00  0.00    -0.281 N 
ATOM      9  H7  UNL     1     -10.830 -28.268  10.296  1.00  0.00     0.189 HD
HETATM   10  N8  UNL     1      -8.826 -28.726  10.674  1.00  0.00    -0.281 N 
ATOM     11  H8  UNL     1      -8.482 -27.774  10.556  1.00  0.00     0.188 HD
ENDROOT
BRANCH   1  12
HETATM   12  C1  UNL     1      -7.318 -33.296  11.689  1.00  0.00     0.160 C 
HETATM   13  N2  UNL     1      -7.672 -34.082  10.715  1.00  0.00    -0.292 N 
ATOM     14  H2  UNL     1      -7.915 -33.666   9.816  1.00  0.00     0.187 HD
HETATM   15  N3  UNL     1      -6.965 -33.775  12.967  1.00  0.00    -0.079 NA
BRANCH  13  16
HETATM   16  N1  UNL     1      -7.736 -35.472  10.847  1.00  0.00    -0.344 N 
ATOM     17  H12 UNL     1      -7.064 -36.027  10.315  1.00  0.00     0.176 HD
ATOM     18  H11 UNL     1      -8.417 -35.942  11.444  1.00  0.00     0.176 HD
ENDBRANCH  13  16
ENDBRANCH   1  12
BRANCH   2  19
HETATM   19  N4  UNL     1      -4.815 -31.432  11.700  1.00  0.00    -0.110 N 
HETATM   20  O1  UNL     1      -4.345 -31.598  12.836  1.00  0.00    -0.532 OA
HETATM   21  O2  UNL     1      -4.020 -31.592  10.595  1.00  0.00    -0.532 OA
ENDBRANCH   2  19
BRANCH   3  22
HETATM   22  N5  UNL     1      -5.697 -28.618  11.089  1.00  0.00    -0.109 N 
HETATM   23  O3  UNL     1      -5.027 -28.264  12.058  1.00  0.00    -0.532 OA
HETATM   24  O4  UNL     1      -5.674 -27.928   9.892  1.00  0.00    -0.532 OA
ENDBRANCH   3  22
BRANCH   7  25
HETATM   25  O5  UNL     1     -11.912 -30.581  10.507  1.00  0.00    -0.347 OA
ATOM     26  H5  UNL     1     -12.564 -30.048  10.947  1.00  0.00     0.219 HD
ENDBRANCH   7  25
TORSDOF 5
ENDMDL
