MODEL 1
REMARK VINA RESULT: -7.137377410      0.000      0.000
REMARK  2 active torsions:
REMARK  status: ('A' for Active; 'I' for Inactive)
REMARK    1  A    between atoms: O1_2  and  C2_3 
REMARK    2  A    between atoms: C5_15  and  N5_16 
ROOT
HETATM    1  C2  UNL     1       5.992  13.481  10.759  1.00  0.00     0.188 A 
HETATM    2  N1  UNL     1       4.922  13.236  11.519  1.00  0.00    -0.263 N 
ATOM      3  H1  UNL     1       4.042  13.697  11.289  1.00  0.00     0.190 HD
HETATM    4  N2  UNL     1       4.957  12.417  12.559  1.00  0.00    -0.240 N 
ATOM      5  H2  UNL     1       4.100  12.278  13.095  1.00  0.00     0.208 HD
HETATM    6  N3  UNL     1       6.048  11.771  12.938  1.00  0.00    -0.279 N 
ATOM      7  H3  UNL     1       6.050  11.145  13.743  1.00  0.00     0.189 HD
HETATM    8  C3  UNL     1       7.165  11.988  12.197  1.00  0.00     0.149 A 
HETATM    9  C4  UNL     1       8.355  11.355  12.519  1.00  0.00     0.290 A 
HETATM   10  O2  UNL     1       8.408  10.572  13.506  1.00  0.00    -0.265 OA
HETATM   11  N4  UNL     1       9.438  11.591  11.765  1.00  0.00    -0.154 N 
ATOM     12  H4  UNL     1      10.312  11.123  12.005  1.00  0.00     0.187 HD
HETATM   13  C5  UNL     1       9.421  12.419  10.705  1.00  0.00     0.679 A 
HETATM   14  N6  UNL     1       8.280  13.048  10.368  1.00  0.00    -0.185 N 
ATOM     15  H6  UNL     1       8.255  13.678   9.566  1.00  0.00     0.184 HD
HETATM   16  C6  UNL     1       7.168  12.835  11.105  1.00  0.00     0.135 A 
ENDROOT
BRANCH  13  17
HETATM   17  N5  UNL     1      10.468  12.650   9.974  1.00  0.00    -0.234 N 
ATOM     18  H52 UNL     1      10.994  13.503  10.165  1.00  0.00     0.174 HD
ATOM     19  H51 UNL     1      10.775  12.021   9.233  1.00  0.00     0.174 HD
ENDBRANCH  13  17
BRANCH   1  20
HETATM   20  O1  UNL     1       5.995  14.332   9.662  1.00  0.00    -0.338 OA
HETATM   21  C1  UNL     1       5.182  13.941   8.570  1.00  0.00     0.211 C 
ENDBRANCH   1  20
TORSDOF 2
ENDMDL
MODEL 2
REMARK VINA RESULT: -7.069027128      1.744      2.055
REMARK  2 active torsions:
REMARK  status: ('A' for Active; 'I' for Inactive)
REMARK    1  A    between atoms: O1_2  and  C2_3 
REMARK    2  A    between atoms: C5_15  and  N5_16 
ROOT
HETATM    1  C2  UNL     1       6.521  13.984  12.260  1.00  0.00     0.188 A 
HETATM    2  N1  UNL     1       5.372  13.370  12.552  1.00  0.00    -0.263 N 
ATOM      3  H1  UNL     1       4.578  13.936  12.852  1.00  0.00     0.190 HD
HETATM    4  N2  UNL     1       5.221  12.058  12.467  1.00  0.00    -0.240 N 
ATOM      5  H2  UNL     1       4.313  11.658  12.706  1.00  0.00     0.208 HD
HETATM    6  N3  UNL     1       6.189  11.239  12.087  1.00  0.00    -0.279 N 
ATOM      7  H3  UNL     1       6.048  10.230  12.028  1.00  0.00     0.189 HD
HETATM    8  C3  UNL     1       7.380  11.814  11.779  1.00  0.00     0.149 A 
HETATM    9  C4  UNL     1       8.451  11.036  11.372  1.00  0.00     0.290 A 
HETATM   10  O2  UNL     1       8.327   9.785  11.285  1.00  0.00    -0.265 OA
HETATM   11  N4  UNL     1       9.612  11.639  11.074  1.00  0.00    -0.154 N 
ATOM     12  H4  UNL     1      10.398  11.062  10.774  1.00  0.00     0.187 HD
HETATM   13  C5  UNL     1       9.783  12.970  11.155  1.00  0.00     0.679 A 
HETATM   14  N6  UNL     1       8.760  13.752  11.548  1.00  0.00    -0.185 N 
ATOM     15  H6  UNL     1       8.878  14.763  11.612  1.00  0.00     0.184 HD
HETATM   16  C6  UNL     1       7.576  13.181  11.856  1.00  0.00     0.135 A 
ENDROOT
BRANCH  13  17
HETATM   17  N5  UNL     1      10.905  13.555  10.869  1.00  0.00    -0.234 N 
ATOM     18  H52 UNL     1      10.877  14.558  10.683  1.00  0.00     0.174 HD
ATOM     19  H51 UNL     1      11.794  13.057  10.825  1.00  0.00     0.174 HD
ENDBRANCH  13  17
BRANCH   1  20
HETATM   20  O1  UNL     1       6.718  15.356  12.336  1.00  0.00    -0.338 OA
HETATM   21  C1  UNL     1       6.711  15.914  13.638  1.00  0.00     0.211 C 
ENDBRANCH   1  20
TORSDOF 2
ENDMDL
MODEL 3
REMARK VINA RESULT: -7.001685549      2.105      3.930
REMARK  2 active torsions:
REMARK  status: ('A' for Active; 'I' for Inactive)
REMARK    1  A    between atoms: O1_2  and  C2_3 
REMARK    2  A    between atoms: C5_15  and  N5_16 
ROOT
HETATM    1  C2  UNL     1       8.582  12.624  11.746  1.00  0.00     0.188 A 
HETATM    2  N1  UNL     1       8.880  13.098  12.957  1.00  0.00    -0.263 N 
ATOM      3  H1  UNL     1       9.839  13.011  13.295  1.00  0.00     0.190 HD
HETATM    4  N2  UNL     1       7.982  13.676  13.740  1.00  0.00    -0.240 N 
ATOM      5  H2  UNL     1       8.282  14.015  14.654  1.00  0.00     0.208 HD
HETATM    6  N3  UNL     1       6.714  13.837  13.394  1.00  0.00    -0.279 N 
ATOM      7  H3  UNL     1       6.041  14.287  14.014  1.00  0.00     0.189 HD
HETATM    8  C3  UNL     1       6.360  13.370  12.169  1.00  0.00     0.149 A 
HETATM    9  C4  UNL     1       5.055  13.494  11.721  1.00  0.00     0.290 A 
HETATM   10  O2  UNL     1       4.185  14.041  12.451  1.00  0.00    -0.265 OA
HETATM   11  N4  UNL     1       4.740  13.023  10.505  1.00  0.00    -0.154 N 
ATOM     12  H4  UNL     1       3.778  13.116  10.180  1.00  0.00     0.187 HD
HETATM   13  C5  UNL     1       5.640  12.433   9.698  1.00  0.00     0.679 A 
HETATM   14  N6  UNL     1       6.916  12.299  10.106  1.00  0.00    -0.185 N 
ATOM     15  H6  UNL     1       7.606  11.853   9.501  1.00  0.00     0.184 HD
HETATM   16  C6  UNL     1       7.269  12.761  11.324  1.00  0.00     0.135 A 
ENDROOT
BRANCH  13  17
HETATM   17  N5  UNL     1       5.338  11.976   8.522  1.00  0.00    -0.234 N 
ATOM     18  H52 UNL     1       5.527  10.990   8.339  1.00  0.00     0.174 HD
ATOM     19  H51 UNL     1       4.925  12.556   7.792  1.00  0.00     0.174 HD
ENDBRANCH  13  17
BRANCH   1  20
HETATM   20  O1  UNL     1       9.495  12.013  10.897  1.00  0.00    -0.338 OA
HETATM   21  C1  UNL     1      10.445  12.866  10.286  1.00  0.00     0.211 C 
ENDBRANCH   1  20
TORSDOF 2
ENDMDL
MODEL 4
REMARK VINA RESULT: -6.898156858      2.259      4.116
REMARK  2 active torsions:
REMARK  status: ('A' for Active; 'I' for Inactive)
REMARK    1  A    between atoms: O1_2  and  C2_3 
REMARK    2  A    between atoms: C5_15  and  N5_16 
ROOT
HETATM    1  C2  UNL     1       8.546  12.690  11.808  1.00  0.00     0.188 A 
HETATM    2  N1  UNL     1       8.889  12.851  13.088  1.00  0.00    -0.263 N 
ATOM      3  H1  UNL     1       9.688  12.331  13.450  1.00  0.00     0.190 HD
HETATM    4  N2  UNL     1       8.234  13.659  13.907  1.00  0.00    -0.240 N 
ATOM      5  H2  UNL     1       8.553  13.733  14.873  1.00  0.00     0.208 HD
HETATM    6  N3  UNL     1       7.186  14.377  13.534  1.00  0.00    -0.279 N 
ATOM      7  H3  UNL     1       6.698  14.994  14.184  1.00  0.00     0.189 HD
HETATM    8  C3  UNL     1       6.796  14.247  12.240  1.00  0.00     0.149 A 
HETATM    9  C4  UNL     1       5.709  14.959  11.760  1.00  0.00     0.290 A 
HETATM   10  O2  UNL     1       5.072  15.734  12.524  1.00  0.00    -0.265 OA
HETATM   11  N4  UNL     1       5.353  14.808  10.475  1.00  0.00    -0.154 N 
ATOM     12  H4  UNL     1       4.552  15.334  10.125  1.00  0.00     0.187 HD
HETATM   13  C5  UNL     1       6.007  13.992   9.630  1.00  0.00     0.679 A 
HETATM   14  N6  UNL     1       7.067  13.287  10.068  1.00  0.00    -0.185 N 
ATOM     15  H6  UNL     1       7.570  12.665   9.435  1.00  0.00     0.184 HD
HETATM   16  C6  UNL     1       7.455  13.414  11.355  1.00  0.00     0.135 A 
ENDROOT
BRANCH  13  17
HETATM   17  N5  UNL     1       5.663  13.843   8.388  1.00  0.00    -0.234 N 
ATOM     18  H52 UNL     1       5.306  12.930   8.106  1.00  0.00     0.174 HD
ATOM     19  H51 UNL     1       5.737  14.592   7.699  1.00  0.00     0.174 HD
ENDBRANCH  13  17
BRANCH   1  20
HETATM   20  O1  UNL     1       9.207  11.853  10.919  1.00  0.00    -0.338 OA
HETATM   21  C1  UNL     1       8.940  10.468  11.052  1.00  0.00     0.211 C 
ENDBRANCH   1  20
TORSDOF 2
ENDMDL
MODEL 5
REMARK VINA RESULT: -6.811144553      1.935      3.117
REMARK  2 active torsions:
REMARK  status: ('A' for Active; 'I' for Inactive)
REMARK    1  A    between atoms: O1_2  and  C2_3 
REMARK    2  A    between atoms: C5_15  and  N5_16 
ROOT
HETATM    1  C2  UNL     1       5.953  13.258  11.267  1.00  0.00     0.188 A 
HETATM    2  N1  UNL     1       6.052  13.868  10.084  1.00  0.00    -0.263 N 
ATOM      3  H1  UNL     1       5.202  14.220   9.642  1.00  0.00     0.190 HD
HETATM    4  N2  UNL     1       7.207  14.034   9.459  1.00  0.00    -0.240 N 
ATOM      5  H2  UNL     1       7.206  14.509   8.556  1.00  0.00     0.208 HD
HETATM    6  N3  UNL     1       8.363  13.614   9.948  1.00  0.00    -0.279 N 
ATOM      7  H3  UNL     1       9.241  13.754   9.448  1.00  0.00     0.189 HD
HETATM    8  C3  UNL     1       8.317  12.986  11.151  1.00  0.00     0.149 A 
HETATM    9  C4  UNL     1       9.477  12.513  11.741  1.00  0.00     0.290 A 
HETATM   10  O2  UNL     1      10.588  12.661  11.162  1.00  0.00    -0.265 OA
HETATM   11  N4  UNL     1       9.394  11.899  12.931  1.00  0.00    -0.154 N 
ATOM     12  H4  UNL     1      10.251  11.552  13.362  1.00  0.00     0.187 HD
HETATM   13  C5  UNL     1       8.230  11.722  13.579  1.00  0.00     0.679 A 
HETATM   14  N6  UNL     1       7.085  12.171  13.031  1.00  0.00    -0.185 N 
ATOM     15  H6  UNL     1       6.196  12.043  13.513  1.00  0.00     0.184 HD
HETATM   16  C6  UNL     1       7.130  12.794  11.833  1.00  0.00     0.135 A 
ENDROOT
BRANCH  13  17
HETATM   17  N5  UNL     1       8.147  11.127  14.729  1.00  0.00    -0.234 N 
ATOM     18  H52 UNL     1       7.579  11.576  15.449  1.00  0.00     0.174 HD
ATOM     19  H51 UNL     1       8.618  10.246  14.932  1.00  0.00     0.174 HD
ENDBRANCH  13  17
BRANCH   1  20
HETATM   20  O1  UNL     1       4.761  13.066  11.952  1.00  0.00    -0.338 OA
HETATM   21  C1  UNL     1       4.076  14.239  12.351  1.00  0.00     0.211 C 
ENDBRANCH   1  20
TORSDOF 2
ENDMDL
