MODEL 1
REMARK VINA RESULT: -7.567842109      0.000      0.000
REMARK  2 active torsions:
REMARK  status: ('A' for Active; 'I' for Inactive)
REMARK    1  A    between atoms: C5_10  and  O2_11 
REMARK    2  A    between atoms: C6_13  and  C7_14 
ROOT
HETATM    1  N1  UNL     1       6.353  14.200   9.342  1.00  0.00    -0.191 NA
HETATM    2  C1  UNL     1       6.714  13.559  10.243  1.00  0.00     0.104 C 
HETATM    3  C2  UNL     1       7.124  12.771  11.347  1.00  0.00     0.104 A 
HETATM    4  C3  UNL     1       6.106  12.166  12.095  1.00  0.00     0.141 A 
HETATM    5  N2  UNL     1       4.749  12.337  11.761  1.00  0.00    -0.081 NA
HETATM    6  N3  UNL     1       6.430  11.406  13.154  1.00  0.00    -0.308 N 
ATOM      7  H3  UNL     1       5.697  10.961  13.705  1.00  0.00     0.170 HD
HETATM    8  C4  UNL     1       7.718  11.232  13.488  1.00  0.00     0.281 A 
HETATM    9  O1  UNL     1       7.996  10.512  14.490  1.00  0.00    -0.265 OA
HETATM   10  C5  UNL     1       8.739  11.823  12.761  1.00  0.00     0.151 A 
HETATM   11  C6  UNL     1       8.446  12.622  11.649  1.00  0.00     0.092 A 
ENDROOT
BRANCH  11  12
HETATM   12  C7  UNL     1       9.525  13.242  10.885  1.00  0.00     0.269 C 
HETATM   13  N4  UNL     1      10.438  12.575  10.056  1.00  0.00    -0.057 NA
HETATM   14  O3  UNL     1       9.689  14.516  10.947  1.00  0.00    -0.271 OA
ENDBRANCH  11  12
BRANCH  10  15
HETATM   15  O2  UNL     1      10.041  11.634  13.116  1.00  0.00    -0.355 OA
ATOM     16  H2  UNL     1      10.710  11.513  12.452  1.00  0.00     0.218 HD
ENDBRANCH  10  15
TORSDOF 2
ENDMDL
MODEL 2
REMARK VINA RESULT: -7.309082078      1.203      3.548
REMARK  2 active torsions:
REMARK  status: ('A' for Active; 'I' for Inactive)
REMARK    1  A    between atoms: C5_10  and  O2_11 
REMARK    2  A    between atoms: C6_13  and  C7_14 
ROOT
HETATM    1  N1  UNL     1       4.416  11.878  11.433  1.00  0.00    -0.191 NA
HETATM    2  C1  UNL     1       5.548  12.141  11.393  1.00  0.00     0.104 C 
HETATM    3  C2  UNL     1       6.922  12.483  11.322  1.00  0.00     0.104 A 
HETATM    4  C3  UNL     1       7.269  13.487  10.408  1.00  0.00     0.141 A 
HETATM    5  N2  UNL     1       6.299  14.117   9.605  1.00  0.00    -0.081 NA
HETATM    6  N3  UNL     1       8.556  13.856  10.294  1.00  0.00    -0.308 N 
ATOM      7  H3  UNL     1       8.819  14.585   9.631  1.00  0.00     0.170 HD
HETATM    8  C4  UNL     1       9.495  13.266  11.049  1.00  0.00     0.281 A 
HETATM    9  O1  UNL     1      10.699  13.632  10.922  1.00  0.00    -0.265 OA
HETATM   10  C5  UNL     1       9.171  12.271  11.958  1.00  0.00     0.151 A 
HETATM   11  C6  UNL     1       7.842  11.856  12.110  1.00  0.00     0.092 A 
ENDROOT
BRANCH  11  12
HETATM   12  C7  UNL     1       7.504  10.809  13.070  1.00  0.00     0.269 C 
HETATM   13  N4  UNL     1       7.773  10.832  14.446  1.00  0.00    -0.057 NA
HETATM   14  O3  UNL     1       6.902   9.749  12.660  1.00  0.00    -0.271 OA
ENDBRANCH  11  12
BRANCH  10  15
HETATM   15  O2  UNL     1      10.138  11.685  12.717  1.00  0.00    -0.355 OA
ATOM     16  H2  UNL     1       9.910  11.209  13.507  1.00  0.00     0.218 HD
ENDBRANCH  10  15
TORSDOF 2
ENDMDL
MODEL 3
REMARK VINA RESULT: -6.765241021      2.308      3.143
REMARK  2 active torsions:
REMARK  status: ('A' for Active; 'I' for Inactive)
REMARK    1  A    between atoms: C5_10  and  O2_11 
REMARK    2  A    between atoms: C6_13  and  C7_14 
ROOT
HETATM    1  N1  UNL     1       5.305  11.637   8.829  1.00  0.00    -0.191 NA
HETATM    2  C1  UNL     1       5.719  12.215   9.749  1.00  0.00     0.104 C 
HETATM    3  C2  UNL     1       6.209  12.945  10.861  1.00  0.00     0.104 A 
HETATM    4  C3  UNL     1       5.845  14.296  10.931  1.00  0.00     0.141 A 
HETATM    5  N2  UNL     1       5.034  14.889   9.944  1.00  0.00    -0.081 NA
HETATM    6  N3  UNL     1       6.277  15.042  11.961  1.00  0.00    -0.308 N 
ATOM      7  H3  UNL     1       6.018  16.026  12.021  1.00  0.00     0.170 HD
HETATM    8  C4  UNL     1       7.052  14.493  12.910  1.00  0.00     0.281 A 
HETATM    9  O1  UNL     1       7.446  15.218  13.869  1.00  0.00    -0.265 OA
HETATM   10  C5  UNL     1       7.423  13.159  12.858  1.00  0.00     0.151 A 
HETATM   11  C6  UNL     1       6.994  12.345  11.802  1.00  0.00     0.092 A 
ENDROOT
BRANCH  11  12
HETATM   12  C7  UNL     1       7.386  10.939  11.751  1.00  0.00     0.269 C 
HETATM   13  N4  UNL     1       8.403  10.395  10.953  1.00  0.00    -0.057 NA
HETATM   14  O3  UNL     1       6.771  10.087  12.491  1.00  0.00    -0.271 OA
ENDBRANCH  11  12
BRANCH  10  15
HETATM   15  O2  UNL     1       8.209  12.621  13.831  1.00  0.00    -0.355 OA
ATOM     16  H2  UNL     1       9.056  12.247  13.617  1.00  0.00     0.218 HD
ENDBRANCH  10  15
TORSDOF 2
ENDMDL
MODEL 4
REMARK VINA RESULT: -6.526215269      2.574      3.321
REMARK  2 active torsions:
REMARK  status: ('A' for Active; 'I' for Inactive)
REMARK    1  A    between atoms: C5_10  and  O2_11 
REMARK    2  A    between atoms: C6_13  and  C7_14 
ROOT
HETATM    1  N1  UNL     1       4.686  16.103  11.757  1.00  0.00    -0.191 NA
HETATM    2  C1  UNL     1       5.570  15.350  11.819  1.00  0.00     0.104 C 
HETATM    3  C2  UNL     1       6.656  14.444  11.922  1.00  0.00     0.104 A 
HETATM    4  C3  UNL     1       7.463  14.564  13.061  1.00  0.00     0.141 A 
HETATM    5  N2  UNL     1       7.203  15.536  14.047  1.00  0.00    -0.081 NA
HETATM    6  N3  UNL     1       8.508  13.734  13.217  1.00  0.00    -0.308 N 
ATOM      7  H3  UNL     1       9.101  13.813  14.042  1.00  0.00     0.170 HD
HETATM    8  C4  UNL     1       8.772  12.803  12.288  1.00  0.00     0.281 A 
HETATM    9  O1  UNL     1       9.762  12.034  12.459  1.00  0.00    -0.265 OA
HETATM   10  C5  UNL     1       7.985  12.669  11.155  1.00  0.00     0.151 A 
HETATM   11  C6  UNL     1       6.886  13.513  10.953  1.00  0.00     0.092 A 
ENDROOT
BRANCH  11  12
HETATM   12  C7  UNL     1       6.059  13.369   9.758  1.00  0.00     0.269 C 
HETATM   13  N4  UNL     1       5.222  12.283   9.459  1.00  0.00    -0.057 NA
HETATM   14  O3  UNL     1       6.066  14.300   8.871  1.00  0.00    -0.271 OA
ENDBRANCH  11  12
BRANCH  10  15
HETATM   15  O2  UNL     1       8.269  11.716  10.224  1.00  0.00    -0.355 OA
ATOM     16  H2  UNL     1       8.714  10.915  10.473  1.00  0.00     0.218 HD
ENDBRANCH  10  15
TORSDOF 2
ENDMDL
MODEL 5
REMARK VINA RESULT: -6.335943624      4.732      5.391
REMARK  2 active torsions:
REMARK  status: ('A' for Active; 'I' for Inactive)
REMARK    1  A    between atoms: C5_10  and  O2_11 
REMARK    2  A    between atoms: C6_13  and  C7_14 
ROOT
HETATM    1  N1  UNL     1       3.594  19.021  11.574  1.00  0.00    -0.191 NA
HETATM    2  C1  UNL     1       4.226  18.081  11.836  1.00  0.00     0.104 C 
HETATM    3  C2  UNL     1       4.987  16.921  12.129  1.00  0.00     0.104 A 
HETATM    4  C3  UNL     1       4.925  15.880  11.192  1.00  0.00     0.141 A 
HETATM    5  N2  UNL     1       4.145  15.989  10.025  1.00  0.00    -0.081 NA
HETATM    6  N3  UNL     1       5.624  14.755  11.413  1.00  0.00    -0.308 N 
ATOM      7  H3  UNL     1       5.585  13.992  10.738  1.00  0.00     0.170 HD
HETATM    8  C4  UNL     1       6.371  14.633  12.520  1.00  0.00     0.281 A 
HETATM    9  O1  UNL     1       7.020  13.562  12.704  1.00  0.00    -0.265 OA
HETATM   10  C5  UNL     1       6.445  15.650  13.458  1.00  0.00     0.151 A 
HETATM   11  C6  UNL     1       5.733  16.841  13.267  1.00  0.00     0.092 A 
ENDROOT
BRANCH  11  12
HETATM   12  C7  UNL     1       5.814  17.912  14.257  1.00  0.00     0.269 C 
HETATM   13  N4  UNL     1       6.889  18.795  14.432  1.00  0.00    -0.057 NA
HETATM   14  O3  UNL     1       4.830  18.100  15.063  1.00  0.00    -0.271 OA
ENDBRANCH  11  12
BRANCH  10  15
HETATM   15  O2  UNL     1       7.210  15.508  14.575  1.00  0.00    -0.355 OA
ATOM     16  H2  UNL     1       6.836  15.158  15.376  1.00  0.00     0.218 HD
ENDBRANCH  10  15
TORSDOF 2
ENDMDL
