MODEL 1
REMARK VINA RESULT: -6.146891389      0.000      0.000
REMARK  4 active torsions:
REMARK  status: ('A' for Active; 'I' for Inactive)
REMARK    1  A    between atoms: N1_2  and  O1_3 
REMARK    2  A    between atoms: N1_2  and  C2_7 
REMARK    3  A    between atoms: O1_3  and  N2_4 
REMARK    4  A    between atoms: C5_12  and  N5_13 
ROOT
HETATM    1  C2  UNL     1       6.782  12.643  12.346  1.00  0.00     0.169 A 
HETATM    2  C3  UNL     1       5.499  12.778  11.797  1.00  0.00     0.168 A 
HETATM    3  N3  UNL     1       4.780  11.603  11.472  1.00  0.00    -0.079 NA
HETATM    4  N4  UNL     1       5.026  14.018  11.612  1.00  0.00    -0.172 N 
HETATM    5  C4  UNL     1       3.694  14.194  11.042  1.00  0.00     0.177 C 
HETATM    6  C5  UNL     1       5.779  15.080  11.950  1.00  0.00     0.682 A 
HETATM    7  N6  UNL     1       6.995  14.968  12.471  1.00  0.00    -0.154 N 
ATOM      8  H6  UNL     1       7.524  15.806  12.711  1.00  0.00     0.187 HD
HETATM    9  C6  UNL     1       7.541  13.733  12.687  1.00  0.00     0.292 A 
HETATM   10  O2  UNL     1       8.700  13.684  13.185  1.00  0.00    -0.265 OA
ENDROOT
BRANCH   1  11
HETATM   11  N1  UNL     1       7.324  11.339  12.560  1.00  0.00    -0.230 N 
HETATM   12  C1  UNL     1       8.091  10.619  11.573  1.00  0.00     0.188 C 
BRANCH  11  13
HETATM   13  O1  UNL     1       7.122  10.720  13.747  1.00  0.00    -0.162 OA
BRANCH  13  14
HETATM   14  N2  UNL     1       8.138  10.970  14.604  1.00  0.00    -0.286 N 
ATOM     15  H22 UNL     1       9.076  11.239  14.307  1.00  0.00     0.186 HD
ATOM     16  H21 UNL     1       7.838  10.854  15.573  1.00  0.00     0.186 HD
ENDBRANCH  13  14
ENDBRANCH  11  13
ENDBRANCH   1  11
BRANCH   6  17
HETATM   17  N5  UNL     1       5.294  16.263  11.759  1.00  0.00    -0.234 N 
ATOM     18  H52 UNL     1       5.193  16.884  12.562  1.00  0.00     0.174 HD
ATOM     19  H51 UNL     1       5.028  16.531  10.812  1.00  0.00     0.174 HD
ENDBRANCH   6  17
TORSDOF 4
ENDMDL
MODEL 2
REMARK VINA RESULT: -5.977368543      2.023      3.992
REMARK  4 active torsions:
REMARK  status: ('A' for Active; 'I' for Inactive)
REMARK    1  A    between atoms: N1_2  and  O1_3 
REMARK    2  A    between atoms: N1_2  and  C2_7 
REMARK    3  A    between atoms: O1_3  and  N2_4 
REMARK    4  A    between atoms: C5_12  and  N5_13 
ROOT
HETATM    1  C2  UNL     1       6.525  13.696  12.103  1.00  0.00     0.169 A 
HETATM    2  C3  UNL     1       6.867  12.560  11.355  1.00  0.00     0.168 A 
HETATM    3  N3  UNL     1       5.951  12.098  10.379  1.00  0.00    -0.079 NA
HETATM    4  N4  UNL     1       8.046  11.978  11.608  1.00  0.00    -0.172 N 
HETATM    5  C4  UNL     1       8.432  10.794  10.847  1.00  0.00     0.177 C 
HETATM    6  C5  UNL     1       8.856  12.485  12.555  1.00  0.00     0.682 A 
HETATM    7  N6  UNL     1       8.546  13.560  13.271  1.00  0.00    -0.154 N 
ATOM      8  H6  UNL     1       9.196  13.905  13.976  1.00  0.00     0.187 HD
HETATM    9  C6  UNL     1       7.358  14.206  13.066  1.00  0.00     0.292 A 
HETATM   10  O2  UNL     1       7.114  15.222  13.774  1.00  0.00    -0.265 OA
ENDROOT
BRANCH   1  11
HETATM   11  N1  UNL     1       5.277  14.348  11.865  1.00  0.00    -0.230 N 
HETATM   12  C1  UNL     1       5.093  15.393  10.886  1.00  0.00     0.188 C 
BRANCH  11  13
HETATM   13  O1  UNL     1       4.187  13.986  12.583  1.00  0.00    -0.162 OA
BRANCH  13  14
HETATM   14  N2  UNL     1       3.952  14.864  13.585  1.00  0.00    -0.286 N 
ATOM     15  H22 UNL     1       4.674  15.450  14.004  1.00  0.00     0.186 HD
ATOM     16  H21 UNL     1       2.968  14.856  13.855  1.00  0.00     0.186 HD
ENDBRANCH  13  14
ENDBRANCH  11  13
ENDBRANCH   1  11
BRANCH   6  17
HETATM   17  N5  UNL     1       9.986  11.900  12.775  1.00  0.00    -0.234 N 
ATOM     18  H52 UNL     1      10.034  10.884  12.695  1.00  0.00     0.174 HD
ATOM     19  H51 UNL     1      10.791  12.476  13.022  1.00  0.00     0.174 HD
ENDBRANCH   6  17
TORSDOF 4
ENDMDL
MODEL 3
REMARK VINA RESULT: -5.947616266      1.291      2.507
REMARK  4 active torsions:
REMARK  status: ('A' for Active; 'I' for Inactive)
REMARK    1  A    between atoms: N1_2  and  O1_3 
REMARK    2  A    between atoms: N1_2  and  C2_7 
REMARK    3  A    between atoms: O1_3  and  N2_4 
REMARK    4  A    between atoms: C5_12  and  N5_13 
ROOT
HETATM    1  C2  UNL     1       6.401  12.511  12.329  1.00  0.00     0.169 A 
HETATM    2  C3  UNL     1       6.869  13.761  12.759  1.00  0.00     0.168 A 
HETATM    3  N3  UNL     1       8.137  13.824  13.386  1.00  0.00    -0.079 NA
HETATM    4  N4  UNL     1       6.085  14.826  12.549  1.00  0.00    -0.172 N 
HETATM    5  C4  UNL     1       6.542  16.142  12.986  1.00  0.00     0.177 C 
HETATM    6  C5  UNL     1       4.894  14.674  11.945  1.00  0.00     0.682 A 
HETATM    7  N6  UNL     1       4.438  13.497  11.532  1.00  0.00    -0.154 N 
ATOM      8  H6  UNL     1       3.527  13.437  11.077  1.00  0.00     0.187 HD
HETATM    9  C6  UNL     1       5.185  12.367  11.713  1.00  0.00     0.292 A 
HETATM   10  O2  UNL     1       4.704  11.274  11.301  1.00  0.00    -0.265 OA
ENDROOT
BRANCH   1  11
HETATM   11  N1  UNL     1       7.206  11.349  12.532  1.00  0.00    -0.230 N 
HETATM   12  C1  UNL     1       8.123  10.827  11.547  1.00  0.00     0.188 C 
BRANCH  11  13
HETATM   13  O1  UNL     1       7.126  10.679  13.706  1.00  0.00    -0.162 OA
BRANCH  13  14
HETATM   14  N2  UNL     1       8.162  10.994  14.517  1.00  0.00    -0.286 N 
ATOM     15  H22 UNL     1       8.124  11.728  15.224  1.00  0.00     0.186 HD
ATOM     16  H21 UNL     1       8.970  10.402  14.325  1.00  0.00     0.186 HD
ENDBRANCH  13  14
ENDBRANCH  11  13
ENDBRANCH   1  11
BRANCH   6  17
HETATM   17  N5  UNL     1       4.161  15.722  11.758  1.00  0.00    -0.234 N 
ATOM     18  H52 UNL     1       4.192  16.470  12.451  1.00  0.00     0.174 HD
ATOM     19  H51 UNL     1       3.577  15.763  10.923  1.00  0.00     0.174 HD
ENDBRANCH   6  17
TORSDOF 4
ENDMDL
MODEL 4
REMARK VINA RESULT: -5.850697555      1.876      3.098
REMARK  4 active torsions:
REMARK  status: ('A' for Active; 'I' for Inactive)
REMARK    1  A    between atoms: N1_2  and  O1_3 
REMARK    2  A    between atoms: N1_2  and  C2_7 
REMARK    3  A    between atoms: O1_3  and  N2_4 
REMARK    4  A    between atoms: C5_12  and  N5_13 
ROOT
HETATM    1  C2  UNL     1       7.419  12.467  12.051  1.00  0.00     0.169 A 
HETATM    2  C3  UNL     1       7.426  13.857  12.237  1.00  0.00     0.168 A 
HETATM    3  N3  UNL     1       8.663  14.539  12.153  1.00  0.00    -0.079 NA
HETATM    4  N4  UNL     1       6.255  14.459  12.484  1.00  0.00    -0.172 N 
HETATM    5  C4  UNL     1       6.227  15.904  12.683  1.00  0.00     0.177 C 
HETATM    6  C5  UNL     1       5.126  13.731  12.547  1.00  0.00     0.682 A 
HETATM    7  N6  UNL     1       5.104  12.414  12.372  1.00  0.00    -0.154 N 
ATOM      8  H6  UNL     1       4.220  11.909  12.429  1.00  0.00     0.187 HD
HETATM    9  C6  UNL     1       6.262  11.734  12.117  1.00  0.00     0.292 A 
HETATM   10  O2  UNL     1       6.184  10.484  11.959  1.00  0.00    -0.265 OA
ENDROOT
BRANCH   1  11
HETATM   11  N1  UNL     1       8.646  11.785  11.785  1.00  0.00    -0.230 N 
HETATM   12  C1  UNL     1       9.497  11.236  12.813  1.00  0.00     0.188 C 
BRANCH  11  13
HETATM   13  O1  UNL     1       9.058  11.630  10.504  1.00  0.00    -0.162 OA
BRANCH  13  14
HETATM   14  N2  UNL     1      10.012  12.536  10.188  1.00  0.00    -0.286 N 
ATOM     15  H22 UNL     1       9.868  13.545  10.224  1.00  0.00     0.186 HD
ATOM     16  H21 UNL     1      10.880  12.074   9.915  1.00  0.00     0.186 HD
ENDBRANCH  13  14
ENDBRANCH  11  13
ENDBRANCH   1  11
BRANCH   6  17
HETATM   17  N5  UNL     1       4.014  14.342  12.787  1.00  0.00    -0.234 N 
ATOM     18  H52 UNL     1       3.891  14.796  13.692  1.00  0.00     0.174 HD
ATOM     19  H51 UNL     1       3.296  14.346  12.062  1.00  0.00     0.174 HD
ENDBRANCH   6  17
TORSDOF 4
ENDMDL
MODEL 5
REMARK VINA RESULT: -5.779729915      1.962      4.248
REMARK  4 active torsions:
REMARK  status: ('A' for Active; 'I' for Inactive)
REMARK    1  A    between atoms: N1_2  and  O1_3 
REMARK    2  A    between atoms: N1_2  and  C2_7 
REMARK    3  A    between atoms: O1_3  and  N2_4 
REMARK    4  A    between atoms: C5_12  and  N5_13 
ROOT
HETATM    1  C2  UNL     1       6.495  14.064  12.255  1.00  0.00     0.169 A 
HETATM    2  C3  UNL     1       6.771  12.979  11.410  1.00  0.00     0.168 A 
HETATM    3  N3  UNL     1       5.852  12.684  10.374  1.00  0.00    -0.079 NA
HETATM    4  N4  UNL     1       7.894  12.285  11.634  1.00  0.00    -0.172 N 
HETATM    5  C4  UNL     1       8.211  11.150  10.773  1.00  0.00     0.177 C 
HETATM    6  C5  UNL     1       8.711  12.636  12.642  1.00  0.00     0.682 A 
HETATM    7  N6  UNL     1       8.463  13.661  13.450  1.00  0.00    -0.154 N 
ATOM      8  H6  UNL     1       9.117  13.887  14.199  1.00  0.00     0.187 HD
HETATM    9  C6  UNL     1       7.335  14.415  13.280  1.00  0.00     0.292 A 
HETATM   10  O2  UNL     1       7.148  15.377  14.076  1.00  0.00    -0.265 OA
ENDROOT
BRANCH   1  11
HETATM   11  N1  UNL     1       5.308  14.832  12.051  1.00  0.00    -0.230 N 
HETATM   12  C1  UNL     1       4.021  14.479  12.599  1.00  0.00     0.188 C 
BRANCH  11  13
HETATM   13  O1  UNL     1       5.365  15.961  11.305  1.00  0.00    -0.162 OA
BRANCH  13  14
HETATM   14  N2  UNL     1       5.235  17.062  12.080  1.00  0.00    -0.286 N 
ATOM     15  H22 UNL     1       4.589  17.128  12.866  1.00  0.00     0.186 HD
ATOM     16  H21 UNL     1       5.865  17.804  11.772  1.00  0.00     0.186 HD
ENDBRANCH  13  14
ENDBRANCH  11  13
ENDBRANCH   1  11
BRANCH   6  17
HETATM   17  N5  UNL     1       9.787  11.946  12.832  1.00  0.00    -0.234 N 
ATOM     18  H52 UNL     1      10.017  11.651  13.781  1.00  0.00     0.174 HD
ATOM     19  H51 UNL     1      10.369  11.722  12.024  1.00  0.00     0.174 HD
ENDBRANCH   6  17
TORSDOF 4
ENDMDL
