MODEL 1
REMARK VINA RESULT: -7.323283766      0.000      0.000
REMARK  2 active torsions:
REMARK  status: ('A' for Active; 'I' for Inactive)
REMARK    1  A    between atoms: N1_1  and  C1_4 
REMARK    2  A    between atoms: C4_13  and  C5_14 
ROOT
HETATM    1  C1  UNL     1       9.711  12.779  11.301  1.00  0.00     0.679 A 
HETATM    2  N2  UNL     1       9.863  11.948  12.347  1.00  0.00    -0.154 N 
ATOM      3  H2  UNL     1      10.766  11.852  12.814  1.00  0.00     0.187 HD
HETATM    4  C2  UNL     1       8.793  11.248  12.762  1.00  0.00     0.298 A 
HETATM    5  O1  UNL     1       8.878  10.466  13.725  1.00  0.00    -0.264 OA
HETATM    6  C3  UNL     1       7.547  11.353  12.148  1.00  0.00     0.196 A 
HETATM    7  O2  UNL     1       6.377  10.819  12.327  1.00  0.00    -0.229 OA
HETATM    8  N3  UNL     1       5.504  11.250  11.472  1.00  0.00    -0.253 N 
ATOM      9  H3  UNL     1       4.525  10.967  11.425  1.00  0.00     0.195 HD
HETATM   10  C4  UNL     1       6.104  12.134  10.657  1.00  0.00     0.149 A 
HETATM   11  C6  UNL     1       7.429  12.211  11.084  1.00  0.00     0.124 A 
HETATM   12  N5  UNL     1       8.499  12.896  10.688  1.00  0.00    -0.186 N 
ATOM     13  H5  UNL     1       8.409  13.533   9.896  1.00  0.00     0.184 HD
ENDROOT
BRANCH   1  14
HETATM   14  N1  UNL     1      10.739  13.447  10.908  1.00  0.00    -0.234 N 
ATOM     15  H12 UNL     1      11.622  12.992  10.678  1.00  0.00     0.174 HD
ATOM     16  H11 UNL     1      10.647  14.460  10.832  1.00  0.00     0.174 HD
ENDBRANCH   1  14
BRANCH  10  17
HETATM   17  C5  UNL     1       5.508  12.879   9.538  1.00  0.00     0.285 C 
HETATM   18  N4  UNL     1       5.960  14.213   9.334  1.00  0.00    -0.056 NA
HETATM   19  O3  UNL     1       4.648  12.361   8.808  1.00  0.00    -0.269 OA
ENDBRANCH  10  17
TORSDOF 2
ENDMDL
MODEL 2
REMARK VINA RESULT: -7.203613482      2.719      4.451
REMARK  2 active torsions:
REMARK  status: ('A' for Active; 'I' for Inactive)
REMARK    1  A    between atoms: N1_1  and  C1_4 
REMARK    2  A    between atoms: C4_13  and  C5_14 
ROOT
HETATM    1  C1  UNL     1       6.624  15.095  13.374  1.00  0.00     0.679 A 
HETATM    2  N2  UNL     1       5.985  15.731  12.377  1.00  0.00    -0.154 N 
ATOM      3  H2  UNL     1       5.795  16.732  12.430  1.00  0.00     0.187 HD
HETATM    4  C2  UNL     1       5.604  15.010  11.307  1.00  0.00     0.298 A 
HETATM    5  O1  UNL     1       5.010  15.548  10.357  1.00  0.00    -0.264 OA
HETATM    6  C3  UNL     1       5.847  13.642  11.202  1.00  0.00     0.196 A 
HETATM    7  O2  UNL     1       5.603  12.723  10.319  1.00  0.00    -0.229 OA
HETATM    8  N3  UNL     1       6.039  11.560  10.687  1.00  0.00    -0.253 N 
ATOM      9  H3  UNL     1       5.957  10.695  10.151  1.00  0.00     0.195 HD
HETATM   10  C4  UNL     1       6.619  11.683  11.893  1.00  0.00     0.149 A 
HETATM   11  C6  UNL     1       6.502  13.028  12.239  1.00  0.00     0.124 A 
HETATM   12  N5  UNL     1       6.872  13.757  13.289  1.00  0.00    -0.186 N 
ATOM     13  H5  UNL     1       7.359  13.298  14.059  1.00  0.00     0.184 HD
ENDROOT
BRANCH   1  14
HETATM   14  N1  UNL     1       6.988  15.790  14.396  1.00  0.00    -0.234 N 
ATOM     15  H12 UNL     1       6.365  16.469  14.834  1.00  0.00     0.174 HD
ATOM     16  H11 UNL     1       7.928  15.642  14.762  1.00  0.00     0.174 HD
ENDBRANCH   1  14
BRANCH  10  17
HETATM   17  C5  UNL     1       7.253  10.630  12.701  1.00  0.00     0.285 C 
HETATM   18  N4  UNL     1       8.126   9.734  12.024  1.00  0.00    -0.056 NA
HETATM   19  O3  UNL     1       7.032  10.534  13.918  1.00  0.00    -0.269 OA
ENDBRANCH  10  17
TORSDOF 2
ENDMDL
MODEL 3
REMARK VINA RESULT: -7.099875630      1.750      1.828
REMARK  2 active torsions:
REMARK  status: ('A' for Active; 'I' for Inactive)
REMARK    1  A    between atoms: N1_1  and  C1_4 
REMARK    2  A    between atoms: C4_13  and  C5_14 
ROOT
HETATM    1  C1  UNL     1       8.584  11.295  10.891  1.00  0.00     0.679 A 
HETATM    2  N2  UNL     1       8.358  10.791  12.117  1.00  0.00    -0.154 N 
ATOM      3  H2  UNL     1       9.093  10.299  12.627  1.00  0.00     0.187 HD
HETATM    4  C2  UNL     1       7.135  10.952  12.653  1.00  0.00     0.298 A 
HETATM    5  O1  UNL     1       6.872  10.505  13.784  1.00  0.00    -0.264 OA
HETATM    6  C3  UNL     1       6.108  11.617  11.987  1.00  0.00     0.196 A 
HETATM    7  O2  UNL     1       4.871  11.913  12.249  1.00  0.00    -0.229 OA
HETATM    8  N3  UNL     1       4.306  12.563  11.281  1.00  0.00    -0.253 N 
ATOM      9  H3  UNL     1       3.341  12.895  11.270  1.00  0.00     0.195 HD
HETATM   10  C4  UNL     1       5.203  12.727  10.295  1.00  0.00     0.149 A 
HETATM   11  C6  UNL     1       6.376  12.118  10.739  1.00  0.00     0.124 A 
HETATM   12  N5  UNL     1       7.592  11.949  10.224  1.00  0.00    -0.186 N 
ATOM     13  H5  UNL     1       7.789  12.323   9.295  1.00  0.00     0.184 HD
ENDROOT
BRANCH   1  14
HETATM   14  N1  UNL     1       9.756  11.138  10.383  1.00  0.00    -0.234 N 
ATOM     15  H12 UNL     1      10.582  11.584  10.784  1.00  0.00     0.174 HD
ATOM     16  H11 UNL     1       9.842  10.546   9.557  1.00  0.00     0.174 HD
ENDBRANCH   1  14
BRANCH  10  17
HETATM   17  C5  UNL     1       5.011  13.404   9.004  1.00  0.00     0.285 C 
HETATM   18  N4  UNL     1       3.853  13.052   8.255  1.00  0.00    -0.056 NA
HETATM   19  O3  UNL     1       5.826  14.245   8.592  1.00  0.00    -0.269 OA
ENDBRANCH  10  17
TORSDOF 2
ENDMDL
MODEL 4
REMARK VINA RESULT: -7.094924714      1.757      1.771
REMARK  2 active torsions:
REMARK  status: ('A' for Active; 'I' for Inactive)
REMARK    1  A    between atoms: N1_1  and  C1_4 
REMARK    2  A    between atoms: C4_13  and  C5_14 
ROOT
HETATM    1  C1  UNL     1       9.283  12.313  10.585  1.00  0.00     0.679 A 
HETATM    2  N2  UNL     1       9.296  11.075  11.108  1.00  0.00    -0.154 N 
ATOM      3  H2  UNL     1      10.118  10.476  11.020  1.00  0.00     0.187 HD
HETATM    4  C2  UNL     1       8.195  10.648  11.752  1.00  0.00     0.298 A 
HETATM    5  O1  UNL     1       8.154   9.511  12.255  1.00  0.00    -0.264 OA
HETATM    6  C3  UNL     1       7.056  11.437  11.891  1.00  0.00     0.196 A 
HETATM    7  O2  UNL     1       5.889  11.292  12.441  1.00  0.00    -0.229 OA
HETATM    8  N3  UNL     1       5.146  12.344  12.301  1.00  0.00    -0.253 N 
ATOM      9  H3  UNL     1       4.194  12.453  12.653  1.00  0.00     0.195 HD
HETATM   10  C4  UNL     1       5.840  13.270  11.617  1.00  0.00     0.149 A 
HETATM   11  C6  UNL     1       7.080  12.694  11.344  1.00  0.00     0.124 A 
HETATM   12  N5  UNL     1       8.178  13.101  10.711  1.00  0.00    -0.186 N 
ATOM     13  H5  UNL     1       8.193  14.037  10.305  1.00  0.00     0.184 HD
ENDROOT
BRANCH   1  14
HETATM   14  N1  UNL     1      10.340  12.718   9.970  1.00  0.00    -0.234 N 
ATOM     15  H12 UNL     1      10.751  13.634  10.150  1.00  0.00     0.174 HD
ATOM     16  H11 UNL     1      10.763  12.090   9.287  1.00  0.00     0.174 HD
ENDBRANCH   1  14
BRANCH  10  17
HETATM   17  C5  UNL     1       5.402  14.617  11.224  1.00  0.00     0.285 C 
HETATM   18  N4  UNL     1       5.249  14.868   9.832  1.00  0.00    -0.056 NA
HETATM   19  O3  UNL     1       5.176  15.493  12.075  1.00  0.00    -0.269 OA
ENDBRANCH  10  17
TORSDOF 2
ENDMDL
MODEL 5
REMARK VINA RESULT: -6.987982960      2.681      4.965
REMARK  2 active torsions:
REMARK  status: ('A' for Active; 'I' for Inactive)
REMARK    1  A    between atoms: N1_1  and  C1_4 
REMARK    2  A    between atoms: C4_13  and  C5_14 
ROOT
HETATM    1  C1  UNL     1       5.122  12.178   8.178  1.00  0.00     0.679 A 
HETATM    2  N2  UNL     1       4.202  13.154   8.278  1.00  0.00    -0.154 N 
ATOM      3  H2  UNL     1       3.729  13.516   7.450  1.00  0.00     0.187 HD
HETATM    4  C2  UNL     1       3.925  13.640   9.501  1.00  0.00     0.298 A 
HETATM    5  O1  UNL     1       3.083  14.543   9.651  1.00  0.00    -0.264 OA
HETATM    6  C3  UNL     1       4.552  13.170  10.653  1.00  0.00     0.196 A 
HETATM    7  O2  UNL     1       4.487  13.441  11.921  1.00  0.00    -0.229 OA
HETATM    8  N3  UNL     1       5.295  12.710  12.622  1.00  0.00    -0.253 N 
ATOM      9  H3  UNL     1       5.410  12.753  13.635  1.00  0.00     0.195 HD
HETATM   10  C4  UNL     1       5.956  11.886  11.791  1.00  0.00     0.149 A 
HETATM   11  C6  UNL     1       5.484  12.174  10.511  1.00  0.00     0.124 A 
HETATM   12  N5  UNL     1       5.746  11.705   9.293  1.00  0.00    -0.186 N 
ATOM     13  H5  UNL     1       6.440  10.964   9.191  1.00  0.00     0.184 HD
ENDROOT
BRANCH   1  14
HETATM   14  N1  UNL     1       5.384  11.717   7.005  1.00  0.00    -0.234 N 
ATOM     15  H12 UNL     1       6.135  12.100   6.430  1.00  0.00     0.174 HD
ATOM     16  H11 UNL     1       4.813  10.946   6.658  1.00  0.00     0.174 HD
ENDBRANCH   1  14
BRANCH  10  17
HETATM   17  C5  UNL     1       6.972  10.881  12.137  1.00  0.00     0.285 C 
HETATM   18  N4  UNL     1       6.989  10.415  13.482  1.00  0.00    -0.056 NA
HETATM   19  O3  UNL     1       7.776  10.462  11.289  1.00  0.00    -0.269 OA
ENDBRANCH  10  17
TORSDOF 2
ENDMDL
