MODEL 1
REMARK VINA RESULT: -5.800314611      0.000      0.000
REMARK  2 active torsions:
REMARK  status: ('A' for Active; 'I' for Inactive)
REMARK    1  A    between atoms: N1_1  and  N2_4 
REMARK       I    between atoms: N2_4  and  C1_6 
REMARK    2  A    between atoms: C1_6  and  C2_8 
REMARK       I    between atoms: C2_8  and  N3_10 
REMARK       I    between atoms: N3_10  and  C3_12 
ROOT
HETATM    1  N2  UNL     1       8.148  12.061  13.153  1.00  0.00    -0.268 N 
ATOM      2  H2  UNL     1       8.464  13.025  13.263  1.00  0.00     0.190 HD
HETATM    3  C1  UNL     1       7.388  11.692  12.023  1.00  0.00     0.327 C 
HETATM    4  O1  UNL     1       7.012  10.515  11.909  1.00  0.00    -0.261 OA
ENDROOT
BRANCH   3   5
HETATM    5  C2  UNL     1       7.039  12.660  10.994  1.00  0.00     0.318 C 
HETATM    6  O2  UNL     1       7.706  13.715  10.909  1.00  0.00    -0.262 OA
HETATM    7  N3  UNL     1       5.948  12.401  10.096  1.00  0.00    -0.273 N 
HETATM    8  C3  UNL     1       5.568  13.300   9.086  1.00  0.00     0.335 C 
ATOM      9  H3  UNL     1       5.429  11.529  10.195  1.00  0.00     0.173 HD
HETATM   10  N4  UNL     1       4.480  12.963   8.245  1.00  0.00    -0.040 NA
HETATM   11  O3  UNL     1       6.201  14.385   8.946  1.00  0.00    -0.251 OA
ENDBRANCH   3   5
BRANCH   1  12
HETATM   12  N1  UNL     1       8.464  11.113  14.115  1.00  0.00    -0.342 N 
ATOM     13  H12 UNL     1       8.043  10.186  14.054  1.00  0.00     0.176 HD
ATOM     14  H11 UNL     1       9.107  11.349  14.871  1.00  0.00     0.176 HD
ENDBRANCH   1  12
TORSDOF 2
ENDMDL
MODEL 2
REMARK VINA RESULT: -5.725896594      1.547      1.595
REMARK  2 active torsions:
REMARK  status: ('A' for Active; 'I' for Inactive)
REMARK    1  A    between atoms: N1_1  and  N2_4 
REMARK       I    between atoms: N2_4  and  C1_6 
REMARK    2  A    between atoms: C1_6  and  C2_8 
REMARK       I    between atoms: C2_8  and  N3_10 
REMARK       I    between atoms: N3_10  and  C3_12 
ROOT
HETATM    1  N2  UNL     1       7.451  11.601  12.992  1.00  0.00    -0.268 N 
ATOM      2  H2  UNL     1       6.738  12.160  13.461  1.00  0.00     0.190 HD
HETATM    3  C1  UNL     1       7.391  11.408  11.595  1.00  0.00     0.327 C 
HETATM    4  O1  UNL     1       8.267  10.724  11.044  1.00  0.00    -0.261 OA
ENDROOT
BRANCH   3   5
HETATM    5  C2  UNL     1       6.326  11.992  10.794  1.00  0.00     0.318 C 
HETATM    6  O2  UNL     1       5.143  11.662  11.033  1.00  0.00    -0.262 OA
HETATM    7  N3  UNL     1       6.634  12.928   9.749  1.00  0.00    -0.273 N 
HETATM    8  C3  UNL     1       5.647  13.520   8.946  1.00  0.00     0.335 C 
ATOM      9  H3  UNL     1       7.611  13.173   9.585  1.00  0.00     0.173 HD
HETATM   10  N4  UNL     1       6.042  14.434   7.939  1.00  0.00    -0.040 NA
HETATM   11  O3  UNL     1       4.431  13.231   9.136  1.00  0.00    -0.251 OA
ENDBRANCH   3   5
BRANCH   1  12
HETATM   12  N1  UNL     1       8.480  11.031  13.726  1.00  0.00    -0.342 N 
ATOM     13  H12 UNL     1       9.403  11.464  13.705  1.00  0.00     0.176 HD
ATOM     14  H11 UNL     1       8.308  10.189  14.276  1.00  0.00     0.176 HD
ENDBRANCH   1  12
TORSDOF 2
ENDMDL
MODEL 3
REMARK VINA RESULT: -5.568157339      1.201      1.208
REMARK  2 active torsions:
REMARK  status: ('A' for Active; 'I' for Inactive)
REMARK    1  A    between atoms: N1_1  and  N2_4 
REMARK       I    between atoms: N2_4  and  C1_6 
REMARK    2  A    between atoms: C1_6  and  C2_8 
REMARK       I    between atoms: C2_8  and  N3_10 
REMARK       I    between atoms: N3_10  and  C3_12 
ROOT
HETATM    1  N2  UNL     1       6.839  11.686  12.372  1.00  0.00    -0.268 N 
ATOM      2  H2  UNL     1       6.110  12.308  12.720  1.00  0.00     0.190 HD
HETATM    3  C1  UNL     1       7.275  11.789  11.033  1.00  0.00     0.327 C 
HETATM    4  O1  UNL     1       8.162  11.021  10.628  1.00  0.00    -0.261 OA
ENDROOT
BRANCH   3   5
HETATM    5  C2  UNL     1       6.706  12.771  10.123  1.00  0.00     0.318 C 
HETATM    6  O2  UNL     1       7.040  13.971  10.247  1.00  0.00    -0.262 OA
HETATM    7  N3  UNL     1       5.780  12.365   9.103  1.00  0.00    -0.273 N 
HETATM    8  C3  UNL     1       5.201  13.270   8.200  1.00  0.00     0.335 C 
ATOM      9  H3  UNL     1       5.533  11.377   9.032  1.00  0.00     0.173 HD
HETATM   10  N4  UNL     1       4.298  12.781   7.226  1.00  0.00    -0.040 NA
HETATM   11  O3  UNL     1       5.497  14.498   8.271  1.00  0.00    -0.251 OA
ENDBRANCH   3   5
BRANCH   1  12
HETATM   12  N1  UNL     1       7.403  10.738  13.212  1.00  0.00    -0.342 N 
ATOM     13  H12 UNL     1       6.797  10.053  13.664  1.00  0.00     0.176 HD
ATOM     14  H11 UNL     1       8.410  10.733  13.371  1.00  0.00     0.176 HD
ENDBRANCH   1  12
TORSDOF 2
ENDMDL
MODEL 4
REMARK VINA RESULT: -5.499853615      3.201      3.731
REMARK  2 active torsions:
REMARK  status: ('A' for Active; 'I' for Inactive)
REMARK    1  A    between atoms: N1_1  and  N2_4 
REMARK       I    between atoms: N2_4  and  C1_6 
REMARK    2  A    between atoms: C1_6  and  C2_8 
REMARK       I    between atoms: C2_8  and  N3_10 
REMARK       I    between atoms: N3_10  and  C3_12 
ROOT
HETATM    1  N2  UNL     1       8.338  11.781  13.403  1.00  0.00    -0.268 N 
ATOM      2  H2  UNL     1       7.434  11.806  13.874  1.00  0.00     0.190 HD
HETATM    3  C1  UNL     1       8.727  12.847  12.564  1.00  0.00     0.327 C 
HETATM    4  O1  UNL     1       9.830  12.797  11.999  1.00  0.00    -0.261 OA
ENDROOT
BRANCH   3   5
HETATM    5  C2  UNL     1       7.862  13.999  12.350  1.00  0.00     0.318 C 
HETATM    6  O2  UNL     1       7.408  14.204  11.202  1.00  0.00    -0.262 OA
HETATM    7  N3  UNL     1       7.541  14.877  13.439  1.00  0.00    -0.273 N 
HETATM    8  C3  UNL     1       6.714  16.001  13.288  1.00  0.00     0.335 C 
ATOM      9  H3  UNL     1       7.930  14.677  14.361  1.00  0.00     0.173 HD
HETATM   10  N4  UNL     1       6.450  16.813  14.417  1.00  0.00    -0.040 NA
HETATM   11  O3  UNL     1       6.221  16.266  12.154  1.00  0.00    -0.251 OA
ENDBRANCH   3   5
BRANCH   1  12
HETATM   12  N1  UNL     1       9.186  10.699  13.586  1.00  0.00    -0.342 N 
ATOM     13  H12 UNL     1       9.987  10.587  12.965  1.00  0.00     0.176 HD
ATOM     14  H11 UNL     1       9.004  10.030  14.334  1.00  0.00     0.176 HD
ENDBRANCH   1  12
TORSDOF 2
ENDMDL
MODEL 5
REMARK VINA RESULT: -5.490172403      2.261      4.494
REMARK  2 active torsions:
REMARK  status: ('A' for Active; 'I' for Inactive)
REMARK    1  A    between atoms: N1_1  and  N2_4 
REMARK       I    between atoms: N2_4  and  C1_6 
REMARK    2  A    between atoms: C1_6  and  C2_8 
REMARK       I    between atoms: C2_8  and  N3_10 
REMARK       I    between atoms: N3_10  and  C3_12 
ROOT
HETATM    1  N2  UNL     1       6.031  12.699   8.961  1.00  0.00    -0.268 N 
ATOM      2  H2  UNL     1       6.864  12.936   8.423  1.00  0.00     0.190 HD
HETATM    3  C1  UNL     1       6.159  12.116  10.240  1.00  0.00     0.327 C 
HETATM    4  O1  UNL     1       5.134  11.834  10.879  1.00  0.00    -0.261 OA
ENDROOT
BRANCH   3   5
HETATM    5  C2  UNL     1       7.465  11.839  10.821  1.00  0.00     0.318 C 
HETATM    6  O2  UNL     1       7.593  10.840  11.564  1.00  0.00    -0.262 OA
HETATM    7  N3  UNL     1       8.580  12.699  10.541  1.00  0.00    -0.273 N 
HETATM    8  C3  UNL     1       9.860  12.479  11.074  1.00  0.00     0.335 C 
ATOM      9  H3  UNL     1       8.436  13.503   9.929  1.00  0.00     0.173 HD
HETATM   10  N4  UNL     1      10.902  13.379  10.744  1.00  0.00    -0.040 NA
HETATM   11  O3  UNL     1      10.058  11.487  11.833  1.00  0.00    -0.251 OA
ENDBRANCH   3   5
BRANCH   1  12
HETATM   12  N1  UNL     1       4.771  12.950   8.438  1.00  0.00    -0.342 N 
ATOM     13  H12 UNL     1       4.693  13.412   7.532  1.00  0.00     0.176 HD
ATOM     14  H11 UNL     1       3.939  12.673   8.960  1.00  0.00     0.176 HD
ENDBRANCH   1  12
TORSDOF 2
ENDMDL
