MODEL 1
REMARK VINA RESULT: -7.002267703      0.000      0.000
REMARK  1 active torsions:
REMARK  status: ('A' for Active; 'I' for Inactive)
REMARK    1  A    between atoms: N3_4  and  N4_6 
ROOT
HETATM    1  N4  UNL     1       6.226  11.478  11.287  1.00  0.00    -0.279 N 
ATOM      2  H4  UNL     1       5.670  10.886  11.903  1.00  0.00     0.189 HD
HETATM    3  C2  UNL     1       7.474  11.622  11.563  1.00  0.00     0.193 A 
HETATM    4  N5  UNL     1       8.428  12.398  10.844  1.00  0.00    -0.289 N 
ATOM      5  H5  UNL     1       8.250  12.950  10.005  1.00  0.00     0.172 HD
HETATM    6  C3  UNL     1       9.680  12.259  11.516  1.00  0.00     0.328 A 
HETATM    7  O1  UNL     1      10.761  12.810  11.161  1.00  0.00    -0.247 OA
HETATM    8  N6  UNL     1       9.513  11.405  12.646  1.00  0.00    -0.272 N 
ATOM      9  H6  UNL     1      10.241  11.133  13.306  1.00  0.00     0.174 HD
HETATM   10  C4  UNL     1       8.158  11.002  12.691  1.00  0.00     0.295 A 
HETATM   11  O2  UNL     1       7.603  10.248  13.531  1.00  0.00    -0.264 OA
ENDROOT
BRANCH   1  12
HETATM   12  N3  UNL     1       5.587  12.071  10.215  1.00  0.00    -0.274 N 
HETATM   13  C1  UNL     1       4.560  12.834  10.406  1.00  0.00     0.215 C 
HETATM   14  N1  UNL     1       4.086  13.063  11.732  1.00  0.00    -0.065 NA
HETATM   15  N2  UNL     1       3.916  13.434   9.282  1.00  0.00    -0.065 NA
ATOM     16  H3  UNL     1       5.926  11.905   9.268  1.00  0.00     0.189 HD
ENDBRANCH   1  12
TORSDOF 1
ENDMDL
MODEL 2
REMARK VINA RESULT: -6.938107269      1.188      2.579
REMARK  1 active torsions:
REMARK  status: ('A' for Active; 'I' for Inactive)
REMARK    1  A    between atoms: N3_4  and  N4_6 
ROOT
HETATM    1  N4  UNL     1       7.337  12.373  10.110  1.00  0.00    -0.279 N 
ATOM      2  H4  UNL     1       7.918  12.772   9.373  1.00  0.00     0.189 HD
HETATM    3  C2  UNL     1       7.929  11.905  11.151  1.00  0.00     0.193 A 
HETATM    4  N5  UNL     1       7.317  11.307  12.290  1.00  0.00    -0.289 N 
ATOM      5  H5  UNL     1       6.318  11.168  12.437  1.00  0.00     0.172 HD
HETATM    6  C3  UNL     1       8.364  10.938  13.188  1.00  0.00     0.328 A 
HETATM    7  O1  UNL     1       8.198  10.378  14.309  1.00  0.00    -0.247 OA
HETATM    8  N6  UNL     1       9.621  11.300  12.617  1.00  0.00    -0.272 N 
ATOM      9  H6  UNL     1      10.537  11.154  13.041  1.00  0.00     0.174 HD
HETATM   10  C4  UNL     1       9.371  11.898  11.360  1.00  0.00     0.295 A 
HETATM   11  O2  UNL     1      10.210  12.355  10.542  1.00  0.00    -0.264 OA
ENDROOT
BRANCH   1  12
HETATM   12  N3  UNL     1       5.968  12.374   9.921  1.00  0.00    -0.274 N 
HETATM   13  C1  UNL     1       5.406  13.298   9.211  1.00  0.00     0.215 C 
HETATM   14  N1  UNL     1       6.207  14.322   8.621  1.00  0.00    -0.065 NA
HETATM   15  N2  UNL     1       3.990  13.278   9.030  1.00  0.00    -0.065 NA
ATOM     16  H3  UNL     1       5.398  11.642  10.343  1.00  0.00     0.189 HD
ENDBRANCH   1  12
TORSDOF 1
ENDMDL
MODEL 3
REMARK VINA RESULT: -6.803214848      1.824      2.787
REMARK  1 active torsions:
REMARK  status: ('A' for Active; 'I' for Inactive)
REMARK    1  A    between atoms: N3_4  and  N4_6 
ROOT
HETATM    1  N4  UNL     1       7.012  13.152  10.054  1.00  0.00    -0.279 N 
ATOM      2  H4  UNL     1       7.367  14.084   9.847  1.00  0.00     0.189 HD
HETATM    3  C2  UNL     1       7.367  12.610  11.165  1.00  0.00     0.193 A 
HETATM    4  N5  UNL     1       6.992  11.325  11.652  1.00  0.00    -0.289 N 
ATOM      5  H5  UNL     1       6.385  10.653  11.182  1.00  0.00     0.172 HD
HETATM    6  C3  UNL     1       7.624  11.152  12.921  1.00  0.00     0.328 A 
HETATM    7  O1  UNL     1       7.519  10.126  13.652  1.00  0.00    -0.247 OA
HETATM    8  N6  UNL     1       8.388  12.317  13.226  1.00  0.00    -0.272 N 
ATOM      9  H6  UNL     1       8.943  12.467  14.069  1.00  0.00     0.174 HD
HETATM   10  C4  UNL     1       8.241  13.227  12.154  1.00  0.00     0.295 A 
HETATM   11  O2  UNL     1       8.753  14.370  12.036  1.00  0.00    -0.264 OA
ENDROOT
BRANCH   1  12
HETATM   12  N3  UNL     1       6.182  12.558   9.123  1.00  0.00    -0.274 N 
HETATM   13  C1  UNL     1       5.328  13.268   8.459  1.00  0.00     0.215 C 
HETATM   14  N1  UNL     1       5.244  14.673   8.693  1.00  0.00    -0.065 NA
HETATM   15  N2  UNL     1       4.481  12.631   7.502  1.00  0.00    -0.065 NA
ATOM     16  H3  UNL     1       6.243  11.553   8.957  1.00  0.00     0.189 HD
ENDBRANCH   1  12
TORSDOF 1
ENDMDL
MODEL 4
REMARK VINA RESULT: -6.661143335      2.793      3.167
REMARK  1 active torsions:
REMARK  status: ('A' for Active; 'I' for Inactive)
REMARK    1  A    between atoms: N3_4  and  N4_6 
ROOT
HETATM    1  N4  UNL     1       7.037  13.570  12.820  1.00  0.00    -0.279 N 
ATOM      2  H4  UNL     1       6.171  13.063  13.000  1.00  0.00     0.189 HD
HETATM    3  C2  UNL     1       7.884  13.040  12.012  1.00  0.00     0.193 A 
HETATM    4  N5  UNL     1       9.148  13.571  11.622  1.00  0.00    -0.289 N 
ATOM      5  H5  UNL     1       9.555  14.452  11.934  1.00  0.00     0.172 HD
HETATM    6  C3  UNL     1       9.737  12.639  10.715  1.00  0.00     0.328 A 
HETATM    7  O1  UNL     1      10.864  12.778  10.161  1.00  0.00    -0.247 OA
HETATM    8  N6  UNL     1       8.852  11.534  10.538  1.00  0.00    -0.272 N 
ATOM      9  H6  UNL     1       9.018  10.722   9.944  1.00  0.00     0.174 HD
HETATM   10  C4  UNL     1       7.704  11.764  11.330  1.00  0.00     0.295 A 
HETATM   11  O2  UNL     1       6.690  11.030  11.453  1.00  0.00    -0.264 OA
ENDROOT
BRANCH   1  12
HETATM   12  N3  UNL     1       7.217  14.780  13.462  1.00  0.00    -0.274 N 
HETATM   13  C1  UNL     1       6.674  15.857  12.995  1.00  0.00     0.215 C 
HETATM   14  N1  UNL     1       5.884  15.792  11.808  1.00  0.00    -0.065 NA
HETATM   15  N2  UNL     1       6.875  17.096  13.676  1.00  0.00    -0.065 NA
ATOM     16  H3  UNL     1       7.783  14.825  14.310  1.00  0.00     0.189 HD
ENDBRANCH   1  12
TORSDOF 1
ENDMDL
MODEL 5
REMARK VINA RESULT: -6.594243645      2.389      3.553
REMARK  1 active torsions:
REMARK  status: ('A' for Active; 'I' for Inactive)
REMARK    1  A    between atoms: N3_4  and  N4_6 
ROOT
HETATM    1  N4  UNL     1       8.435  14.081  12.773  1.00  0.00    -0.279 N 
ATOM      2  H4  UNL     1       9.177  14.707  12.460  1.00  0.00     0.189 HD
HETATM    3  C2  UNL     1       8.517  12.843  12.436  1.00  0.00     0.193 A 
HETATM    4  N5  UNL     1       7.600  11.803  12.760  1.00  0.00    -0.289 N 
ATOM      5  H5  UNL     1       6.746  11.899  13.308  1.00  0.00     0.172 HD
HETATM    6  C3  UNL     1       8.099  10.600  12.174  1.00  0.00     0.328 A 
HETATM    7  O1  UNL     1       7.544   9.468  12.253  1.00  0.00    -0.247 OA
HETATM    8  N6  UNL     1       9.318  10.884  11.488  1.00  0.00    -0.272 N 
ATOM      9  H6  UNL     1       9.890  10.211  10.979  1.00  0.00     0.174 HD
HETATM   10  C4  UNL     1       9.591  12.263  11.639  1.00  0.00     0.295 A 
HETATM   11  O2  UNL     1      10.570  12.910  11.187  1.00  0.00    -0.264 OA
ENDROOT
BRANCH   1  12
HETATM   12  N3  UNL     1       7.413  14.622  13.528  1.00  0.00    -0.274 N 
HETATM   13  C1  UNL     1       6.397  15.179  12.953  1.00  0.00     0.215 C 
HETATM   14  N1  UNL     1       6.335  15.235  11.528  1.00  0.00    -0.065 NA
HETATM   15  N2  UNL     1       5.353  15.731  13.755  1.00  0.00    -0.065 NA
ATOM     16  H3  UNL     1       7.459  14.581  14.546  1.00  0.00     0.189 HD
ENDBRANCH   1  12
TORSDOF 1
ENDMDL
