MODEL 1
REMARK VINA RESULT: -5.902982369      0.000      0.000
REMARK  2 active torsions:
REMARK  status: ('A' for Active; 'I' for Inactive)
REMARK    1  A    between atoms: N3_4  and  N4_6 
REMARK    2  A    between atoms: N4_6  and  C2_8 
ROOT
HETATM    1  C2  UNL     1       6.654  11.948  11.135  1.00  0.00     0.153 A 
HETATM    2  C3  UNL     1       5.441  12.023  10.521  1.00  0.00     0.159 A 
HETATM    3  N5  UNL     1       4.619  12.672  11.364  1.00  0.00    -0.294 N 
ATOM      4  H5  UNL     1       3.636  12.892  11.204  1.00  0.00     0.187 HD
HETATM    5  N6  UNL     1       5.322  12.965  12.429  1.00  0.00    -0.241 N 
ATOM      6  H6  UNL     1       4.948  13.463  13.238  1.00  0.00     0.208 HD
HETATM    7  N7  UNL     1       6.563  12.545  12.335  1.00  0.00    -0.269 N 
ATOM      8  H7  UNL     1       7.303  12.651  13.028  1.00  0.00     0.190 HD
ENDROOT
BRANCH   1   9
HETATM    9  N4  UNL     1       7.764  11.415  10.717  1.00  0.00    -0.281 N 
ATOM     10  H4  UNL     1       7.882  10.404  10.657  1.00  0.00     0.188 HD
BRANCH   9  11
HETATM   11  N3  UNL     1       8.782  12.290  10.356  1.00  0.00    -0.274 N 
HETATM   12  C1  UNL     1       9.810  12.393  11.109  1.00  0.00     0.215 C 
HETATM   13  N1  UNL     1      10.866  13.294  10.745  1.00  0.00    -0.065 NA
HETATM   14  N2  UNL     1       9.868  11.609  12.284  1.00  0.00    -0.065 NA
ATOM     15  H3  UNL     1       8.710  12.841   9.501  1.00  0.00     0.189 HD
ENDBRANCH   9  11
ENDBRANCH   1   9
TORSDOF 2
ENDMDL
MODEL 2
REMARK VINA RESULT: -5.885464407      1.690      4.660
REMARK  2 active torsions:
REMARK  status: ('A' for Active; 'I' for Inactive)
REMARK    1  A    between atoms: N3_4  and  N4_6 
REMARK    2  A    between atoms: N4_6  and  C2_8 
ROOT
HETATM    1  C2  UNL     1       8.457  13.458  12.382  1.00  0.00     0.153 A 
HETATM    2  C3  UNL     1       9.116  14.038  11.341  1.00  0.00     0.159 A 
HETATM    3  N5  UNL     1      10.280  13.380  11.205  1.00  0.00    -0.294 N 
ATOM      4  H5  UNL     1      11.007  13.568  10.514  1.00  0.00     0.187 HD
HETATM    5  N6  UNL     1      10.303  12.452  12.129  1.00  0.00    -0.241 N 
ATOM      6  H6  UNL     1      11.074  11.798  12.260  1.00  0.00     0.208 HD
HETATM    7  N7  UNL     1       9.217  12.462  12.868  1.00  0.00    -0.269 N 
ATOM      8  H7  UNL     1       8.996  11.843  13.647  1.00  0.00     0.190 HD
ENDROOT
BRANCH   1   9
HETATM    9  N4  UNL     1       7.295  13.745  12.891  1.00  0.00    -0.281 N 
ATOM     10  H4  UNL     1       7.180  14.500  13.568  1.00  0.00     0.188 HD
BRANCH   9  11
HETATM   11  N3  UNL     1       6.219  12.974  12.469  1.00  0.00    -0.274 N 
HETATM   12  C1  UNL     1       5.168  13.558  12.035  1.00  0.00     0.215 C 
HETATM   13  N1  UNL     1       4.051  12.770  11.597  1.00  0.00    -0.065 NA
HETATM   14  N2  UNL     1       5.144  14.971  12.001  1.00  0.00    -0.065 NA
ATOM     15  H3  UNL     1       6.267  11.956  12.506  1.00  0.00     0.189 HD
ENDBRANCH   9  11
ENDBRANCH   1   9
TORSDOF 2
ENDMDL
MODEL 3
REMARK VINA RESULT: -5.849301450      2.599      4.463
REMARK  2 active torsions:
REMARK  status: ('A' for Active; 'I' for Inactive)
REMARK    1  A    between atoms: N3_4  and  N4_6 
REMARK    2  A    between atoms: N4_6  and  C2_8 
ROOT
HETATM    1  C2  UNL     1       8.176  12.666  12.753  1.00  0.00     0.153 A 
HETATM    2  C3  UNL     1       8.311  11.342  13.043  1.00  0.00     0.159 A 
HETATM    3  N5  UNL     1       9.601  11.028  12.836  1.00  0.00    -0.294 N 
ATOM      4  H5  UNL     1      10.031  10.112  12.962  1.00  0.00     0.187 HD
HETATM    5  N6  UNL     1      10.200  12.124  12.440  1.00  0.00    -0.241 N 
ATOM      6  H6  UNL     1      11.192  12.179  12.210  1.00  0.00     0.208 HD
HETATM    7  N7  UNL     1       9.374  13.144  12.375  1.00  0.00    -0.269 N 
ATOM      8  H7  UNL     1       9.595  14.099  12.096  1.00  0.00     0.190 HD
ENDROOT
BRANCH   1   9
HETATM    9  N4  UNL     1       7.121  13.423  12.802  1.00  0.00    -0.281 N 
ATOM     10  H4  UNL     1       6.224  13.115  12.426  1.00  0.00     0.188 HD
BRANCH   9  11
HETATM   11  N3  UNL     1       7.273  14.672  13.392  1.00  0.00    -0.274 N 
HETATM   12  C1  UNL     1       6.746  15.693  12.832  1.00  0.00     0.215 C 
HETATM   13  N1  UNL     1       6.898  16.987  13.434  1.00  0.00    -0.065 NA
HETATM   14  N2  UNL     1       6.027  15.509  11.629  1.00  0.00    -0.065 NA
ATOM     15  H3  UNL     1       7.798  14.773  14.260  1.00  0.00     0.189 HD
ENDBRANCH   9  11
ENDBRANCH   1   9
TORSDOF 2
ENDMDL
MODEL 4
REMARK VINA RESULT: -5.844750117      2.093      3.811
REMARK  2 active torsions:
REMARK  status: ('A' for Active; 'I' for Inactive)
REMARK    1  A    between atoms: N3_4  and  N4_6 
REMARK    2  A    between atoms: N4_6  and  C2_8 
ROOT
HETATM    1  C2  UNL     1       7.189  11.978  11.921  1.00  0.00     0.153 A 
HETATM    2  C3  UNL     1       7.921  13.050  12.336  1.00  0.00     0.159 A 
HETATM    3  N5  UNL     1       8.563  12.671  13.454  1.00  0.00    -0.294 N 
ATOM      4  H5  UNL     1       9.194  13.243  14.015  1.00  0.00     0.187 HD
HETATM    5  N6  UNL     1       8.221  11.428  13.686  1.00  0.00    -0.241 N 
ATOM      6  H6  UNL     1       8.562  10.883  14.478  1.00  0.00     0.208 HD
HETATM    7  N7  UNL     1       7.388  10.966  12.781  1.00  0.00    -0.269 N 
ATOM      8  H7  UNL     1       6.978  10.033  12.740  1.00  0.00     0.190 HD
ENDROOT
BRANCH   1   9
HETATM    9  N4  UNL     1       6.406  11.858  10.889  1.00  0.00    -0.281 N 
ATOM     10  H4  UNL     1       5.660  11.164  10.863  1.00  0.00     0.188 HD
BRANCH   9  11
HETATM   11  N3  UNL     1       6.637  12.721   9.825  1.00  0.00    -0.274 N 
HETATM   12  C1  UNL     1       5.670  13.429   9.377  1.00  0.00     0.215 C 
HETATM   13  N1  UNL     1       5.898  14.323   8.278  1.00  0.00    -0.065 NA
HETATM   14  N2  UNL     1       4.402  13.303   9.987  1.00  0.00    -0.065 NA
ATOM     15  H3  UNL     1       7.564  12.789   9.406  1.00  0.00     0.189 HD
ENDBRANCH   9  11
ENDBRANCH   1   9
TORSDOF 2
ENDMDL
MODEL 5
REMARK VINA RESULT: -5.841810986      3.100      4.818
REMARK  2 active torsions:
REMARK  status: ('A' for Active; 'I' for Inactive)
REMARK    1  A    between atoms: N3_4  and  N4_6 
REMARK    2  A    between atoms: N4_6  and  C2_8 
ROOT
HETATM    1  C2  UNL     1       8.105  13.651  12.677  1.00  0.00     0.153 A 
HETATM    2  C3  UNL     1       8.963  13.960  11.665  1.00  0.00     0.159 A 
HETATM    3  N5  UNL     1       9.930  13.028  11.678  1.00  0.00    -0.294 N 
ATOM      4  H5  UNL     1      10.729  12.972  11.045  1.00  0.00     0.187 HD
HETATM    5  N6  UNL     1       9.652  12.205  12.658  1.00  0.00    -0.241 N 
ATOM      6  H6  UNL     1      10.222  11.394  12.899  1.00  0.00     0.208 HD
HETATM    7  N7  UNL     1       8.553  12.544  13.293  1.00  0.00    -0.269 N 
ATOM      8  H7  UNL     1       8.128  12.066  14.087  1.00  0.00     0.190 HD
ENDROOT
BRANCH   1   9
HETATM    9  N4  UNL     1       7.020  14.256  13.060  1.00  0.00    -0.281 N 
ATOM     10  H4  UNL     1       6.097  13.859  12.887  1.00  0.00     0.188 HD
BRANCH   9  11
HETATM   11  N3  UNL     1       7.180  15.472  13.715  1.00  0.00    -0.274 N 
HETATM   12  C1  UNL     1       6.654  16.523  13.212  1.00  0.00     0.215 C 
HETATM   13  N1  UNL     1       6.814  17.783  13.882  1.00  0.00    -0.065 NA
HETATM   14  N2  UNL     1       5.930  16.406  12.005  1.00  0.00    -0.065 NA
ATOM     15  H3  UNL     1       7.708  15.524  14.585  1.00  0.00     0.189 HD
ENDBRANCH   9  11
ENDBRANCH   1   9
TORSDOF 2
ENDMDL
