MODEL 1
REMARK VINA RESULT: -5.341225379      0.000      0.000
REMARK  4 active torsions:
REMARK  status: ('A' for Active; 'I' for Inactive)
REMARK    1  A    between atoms: C2_2  and  N1_3 
REMARK    2  A    between atoms: C2_2  and  S1_10 
REMARK    3  A    between atoms: N1_3  and  N2_5 
REMARK    4  A    between atoms: S1_10  and  N5_11 
ROOT
HETATM    1  N1  UNL     1       8.263  12.973  13.204  1.00  0.00    -0.295 N 
ATOM      2  H1  UNL     1       8.752  12.990  14.100  1.00  0.00     0.187 HD
ENDROOT
BRANCH   1   3
HETATM    3  C2  UNL     1       8.360  14.083  12.321  1.00  0.00     0.078 C 
HETATM    4  C1  UNL     1       7.462  15.233  12.584  1.00  0.00     0.079 C 
BRANCH   3   5
HETATM    5  S1  UNL     1       9.425  14.048  11.090  1.00  0.00    -0.007 SA
BRANCH   5   6
HETATM    6  N5  UNL     1       9.822  12.473  10.372  1.00  0.00    -0.369 N 
ATOM      7  H52 UNL     1      10.792  12.159  10.335  1.00  0.00     0.164 HD
ATOM      8  H51 UNL     1       9.058  11.906  10.007  1.00  0.00     0.164 HD
ENDBRANCH   5   6
ENDBRANCH   3   5
ENDBRANCH   1   3
BRANCH   1   9
HETATM    9  N2  UNL     1       7.502  11.862  12.849  1.00  0.00    -0.275 N 
HETATM   10  C3  UNL     1       8.019  10.708  12.704  1.00  0.00     0.215 C 
HETATM   11  N3  UNL     1       9.413  10.535  12.909  1.00  0.00    -0.065 NA
HETATM   12  N4  UNL     1       7.202   9.618  12.344  1.00  0.00    -0.065 NA
ATOM     13  H2  UNL     1       6.499  11.977  12.701  1.00  0.00     0.189 HD
ENDBRANCH   1   9
TORSDOF 4
ENDMDL
MODEL 2
REMARK VINA RESULT: -5.203007896      1.414      1.548
REMARK  4 active torsions:
REMARK  status: ('A' for Active; 'I' for Inactive)
REMARK    1  A    between atoms: C2_2  and  N1_3 
REMARK    2  A    between atoms: C2_2  and  S1_10 
REMARK    3  A    between atoms: N1_3  and  N2_5 
REMARK    4  A    between atoms: S1_10  and  N5_11 
ROOT
HETATM    1  N1  UNL     1       8.401  13.504  13.380  1.00  0.00    -0.295 N 
ATOM      2  H1  UNL     1       9.136  13.905  13.963  1.00  0.00     0.187 HD
ENDROOT
BRANCH   1   3
HETATM    3  C2  UNL     1       7.516  14.358  12.666  1.00  0.00     0.078 C 
HETATM    4  C1  UNL     1       7.143  15.636  13.317  1.00  0.00     0.079 C 
BRANCH   3   5
HETATM    5  S1  UNL     1       6.966  13.910  11.200  1.00  0.00    -0.007 SA
BRANCH   5   6
HETATM    6  N5  UNL     1       8.156  13.571   9.927  1.00  0.00    -0.369 N 
ATOM      7  H52 UNL     1       7.885  13.632   8.946  1.00  0.00     0.164 HD
ATOM      8  H51 UNL     1       9.103  13.319  10.210  1.00  0.00     0.164 HD
ENDBRANCH   5   6
ENDBRANCH   3   5
ENDBRANCH   1   3
BRANCH   1   9
HETATM    9  N2  UNL     1       8.265  12.121  13.285  1.00  0.00    -0.275 N 
HETATM   10  C3  UNL     1       9.083  11.407  12.620  1.00  0.00     0.215 C 
HETATM   11  N3  UNL     1      10.171  12.028  11.951  1.00  0.00    -0.065 NA
HETATM   12  N4  UNL     1       8.899  10.012  12.556  1.00  0.00    -0.065 NA
ATOM     13  H2  UNL     1       7.487  11.667  13.762  1.00  0.00     0.189 HD
ENDBRANCH   1   9
TORSDOF 4
ENDMDL
MODEL 3
REMARK VINA RESULT: -5.201701581      1.580      2.372
REMARK  4 active torsions:
REMARK  status: ('A' for Active; 'I' for Inactive)
REMARK    1  A    between atoms: C2_2  and  N1_3 
REMARK    2  A    between atoms: C2_2  and  S1_10 
REMARK    3  A    between atoms: N1_3  and  N2_5 
REMARK    4  A    between atoms: S1_10  and  N5_11 
ROOT
HETATM    1  N1  UNL     1       8.159  13.000  13.310  1.00  0.00    -0.295 N 
ATOM      2  H1  UNL     1       8.635  13.001  14.212  1.00  0.00     0.187 HD
ENDROOT
BRANCH   1   3
HETATM    3  C2  UNL     1       8.198  14.157  12.484  1.00  0.00     0.078 C 
HETATM    4  C1  UNL     1       9.169  14.151  11.364  1.00  0.00     0.079 C 
BRANCH   3   5
HETATM    5  S1  UNL     1       7.200  15.406  12.792  1.00  0.00    -0.007 SA
BRANCH   5   6
HETATM    6  N5  UNL     1       5.807  15.121  13.855  1.00  0.00    -0.369 N 
ATOM      7  H52 UNL     1       5.286  15.911  14.236  1.00  0.00     0.164 HD
ATOM      8  H51 UNL     1       5.553  14.156  14.065  1.00  0.00     0.164 HD
ENDBRANCH   5   6
ENDBRANCH   3   5
ENDBRANCH   1   3
BRANCH   1   9
HETATM    9  N2  UNL     1       7.472  11.863  12.888  1.00  0.00    -0.275 N 
HETATM   10  C3  UNL     1       8.051  10.739  12.744  1.00  0.00     0.215 C 
HETATM   11  N3  UNL     1       9.440  10.627  13.018  1.00  0.00    -0.065 NA
HETATM   12  N4  UNL     1       7.309   9.622  12.314  1.00  0.00    -0.065 NA
ATOM     13  H2  UNL     1       6.474  11.934  12.689  1.00  0.00     0.189 HD
ENDBRANCH   1   9
TORSDOF 4
ENDMDL
MODEL 4
REMARK VINA RESULT: -5.100591999      1.683      2.484
REMARK  4 active torsions:
REMARK  status: ('A' for Active; 'I' for Inactive)
REMARK    1  A    between atoms: C2_2  and  N1_3 
REMARK    2  A    between atoms: C2_2  and  S1_10 
REMARK    3  A    between atoms: N1_3  and  N2_5 
REMARK    4  A    between atoms: S1_10  and  N5_11 
ROOT
HETATM    1  N1  UNL     1       8.476  12.951  13.349  1.00  0.00    -0.295 N 
ATOM      2  H1  UNL     1       8.301  13.147  14.335  1.00  0.00     0.187 HD
ENDROOT
BRANCH   1   3
HETATM    3  C2  UNL     1       8.298  13.976  12.380  1.00  0.00     0.078 C 
HETATM    4  C1  UNL     1       9.349  14.112  11.344  1.00  0.00     0.079 C 
BRANCH   3   5
HETATM    5  S1  UNL     1       6.982  14.933  12.444  1.00  0.00    -0.007 SA
BRANCH   5   6
HETATM    6  N5  UNL     1       5.416  14.178  12.807  1.00  0.00    -0.369 N 
ATOM      7  H52 UNL     1       5.222  13.832  13.747  1.00  0.00     0.164 HD
ATOM      8  H51 UNL     1       4.732  14.105  12.054  1.00  0.00     0.164 HD
ENDBRANCH   5   6
ENDBRANCH   3   5
ENDBRANCH   1   3
BRANCH   1   9
HETATM    9  N2  UNL     1       8.888  11.680  12.955  1.00  0.00    -0.275 N 
HETATM   10  C3  UNL     1       8.100  10.863  12.379  1.00  0.00     0.215 C 
HETATM   11  N3  UNL     1       6.757  11.248  12.125  1.00  0.00    -0.065 NA
HETATM   12  N4  UNL     1       8.569   9.590  12.001  1.00  0.00    -0.065 NA
ATOM     13  H2  UNL     1       9.851  11.396  13.132  1.00  0.00     0.189 HD
ENDBRANCH   1   9
TORSDOF 4
ENDMDL
MODEL 5
REMARK VINA RESULT: -5.097344434      1.644      2.309
REMARK  4 active torsions:
REMARK  status: ('A' for Active; 'I' for Inactive)
REMARK    1  A    between atoms: C2_2  and  N1_3 
REMARK    2  A    between atoms: C2_2  and  S1_10 
REMARK    3  A    between atoms: N1_3  and  N2_5 
REMARK    4  A    between atoms: S1_10  and  N5_11 
ROOT
HETATM    1  N1  UNL     1       9.613  12.509  12.419  1.00  0.00    -0.295 N 
ATOM      2  H1  UNL     1      10.582  12.374  12.705  1.00  0.00     0.187 HD
ENDROOT
BRANCH   1   3
HETATM    3  C2  UNL     1       9.256  13.635  11.627  1.00  0.00     0.078 C 
HETATM    4  C1  UNL     1      10.238  14.080  10.610  1.00  0.00     0.079 C 
BRANCH   3   5
HETATM    5  S1  UNL     1       7.822  14.369  11.862  1.00  0.00    -0.007 SA
BRANCH   5   6
HETATM    6  N5  UNL     1       7.345  14.759  13.527  1.00  0.00    -0.369 N 
ATOM      7  H52 UNL     1       7.320  14.026  14.236  1.00  0.00     0.164 HD
ATOM      8  H51 UNL     1       7.103  15.726  13.743  1.00  0.00     0.164 HD
ENDBRANCH   5   6
ENDBRANCH   3   5
ENDBRANCH   1   3
BRANCH   1   9
HETATM    9  N2  UNL     1       8.639  11.589  12.803  1.00  0.00    -0.275 N 
HETATM   10  C3  UNL     1       8.346  10.578  12.088  1.00  0.00     0.215 C 
HETATM   11  N3  UNL     1       9.025  10.370  10.859  1.00  0.00    -0.065 NA
HETATM   12  N4  UNL     1       7.353   9.680  12.525  1.00  0.00    -0.065 NA
ATOM     13  H2  UNL     1       8.147  11.731  13.685  1.00  0.00     0.189 HD
ENDBRANCH   1   9
TORSDOF 4
ENDMDL
