MODEL 1
REMARK VINA RESULT: -6.133821321      0.000      0.000
REMARK  1 active torsions:
REMARK  status: ('A' for Active; 'I' for Inactive)
REMARK       I    between atoms: C2_3  and  N2_5 
REMARK    1  A    between atoms: N2_5  and  N3_7 
REMARK       I    between atoms: C3_9  and  N5_11 
ROOT
HETATM    1  N1  UNL     1       3.954  13.295   8.659  1.00  0.00    -0.186 NA
HETATM    2  C1  UNL     1       4.804  13.254   9.453  1.00  0.00     0.163 C 
HETATM    3  C2  UNL     1       5.838  13.192  10.451  1.00  0.00     0.340 C 
HETATM    4  O1  UNL     1       6.796  13.997  10.320  1.00  0.00    -0.254 OA
HETATM    5  N2  UNL     1       5.801  12.287  11.520  1.00  0.00    -0.255 N 
ATOM      6  H2  UNL     1       5.016  11.642  11.609  1.00  0.00     0.191 HD
ENDROOT
BRANCH   5   7
HETATM    7  N3  UNL     1       6.821  12.264  12.455  1.00  0.00    -0.269 N 
HETATM    8  C3  UNL     1       7.519  11.237  12.753  1.00  0.00     0.221 C 
HETATM    9  N4  UNL     1       7.270  10.006  12.107  1.00  0.00    -0.061 NA
HETATM   10  N5  UNL     1       8.533  11.316  13.718  1.00  0.00    -0.279 N 
HETATM   11  N6  UNL     1       9.518  10.538  13.637  1.00  0.00    -0.343 N 
ATOM     12  H5  UNL     1       8.473  11.996  14.477  1.00  0.00     0.189 HD
ATOM     13  H62 UNL     1       9.563   9.864  12.873  1.00  0.00     0.176 HD
ATOM     14  H61 UNL     1      10.255  10.595  14.339  1.00  0.00     0.176 HD
ATOM     15  H3  UNL     1       7.031  13.135  12.943  1.00  0.00     0.190 HD
ENDBRANCH   5   7
TORSDOF 1
ENDMDL
MODEL 2
REMARK VINA RESULT: -6.065753753      1.409      1.453
REMARK  1 active torsions:
REMARK  status: ('A' for Active; 'I' for Inactive)
REMARK       I    between atoms: C2_3  and  N2_5 
REMARK    1  A    between atoms: N2_5  and  N3_7 
REMARK       I    between atoms: C3_9  and  N5_11 
ROOT
HETATM    1  N1  UNL     1       4.754  12.191   7.190  1.00  0.00    -0.186 NA
HETATM    2  C1  UNL     1       5.208  12.409   8.239  1.00  0.00     0.163 C 
HETATM    3  C2  UNL     1       5.786  12.661   9.532  1.00  0.00     0.340 C 
HETATM    4  O1  UNL     1       5.062  13.264  10.365  1.00  0.00    -0.254 OA
HETATM    5  N2  UNL     1       7.088  12.264   9.865  1.00  0.00    -0.255 N 
ATOM      6  H2  UNL     1       7.661  11.777   9.176  1.00  0.00     0.191 HD
ENDROOT
BRANCH   5   7
HETATM    7  N3  UNL     1       7.601  12.530  11.122  1.00  0.00    -0.269 N 
HETATM    8  C3  UNL     1       7.596  11.713  12.104  1.00  0.00     0.221 C 
HETATM    9  N4  UNL     1       7.034  10.427  11.945  1.00  0.00    -0.061 NA
HETATM   10  N5  UNL     1       8.142  12.077  13.343  1.00  0.00    -0.279 N 
HETATM   11  N6  UNL     1       8.613  11.184  14.092  1.00  0.00    -0.343 N 
ATOM     12  H5  UNL     1       8.156  13.055  13.634  1.00  0.00     0.189 HD
ATOM     13  H62 UNL     1       8.592  10.210  13.787  1.00  0.00     0.176 HD
ATOM     14  H61 UNL     1       9.010  11.449  14.993  1.00  0.00     0.176 HD
ATOM     15  H3  UNL     1       8.016  13.449  11.277  1.00  0.00     0.190 HD
ENDBRANCH   5   7
TORSDOF 1
ENDMDL
MODEL 3
REMARK VINA RESULT: -5.921887179      1.365      1.365
REMARK  1 active torsions:
REMARK  status: ('A' for Active; 'I' for Inactive)
REMARK       I    between atoms: C2_3  and  N2_5 
REMARK    1  A    between atoms: N2_5  and  N3_7 
REMARK       I    between atoms: C3_9  and  N5_11 
ROOT
HETATM    1  N1  UNL     1       3.600  13.726   8.700  1.00  0.00    -0.186 NA
HETATM    2  C1  UNL     1       4.087  13.341   9.685  1.00  0.00     0.163 C 
HETATM    3  C2  UNL     1       4.707  12.854  10.888  1.00  0.00     0.340 C 
HETATM    4  O1  UNL     1       3.977  12.788  11.910  1.00  0.00    -0.254 OA
HETATM    5  N2  UNL     1       6.053  12.469  10.939  1.00  0.00    -0.255 N 
ATOM      6  H2  UNL     1       6.630  12.530  10.100  1.00  0.00     0.191 HD
ENDROOT
BRANCH   5   7
HETATM    7  N3  UNL     1       6.606  12.007  12.121  1.00  0.00    -0.269 N 
HETATM    8  C3  UNL     1       7.613  11.227  12.204  1.00  0.00     0.221 C 
HETATM    9  N4  UNL     1       8.248  10.772  11.028  1.00  0.00    -0.061 NA
HETATM   10  N5  UNL     1       8.099  10.814  13.453  1.00  0.00    -0.279 N 
HETATM   11  N6  UNL     1       9.317  10.526  13.572  1.00  0.00    -0.343 N 
ATOM     12  H5  UNL     1       7.472  10.748  14.255  1.00  0.00     0.189 HD
ATOM     13  H62 UNL     1       9.932  10.597  12.760  1.00  0.00     0.176 HD
ATOM     14  H61 UNL     1       9.671  10.225  14.480  1.00  0.00     0.176 HD
ATOM     15  H3  UNL     1       6.175  12.314  12.994  1.00  0.00     0.190 HD
ENDBRANCH   5   7
TORSDOF 1
ENDMDL
MODEL 4
REMARK VINA RESULT: -5.917879927      1.692      1.972
REMARK  1 active torsions:
REMARK  status: ('A' for Active; 'I' for Inactive)
REMARK       I    between atoms: C2_3  and  N2_5 
REMARK    1  A    between atoms: N2_5  and  N3_7 
REMARK       I    between atoms: C3_9  and  N5_11 
ROOT
HETATM    1  N1  UNL     1       4.419  12.166   6.443  1.00  0.00    -0.186 NA
HETATM    2  C1  UNL     1       4.928  12.625   7.384  1.00  0.00     0.163 C 
HETATM    3  C2  UNL     1       5.553  13.171   8.559  1.00  0.00     0.340 C 
HETATM    4  O1  UNL     1       5.587  14.425   8.648  1.00  0.00    -0.254 OA
HETATM    5  N2  UNL     1       6.103  12.364   9.563  1.00  0.00    -0.255 N 
ATOM      6  H2  UNL     1       6.067  11.348   9.474  1.00  0.00     0.191 HD
ENDROOT
BRANCH   5   7
HETATM    7  N3  UNL     1       6.695  12.935  10.676  1.00  0.00    -0.269 N 
HETATM    8  C3  UNL     1       7.080  12.296  11.712  1.00  0.00     0.221 C 
HETATM    9  N4  UNL     1       6.911  10.895  11.776  1.00  0.00    -0.061 NA
HETATM   10  N5  UNL     1       7.671  12.968  12.791  1.00  0.00    -0.279 N 
HETATM   11  N6  UNL     1       8.494  12.356  13.519  1.00  0.00    -0.343 N 
ATOM     12  H5  UNL     1       7.436  13.942  12.985  1.00  0.00     0.189 HD
ATOM     13  H62 UNL     1       8.719  11.382  13.312  1.00  0.00     0.176 HD
ATOM     14  H61 UNL     1       8.923  12.845  14.304  1.00  0.00     0.176 HD
ATOM     15  H3  UNL     1       6.835  13.946  10.668  1.00  0.00     0.190 HD
ENDBRANCH   5   7
TORSDOF 1
ENDMDL
MODEL 5
REMARK VINA RESULT: -5.916770852      1.462      1.495
REMARK  1 active torsions:
REMARK  status: ('A' for Active; 'I' for Inactive)
REMARK       I    between atoms: C2_3  and  N2_5 
REMARK    1  A    between atoms: N2_5  and  N3_7 
REMARK       I    between atoms: C3_9  and  N5_11 
ROOT
HETATM    1  N1  UNL     1       5.323  14.267   7.433  1.00  0.00    -0.186 NA
HETATM    2  C1  UNL     1       5.788  14.162   8.495  1.00  0.00     0.163 C 
HETATM    3  C2  UNL     1       6.370  14.009   9.801  1.00  0.00     0.340 C 
HETATM    4  O1  UNL     1       5.903  14.737  10.714  1.00  0.00    -0.254 OA
HETATM    5  N2  UNL     1       7.407  13.103  10.062  1.00  0.00    -0.255 N 
ATOM      6  H2  UNL     1       7.773  12.522   9.308  1.00  0.00     0.191 HD
ENDROOT
BRANCH   5   7
HETATM    7  N3  UNL     1       7.936  12.992  11.336  1.00  0.00    -0.269 N 
HETATM    8  C3  UNL     1       7.719  12.023  12.139  1.00  0.00     0.221 C 
HETATM    9  N4  UNL     1       6.881  10.957  11.743  1.00  0.00    -0.061 NA
HETATM   10  N5  UNL     1       8.304  12.003  13.413  1.00  0.00    -0.279 N 
HETATM   11  N6  UNL     1       8.539  10.897  13.962  1.00  0.00    -0.343 N 
ATOM     12  H5  UNL     1       8.535  12.876  13.889  1.00  0.00     0.189 HD
ATOM     13  H62 UNL     1       8.302  10.033  13.473  1.00  0.00     0.176 HD
ATOM     14  H61 UNL     1       8.964  10.882  14.889  1.00  0.00     0.176 HD
ATOM     15  H3  UNL     1       8.547  13.743  11.659  1.00  0.00     0.190 HD
ENDBRANCH   5   7
TORSDOF 1
ENDMDL
