MODEL 1
REMARK VINA RESULT: -7.825805898      0.000      0.000
REMARK  8 active torsions:
REMARK  status: ('A' for Active; 'I' for Inactive)
REMARK    1  A    between atoms: C2_2  and  C3_3 
REMARK    2  A    between atoms: C3_3  and  O1_4 
REMARK    3  A    between atoms: O1_4  and  C4_5 
REMARK    4  A    between atoms: C4_5  and  O2_6 
REMARK    5  A    between atoms: C4_5  and  C5_8 
REMARK    6  A    between atoms: C5_8  and  C6_9 
REMARK    7  A    between atoms: N1_14  and  C11_15 
REMARK    8  A    between atoms: C15_20  and  C16_21 
ROOT
HETATM    1  C6  UNL     1      17.175   5.093  12.791  1.00  0.00     0.230 C 
HETATM    2  C7  UNL     1      16.930   3.716  13.402  1.00  0.00     0.074 C 
HETATM    3  C8  UNL     1      16.488   3.992  14.824  1.00  0.00     0.068 C 
HETATM    4  C9  UNL     1      17.634   4.615  15.534  1.00  0.00     0.069 C 
HETATM    5  C10 UNL     1      18.000   5.904  14.833  1.00  0.00     0.276 C 
HETATM    6  N1  UNL     1      18.304   5.713  13.424  1.00  0.00     0.093 N 
HETATM    7  O3  UNL     1      15.366   4.814  14.754  1.00  0.00    -0.380 OA
HETATM    8  C13 UNL     1      14.828   5.094  15.993  1.00  0.00     0.169 C 
HETATM    9  C14 UNL     1      14.448   3.895  16.795  1.00  0.00     0.042 C 
HETATM   10  C15 UNL     1      15.601   2.897  16.834  1.00  0.00     0.095 C 
HETATM   11  C17 UNL     1      16.036   2.683  15.411  1.00  0.00     0.030 C 
HETATM   12  C18 UNL     1      17.018   1.574  15.237  1.00  0.00     0.014 C 
ENDROOT
BRANCH   1  13
HETATM   13  C5  UNL     1      17.250   4.922  11.325  1.00  0.00     0.096 C 
BRANCH  13  14
HETATM   14  C4  UNL     1      17.740   3.608  10.819  1.00  0.00     0.259 C 
BRANCH  14  15
HETATM   15  O1  UNL     1      16.689   2.927  10.171  1.00  0.00    -0.358 OA
BRANCH  15  16
HETATM   16  C3  UNL     1      16.248   1.843  10.906  1.00  0.00     0.197 C 
BRANCH  16  17
HETATM   17  C2  UNL     1      17.267   0.766  10.939  1.00  0.00    -0.011 C 
HETATM   18  C1  UNL     1      17.252  -0.185  11.859  1.00  0.00     0.009 C 
ENDBRANCH  16  17
ENDBRANCH  15  16
ENDBRANCH  14  15
BRANCH  14  19
HETATM   19  O2  UNL     1      18.881   3.625  10.070  1.00  0.00    -0.371 OA
ATOM     20  H2  UNL     1      19.112   2.761   9.750  1.00  0.00     0.212 HD
ENDBRANCH  14  19
ENDBRANCH  13  14
ENDBRANCH   1  13
BRANCH  10  21
HETATM   21  C16 UNL     1      15.180   1.626  17.474  1.00  0.00     0.177 C 
HETATM   22  O4  UNL     1      15.876   1.069  18.363  1.00  0.00    -0.648 OA
HETATM   23  O5  UNL     1      13.988   0.985  17.118  1.00  0.00    -0.648 OA
ENDBRANCH  10  21
BRANCH   6  24
HETATM   24  C11 UNL     1      19.549   5.031  13.310  1.00  0.00     0.268 C 
HETATM   25  C12 UNL     1      20.537   6.025  12.668  1.00  0.00     0.037 C 
ENDBRANCH   6  24
TORSDOF 8
ENDMDL
MODEL 2
REMARK VINA RESULT: -7.649010427      2.037      3.142
REMARK  8 active torsions:
REMARK  status: ('A' for Active; 'I' for Inactive)
REMARK    1  A    between atoms: C2_2  and  C3_3 
REMARK    2  A    between atoms: C3_3  and  O1_4 
REMARK    3  A    between atoms: O1_4  and  C4_5 
REMARK    4  A    between atoms: C4_5  and  O2_6 
REMARK    5  A    between atoms: C4_5  and  C5_8 
REMARK    6  A    between atoms: C5_8  and  C6_9 
REMARK    7  A    between atoms: N1_14  and  C11_15 
REMARK    8  A    between atoms: C15_20  and  C16_21 
ROOT
HETATM    1  C6  UNL     1      17.104   5.212  12.582  1.00  0.00     0.230 C 
HETATM    2  C7  UNL     1      16.832   3.819  13.142  1.00  0.00     0.074 C 
HETATM    3  C8  UNL     1      16.491   4.043  14.601  1.00  0.00     0.068 C 
HETATM    4  C9  UNL     1      17.708   4.578  15.265  1.00  0.00     0.069 C 
HETATM    5  C10 UNL     1      18.091   5.882  14.604  1.00  0.00     0.276 C 
HETATM    6  N1  UNL     1      18.299   5.748  13.170  1.00  0.00     0.093 N 
HETATM    7  O3  UNL     1      15.408   4.917  14.641  1.00  0.00    -0.380 OA
HETATM    8  C13 UNL     1      14.962   5.159  15.924  1.00  0.00     0.169 C 
HETATM    9  C14 UNL     1      14.575   3.939  16.692  1.00  0.00     0.042 C 
HETATM   10  C15 UNL     1      15.678   2.889  16.610  1.00  0.00     0.095 C 
HETATM   11  C17 UNL     1      16.014   2.728  15.154  1.00  0.00     0.030 C 
HETATM   12  C18 UNL     1      16.930   1.586  14.865  1.00  0.00     0.014 C 
ENDROOT
BRANCH   1  13
HETATM   13  C5  UNL     1      17.080   5.111  11.108  1.00  0.00     0.096 C 
BRANCH  13  14
HETATM   14  C4  UNL     1      16.692   6.335  10.351  1.00  0.00     0.259 C 
BRANCH  14  15
HETATM   15  O1  UNL     1      15.318   6.594  10.538  1.00  0.00    -0.358 OA
BRANCH  15  16
HETATM   16  C3  UNL     1      14.884   7.653   9.764  1.00  0.00     0.197 C 
BRANCH  16  17
HETATM   17  C2  UNL     1      14.058   8.594  10.558  1.00  0.00    -0.011 C 
HETATM   18  C1  UNL     1      13.896   8.456  11.864  1.00  0.00     0.009 C 
ENDBRANCH  16  17
ENDBRANCH  15  16
ENDBRANCH  14  15
BRANCH  14  19
HETATM   19  O2  UNL     1      17.456   7.449  10.549  1.00  0.00    -0.371 OA
ATOM     20  H2  UNL     1      17.919   7.710   9.762  1.00  0.00     0.212 HD
ENDBRANCH  14  19
ENDBRANCH  13  14
ENDBRANCH   1  13
BRANCH  10  21
HETATM   21  C16 UNL     1      15.238   1.608  17.215  1.00  0.00     0.177 C 
HETATM   22  O4  UNL     1      15.959   0.978  18.031  1.00  0.00    -0.648 OA
HETATM   23  O5  UNL     1      13.997   1.040  16.905  1.00  0.00    -0.648 OA
ENDBRANCH  10  21
BRANCH   6  24
HETATM   24  C11 UNL     1      19.500   5.017  12.945  1.00  0.00     0.268 C 
HETATM   25  C12 UNL     1      20.537   6.030  12.420  1.00  0.00     0.037 C 
ENDBRANCH   6  24
TORSDOF 8
ENDMDL
MODEL 3
REMARK VINA RESULT: -7.305579963      1.575      2.418
REMARK  8 active torsions:
REMARK  status: ('A' for Active; 'I' for Inactive)
REMARK    1  A    between atoms: C2_2  and  C3_3 
REMARK    2  A    between atoms: C3_3  and  O1_4 
REMARK    3  A    between atoms: O1_4  and  C4_5 
REMARK    4  A    between atoms: C4_5  and  O2_6 
REMARK    5  A    between atoms: C4_5  and  C5_8 
REMARK    6  A    between atoms: C5_8  and  C6_9 
REMARK    7  A    between atoms: N1_14  and  C11_15 
REMARK    8  A    between atoms: C15_20  and  C16_21 
ROOT
HETATM    1  C6  UNL     1      17.125   4.842  12.546  1.00  0.00     0.230 C 
HETATM    2  C7  UNL     1      16.846   3.497  13.210  1.00  0.00     0.074 C 
HETATM    3  C8  UNL     1      16.480   3.834  14.641  1.00  0.00     0.068 C 
HETATM    4  C9  UNL     1      17.684   4.424  15.281  1.00  0.00     0.069 C 
HETATM    5  C10 UNL     1      18.075   5.673  14.525  1.00  0.00     0.276 C 
HETATM    6  N1  UNL     1      18.308   5.427  13.110  1.00  0.00     0.093 N 
HETATM    7  O3  UNL     1      15.395   4.704  14.594  1.00  0.00    -0.380 OA
HETATM    8  C13 UNL     1      14.926   5.046  15.846  1.00  0.00     0.169 C 
HETATM    9  C14 UNL     1      14.529   3.889  16.701  1.00  0.00     0.042 C 
HETATM   10  C15 UNL     1      15.636   2.840  16.721  1.00  0.00     0.095 C 
HETATM   11  C17 UNL     1      15.997   2.565  15.288  1.00  0.00     0.030 C 
HETATM   12  C18 UNL     1      16.920   1.407  15.106  1.00  0.00     0.014 C 
ENDROOT
BRANCH   1  13
HETATM   13  C5  UNL     1      17.126   4.625  11.085  1.00  0.00     0.096 C 
BRANCH  13  14
HETATM   14  C4  UNL     1      16.976   5.830  10.220  1.00  0.00     0.259 C 
BRANCH  14  15
HETATM   15  O1  UNL     1      17.534   5.575   8.950  1.00  0.00    -0.358 OA
BRANCH  15  16
HETATM   16  C3  UNL     1      18.693   6.297   8.743  1.00  0.00     0.197 C 
BRANCH  16  17
HETATM   17  C2  UNL     1      19.770   5.438   8.193  1.00  0.00    -0.011 C 
HETATM   18  C1  UNL     1      20.340   4.483   8.910  1.00  0.00     0.009 C 
ENDBRANCH  16  17
ENDBRANCH  15  16
ENDBRANCH  14  15
BRANCH  14  19
HETATM   19  O2  UNL     1      15.727   6.373  10.133  1.00  0.00    -0.371 OA
ATOM     20  H2  UNL     1      15.650   7.176  10.634  1.00  0.00     0.212 HD
ENDBRANCH  14  19
ENDBRANCH  13  14
ENDBRANCH   1  13
BRANCH  10  21
HETATM   21  C16 UNL     1      15.188   1.609  17.418  1.00  0.00     0.177 C 
HETATM   22  O4  UNL     1      15.894   1.051  18.298  1.00  0.00    -0.648 OA
HETATM   23  O5  UNL     1      13.957   1.009  17.128  1.00  0.00    -0.648 OA
ENDBRANCH  10  21
BRANCH   6  24
HETATM   24  C11 UNL     1      19.514   4.685  12.964  1.00  0.00     0.268 C 
HETATM   25  C12 UNL     1      20.558   5.657  12.378  1.00  0.00     0.037 C 
ENDBRANCH   6  24
TORSDOF 8
ENDMDL
MODEL 4
REMARK VINA RESULT: -6.929414609      2.135      6.652
REMARK  8 active torsions:
REMARK  status: ('A' for Active; 'I' for Inactive)
REMARK    1  A    between atoms: C2_2  and  C3_3 
REMARK    2  A    between atoms: C3_3  and  O1_4 
REMARK    3  A    between atoms: O1_4  and  C4_5 
REMARK    4  A    between atoms: C4_5  and  O2_6 
REMARK    5  A    between atoms: C4_5  and  C5_8 
REMARK    6  A    between atoms: C5_8  and  C6_9 
REMARK    7  A    between atoms: N1_14  and  C11_15 
REMARK    8  A    between atoms: C15_20  and  C16_21 
ROOT
HETATM    1  C6  UNL     1      17.357   3.706  14.168  1.00  0.00     0.230 C 
HETATM    2  C7  UNL     1      17.267   3.877  12.654  1.00  0.00     0.074 C 
HETATM    3  C8  UNL     1      18.370   4.855  12.305  1.00  0.00     0.068 C 
HETATM    4  C9  UNL     1      18.030   6.155  12.938  1.00  0.00     0.069 C 
HETATM    5  C10 UNL     1      17.947   5.961  14.434  1.00  0.00     0.276 C 
HETATM    6  N1  UNL     1      16.994   4.932  14.819  1.00  0.00     0.093 N 
HETATM    7  O3  UNL     1      19.565   4.309  12.766  1.00  0.00    -0.380 OA
HETATM    8  C13 UNL     1      20.663   5.085  12.457  1.00  0.00     0.169 C 
HETATM    9  C14 UNL     1      20.839   5.367  11.002  1.00  0.00     0.042 C 
HETATM   10  C15 UNL     1      19.534   5.877  10.400  1.00  0.00     0.095 C 
HETATM   11  C17 UNL     1      18.462   4.904  10.804  1.00  0.00     0.030 C 
HETATM   12  C18 UNL     1      17.151   5.130  10.128  1.00  0.00     0.014 C 
ENDROOT
BRANCH   1  13
HETATM   13  C5  UNL     1      16.570   2.508  14.527  1.00  0.00     0.096 C 
BRANCH  13  14
HETATM   14  C4  UNL     1      16.639   2.050  15.944  1.00  0.00     0.259 C 
BRANCH  14  15
HETATM   15  O1  UNL     1      15.683   1.037  16.163  1.00  0.00    -0.358 OA
BRANCH  15  16
HETATM   16  C3  UNL     1      15.223   1.038  17.466  1.00  0.00     0.197 C 
BRANCH  16  17
HETATM   17  C2  UNL     1      14.666   2.360  17.839  1.00  0.00    -0.011 C 
HETATM   18  C1  UNL     1      14.900   2.913  19.019  1.00  0.00     0.009 C 
ENDBRANCH  16  17
ENDBRANCH  15  16
ENDBRANCH  14  15
BRANCH  14  19
HETATM   19  O2  UNL     1      17.872   1.705  16.419  1.00  0.00    -0.371 OA
ATOM     20  H2  UNL     1      18.215   2.350  17.026  1.00  0.00     0.212 HD
ENDBRANCH  14  19
ENDBRANCH  13  14
ENDBRANCH   1  13
BRANCH  10  21
HETATM   21  C16 UNL     1      19.640   5.993   8.925  1.00  0.00     0.177 C 
HETATM   22  O4  UNL     1      19.521   7.099   8.336  1.00  0.00    -0.648 OA
HETATM   23  O5  UNL     1      19.877   4.875   8.117  1.00  0.00    -0.648 OA
ENDBRANCH  10  21
BRANCH   6  24
HETATM   24  C11 UNL     1      15.676   5.412  14.578  1.00  0.00     0.268 C 
HETATM   25  C12 UNL     1      15.002   5.552  15.958  1.00  0.00     0.037 C 
ENDBRANCH   6  24
TORSDOF 8
ENDMDL
MODEL 5
REMARK VINA RESULT: -6.921353361      2.293      3.406
REMARK  8 active torsions:
REMARK  status: ('A' for Active; 'I' for Inactive)
REMARK    1  A    between atoms: C2_2  and  C3_3 
REMARK    2  A    between atoms: C3_3  and  O1_4 
REMARK    3  A    between atoms: O1_4  and  C4_5 
REMARK    4  A    between atoms: C4_5  and  O2_6 
REMARK    5  A    between atoms: C4_5  and  C5_8 
REMARK    6  A    between atoms: C5_8  and  C6_9 
REMARK    7  A    between atoms: N1_14  and  C11_15 
REMARK    8  A    between atoms: C15_20  and  C16_21 
ROOT
HETATM    1  C6  UNL     1      16.829   5.997  12.855  1.00  0.00     0.230 C 
HETATM    2  C7  UNL     1      16.600   4.523  13.180  1.00  0.00     0.074 C 
HETATM    3  C8  UNL     1      16.345   4.487  14.673  1.00  0.00     0.068 C 
HETATM    4  C9  UNL     1      17.595   4.920  15.349  1.00  0.00     0.069 C 
HETATM    5  C10 UNL     1      17.929   6.325  14.902  1.00  0.00     0.276 C 
HETATM    6  N1  UNL     1      18.052   6.444  13.458  1.00  0.00     0.093 N 
HETATM    7  O3  UNL     1      15.260   5.321  14.926  1.00  0.00    -0.380 OA
HETATM    8  C13 UNL     1      14.889   5.331  16.254  1.00  0.00     0.169 C 
HETATM    9  C14 UNL     1      14.557   3.990  16.820  1.00  0.00     0.042 C 
HETATM   10  C15 UNL     1      15.661   2.990  16.495  1.00  0.00     0.095 C 
HETATM   11  C17 UNL     1      15.911   3.088  15.016  1.00  0.00     0.030 C 
HETATM   12  C18 UNL     1      16.816   2.029  14.482  1.00  0.00     0.014 C 
ENDROOT
BRANCH   1  13
HETATM   13  C5  UNL     1      16.718   6.151  11.390  1.00  0.00     0.096 C 
BRANCH  13  14
HETATM   14  C4  UNL     1      15.769   7.185  10.886  1.00  0.00     0.259 C 
BRANCH  14  15
HETATM   15  O1  UNL     1      15.086   6.692   9.755  1.00  0.00    -0.358 OA
BRANCH  15  16
HETATM   16  C3  UNL     1      14.248   7.643   9.206  1.00  0.00     0.197 C 
BRANCH  16  17
HETATM   17  C2  UNL     1      14.590   7.906   7.788  1.00  0.00    -0.011 C 
HETATM   18  C1  UNL     1      15.653   7.367   7.210  1.00  0.00     0.009 C 
ENDBRANCH  16  17
ENDBRANCH  15  16
ENDBRANCH  14  15
BRANCH  14  19
HETATM   19  O2  UNL     1      14.918   7.736  11.801  1.00  0.00    -0.371 OA
ATOM     20  H2  UNL     1      15.375   8.275  12.436  1.00  0.00     0.212 HD
ENDBRANCH  14  19
ENDBRANCH  13  14
ENDBRANCH   1  13
BRANCH  10  21
HETATM   21  C16 UNL     1      15.266   1.616  16.893  1.00  0.00     0.177 C 
HETATM   22  O4  UNL     1      14.140   1.138  16.598  1.00  0.00    -0.648 OA
HETATM   23  O5  UNL     1      16.130   0.786  17.617  1.00  0.00    -0.648 OA
ENDBRANCH  10  21
BRANCH   6  24
HETATM   24  C11 UNL     1      19.243   5.784  13.042  1.00  0.00     0.268 C 
HETATM   25  C12 UNL     1      20.336   6.867  12.951  1.00  0.00     0.037 C 
ENDBRANCH   6  24
TORSDOF 8
ENDMDL
