MODEL 1
REMARK VINA RESULT: -6.847896649      0.000      0.000
REMARK  6 active torsions:
REMARK  status: ('A' for Active; 'I' for Inactive)
REMARK    1  A    between atoms: C3_3  and  N1_4 
REMARK       I    between atoms: N1_4  and  C4_5 
REMARK    2  A    between atoms: C4_5  and  C5_7 
REMARK    3  A    between atoms: C5_7  and  N2_8 
REMARK    4  A    between atoms: C5_7  and  C12_17 
REMARK    5  A    between atoms: C6_10  and  C7_11 
REMARK    6  A    between atoms: C7_11  and  N3_12 
ROOT
HETATM    1  C1  UNL     1      -1.781   4.537  81.027  1.00  0.00     0.019 C 
HETATM    2  C2  UNL     1      -1.225   3.765  81.769  1.00  0.00    -0.058 C 
HETATM    3  C3  UNL     1      -0.552   2.791  82.681  1.00  0.00     0.249 C 
ENDROOT
BRANCH   3   4
HETATM    4  N1  UNL     1      -0.913   2.941  83.993  1.00  0.00    -0.373 NA
HETATM    5  C4  UNL     1      -1.279   3.091  85.319  1.00  0.00     0.315 C 
HETATM    6  O1  UNL     1      -1.705   2.106  85.978  1.00  0.00    -0.255 OA
BRANCH   5   7
HETATM    7  C5  UNL     1      -1.202   4.418  86.024  1.00  0.00     0.192 C 
BRANCH   7   8
HETATM    8  N2  UNL     1      -0.216   5.313  85.689  1.00  0.00    -0.386 N 
HETATM    9  C6  UNL     1      -0.162   6.529  85.112  1.00  0.00     0.086 C 
ATOM     10  H2  UNL     1       0.711   4.970  85.942  1.00  0.00     0.159 HD
BRANCH   9  11
HETATM   11  C7  UNL     1      -0.520   6.768  83.684  1.00  0.00     0.316 C 
BRANCH  11  12
HETATM   12  N3  UNL     1       0.334   7.808  83.090  1.00  0.00     0.093 N 
HETATM   13  C8  UNL     1       1.729   7.518  83.138  1.00  0.00     0.273 C 
HETATM   14  C9  UNL     1       1.884   6.476  82.023  1.00  0.00     0.032 C 
HETATM   15  C10 UNL     1       0.953   6.972  80.969  1.00  0.00     0.032 C 
HETATM   16  C11 UNL     1       0.021   7.910  81.682  1.00  0.00     0.273 C 
ENDBRANCH  11  12
ENDBRANCH   9  11
ENDBRANCH   7   8
BRANCH   7  17
HETATM   17  C12 UNL     1      -2.579   5.100  86.049  1.00  0.00     0.019 A 
HETATM   18  C13 UNL     1      -3.067   5.509  87.412  1.00  0.00     0.007 A 
HETATM   19  C14 UNL     1      -3.775   4.478  86.603  1.00  0.00     0.007 A 
ENDBRANCH   7  17
ENDBRANCH   5   7
ENDBRANCH   3   4
TORSDOF 6
ENDMDL
MODEL 2
REMARK VINA RESULT: -6.814264843      0.778      1.457
REMARK  6 active torsions:
REMARK  status: ('A' for Active; 'I' for Inactive)
REMARK    1  A    between atoms: C3_3  and  N1_4 
REMARK       I    between atoms: N1_4  and  C4_5 
REMARK    2  A    between atoms: C4_5  and  C5_7 
REMARK    3  A    between atoms: C5_7  and  N2_8 
REMARK    4  A    between atoms: C5_7  and  C12_17 
REMARK    5  A    between atoms: C6_10  and  C7_11 
REMARK    6  A    between atoms: C7_11  and  N3_12 
ROOT
HETATM    1  C1  UNL     1      -1.783   4.644  81.055  1.00  0.00     0.019 C 
HETATM    2  C2  UNL     1      -1.235   3.847  81.776  1.00  0.00    -0.058 C 
HETATM    3  C3  UNL     1      -0.571   2.843  82.660  1.00  0.00     0.249 C 
ENDROOT
BRANCH   3   4
HETATM    4  N1  UNL     1      -0.919   2.969  83.978  1.00  0.00    -0.373 NA
HETATM    5  C4  UNL     1      -1.271   3.096  85.310  1.00  0.00     0.315 C 
HETATM    6  O1  UNL     1      -1.703   2.103  85.953  1.00  0.00    -0.255 OA
BRANCH   5   7
HETATM    7  C5  UNL     1      -1.174   4.408  86.042  1.00  0.00     0.192 C 
BRANCH   7   8
HETATM    8  N2  UNL     1      -0.253   5.345  85.642  1.00  0.00    -0.386 N 
HETATM    9  C6  UNL     1      -0.292   6.596  85.145  1.00  0.00     0.086 C 
ATOM     10  H2  UNL     1       0.704   5.008  85.751  1.00  0.00     0.159 HD
BRANCH   9  11
HETATM   11  C7  UNL     1      -0.836   6.916  83.793  1.00  0.00     0.316 C 
BRANCH  11  12
HETATM   12  N3  UNL     1       0.238   7.311  82.869  1.00  0.00     0.093 N 
HETATM   13  C8  UNL     1      -0.215   7.998  81.704  1.00  0.00     0.273 C 
HETATM   14  C9  UNL     1      -0.529   9.396  82.251  1.00  0.00     0.032 C 
HETATM   15  C10 UNL     1       0.564   9.621  83.241  1.00  0.00     0.032 C 
HETATM   16  C11 UNL     1       1.102   8.252  83.546  1.00  0.00     0.273 C 
ENDBRANCH  11  12
ENDBRANCH   9  11
ENDBRANCH   7   8
BRANCH   7  17
HETATM   17  C12 UNL     1      -2.564   5.040  86.211  1.00  0.00     0.019 A 
HETATM   18  C13 UNL     1      -2.997   5.264  87.635  1.00  0.00     0.007 A 
HETATM   19  C14 UNL     1      -3.717   4.319  86.736  1.00  0.00     0.007 A 
ENDBRANCH   7  17
ENDBRANCH   5   7
ENDBRANCH   3   4
TORSDOF 6
ENDMDL
MODEL 3
REMARK VINA RESULT: -6.788088359      1.467      1.911
REMARK  6 active torsions:
REMARK  status: ('A' for Active; 'I' for Inactive)
REMARK    1  A    between atoms: C3_3  and  N1_4 
REMARK       I    between atoms: N1_4  and  C4_5 
REMARK    2  A    between atoms: C4_5  and  C5_7 
REMARK    3  A    between atoms: C5_7  and  N2_8 
REMARK    4  A    between atoms: C5_7  and  C12_17 
REMARK    5  A    between atoms: C6_10  and  C7_11 
REMARK    6  A    between atoms: C7_11  and  N3_12 
ROOT
HETATM    1  C1  UNL     1      -1.417   4.534  81.009  1.00  0.00     0.019 C 
HETATM    2  C2  UNL     1      -1.169   3.819  81.949  1.00  0.00    -0.058 C 
HETATM    3  C3  UNL     1      -0.885   2.924  83.110  1.00  0.00     0.249 C 
ENDROOT
BRANCH   3   4
HETATM    4  N1  UNL     1      -0.889   3.580  84.312  1.00  0.00    -0.373 NA
HETATM    5  C4  UNL     1      -0.892   4.243  85.526  1.00  0.00     0.315 C 
HETATM    6  O1  UNL     1       0.090   4.146  86.308  1.00  0.00    -0.255 OA
BRANCH   5   7
HETATM    7  C5  UNL     1      -2.056   5.086  85.974  1.00  0.00     0.192 C 
BRANCH   7   8
HETATM    8  N2  UNL     1      -2.671   5.929  85.082  1.00  0.00    -0.386 N 
HETATM    9  C6  UNL     1      -2.283   6.702  84.049  1.00  0.00     0.086 C 
ATOM     10  H2  UNL     1      -3.677   5.984  85.242  1.00  0.00     0.159 HD
BRANCH   9  11
HETATM   11  C7  UNL     1      -1.421   7.908  84.215  1.00  0.00     0.316 C 
BRANCH  11  12
HETATM   12  N3  UNL     1      -0.423   7.999  83.138  1.00  0.00     0.093 N 
HETATM   13  C8  UNL     1       0.323   9.214  83.132  1.00  0.00     0.273 C 
HETATM   14  C9  UNL     1       1.303   9.002  84.293  1.00  0.00     0.032 C 
HETATM   15  C10 UNL     1       1.653   7.557  84.173  1.00  0.00     0.032 C 
HETATM   16  C11 UNL     1       0.560   6.958  83.335  1.00  0.00     0.273 C 
ENDBRANCH  11  12
ENDBRANCH   9  11
ENDBRANCH   7   8
BRANCH   7  17
HETATM   17  C12 UNL     1      -3.089   4.231  86.725  1.00  0.00     0.019 A 
HETATM   18  C13 UNL     1      -3.064   4.365  88.223  1.00  0.00     0.007 A 
HETATM   19  C14 UNL     1      -2.736   3.080  87.545  1.00  0.00     0.007 A 
ENDBRANCH   7  17
ENDBRANCH   5   7
ENDBRANCH   3   4
TORSDOF 6
ENDMDL
MODEL 4
REMARK VINA RESULT: -6.617717582      1.311      1.507
REMARK  6 active torsions:
REMARK  status: ('A' for Active; 'I' for Inactive)
REMARK    1  A    between atoms: C3_3  and  N1_4 
REMARK       I    between atoms: N1_4  and  C4_5 
REMARK    2  A    between atoms: C4_5  and  C5_7 
REMARK    3  A    between atoms: C5_7  and  N2_8 
REMARK    4  A    between atoms: C5_7  and  C12_17 
REMARK    5  A    between atoms: C6_10  and  C7_11 
REMARK    6  A    between atoms: C7_11  and  N3_12 
ROOT
HETATM    1  C1  UNL     1      -1.493   4.735  81.046  1.00  0.00     0.019 C 
HETATM    2  C2  UNL     1      -1.255   3.892  81.875  1.00  0.00    -0.058 C 
HETATM    3  C3  UNL     1      -0.983   2.839  82.900  1.00  0.00     0.249 C 
ENDROOT
BRANCH   3   4
HETATM    4  N1  UNL     1      -0.950   3.326  84.179  1.00  0.00    -0.373 NA
HETATM    5  C4  UNL     1      -0.917   3.817  85.472  1.00  0.00     0.315 C 
HETATM    6  O1  UNL     1      -0.179   3.280  86.339  1.00  0.00    -0.255 OA
BRANCH   5   7
HETATM    7  C5  UNL     1      -1.758   4.988  85.905  1.00  0.00     0.192 C 
BRANCH   7   8
HETATM    8  N2  UNL     1      -1.933   6.054  85.057  1.00  0.00    -0.386 N 
HETATM    9  C6  UNL     1      -1.146   6.799  84.257  1.00  0.00     0.086 C 
ATOM     10  H2  UNL     1      -2.906   6.358  85.024  1.00  0.00     0.159 HD
BRANCH   9  11
HETATM   11  C7  UNL     1      -0.084   7.707  84.780  1.00  0.00     0.316 C 
BRANCH  11  12
HETATM   12  N3  UNL     1      -0.092   8.996  84.070  1.00  0.00     0.093 N 
HETATM   13  C8  UNL     1       1.103   9.757  84.228  1.00  0.00     0.273 C 
HETATM   14  C9  UNL     1       2.081   9.027  83.299  1.00  0.00     0.032 C 
HETATM   15  C10 UNL     1       1.222   8.653  82.138  1.00  0.00     0.032 C 
HETATM   16  C11 UNL     1      -0.187   8.738  82.652  1.00  0.00     0.273 C 
ENDBRANCH  11  12
ENDBRANCH   9  11
ENDBRANCH   7   8
BRANCH   7  17
HETATM   17  C12 UNL     1      -3.104   4.509  86.472  1.00  0.00     0.019 A 
HETATM   18  C13 UNL     1      -3.269   4.676  87.958  1.00  0.00     0.007 A 
HETATM   19  C14 UNL     1      -3.247   3.331  87.318  1.00  0.00     0.007 A 
ENDBRANCH   7  17
ENDBRANCH   5   7
ENDBRANCH   3   4
TORSDOF 6
ENDMDL
MODEL 5
REMARK VINA RESULT: -6.288436251      2.369      5.672
REMARK  6 active torsions:
REMARK  status: ('A' for Active; 'I' for Inactive)
REMARK    1  A    between atoms: C3_3  and  N1_4 
REMARK       I    between atoms: N1_4  and  C4_5 
REMARK    2  A    between atoms: C4_5  and  C5_7 
REMARK    3  A    between atoms: C5_7  and  N2_8 
REMARK    4  A    between atoms: C5_7  and  C12_17 
REMARK    5  A    between atoms: C6_10  and  C7_11 
REMARK    6  A    between atoms: C7_11  and  N3_12 
ROOT
HETATM    1  C1  UNL     1      -0.376   8.495  84.877  1.00  0.00     0.019 C 
HETATM    2  C2  UNL     1      -0.770   8.395  83.741  1.00  0.00    -0.058 C 
HETATM    3  C3  UNL     1      -1.281   8.271  82.343  1.00  0.00     0.249 C 
ENDROOT
BRANCH   3   4
HETATM    4  N1  UNL     1      -1.057   7.037  81.794  1.00  0.00    -0.373 NA
HETATM    5  C4  UNL     1      -0.830   5.791  81.238  1.00  0.00     0.315 C 
HETATM    6  O1  UNL     1      -0.904   5.626  79.992  1.00  0.00    -0.255 OA
BRANCH   5   7
HETATM    7  C5  UNL     1      -0.507   4.586  82.080  1.00  0.00     0.192 C 
BRANCH   7   8
HETATM    8  N2  UNL     1      -0.282   4.735  83.427  1.00  0.00    -0.386 N 
HETATM    9  C6  UNL     1      -0.969   4.490  84.559  1.00  0.00     0.086 C 
ATOM     10  H2  UNL     1       0.638   5.133  83.617  1.00  0.00     0.159 HD
BRANCH   9  11
HETATM   11  C7  UNL     1      -2.208   5.230  84.935  1.00  0.00     0.316 C 
BRANCH  11  12
HETATM   12  N3  UNL     1      -2.290   5.423  86.392  1.00  0.00     0.093 N 
HETATM   13  C8  UNL     1      -3.620   5.520  86.895  1.00  0.00     0.273 C 
HETATM   14  C9  UNL     1      -4.089   4.060  86.863  1.00  0.00     0.032 C 
HETATM   15  C10 UNL     1      -2.867   3.308  87.270  1.00  0.00     0.032 C 
HETATM   16  C11 UNL     1      -1.728   4.260  87.040  1.00  0.00     0.273 C 
ENDBRANCH  11  12
ENDBRANCH   9  11
ENDBRANCH   7   8
BRANCH   7  17
HETATM   17  C12 UNL     1      -1.506   3.450  81.811  1.00  0.00     0.019 A 
HETATM   18  C13 UNL     1      -0.918   2.066  81.808  1.00  0.00     0.007 A 
HETATM   19  C14 UNL     1      -1.520   2.665  80.584  1.00  0.00     0.007 A 
ENDBRANCH   7  17
ENDBRANCH   5   7
ENDBRANCH   3   4
TORSDOF 6
ENDMDL
