MODEL 1
REMARK VINA RESULT: -7.006832125      0.000      0.000
REMARK  6 active torsions:
REMARK  status: ('A' for Active; 'I' for Inactive)
REMARK    1  A    between atoms: C2_2  and  C3_3 
REMARK       I    between atoms: C3_3  and  N1_5 
REMARK    2  A    between atoms: N1_5  and  C4_7 
REMARK    3  A    between atoms: C4_7  and  C5_8 
REMARK    4  A    between atoms: C5_8  and  C6_9 
REMARK    5  A    between atoms: C5_8  and  N2_12 
REMARK    6  A    between atoms: C8_14  and  C9_15 
ROOT
HETATM    1  C4  UNL     1      -0.755   4.327  83.499  1.00  0.00     0.169 C 
ENDROOT
BRANCH   1   2
HETATM    2  N1  UNL     1      -1.807   4.623  84.412  1.00  0.00    -0.358 N 
HETATM    3  C3  UNL     1      -1.585   4.444  85.820  1.00  0.00     0.226 C 
HETATM    4  O1  UNL     1      -0.460   4.028  86.193  1.00  0.00    -0.273 OA
ATOM      5  H1  UNL     1      -2.707   4.958  84.071  1.00  0.00     0.162 HD
BRANCH   3   6
HETATM    6  C2  UNL     1      -2.622   4.729  86.838  1.00  0.00     0.037 A 
HETATM    7  C1  UNL     1      -3.275   6.105  86.702  1.00  0.00     0.025 C 
HETATM    8  C10 UNL     1      -2.634   4.121  88.168  1.00  0.00     0.020 A 
HETATM    9  C11 UNL     1      -3.629   3.647  87.168  1.00  0.00     0.020 A 
ENDBRANCH   3   6
ENDBRANCH   1   2
BRANCH   1  10
HETATM   10  C5  UNL     1      -0.452   5.440  82.502  1.00  0.00     0.341 C 
BRANCH  10  11
HETATM   11  C6  UNL     1      -1.208   5.139  81.263  1.00  0.00     0.209 C 
HETATM   12  O2  UNL     1      -2.335   4.546  81.410  1.00  0.00    -0.646 OA
HETATM   13  O3  UNL     1      -0.771   5.458  79.981  1.00  0.00    -0.646 OA
ENDBRANCH  10  11
BRANCH  10  14
HETATM   14  N2  UNL     1      -0.929   6.643  83.075  1.00  0.00     0.120 N 
HETATM   15  C7  UNL     1      -0.696   7.950  82.557  1.00  0.00     0.317 A 
HETATM   16  C8  UNL     1      -0.217   7.506  83.946  1.00  0.00     0.313 A 
BRANCH  16  17
HETATM   17  C9  UNL     1       1.235   7.450  84.153  1.00  0.00     0.268 C 
HETATM   18  O4  UNL     1       1.743   6.692  84.944  1.00  0.00    -0.304 OA
ENDBRANCH  16  17
ENDBRANCH  10  14
ENDBRANCH   1  10
TORSDOF 6
ENDMDL
MODEL 2
REMARK VINA RESULT: -6.342461036      1.895      2.902
REMARK  6 active torsions:
REMARK  status: ('A' for Active; 'I' for Inactive)
REMARK    1  A    between atoms: C2_2  and  C3_3 
REMARK       I    between atoms: C3_3  and  N1_5 
REMARK    2  A    between atoms: N1_5  and  C4_7 
REMARK    3  A    between atoms: C4_7  and  C5_8 
REMARK    4  A    between atoms: C5_8  and  C6_9 
REMARK    5  A    between atoms: C5_8  and  N2_12 
REMARK    6  A    between atoms: C8_14  and  C9_15 
ROOT
HETATM    1  C4  UNL     1      -0.774   6.454  84.885  1.00  0.00     0.169 C 
ENDROOT
BRANCH   1   2
HETATM    2  N1  UNL     1      -1.764   5.952  85.776  1.00  0.00    -0.358 N 
HETATM    3  C3  UNL     1      -1.495   4.756  86.523  1.00  0.00     0.226 C 
HETATM    4  O1  UNL     1      -0.383   4.193  86.358  1.00  0.00    -0.273 OA
ATOM      5  H1  UNL     1      -2.656   6.436  85.882  1.00  0.00     0.162 HD
BRANCH   3   6
HETATM    6  C2  UNL     1      -2.467   4.166  87.472  1.00  0.00     0.037 A 
HETATM    7  C1  UNL     1      -2.721   5.014  88.719  1.00  0.00     0.025 C 
HETATM    8  C10 UNL     1      -2.705   2.728  87.591  1.00  0.00     0.020 A 
HETATM    9  C11 UNL     1      -3.740   3.561  86.921  1.00  0.00     0.020 A 
ENDBRANCH   3   6
ENDBRANCH   1   2
BRANCH   1  10
HETATM   10  C5  UNL     1      -1.259   6.667  83.455  1.00  0.00     0.341 C 
BRANCH  10  11
HETATM   11  C6  UNL     1      -1.373   8.130  83.243  1.00  0.00     0.209 C 
HETATM   12  O2  UNL     1      -2.504   8.561  82.824  1.00  0.00    -0.646 OA
HETATM   13  O3  UNL     1      -0.342   9.037  83.469  1.00  0.00    -0.646 OA
ENDBRANCH  10  11
BRANCH  10  14
HETATM   14  N2  UNL     1      -0.265   6.134  82.602  1.00  0.00     0.120 N 
HETATM   15  C7  UNL     1      -0.428   5.873  81.211  1.00  0.00     0.317 A 
HETATM   16  C8  UNL     1      -0.107   4.774  82.232  1.00  0.00     0.313 A 
BRANCH  16  17
HETATM   17  C9  UNL     1      -1.133   3.743  82.432  1.00  0.00     0.268 C 
HETATM   18  O4  UNL     1      -1.059   2.926  83.318  1.00  0.00    -0.304 OA
ENDBRANCH  16  17
ENDBRANCH  10  14
ENDBRANCH   1  10
TORSDOF 6
ENDMDL
MODEL 3
REMARK VINA RESULT: -6.227508650      1.903      2.345
REMARK  6 active torsions:
REMARK  status: ('A' for Active; 'I' for Inactive)
REMARK    1  A    between atoms: C2_2  and  C3_3 
REMARK       I    between atoms: C3_3  and  N1_5 
REMARK    2  A    between atoms: N1_5  and  C4_7 
REMARK    3  A    between atoms: C4_7  and  C5_8 
REMARK    4  A    between atoms: C5_8  and  C6_9 
REMARK    5  A    between atoms: C5_8  and  N2_12 
REMARK    6  A    between atoms: C8_14  and  C9_15 
ROOT
HETATM    1  C4  UNL     1       0.049   6.370  85.044  1.00  0.00     0.169 C 
ENDROOT
BRANCH   1   2
HETATM    2  N1  UNL     1      -1.166   5.997  85.684  1.00  0.00    -0.358 N 
HETATM    3  C3  UNL     1      -1.233   4.747  86.389  1.00  0.00     0.226 C 
HETATM    4  O1  UNL     1      -0.205   4.025  86.411  1.00  0.00    -0.273 OA
ATOM      5  H1  UNL     1      -1.980   6.610  85.644  1.00  0.00     0.162 HD
BRANCH   3   6
HETATM    6  C2  UNL     1      -2.455   4.282  87.084  1.00  0.00     0.037 A 
HETATM    7  C1  UNL     1      -2.513   2.771  87.309  1.00  0.00     0.025 C 
HETATM    8  C10 UNL     1      -3.733   4.991  87.027  1.00  0.00     0.020 A 
HETATM    9  C11 UNL     1      -2.944   5.060  88.287  1.00  0.00     0.020 A 
ENDBRANCH   3   6
ENDBRANCH   1   2
BRANCH   1  10
HETATM   10  C5  UNL     1      -0.041   6.470  83.525  1.00  0.00     0.341 C 
BRANCH  10  11
HETATM   11  C6  UNL     1      -1.473   6.641  83.180  1.00  0.00     0.209 C 
HETATM   12  O2  UNL     1      -2.035   5.667  82.566  1.00  0.00    -0.646 OA
HETATM   13  O3  UNL     1      -2.222   7.775  83.482  1.00  0.00    -0.646 OA
ENDBRANCH  10  11
BRANCH  10  14
HETATM   14  N2  UNL     1       0.685   7.624  83.146  1.00  0.00     0.120 N 
HETATM   15  C7  UNL     1       0.570   8.294  81.895  1.00  0.00     0.317 A 
HETATM   16  C8  UNL     1       1.879   7.659  82.383  1.00  0.00     0.313 A 
BRANCH  16  17
HETATM   17  C9  UNL     1       2.390   6.526  81.602  1.00  0.00     0.268 C 
HETATM   18  O4  UNL     1       2.669   5.467  82.113  1.00  0.00    -0.304 OA
ENDBRANCH  16  17
ENDBRANCH  10  14
ENDBRANCH   1  10
TORSDOF 6
ENDMDL
MODEL 4
REMARK VINA RESULT: -6.155279605      1.988      2.733
REMARK  6 active torsions:
REMARK  status: ('A' for Active; 'I' for Inactive)
REMARK    1  A    between atoms: C2_2  and  C3_3 
REMARK       I    between atoms: C3_3  and  N1_5 
REMARK    2  A    between atoms: N1_5  and  C4_7 
REMARK    3  A    between atoms: C4_7  and  C5_8 
REMARK    4  A    between atoms: C5_8  and  C6_9 
REMARK    5  A    between atoms: C5_8  and  N2_12 
REMARK    6  A    between atoms: C8_14  and  C9_15 
ROOT
HETATM    1  C4  UNL     1      -0.595   5.610  84.057  1.00  0.00     0.169 C 
ENDROOT
BRANCH   1   2
HETATM    2  N1  UNL     1      -1.696   5.306  84.907  1.00  0.00    -0.358 N 
HETATM    3  C3  UNL     1      -1.478   4.505  86.079  1.00  0.00     0.226 C 
HETATM    4  O1  UNL     1      -0.311   4.100  86.309  1.00  0.00    -0.273 OA
ATOM      5  H1  UNL     1      -2.630   5.653  84.686  1.00  0.00     0.162 HD
BRANCH   3   6
HETATM    6  C2  UNL     1      -2.565   4.143  87.018  1.00  0.00     0.037 A 
HETATM    7  C1  UNL     1      -2.521   2.693  87.500  1.00  0.00     0.025 C 
HETATM    8  C10 UNL     1      -3.868   4.806  87.034  1.00  0.00     0.020 A 
HETATM    9  C11 UNL     1      -2.910   5.108  88.132  1.00  0.00     0.020 A 
ENDBRANCH   3   6
ENDBRANCH   1   2
BRANCH   1  10
HETATM   10  C5  UNL     1      -0.593   7.033  83.510  1.00  0.00     0.341 C 
BRANCH  10  11
HETATM   11  C6  UNL     1      -1.697   7.763  84.180  1.00  0.00     0.209 C 
HETATM   12  O2  UNL     1      -1.438   8.259  85.333  1.00  0.00    -0.646 OA
HETATM   13  O3  UNL     1      -2.966   7.935  83.636  1.00  0.00    -0.646 OA
ENDBRANCH  10  11
BRANCH  10  14
HETATM   14  N2  UNL     1       0.649   7.608  83.869  1.00  0.00     0.120 N 
HETATM   15  C7  UNL     1       1.269   8.706  83.207  1.00  0.00     0.317 A 
HETATM   16  C8  UNL     1       1.913   7.316  83.297  1.00  0.00     0.313 A 
BRANCH  16  17
HETATM   17  C9  UNL     1       2.096   6.594  82.032  1.00  0.00     0.268 C 
HETATM   18  O4  UNL     1       2.292   5.403  81.994  1.00  0.00    -0.304 OA
ENDBRANCH  16  17
ENDBRANCH  10  14
ENDBRANCH   1  10
TORSDOF 6
ENDMDL
MODEL 5
REMARK VINA RESULT: -6.152302013      1.542      2.026
REMARK  6 active torsions:
REMARK  status: ('A' for Active; 'I' for Inactive)
REMARK    1  A    between atoms: C2_2  and  C3_3 
REMARK       I    between atoms: C3_3  and  N1_5 
REMARK    2  A    between atoms: N1_5  and  C4_7 
REMARK    3  A    between atoms: C4_7  and  C5_8 
REMARK    4  A    between atoms: C5_8  and  C6_9 
REMARK    5  A    between atoms: C5_8  and  N2_12 
REMARK    6  A    between atoms: C8_14  and  C9_15 
ROOT
HETATM    1  C4  UNL     1       0.104   6.287  84.803  1.00  0.00     0.169 C 
ENDROOT
BRANCH   1   2
HETATM    2  N1  UNL     1      -1.130   5.952  85.430  1.00  0.00    -0.358 N 
HETATM    3  C3  UNL     1      -1.199   4.784  86.263  1.00  0.00     0.226 C 
HETATM    4  O1  UNL     1      -0.157   4.096  86.404  1.00  0.00    -0.273 OA
ATOM      5  H1  UNL     1      -1.955   6.535  85.291  1.00  0.00     0.162 HD
BRANCH   3   6
HETATM    6  C2  UNL     1      -2.439   4.363  86.954  1.00  0.00     0.037 A 
HETATM    7  C1  UNL     1      -2.518   2.865  87.247  1.00  0.00     0.025 C 
HETATM    8  C10 UNL     1      -3.708   5.082  86.840  1.00  0.00     0.020 A 
HETATM    9  C11 UNL     1      -2.943   5.201  88.111  1.00  0.00     0.020 A 
ENDBRANCH   3   6
ENDBRANCH   1   2
BRANCH   1  10
HETATM   10  C5  UNL     1       0.007   6.506  83.297  1.00  0.00     0.341 C 
BRANCH  10  11
HETATM   11  C6  UNL     1      -0.555   5.268  82.707  1.00  0.00     0.209 C 
HETATM   12  O2  UNL     1       0.288   4.375  82.340  1.00  0.00    -0.646 OA
HETATM   13  O3  UNL     1      -1.915   5.028  82.537  1.00  0.00    -0.646 OA
ENDBRANCH  10  11
BRANCH  10  14
HETATM   14  N2  UNL     1      -0.889   7.583  83.097  1.00  0.00     0.120 N 
HETATM   15  C7  UNL     1      -1.030   8.321  81.887  1.00  0.00     0.317 A 
HETATM   16  C8  UNL     1      -0.591   8.965  83.209  1.00  0.00     0.313 A 
BRANCH  16  17
HETATM   17  C9  UNL     1       0.771   9.511  83.253  1.00  0.00     0.268 C 
HETATM   18  O4  UNL     1       1.299   9.841  84.288  1.00  0.00    -0.304 OA
ENDBRANCH  16  17
ENDBRANCH  10  14
ENDBRANCH   1  10
TORSDOF 6
ENDMDL
