MODEL 1
REMARK VINA RESULT: -6.516042614      0.000      0.000
REMARK  7 active torsions:
REMARK  status: ('A' for Active; 'I' for Inactive)
REMARK       I    between atoms: C2_2  and  N1_4 
REMARK    1  A    between atoms: N1_4  and  C3_6 
REMARK    2  A    between atoms: C3_6  and  C4_7 
REMARK    3  A    between atoms: C3_6  and  C10_18 
REMARK    4  A    between atoms: C4_7  and  O2_8 
REMARK    5  A    between atoms: C4_7  and  C5_10 
REMARK       I    between atoms: C5_10  and  N2_12 
REMARK    6  A    between atoms: N2_12  and  C6_14 
REMARK    7  A    between atoms: C6_14  and  C7_15 
ROOT
HETATM    1  C4  UNL     1      -1.167   5.396  83.174  1.00  0.00     0.134 C 
ENDROOT
BRANCH   1   2
HETATM    2  C3  UNL     1      -0.535   6.688  83.324  1.00  0.00     0.150 C 
BRANCH   2   3
HETATM    3  N1  UNL     1       0.923   6.395  83.221  1.00  0.00    -0.350 N 
HETATM    4  C2  UNL     1       1.545   6.379  81.973  1.00  0.00     0.214 C 
HETATM    5  C1  UNL     1       2.997   6.095  81.813  1.00  0.00     0.117 C 
HETATM    6  O1  UNL     1       0.867   6.611  80.941  1.00  0.00    -0.274 OA
ATOM      7  H1  UNL     1       1.466   6.207  84.064  1.00  0.00     0.163 HD
ENDBRANCH   2   3
BRANCH   2   8
HETATM    8  C10 UNL     1      -0.658   7.443  84.597  1.00  0.00     0.007 C 
HETATM    9  C11 UNL     1      -0.033   8.842  84.263  1.00  0.00     0.012 C 
HETATM   10  C12 UNL     1      -2.084   7.826  84.968  1.00  0.00     0.012 C 
ENDBRANCH   2   8
ENDBRANCH   1   2
BRANCH   1  11
HETATM   11  O2  UNL     1      -1.774   5.253  82.013  1.00  0.00    -0.358 OA
ATOM     12  H2  UNL     1      -2.258   4.438  81.946  1.00  0.00     0.217 HD
ENDBRANCH   1  11
BRANCH   1  13
HETATM   13  C5  UNL     1      -1.270   4.243  84.016  1.00  0.00     0.272 C 
HETATM   14  O3  UNL     1      -1.081   3.098  83.602  1.00  0.00    -0.266 OA
HETATM   15  N2  UNL     1      -1.604   4.346  85.414  1.00  0.00    -0.355 N 
ATOM     16  H2  UNL     1      -1.772   5.269  85.813  1.00  0.00     0.162 HD
BRANCH  15  17
HETATM   17  C6  UNL     1      -1.709   3.194  86.262  1.00  0.00     0.127 C 
BRANCH  17  18
HETATM   18  C7  UNL     1      -2.568   3.389  87.484  1.00  0.00     0.003 A 
HETATM   19  C8  UNL     1      -4.008   3.750  87.156  1.00  0.00     0.007 A 
HETATM   20  C9  UNL     1      -3.120   4.740  87.783  1.00  0.00     0.007 A 
ENDBRANCH  17  18
ENDBRANCH  15  17
ENDBRANCH   1  13
TORSDOF 7
ENDMDL
MODEL 2
REMARK VINA RESULT: -6.424310980      2.099      5.284
REMARK  7 active torsions:
REMARK  status: ('A' for Active; 'I' for Inactive)
REMARK       I    between atoms: C2_2  and  N1_4 
REMARK    1  A    between atoms: N1_4  and  C3_6 
REMARK    2  A    between atoms: C3_6  and  C4_7 
REMARK    3  A    between atoms: C3_6  and  C10_18 
REMARK    4  A    between atoms: C4_7  and  O2_8 
REMARK    5  A    between atoms: C4_7  and  C5_10 
REMARK       I    between atoms: C5_10  and  N2_12 
REMARK    6  A    between atoms: N2_12  and  C6_14 
REMARK    7  A    between atoms: C6_14  and  C7_15 
ROOT
HETATM    1  C4  UNL     1      -1.310   3.751  85.206  1.00  0.00     0.134 C 
ENDROOT
BRANCH   1   2
HETATM    2  C3  UNL     1      -2.489   4.231  85.891  1.00  0.00     0.150 C 
BRANCH   2   3
HETATM    3  N1  UNL     1      -2.189   5.662  86.176  1.00  0.00    -0.350 N 
HETATM    4  C2  UNL     1      -2.576   6.651  85.272  1.00  0.00     0.214 C 
HETATM    5  C1  UNL     1      -2.304   8.094  85.507  1.00  0.00     0.117 C 
HETATM    6  O1  UNL     1      -3.178   6.323  84.218  1.00  0.00    -0.274 OA
ATOM      7  H1  UNL     1      -1.699   5.920  87.033  1.00  0.00     0.163 HD
ENDBRANCH   2   3
BRANCH   2   8
HETATM    8  C10 UNL     1      -2.868   3.676  87.215  1.00  0.00     0.007 C 
HETATM    9  C11 UNL     1      -2.655   4.878  88.199  1.00  0.00     0.012 C 
HETATM   10  C12 UNL     1      -4.358   3.404  87.383  1.00  0.00     0.012 C 
ENDBRANCH   2   8
ENDBRANCH   1   2
BRANCH   1  11
HETATM   11  O2  UNL     1      -0.443   3.176  86.016  1.00  0.00    -0.358 OA
ATOM     12  H2  UNL     1       0.326   3.711  86.175  1.00  0.00     0.217 HD
ENDBRANCH   1  11
BRANCH   1  13
HETATM   13  C5  UNL     1      -0.888   3.765  83.838  1.00  0.00     0.272 C 
HETATM   14  O3  UNL     1      -0.893   2.758  83.130  1.00  0.00    -0.266 OA
HETATM   15  N2  UNL     1      -0.425   4.969  83.195  1.00  0.00    -0.355 N 
ATOM     16  H2  UNL     1      -0.398   5.835  83.732  1.00  0.00     0.162 HD
BRANCH  15  17
HETATM   17  C6  UNL     1      -0.001   4.989  81.825  1.00  0.00     0.127 C 
BRANCH  17  18
HETATM   18  C7  UNL     1      -0.832   5.864  80.923  1.00  0.00     0.003 A 
HETATM   19  C8  UNL     1      -0.011   6.888  80.156  1.00  0.00     0.007 A 
HETATM   20  C9  UNL     1      -0.939   7.321  81.211  1.00  0.00     0.007 A 
ENDBRANCH  17  18
ENDBRANCH  15  17
ENDBRANCH   1  13
TORSDOF 7
ENDMDL
MODEL 3
REMARK VINA RESULT: -6.409261865      1.657      1.968
REMARK  7 active torsions:
REMARK  status: ('A' for Active; 'I' for Inactive)
REMARK       I    between atoms: C2_2  and  N1_4 
REMARK    1  A    between atoms: N1_4  and  C3_6 
REMARK    2  A    between atoms: C3_6  and  C4_7 
REMARK    3  A    between atoms: C3_6  and  C10_18 
REMARK    4  A    between atoms: C4_7  and  O2_8 
REMARK    5  A    between atoms: C4_7  and  C5_10 
REMARK       I    between atoms: C5_10  and  N2_12 
REMARK    6  A    between atoms: N2_12  and  C6_14 
REMARK    7  A    between atoms: C6_14  and  C7_15 
ROOT
HETATM    1  C4  UNL     1      -0.499   5.160  82.908  1.00  0.00     0.134 C 
ENDROOT
BRANCH   1   2
HETATM    2  C3  UNL     1      -0.966   6.485  82.571  1.00  0.00     0.150 C 
BRANCH   2   3
HETATM    3  N1  UNL     1      -0.172   6.857  81.366  1.00  0.00    -0.350 N 
HETATM    4  C2  UNL     1      -0.793   7.481  80.285  1.00  0.00     0.214 C 
HETATM    5  C1  UNL     1      -0.049   7.876  79.059  1.00  0.00     0.117 C 
HETATM    6  O1  UNL     1      -2.025   7.725  80.337  1.00  0.00    -0.274 OA
ATOM      7  H1  UNL     1       0.827   6.655  81.332  1.00  0.00     0.163 HD
ENDBRANCH   2   3
BRANCH   2   8
HETATM    8  C10 UNL     1      -0.750   7.619  83.505  1.00  0.00     0.007 C 
HETATM    9  C11 UNL     1      -2.075   7.671  84.342  1.00  0.00     0.012 C 
HETATM   10  C12 UNL     1       0.287   7.357  84.589  1.00  0.00     0.012 C 
ENDBRANCH   2   8
ENDBRANCH   1   2
BRANCH   1  11
HETATM   11  O2  UNL     1       0.613   4.831  82.279  1.00  0.00    -0.358 OA
ATOM     12  H2  UNL     1       1.370   4.807  82.853  1.00  0.00     0.217 HD
ENDBRANCH   1  11
BRANCH   1  13
HETATM   13  C5  UNL     1      -0.984   4.132  83.779  1.00  0.00     0.272 C 
HETATM   14  O3  UNL     1      -1.184   2.978  83.399  1.00  0.00    -0.266 OA
HETATM   15  N2  UNL     1      -1.272   4.383  85.168  1.00  0.00    -0.355 N 
ATOM     16  H2  UNL     1      -1.126   5.321  85.540  1.00  0.00     0.162 HD
BRANCH  15  17
HETATM   17  C6  UNL     1      -1.758   3.358  86.045  1.00  0.00     0.127 C 
BRANCH  17  18
HETATM   18  C7  UNL     1      -2.511   3.865  87.248  1.00  0.00     0.003 A 
HETATM   19  C8  UNL     1      -4.020   3.778  87.093  1.00  0.00     0.007 A 
HETATM   20  C9  UNL     1      -3.352   5.087  87.124  1.00  0.00     0.007 A 
ENDBRANCH  17  18
ENDBRANCH  15  17
ENDBRANCH   1  13
TORSDOF 7
ENDMDL
MODEL 4
REMARK VINA RESULT: -6.396779956      2.291      5.813
REMARK  7 active torsions:
REMARK  status: ('A' for Active; 'I' for Inactive)
REMARK       I    between atoms: C2_2  and  N1_4 
REMARK    1  A    between atoms: N1_4  and  C3_6 
REMARK    2  A    between atoms: C3_6  and  C4_7 
REMARK    3  A    between atoms: C3_6  and  C10_18 
REMARK    4  A    between atoms: C4_7  and  O2_8 
REMARK    5  A    between atoms: C4_7  and  C5_10 
REMARK       I    between atoms: C5_10  and  N2_12 
REMARK    6  A    between atoms: N2_12  and  C6_14 
REMARK    7  A    between atoms: C6_14  and  C7_15 
ROOT
HETATM    1  C4  UNL     1      -1.833   6.617  85.572  1.00  0.00     0.134 C 
ENDROOT
BRANCH   1   2
HETATM    2  C3  UNL     1      -2.047   5.501  86.466  1.00  0.00     0.150 C 
BRANCH   2   3
HETATM    3  N1  UNL     1      -2.053   4.311  85.569  1.00  0.00    -0.350 N 
HETATM    4  C2  UNL     1      -0.946   3.464  85.526  1.00  0.00     0.214 C 
HETATM    5  C1  UNL     1      -0.899   2.261  84.651  1.00  0.00     0.117 C 
HETATM    6  O1  UNL     1       0.053   3.714  86.247  1.00  0.00    -0.274 OA
ATOM      7  H1  UNL     1      -2.867   4.115  84.987  1.00  0.00     0.163 HD
ENDBRANCH   2   3
BRANCH   2   8
HETATM    8  C10 UNL     1      -3.316   5.380  87.228  1.00  0.00     0.007 C 
HETATM    9  C11 UNL     1      -3.928   4.029  86.720  1.00  0.00     0.012 C 
HETATM   10  C12 UNL     1      -3.136   5.095  88.713  1.00  0.00     0.012 C 
ENDBRANCH   2   8
ENDBRANCH   1   2
BRANCH   1  11
HETATM   11  O2  UNL     1      -2.926   7.324  85.363  1.00  0.00    -0.358 OA
ATOM     12  H2  UNL     1      -2.774   8.088  84.818  1.00  0.00     0.217 HD
ENDBRANCH   1  11
BRANCH   1  13
HETATM   13  C5  UNL     1      -0.689   7.116  84.871  1.00  0.00     0.272 C 
HETATM   14  O3  UNL     1       0.027   6.399  84.171  1.00  0.00    -0.266 OA
HETATM   15  N2  UNL     1      -0.297   8.501  84.938  1.00  0.00    -0.355 N 
ATOM     16  H2  UNL     1      -0.853   9.143  85.503  1.00  0.00     0.162 HD
BRANCH  15  17
HETATM   17  C6  UNL     1       0.847   9.007  84.238  1.00  0.00     0.127 C 
BRANCH  17  18
HETATM   18  C7  UNL     1       1.018  10.502  84.310  1.00  0.00     0.003 A 
HETATM   19  C8  UNL     1       2.471  10.945  84.261  1.00  0.00     0.007 A 
HETATM   20  C9  UNL     1       1.688  11.106  85.495  1.00  0.00     0.007 A 
ENDBRANCH  17  18
ENDBRANCH  15  17
ENDBRANCH   1  13
TORSDOF 7
ENDMDL
MODEL 5
REMARK VINA RESULT: -6.369597610      1.897      3.037
REMARK  7 active torsions:
REMARK  status: ('A' for Active; 'I' for Inactive)
REMARK       I    between atoms: C2_2  and  N1_4 
REMARK    1  A    between atoms: N1_4  and  C3_6 
REMARK    2  A    between atoms: C3_6  and  C4_7 
REMARK    3  A    between atoms: C3_6  and  C10_18 
REMARK    4  A    between atoms: C4_7  and  O2_8 
REMARK    5  A    between atoms: C4_7  and  C5_10 
REMARK       I    between atoms: C5_10  and  N2_12 
REMARK    6  A    between atoms: N2_12  and  C6_14 
REMARK    7  A    between atoms: C6_14  and  C7_15 
ROOT
HETATM    1  C4  UNL     1      -1.254   6.661  83.348  1.00  0.00     0.134 C 
ENDROOT
BRANCH   1   2
HETATM    2  C3  UNL     1      -0.415   5.999  82.375  1.00  0.00     0.150 C 
BRANCH   2   3
HETATM    3  N1  UNL     1      -0.361   4.585  82.841  1.00  0.00    -0.350 N 
HETATM    4  C2  UNL     1      -0.837   3.561  82.022  1.00  0.00     0.214 C 
HETATM    5  C1  UNL     1      -0.806   2.132  82.436  1.00  0.00     0.117 C 
HETATM    6  O1  UNL     1      -1.310   3.843  80.892  1.00  0.00    -0.274 OA
ATOM      7  H1  UNL     1       0.024   4.365  83.759  1.00  0.00     0.163 HD
ENDBRANCH   2   3
BRANCH   2   8
HETATM    8  C10 UNL     1       1.013   6.381  82.230  1.00  0.00     0.007 C 
HETATM    9  C11 UNL     1       1.065   7.108  80.842  1.00  0.00     0.012 C 
HETATM   10  C12 UNL     1       1.470   7.487  83.172  1.00  0.00     0.012 C 
ENDBRANCH   2   8
ENDBRANCH   1   2
BRANCH   1  11
HETATM   11  O2  UNL     1      -1.876   7.716  82.858  1.00  0.00    -0.358 OA
ATOM     12  H2  UNL     1      -1.686   8.513  83.339  1.00  0.00     0.217 HD
ENDBRANCH   1  11
BRANCH   1  13
HETATM   13  C5  UNL     1      -1.556   6.412  84.726  1.00  0.00     0.272 C 
HETATM   14  O3  UNL     1      -0.683   6.225  85.574  1.00  0.00    -0.266 OA
HETATM   15  N2  UNL     1      -2.910   6.365  85.214  1.00  0.00    -0.355 N 
ATOM     16  H2  UNL     1      -3.676   6.513  84.556  1.00  0.00     0.162 HD
BRANCH  15  17
HETATM   17  C6  UNL     1      -3.218   6.117  86.592  1.00  0.00     0.127 C 
BRANCH  17  18
HETATM   18  C7  UNL     1      -3.629   4.700  86.900  1.00  0.00     0.003 A 
HETATM   19  C8  UNL     1      -2.880   4.100  88.078  1.00  0.00     0.007 A 
HETATM   20  C9  UNL     1      -2.645   3.597  86.717  1.00  0.00     0.007 A 
ENDBRANCH  17  18
ENDBRANCH  15  17
ENDBRANCH   1  13
TORSDOF 7
ENDMDL
