MODEL 1
REMARK VINA RESULT: -5.544600212      0.000      0.000
REMARK  9 active torsions:
REMARK  status: ('A' for Active; 'I' for Inactive)
REMARK    1  A    between atoms: C3_3  and  N1_4 
REMARK    2  A    between atoms: N1_4  and  C6_7 
REMARK    3  A    between atoms: C6_7  and  C7_8 
REMARK    4  A    between atoms: C7_8  and  O1_9 
REMARK    5  A    between atoms: C7_8  and  C8_11 
REMARK    6  A    between atoms: C8_11  and  C9_12 
REMARK    7  A    between atoms: C9_12  and  O2_13 
REMARK    8  A    between atoms: C9_12  and  C10_15 
REMARK    9  A    between atoms: C10_15  and  S1_16 
ROOT
HETATM    1  C1  UNL     1      -2.924   7.969  85.129  1.00  0.00     0.113 C 
HETATM    2  C2  UNL     1      -2.948   6.715  85.900  1.00  0.00    -0.081 C 
HETATM    3  C3  UNL     1      -2.949   5.685  86.527  1.00  0.00     0.115 C 
ENDROOT
BRANCH   3   4
HETATM    4  N1  UNL     1      -2.924   4.471  87.262  1.00  0.00    -0.008 N 
HETATM    5  C4  UNL     1      -2.962   4.886  88.674  1.00  0.00     0.290 C 
HETATM    6  C5  UNL     1      -4.137   3.742  87.016  1.00  0.00     0.290 C 
BRANCH   4   7
HETATM    7  C6  UNL     1      -1.726   3.775  86.947  1.00  0.00     0.284 C 
BRANCH   7   8
HETATM    8  C7  UNL     1      -1.650   3.316  85.510  1.00  0.00     0.147 C 
BRANCH   8   9
HETATM    9  O1  UNL     1      -1.340   1.976  85.386  1.00  0.00    -0.394 OA
ATOM     10  H1  UNL     1      -0.575   1.724  85.889  1.00  0.00     0.210 HD
ENDBRANCH   8   9
BRANCH   8  11
HETATM   11  C8  UNL     1      -0.601   4.104  84.768  1.00  0.00     0.066 C 
BRANCH  11  12
HETATM   12  C9  UNL     1      -1.098   4.337  83.347  1.00  0.00     0.132 C 
BRANCH  12  13
HETATM   13  O2  UNL     1      -1.193   3.156  82.636  1.00  0.00    -0.395 OA
ATOM     14  H2  UNL     1      -1.962   3.141  82.079  1.00  0.00     0.210 HD
ENDBRANCH  12  13
BRANCH  12  15
HETATM   15  C10 UNL     1      -0.163   5.252  82.587  1.00  0.00     0.139 C 
BRANCH  15  16
HETATM   16  S1  UNL     1      -0.965   5.747  81.092  1.00  0.00     0.013 S 
HETATM   17  C11 UNL     1      -0.164   7.092  80.292  1.00  0.00     0.127 C 
HETATM   18  O3  UNL     1      -1.225   4.462  80.063  1.00  0.00    -0.258 OA
ENDBRANCH  15  16
ENDBRANCH  12  15
ENDBRANCH  11  12
ENDBRANCH   8  11
ENDBRANCH   7   8
ENDBRANCH   4   7
ENDBRANCH   3   4
TORSDOF 9
ENDMDL
MODEL 2
REMARK VINA RESULT: -5.277769936      2.649      5.316
REMARK  9 active torsions:
REMARK  status: ('A' for Active; 'I' for Inactive)
REMARK    1  A    between atoms: C3_3  and  N1_4 
REMARK    2  A    between atoms: N1_4  and  C6_7 
REMARK    3  A    between atoms: C6_7  and  C7_8 
REMARK    4  A    between atoms: C7_8  and  O1_9 
REMARK    5  A    between atoms: C7_8  and  C8_11 
REMARK    6  A    between atoms: C8_11  and  C9_12 
REMARK    7  A    between atoms: C9_12  and  O2_13 
REMARK    8  A    between atoms: C9_12  and  C10_15 
REMARK    9  A    between atoms: C10_15  and  S1_16 
ROOT
HETATM    1  C1  UNL     1      -2.822   7.906  85.630  1.00  0.00     0.113 C 
HETATM    2  C2  UNL     1      -2.056   7.776  84.380  1.00  0.00    -0.081 C 
HETATM    3  C3  UNL     1      -1.425   7.649  83.359  1.00  0.00     0.115 C 
ENDROOT
BRANCH   3   4
HETATM    4  N1  UNL     1      -0.681   7.475  82.163  1.00  0.00    -0.008 N 
HETATM    5  C4  UNL     1      -1.289   8.411  81.203  1.00  0.00     0.290 C 
HETATM    6  C5  UNL     1       0.668   7.922  82.373  1.00  0.00     0.290 C 
BRANCH   4   7
HETATM    7  C6  UNL     1      -0.811   6.125  81.741  1.00  0.00     0.284 C 
BRANCH   7   8
HETATM    8  C7  UNL     1      -0.197   5.128  82.695  1.00  0.00     0.147 C 
BRANCH   8   9
HETATM    9  O1  UNL     1       0.972   4.571  82.216  1.00  0.00    -0.394 OA
ATOM     10  H1  UNL     1       1.752   4.985  82.566  1.00  0.00     0.210 HD
ENDBRANCH   8   9
BRANCH   8  11
HETATM   11  C8  UNL     1      -1.166   4.006  82.969  1.00  0.00     0.066 C 
BRANCH  11  12
HETATM   12  C9  UNL     1      -1.059   3.635  84.443  1.00  0.00     0.132 C 
BRANCH  12  13
HETATM   13  O2  UNL     1      -1.251   2.283  84.647  1.00  0.00    -0.395 OA
ATOM     14  H2  UNL     1      -1.715   2.111  85.457  1.00  0.00     0.210 HD
ENDBRANCH  12  13
BRANCH  12  15
HETATM   15  C10 UNL     1      -2.093   4.372  85.265  1.00  0.00     0.139 C 
BRANCH  15  16
HETATM   16  S1  UNL     1      -2.017   3.767  86.924  1.00  0.00     0.013 S 
HETATM   17  C11 UNL     1      -2.840   4.808  88.077  1.00  0.00     0.127 C 
HETATM   18  O3  UNL     1      -2.512   2.180  87.037  1.00  0.00    -0.258 OA
ENDBRANCH  15  16
ENDBRANCH  12  15
ENDBRANCH  11  12
ENDBRANCH   8  11
ENDBRANCH   7   8
ENDBRANCH   4   7
ENDBRANCH   3   4
TORSDOF 9
ENDMDL
MODEL 3
REMARK VINA RESULT: -5.202994139      3.317      5.764
REMARK  9 active torsions:
REMARK  status: ('A' for Active; 'I' for Inactive)
REMARK    1  A    between atoms: C3_3  and  N1_4 
REMARK    2  A    between atoms: N1_4  and  C6_7 
REMARK    3  A    between atoms: C6_7  and  C7_8 
REMARK    4  A    between atoms: C7_8  and  O1_9 
REMARK    5  A    between atoms: C7_8  and  C8_11 
REMARK    6  A    between atoms: C8_11  and  C9_12 
REMARK    7  A    between atoms: C9_12  and  O2_13 
REMARK    8  A    between atoms: C9_12  and  C10_15 
REMARK    9  A    between atoms: C10_15  and  S1_16 
ROOT
HETATM    1  C1  UNL     1      -3.690  10.423  81.348  1.00  0.00     0.113 C 
HETATM    2  C2  UNL     1      -2.428   9.680  81.496  1.00  0.00    -0.081 C 
HETATM    3  C3  UNL     1      -1.404   9.055  81.620  1.00  0.00     0.115 C 
ENDROOT
BRANCH   3   4
HETATM    4  N1  UNL     1      -0.212   8.297  81.767  1.00  0.00    -0.008 N 
HETATM    5  C4  UNL     1       0.748   8.926  80.846  1.00  0.00     0.290 C 
HETATM    6  C5  UNL     1       0.308   8.483  83.093  1.00  0.00     0.290 C 
BRANCH   4   7
HETATM    7  C6  UNL     1      -0.486   6.950  81.408  1.00  0.00     0.284 C 
BRANCH   7   8
HETATM    8  C7  UNL     1      -0.206   5.959  82.513  1.00  0.00     0.147 C 
BRANCH   8   9
HETATM    9  O1  UNL     1       0.849   5.115  82.227  1.00  0.00    -0.394 OA
ATOM     10  H1  UNL     1       1.685   5.564  82.192  1.00  0.00     0.210 HD
ENDBRANCH   8   9
BRANCH   8  11
HETATM   11  C8  UNL     1      -1.423   5.107  82.766  1.00  0.00     0.066 C 
BRANCH  11  12
HETATM   12  C9  UNL     1      -2.053   5.558  84.078  1.00  0.00     0.132 C 
BRANCH  12  13
HETATM   13  O2  UNL     1      -2.722   6.759  83.940  1.00  0.00    -0.395 OA
ATOM     14  H2  UNL     1      -3.129   7.032  84.753  1.00  0.00     0.210 HD
ENDBRANCH  12  13
BRANCH  12  15
HETATM   15  C10 UNL     1      -1.003   5.743  85.151  1.00  0.00     0.139 C 
BRANCH  15  16
HETATM   16  S1  UNL     1      -1.224   4.480  86.368  1.00  0.00     0.013 S 
HETATM   17  C11 UNL     1      -2.912   4.068  86.635  1.00  0.00     0.127 C 
HETATM   18  O3  UNL     1      -0.285   3.139  86.059  1.00  0.00    -0.258 OA
ENDBRANCH  15  16
ENDBRANCH  12  15
ENDBRANCH  11  12
ENDBRANCH   8  11
ENDBRANCH   7   8
ENDBRANCH   4   7
ENDBRANCH   3   4
TORSDOF 9
ENDMDL
MODEL 4
REMARK VINA RESULT: -5.080935934      3.848      6.278
REMARK  9 active torsions:
REMARK  status: ('A' for Active; 'I' for Inactive)
REMARK    1  A    between atoms: C3_3  and  N1_4 
REMARK    2  A    between atoms: N1_4  and  C6_7 
REMARK    3  A    between atoms: C6_7  and  C7_8 
REMARK    4  A    between atoms: C7_8  and  O1_9 
REMARK    5  A    between atoms: C7_8  and  C8_11 
REMARK    6  A    between atoms: C8_11  and  C9_12 
REMARK    7  A    between atoms: C9_12  and  O2_13 
REMARK    8  A    between atoms: C9_12  and  C10_15 
REMARK    9  A    between atoms: C10_15  and  S1_16 
ROOT
HETATM    1  C1  UNL     1       1.868  11.195  85.644  1.00  0.00     0.113 C 
HETATM    2  C2  UNL     1       1.541  10.376  84.465  1.00  0.00    -0.081 C 
HETATM    3  C3  UNL     1       1.279   9.688  83.509  1.00  0.00     0.115 C 
ENDROOT
BRANCH   3   4
HETATM    4  N1  UNL     1       0.975   8.859  82.399  1.00  0.00    -0.008 N 
HETATM    5  C4  UNL     1       1.407   9.631  81.223  1.00  0.00     0.290 C 
HETATM    6  C5  UNL     1       1.800   7.684  82.444  1.00  0.00     0.290 C 
BRANCH   4   7
HETATM    7  C6  UNL     1      -0.424   8.613  82.386  1.00  0.00     0.284 C 
BRANCH   7   8
HETATM    8  C7  UNL     1      -0.811   7.268  82.955  1.00  0.00     0.147 C 
BRANCH   8   9
HETATM    9  O1  UNL     1      -1.531   6.493  82.067  1.00  0.00    -0.394 OA
ATOM     10  H1  UNL     1      -2.213   5.984  82.487  1.00  0.00     0.210 HD
ENDBRANCH   8   9
BRANCH   8  11
HETATM   11  C8  UNL     1      -1.649   7.450  84.194  1.00  0.00     0.066 C 
BRANCH  11  12
HETATM   12  C9  UNL     1      -1.178   6.444  85.237  1.00  0.00     0.132 C 
BRANCH  12  13
HETATM   13  O2  UNL     1       0.057   5.915  84.919  1.00  0.00    -0.395 OA
ATOM     14  H2  UNL     1       0.563   5.709  85.696  1.00  0.00     0.210 HD
ENDBRANCH  12  13
BRANCH  12  15
HETATM   15  C10 UNL     1      -2.150   5.291  85.358  1.00  0.00     0.139 C 
BRANCH  15  16
HETATM   16  S1  UNL     1      -1.578   4.214  86.637  1.00  0.00     0.013 S 
HETATM   17  C11 UNL     1      -2.863   3.253  87.356  1.00  0.00     0.127 C 
HETATM   18  O3  UNL     1      -0.289   3.280  86.142  1.00  0.00    -0.258 OA
ENDBRANCH  15  16
ENDBRANCH  12  15
ENDBRANCH  11  12
ENDBRANCH   8  11
ENDBRANCH   7   8
ENDBRANCH   4   7
ENDBRANCH   3   4
TORSDOF 9
ENDMDL
MODEL 5
REMARK VINA RESULT: -5.050351154      2.787      5.188
REMARK  9 active torsions:
REMARK  status: ('A' for Active; 'I' for Inactive)
REMARK    1  A    between atoms: C3_3  and  N1_4 
REMARK    2  A    between atoms: N1_4  and  C6_7 
REMARK    3  A    between atoms: C6_7  and  C7_8 
REMARK    4  A    between atoms: C7_8  and  O1_9 
REMARK    5  A    between atoms: C7_8  and  C8_11 
REMARK    6  A    between atoms: C8_11  and  C9_12 
REMARK    7  A    between atoms: C9_12  and  O2_13 
REMARK    8  A    between atoms: C9_12  and  C10_15 
REMARK    9  A    between atoms: C10_15  and  S1_16 
ROOT
HETATM    1  C1  UNL     1      -2.903   7.802  85.627  1.00  0.00     0.113 C 
HETATM    2  C2  UNL     1      -1.748   7.990  84.733  1.00  0.00    -0.081 C 
HETATM    3  C3  UNL     1      -0.806   8.126  83.993  1.00  0.00     0.115 C 
ENDROOT
BRANCH   3   4
HETATM    4  N1  UNL     1       0.296   8.264  83.109  1.00  0.00    -0.008 N 
HETATM    5  C4  UNL     1       0.190   9.638  82.590  1.00  0.00     0.290 C 
HETATM    6  C5  UNL     1       1.518   8.202  83.860  1.00  0.00     0.290 C 
BRANCH   4   7
HETATM    7  C6  UNL     1       0.172   7.297  82.076  1.00  0.00     0.284 C 
BRANCH   7   8
HETATM    8  C7  UNL     1       0.570   5.902  82.499  1.00  0.00     0.147 C 
BRANCH   8   9
HETATM    9  O1  UNL     1       1.711   5.450  81.866  1.00  0.00    -0.394 OA
ATOM     10  H1  UNL     1       1.735   4.506  81.773  1.00  0.00     0.210 HD
ENDBRANCH   8   9
BRANCH   8  11
HETATM   11  C8  UNL     1      -0.542   4.931  82.195  1.00  0.00     0.066 C 
BRANCH  11  12
HETATM   12  C9  UNL     1      -0.723   4.023  83.406  1.00  0.00     0.132 C 
BRANCH  12  13
HETATM   13  O2  UNL     1      -1.138   2.757  83.041  1.00  0.00    -0.395 OA
ATOM     14  H2  UNL     1      -1.534   2.293  83.768  1.00  0.00     0.210 HD
ENDBRANCH  12  13
BRANCH  12  15
HETATM   15  C10 UNL     1      -1.757   4.585  84.357  1.00  0.00     0.139 C 
BRANCH  15  16
HETATM   16  S1  UNL     1      -1.218   4.274  86.010  1.00  0.00     0.013 S 
HETATM   17  C11 UNL     1      -2.540   4.228  87.170  1.00  0.00     0.127 C 
HETATM   18  O3  UNL     1      -0.242   2.927  86.110  1.00  0.00    -0.258 OA
ENDBRANCH  15  16
ENDBRANCH  12  15
ENDBRANCH  11  12
ENDBRANCH   8  11
ENDBRANCH   7   8
ENDBRANCH   4   7
ENDBRANCH   3   4
TORSDOF 9
ENDMDL
