MODEL 1
REMARK VINA RESULT: -7.485191362      0.000      0.000
REMARK  9 active torsions:
REMARK  status: ('A' for Active; 'I' for Inactive)
REMARK       I    between atoms: C2_2  and  N1_4 
REMARK    1  A    between atoms: N1_4  and  C3_6 
REMARK    2  A    between atoms: C4_9  and  O2_10 
REMARK    3  A    between atoms: O2_10  and  C5_11 
REMARK    4  A    between atoms: C5_11  and  C6_12 
REMARK    5  A    between atoms: C12_20  and  C13_21 
REMARK    6  A    between atoms: C14_22  and  C15_23 
REMARK    7  A    between atoms: C15_23  and  O3_24 
REMARK    8  A    between atoms: C16_26  and  C17_27 
REMARK    9  A    between atoms: C20_30  and  C21_31 
ROOT
HETATM    1  C3  UNL     1      22.315  -4.010   7.594  1.00  0.00     0.122 C 
HETATM    2  N2  UNL     1      22.118  -4.845   8.653  1.00  0.00    -0.321 N 
ATOM      3  H2  UNL     1      21.200  -4.780   9.093  1.00  0.00     0.169 HD
HETATM    4  C4  UNL     1      22.955  -5.741   9.204  1.00  0.00     0.166 C 
HETATM    5  C9  UNL     1      24.022  -6.348   8.571  1.00  0.00     0.086 C 
HETATM    6 CL1  UNL     1      24.438  -7.930   9.108  1.00  0.00    -0.080 Cl
HETATM    7  C10 UNL     1      24.781  -5.778   7.538  1.00  0.00     0.048 C 
HETATM    8  C11 UNL     1      24.606  -4.503   6.988  1.00  0.00     0.023 A 
HETATM    9  S1  UNL     1      25.806  -3.636   6.142  1.00  0.00    -0.079 SA
HETATM   10  C12 UNL     1      24.919  -2.212   5.796  1.00  0.00     0.071 A 
HETATM   11  C16 UNL     1      23.694  -2.470   6.363  1.00  0.00     0.015 A 
HETATM   12  C24 UNL     1      23.530  -3.645   6.975  1.00  0.00     0.038 A 
ENDROOT
BRANCH  11  13
HETATM   13  C17 UNL     1      22.683  -1.384   6.247  1.00  0.00    -0.021 A 
HETATM   14  C18 UNL     1      22.906  -0.147   6.807  1.00  0.00     0.013 A 
HETATM   15  C19 UNL     1      21.963   0.848   6.657  1.00  0.00     0.019 A 
HETATM   16  C20 UNL     1      20.783   0.659   5.962  1.00  0.00     0.051 A 
HETATM   17  C22 UNL     1      20.556  -0.577   5.400  1.00  0.00     0.050 A 
HETATM   18 CL2  UNL     1      19.084  -0.935   4.485  1.00  0.00    -0.083 Cl
HETATM   19  C23 UNL     1      21.507  -1.569   5.553  1.00  0.00     0.037 A 
BRANCH  16  20
HETATM   20  C21 UNL     1      19.797   1.720   5.815  1.00  0.00     0.266 C 
HETATM   21  N3  UNL     1      19.221   2.362   6.943  1.00  0.00    -0.057 NA
HETATM   22  O4  UNL     1      19.440   2.085   4.671  1.00  0.00    -0.271 OA
ENDBRANCH  16  20
ENDBRANCH  11  13
BRANCH  10  23
HETATM   23  C13 UNL     1      25.404  -1.060   5.080  1.00  0.00    -0.056 C 
HETATM   24  C14 UNL     1      25.832  -0.097   4.470  1.00  0.00    -0.075 C 
BRANCH  24  25
HETATM   25  C15 UNL     1      26.373   1.055   3.722  1.00  0.00     0.258 C 
BRANCH  25  26
HETATM   26  O3  UNL     1      27.424   0.668   2.882  1.00  0.00    -0.389 OA
ATOM     27  H3  UNL     1      27.133   0.588   1.981  1.00  0.00     0.210 HD
ENDBRANCH  25  26
ENDBRANCH  24  25
ENDBRANCH  10  23
BRANCH   1  28
HETATM   28  N1  UNL     1      21.263  -3.487   7.091  1.00  0.00    -0.313 N 
HETATM   29  C2  UNL     1      20.055  -4.213   7.066  1.00  0.00     0.219 C 
HETATM   30  C1  UNL     1      18.767  -3.492   7.206  1.00  0.00     0.117 C 
HETATM   31  O1  UNL     1      20.002  -5.456   6.930  1.00  0.00    -0.274 OA
ATOM     32  H1  UNL     1      21.297  -2.543   6.707  1.00  0.00     0.170 HD
ENDBRANCH   1  28
BRANCH   4  33
HETATM   33  O2  UNL     1      22.785  -6.131  10.528  1.00  0.00    -0.334 OA
BRANCH  33  34
HETATM   34  C5  UNL     1      22.793  -5.080  11.489  1.00  0.00     0.181 C 
BRANCH  34  35
HETATM   35  C6  UNL     1      24.114  -4.971  12.201  1.00  0.00     0.002 C 
HETATM   36  C7  UNL     1      25.007  -3.918  11.562  1.00  0.00     0.011 C 
HETATM   37  C8  UNL     1      24.808  -6.292  12.358  1.00  0.00     0.011 C 
ENDBRANCH  34  35
ENDBRANCH  33  34
ENDBRANCH   4  33
TORSDOF 9
ENDMDL
MODEL 2
REMARK VINA RESULT: -7.391484160      3.093      7.677
REMARK  9 active torsions:
REMARK  status: ('A' for Active; 'I' for Inactive)
REMARK       I    between atoms: C2_2  and  N1_4 
REMARK    1  A    between atoms: N1_4  and  C3_6 
REMARK    2  A    between atoms: C4_9  and  O2_10 
REMARK    3  A    between atoms: O2_10  and  C5_11 
REMARK    4  A    between atoms: C5_11  and  C6_12 
REMARK    5  A    between atoms: C12_20  and  C13_21 
REMARK    6  A    between atoms: C14_22  and  C15_23 
REMARK    7  A    between atoms: C15_23  and  O3_24 
REMARK    8  A    between atoms: C16_26  and  C17_27 
REMARK    9  A    between atoms: C20_30  and  C21_31 
ROOT
HETATM    1  C3  UNL     1      22.293  -2.258   6.428  1.00  0.00     0.122 C 
HETATM    2  N2  UNL     1      21.359  -1.306   6.142  1.00  0.00    -0.321 N 
ATOM      3  H2  UNL     1      21.726  -0.445   5.737  1.00  0.00     0.169 HD
HETATM    4  C4  UNL     1      20.027  -1.335   6.316  1.00  0.00     0.166 C 
HETATM    5  C9  UNL     1      19.245  -2.472   6.396  1.00  0.00     0.086 C 
HETATM    6 CL1  UNL     1      17.622  -2.331   5.838  1.00  0.00    -0.080 Cl
HETATM    7  C10 UNL     1      19.670  -3.714   6.891  1.00  0.00     0.048 C 
HETATM    8  C11 UNL     1      20.938  -4.011   7.403  1.00  0.00     0.023 A 
HETATM    9  S1  UNL     1      21.283  -5.309   8.453  1.00  0.00    -0.079 SA
HETATM   10  C12 UNL     1      22.962  -5.049   8.665  1.00  0.00     0.071 A 
HETATM   11  C16 UNL     1      23.199  -3.937   7.893  1.00  0.00     0.015 A 
HETATM   12  C24 UNL     1      22.163  -3.402   7.244  1.00  0.00     0.038 A 
ENDROOT
BRANCH  11  13
HETATM   13  C17 UNL     1      24.601  -3.436   7.887  1.00  0.00    -0.021 A 
HETATM   14  C18 UNL     1      25.008  -2.464   8.771  1.00  0.00     0.013 A 
HETATM   15  C19 UNL     1      26.321  -2.041   8.761  1.00  0.00     0.019 A 
HETATM   16  C20 UNL     1      27.263  -2.555   7.889  1.00  0.00     0.051 A 
HETATM   17  C22 UNL     1      26.859  -3.528   7.003  1.00  0.00     0.050 A 
HETATM   18 CL2  UNL     1      27.977  -4.262   5.843  1.00  0.00    -0.083 Cl
HETATM   19  C23 UNL     1      25.542  -3.948   7.020  1.00  0.00     0.037 A 
BRANCH  16  20
HETATM   20  C21 UNL     1      28.645  -2.096   7.890  1.00  0.00     0.266 C 
HETATM   21  N3  UNL     1      29.067  -1.004   7.087  1.00  0.00    -0.057 NA
HETATM   22  O4  UNL     1      29.491  -2.669   8.614  1.00  0.00    -0.271 OA
ENDBRANCH  16  20
ENDBRANCH  11  13
BRANCH  10  23
HETATM   23  C13 UNL     1      23.852  -5.843   9.474  1.00  0.00    -0.056 C 
HETATM   24  C14 UNL     1      24.587  -6.527  10.163  1.00  0.00    -0.075 C 
BRANCH  24  25
HETATM   25  C15 UNL     1      25.457  -7.375  11.001  1.00  0.00     0.258 C 
BRANCH  25  26
HETATM   26  O3  UNL     1      25.360  -7.024  12.353  1.00  0.00    -0.389 OA
ATOM     27  H3  UNL     1      24.902  -7.691  12.850  1.00  0.00     0.210 HD
ENDBRANCH  25  26
ENDBRANCH  24  25
ENDBRANCH  10  23
BRANCH   1  28
HETATM   28  N1  UNL     1      23.438  -2.097   5.885  1.00  0.00    -0.313 N 
HETATM   29  C2  UNL     1      23.904  -0.800   5.586  1.00  0.00     0.219 C 
HETATM   30  C1  UNL     1      25.354  -0.508   5.674  1.00  0.00     0.117 C 
HETATM   31  O1  UNL     1      23.152   0.139   5.244  1.00  0.00    -0.274 OA
ATOM     32  H1  UNL     1      24.017  -2.908   5.667  1.00  0.00     0.170 HD
ENDBRANCH   1  28
BRANCH   4  33
HETATM   33  O2  UNL     1      19.313  -0.148   6.436  1.00  0.00    -0.334 OA
BRANCH  33  34
HETATM   34  C5  UNL     1      19.339   0.707   5.298  1.00  0.00     0.181 C 
BRANCH  34  35
HETATM   35  C6  UNL     1      18.238   1.733   5.332  1.00  0.00     0.002 C 
HETATM   36  C7  UNL     1      18.468   2.760   6.431  1.00  0.00     0.011 C 
HETATM   37  C8  UNL     1      16.869   1.124   5.395  1.00  0.00     0.011 C 
ENDBRANCH  34  35
ENDBRANCH  33  34
ENDBRANCH   4  33
TORSDOF 9
ENDMDL
MODEL 3
REMARK VINA RESULT: -7.210715455      2.964      7.038
REMARK  9 active torsions:
REMARK  status: ('A' for Active; 'I' for Inactive)
REMARK       I    between atoms: C2_2  and  N1_4 
REMARK    1  A    between atoms: N1_4  and  C3_6 
REMARK    2  A    between atoms: C4_9  and  O2_10 
REMARK    3  A    between atoms: O2_10  and  C5_11 
REMARK    4  A    between atoms: C5_11  and  C6_12 
REMARK    5  A    between atoms: C12_20  and  C13_21 
REMARK    6  A    between atoms: C14_22  and  C15_23 
REMARK    7  A    between atoms: C15_23  and  O3_24 
REMARK    8  A    between atoms: C16_26  and  C17_27 
REMARK    9  A    between atoms: C20_30  and  C21_31 
ROOT
HETATM    1  C3  UNL     1      22.375  -2.530   6.505  1.00  0.00     0.122 C 
HETATM    2  N2  UNL     1      21.066  -2.148   6.521  1.00  0.00    -0.321 N 
ATOM      3  H2  UNL     1      20.406  -2.874   6.799  1.00  0.00     0.169 HD
HETATM    4  C4  UNL     1      20.518  -0.957   6.225  1.00  0.00     0.166 C 
HETATM    5  C9  UNL     1      21.161   0.265   6.275  1.00  0.00     0.086 C 
HETATM    6 CL1  UNL     1      20.184   1.636   6.637  1.00  0.00    -0.080 Cl
HETATM    7  C10 UNL     1      22.532   0.468   6.055  1.00  0.00     0.048 C 
HETATM    8  C11 UNL     1      23.474  -0.515   5.732  1.00  0.00     0.023 A 
HETATM    9  S1  UNL     1      24.970  -0.217   4.972  1.00  0.00    -0.079 SA
HETATM   10  C12 UNL     1      25.555  -1.823   4.882  1.00  0.00     0.071 A 
HETATM   11  C16 UNL     1      24.543  -2.550   5.462  1.00  0.00     0.015 A 
HETATM   12  C24 UNL     1      23.473  -1.882   5.899  1.00  0.00     0.038 A 
ENDROOT
BRANCH  11  13
HETATM   13  C17 UNL     1      24.748  -4.023   5.515  1.00  0.00    -0.021 A 
HETATM   14  C18 UNL     1      25.455  -4.602   6.544  1.00  0.00     0.013 A 
HETATM   15  C19 UNL     1      25.603  -5.973   6.581  1.00  0.00     0.019 A 
HETATM   16  C20 UNL     1      25.069  -6.807   5.617  1.00  0.00     0.051 A 
HETATM   17  C22 UNL     1      24.361  -6.232   4.586  1.00  0.00     0.050 A 
HETATM   18 CL2  UNL     1      23.628  -7.199   3.298  1.00  0.00    -0.083 Cl
HETATM   19  C23 UNL     1      24.215  -4.858   4.556  1.00  0.00     0.037 A 
BRANCH  16  20
HETATM   20  C21 UNL     1      25.237  -8.253   5.671  1.00  0.00     0.266 C 
HETATM   21  N3  UNL     1      24.311  -9.085   6.354  1.00  0.00    -0.057 NA
HETATM   22  O4  UNL     1      26.218  -8.787   5.106  1.00  0.00    -0.271 OA
ENDBRANCH  16  20
ENDBRANCH  11  13
BRANCH  10  23
HETATM   23  C13 UNL     1      26.814  -2.241   4.320  1.00  0.00    -0.056 C 
HETATM   24  C14 UNL     1      27.870  -2.593   3.825  1.00  0.00    -0.075 C 
BRANCH  24  25
HETATM   25  C15 UNL     1      29.138  -3.014   3.198  1.00  0.00     0.258 C 
BRANCH  25  26
HETATM   26  O3  UNL     1      28.960  -3.321   1.844  1.00  0.00    -0.389 OA
ATOM     27  H3  UNL     1      28.740  -4.238   1.725  1.00  0.00     0.210 HD
ENDBRANCH  25  26
ENDBRANCH  24  25
ENDBRANCH  10  23
BRANCH   1  28
HETATM   28  N1  UNL     1      22.648  -3.616   7.120  1.00  0.00    -0.313 N 
HETATM   29  C2  UNL     1      21.619  -4.524   7.442  1.00  0.00     0.219 C 
HETATM   30  C1  UNL     1      21.905  -5.979   7.447  1.00  0.00     0.117 C 
HETATM   31  O1  UNL     1      20.455  -4.170   7.731  1.00  0.00    -0.274 OA
ATOM     32  H1  UNL     1      23.612  -3.827   7.377  1.00  0.00     0.170 HD
ENDBRANCH   1  28
BRANCH   4  33
HETATM   33  O2  UNL     1      19.189  -0.882   5.824  1.00  0.00    -0.334 OA
BRANCH  33  34
HETATM   34  C5  UNL     1      18.952  -1.051   4.430  1.00  0.00     0.181 C 
BRANCH  34  35
HETATM   35  C6  UNL     1      17.485  -1.105   4.105  1.00  0.00     0.002 C 
HETATM   36  C7  UNL     1      16.701  -0.061   4.887  1.00  0.00     0.011 C 
HETATM   37  C8  UNL     1      16.903  -2.480   4.244  1.00  0.00     0.011 C 
ENDBRANCH  34  35
ENDBRANCH  33  34
ENDBRANCH   4  33
TORSDOF 9
ENDMDL
MODEL 4
REMARK VINA RESULT: -7.132117581      2.800      7.172
REMARK  9 active torsions:
REMARK  status: ('A' for Active; 'I' for Inactive)
REMARK       I    between atoms: C2_2  and  N1_4 
REMARK    1  A    between atoms: N1_4  and  C3_6 
REMARK    2  A    between atoms: C4_9  and  O2_10 
REMARK    3  A    between atoms: O2_10  and  C5_11 
REMARK    4  A    between atoms: C5_11  and  C6_12 
REMARK    5  A    between atoms: C12_20  and  C13_21 
REMARK    6  A    between atoms: C14_22  and  C15_23 
REMARK    7  A    between atoms: C15_23  and  O3_24 
REMARK    8  A    between atoms: C16_26  and  C17_27 
REMARK    9  A    between atoms: C20_30  and  C21_31 
ROOT
HETATM    1  C3  UNL     1      22.331  -2.519   6.559  1.00  0.00     0.122 C 
HETATM    2  N2  UNL     1      21.023  -2.136   6.562  1.00  0.00    -0.321 N 
ATOM      3  H2  UNL     1      20.360  -2.855   6.849  1.00  0.00     0.169 HD
HETATM    4  C4  UNL     1      20.477  -0.949   6.243  1.00  0.00     0.166 C 
HETATM    5  C9  UNL     1      21.122   0.273   6.274  1.00  0.00     0.086 C 
HETATM    6 CL1  UNL     1      20.144   1.651   6.608  1.00  0.00    -0.080 Cl
HETATM    7  C10 UNL     1      22.494   0.471   6.058  1.00  0.00     0.048 C 
HETATM    8  C11 UNL     1      23.436  -0.519   5.757  1.00  0.00     0.023 A 
HETATM    9  S1  UNL     1      24.936  -0.236   4.998  1.00  0.00    -0.079 SA
HETATM   10  C12 UNL     1      25.520  -1.844   4.939  1.00  0.00     0.071 A 
HETATM   11  C16 UNL     1      24.503  -2.559   5.526  1.00  0.00     0.015 A 
HETATM   12  C24 UNL     1      23.433  -1.883   5.947  1.00  0.00     0.038 A 
ENDROOT
BRANCH  11  13
HETATM   13  C17 UNL     1      24.707  -4.032   5.606  1.00  0.00    -0.021 A 
HETATM   14  C18 UNL     1      24.243  -4.865   4.614  1.00  0.00     0.013 A 
HETATM   15  C19 UNL     1      24.473  -6.222   4.702  1.00  0.00     0.019 A 
HETATM   16  C20 UNL     1      25.157  -6.795   5.758  1.00  0.00     0.051 A 
HETATM   17  C22 UNL     1      25.623  -5.965   6.752  1.00  0.00     0.050 A 
HETATM   18 CL2  UNL     1      26.515  -6.585   8.149  1.00  0.00    -0.083 Cl
HETATM   19  C23 UNL     1      25.390  -4.606   6.656  1.00  0.00     0.037 A 
BRANCH  16  20
HETATM   20  C21 UNL     1      25.389  -8.231   5.836  1.00  0.00     0.266 C 
HETATM   21  N3  UNL     1      24.490  -9.095   6.515  1.00  0.00    -0.057 NA
HETATM   22  O4  UNL     1      26.403  -8.728   5.294  1.00  0.00    -0.271 OA
ENDBRANCH  16  20
ENDBRANCH  11  13
BRANCH  10  23
HETATM   23  C13 UNL     1      26.781  -2.273   4.391  1.00  0.00    -0.056 C 
HETATM   24  C14 UNL     1      27.839  -2.633   3.906  1.00  0.00    -0.075 C 
BRANCH  24  25
HETATM   25  C15 UNL     1      29.111  -3.064   3.294  1.00  0.00     0.258 C 
BRANCH  25  26
HETATM   26  O3  UNL     1      28.955  -3.325   1.927  1.00  0.00    -0.389 OA
ATOM     27  H3  UNL     1      29.588  -2.843   1.409  1.00  0.00     0.210 HD
ENDBRANCH  25  26
ENDBRANCH  24  25
ENDBRANCH  10  23
BRANCH   1  28
HETATM   28  N1  UNL     1      22.599  -3.595   7.194  1.00  0.00    -0.313 N 
HETATM   29  C2  UNL     1      21.576  -4.519   7.484  1.00  0.00     0.219 C 
HETATM   30  C1  UNL     1      21.888  -5.968   7.513  1.00  0.00     0.117 C 
HETATM   31  O1  UNL     1      20.395  -4.184   7.725  1.00  0.00    -0.274 OA
ATOM     32  H1  UNL     1      23.556  -3.785   7.491  1.00  0.00     0.170 HD
ENDBRANCH   1  28
BRANCH   4  33
HETATM   33  O2  UNL     1      19.150  -0.879   5.834  1.00  0.00    -0.334 OA
BRANCH  33  34
HETATM   34  C5  UNL     1      18.924  -1.038   4.437  1.00  0.00     0.181 C 
BRANCH  34  35
HETATM   35  C6  UNL     1      17.458  -1.106   4.103  1.00  0.00     0.002 C 
HETATM   36  C7  UNL     1      16.660  -0.074   4.886  1.00  0.00     0.011 C 
HETATM   37  C8  UNL     1      16.890  -2.487   4.232  1.00  0.00     0.011 C 
ENDBRANCH  34  35
ENDBRANCH  33  34
ENDBRANCH   4  33
TORSDOF 9
ENDMDL
MODEL 5
REMARK VINA RESULT: -7.051146533      3.169      7.747
REMARK  9 active torsions:
REMARK  status: ('A' for Active; 'I' for Inactive)
REMARK       I    between atoms: C2_2  and  N1_4 
REMARK    1  A    between atoms: N1_4  and  C3_6 
REMARK    2  A    between atoms: C4_9  and  O2_10 
REMARK    3  A    between atoms: O2_10  and  C5_11 
REMARK    4  A    between atoms: C5_11  and  C6_12 
REMARK    5  A    between atoms: C12_20  and  C13_21 
REMARK    6  A    between atoms: C14_22  and  C15_23 
REMARK    7  A    between atoms: C15_23  and  O3_24 
REMARK    8  A    between atoms: C16_26  and  C17_27 
REMARK    9  A    between atoms: C20_30  and  C21_31 
ROOT
HETATM    1  C3  UNL     1      22.500  -2.407   6.429  1.00  0.00     0.122 C 
HETATM    2  N2  UNL     1      21.623  -1.390   6.191  1.00  0.00    -0.321 N 
ATOM      3  H2  UNL     1      22.033  -0.546   5.792  1.00  0.00     0.169 HD
HETATM    4  C4  UNL     1      20.296  -1.337   6.404  1.00  0.00     0.166 C 
HETATM    5  C9  UNL     1      19.445  -2.422   6.485  1.00  0.00     0.086 C 
HETATM    6 CL1  UNL     1      17.819  -2.164   5.978  1.00  0.00    -0.080 Cl
HETATM    7  C10 UNL     1      19.801  -3.699   6.942  1.00  0.00     0.048 C 
HETATM    8  C11 UNL     1      21.061  -4.089   7.410  1.00  0.00     0.023 A 
HETATM    9  S1  UNL     1      21.350  -5.428   8.424  1.00  0.00    -0.079 SA
HETATM   10  C12 UNL     1      23.048  -5.283   8.591  1.00  0.00     0.071 A 
HETATM   11  C16 UNL     1      23.335  -4.172   7.834  1.00  0.00     0.015 A 
HETATM   12  C24 UNL     1      22.318  -3.557   7.226  1.00  0.00     0.038 A 
ENDROOT
BRANCH  11  13
HETATM   13  C17 UNL     1      24.766  -3.763   7.796  1.00  0.00    -0.021 A 
HETATM   14  C18 UNL     1      25.615  -4.250   6.829  1.00  0.00     0.013 A 
HETATM   15  C19 UNL     1      26.929  -3.830   6.803  1.00  0.00     0.019 A 
HETATM   16  C20 UNL     1      27.442  -2.928   7.717  1.00  0.00     0.051 A 
HETATM   17  C22 UNL     1      26.595  -2.438   8.685  1.00  0.00     0.050 A 
HETATM   18 CL2  UNL     1      27.138  -1.277   9.905  1.00  0.00    -0.083 Cl
HETATM   19  C23 UNL     1      25.279  -2.863   8.705  1.00  0.00     0.037 A 
BRANCH  16  20
HETATM   20  C21 UNL     1      28.832  -2.496   7.675  1.00  0.00     0.266 C 
HETATM   21  N3  UNL     1      29.248  -1.402   6.872  1.00  0.00    -0.057 NA
HETATM   22  O4  UNL     1      29.691  -3.097   8.360  1.00  0.00    -0.271 OA
ENDBRANCH  16  20
ENDBRANCH  11  13
BRANCH  10  23
HETATM   23  C13 UNL     1      23.906  -6.149   9.358  1.00  0.00    -0.056 C 
HETATM   24  C14 UNL     1      24.623  -6.873  10.024  1.00  0.00    -0.075 C 
BRANCH  24  25
HETATM   25  C15 UNL     1      25.479  -7.742  10.856  1.00  0.00     0.258 C 
BRANCH  25  26
HETATM   26  O3  UNL     1      25.503  -7.309  12.187  1.00  0.00    -0.389 OA
ATOM     27  H3  UNL     1      25.527  -8.044  12.788  1.00  0.00     0.210 HD
ENDBRANCH  25  26
ENDBRANCH  24  25
ENDBRANCH  10  23
BRANCH   1  28
HETATM   28  N1  UNL     1      23.637  -2.308   5.856  1.00  0.00    -0.313 N 
HETATM   29  C2  UNL     1      24.158  -1.040   5.528  1.00  0.00     0.219 C 
HETATM   30  C1  UNL     1      25.623  -0.818   5.576  1.00  0.00     0.117 C 
HETATM   31  O1  UNL     1      23.444  -0.069   5.193  1.00  0.00    -0.274 OA
ATOM     32  H1  UNL     1      24.170  -3.149   5.635  1.00  0.00     0.170 HD
ENDBRANCH   1  28
BRANCH   4  33
HETATM   33  O2  UNL     1      19.666  -0.108   6.568  1.00  0.00    -0.334 OA
BRANCH  33  34
HETATM   34  C5  UNL     1      19.857   0.831   5.515  1.00  0.00     0.181 C 
BRANCH  34  35
HETATM   35  C6  UNL     1      18.702   1.786   5.388  1.00  0.00     0.002 C 
HETATM   36  C7  UNL     1      18.580   2.680   6.614  1.00  0.00     0.011 C 
HETATM   37  C8  UNL     1      17.411   1.105   5.047  1.00  0.00     0.011 C 
ENDBRANCH  34  35
ENDBRANCH  33  34
ENDBRANCH   4  33
TORSDOF 9
ENDMDL
