MODEL 1
REMARK VINA RESULT: -9.301742286      0.000      0.000
REMARK  7 active torsions:
REMARK  status: ('A' for Active; 'I' for Inactive)
REMARK    1  A    between atoms: C3_3  and  O1_4 
REMARK    2  A    between atoms: C3_3  and  C4_6 
REMARK    3  A    between atoms: C3_3  and  C25_35 
REMARK    4  A    between atoms: C4_6  and  C5_7 
REMARK    5  A    between atoms: C8_10  and  O2_11 
REMARK    6  A    between atoms: C9_13  and  C10_14 
REMARK    7  A    between atoms: C10_14  and  C12_16 
ROOT
HETATM    1  C1  UNL     1      14.553   4.107   5.971  1.00  0.00     0.015 C 
HETATM    2  C2  UNL     1      15.121   3.196   5.420  1.00  0.00    -0.079 C 
HETATM    3  C3  UNL     1      15.771   2.096   4.765  1.00  0.00     0.126 C 
ENDROOT
BRANCH   3   4
HETATM    4  O1  UNL     1      15.428   0.923   5.438  1.00  0.00    -0.377 OA
ATOM      5  H1  UNL     1      15.740   0.185   4.928  1.00  0.00     0.211 HD
ENDBRANCH   3   4
BRANCH   3   6
HETATM    6  C4  UNL     1      17.217   2.228   4.498  1.00  0.00     0.092 C 
BRANCH   6   7
HETATM    7  C5  UNL     1      18.143   2.363   5.638  1.00  0.00     0.099 C 
HETATM    8  C6  UNL     1      17.785   3.410   6.637  1.00  0.00     0.049 C 
HETATM    9  C7  UNL     1      19.603   2.382   5.237  1.00  0.00     0.075 C 
HETATM   10  C8  UNL     1      20.345   1.303   6.087  1.00  0.00     0.153 C 
HETATM   11  C9  UNL     1      19.776   0.013   5.673  1.00  0.00     0.195 C 
HETATM   12  O5  UNL     1      18.388   0.119   5.616  1.00  0.00    -0.232 OA
HETATM   13  O6  UNL     1      18.027   1.129   6.362  1.00  0.00    -0.229 OA
BRANCH  10  14
HETATM   14  O2  UNL     1      20.167   1.694   7.371  1.00  0.00    -0.393 OA
ATOM     15  H2  UNL     1      20.838   1.231   7.860  1.00  0.00     0.210 HD
ENDBRANCH  10  14
BRANCH  11  16
HETATM   16  C10 UNL     1      20.130  -1.224   6.408  1.00  0.00     0.046 C 
HETATM   17  C11 UNL     1      18.921  -2.113   6.341  1.00  0.00     0.015 C 
BRANCH  16  18
HETATM   18  C12 UNL     1      21.420  -1.873   5.990  1.00  0.00     0.136 C 
HETATM   19  O3  UNL     1      22.103  -0.989   5.165  1.00  0.00    -0.377 OA
HETATM   20  C13 UNL     1      23.172  -0.441   5.849  1.00  0.00     0.156 C 
HETATM   21  C14 UNL     1      24.438  -1.033   5.264  1.00  0.00     0.037 C 
HETATM   22  C24 UNL     1      23.136  -0.963   7.279  1.00  0.00     0.206 C 
HETATM   23  C15 UNL     1      24.091  -2.396   4.733  1.00  0.00     0.030 C 
HETATM   24  C16 UNL     1      24.158  -3.486   5.775  1.00  0.00     0.055 C 
HETATM   25 CL1  UNL     1      25.873  -3.326   6.379  1.00  0.00    -0.118 Cl
HETATM   26  C17 UNL     1      24.253  -4.762   4.964  1.00  0.00     0.109 C 
HETATM   27  C21 UNL     1      23.191  -3.468   6.855  1.00  0.00     0.004 C 
HETATM   28  C18 UNL     1      23.740  -5.947   5.707  1.00  0.00     0.150 C 
HETATM   29  O4  UNL     1      24.353  -7.021   5.840  1.00  0.00    -0.293 OA
HETATM   30  C19 UNL     1      22.418  -5.728   6.277  1.00  0.00     0.047 C 
HETATM   31  C20 UNL     1      22.188  -4.557   6.808  1.00  0.00    -0.011 C 
HETATM   32  C22 UNL     1      23.853  -3.684   8.245  1.00  0.00     0.022 C 
HETATM   33  C23 UNL     1      22.375  -2.215   7.070  1.00  0.00     0.065 C 
HETATM   34  F1  UNL     1      24.349  -1.054   7.869  1.00  0.00    -0.246 F 
ENDBRANCH  16  18
ENDBRANCH  11  16
ENDBRANCH   6   7
ENDBRANCH   3   6
BRANCH   3  35
HETATM   35  C25 UNL     1      15.095   1.949   3.388  1.00  0.00     0.024 C 
HETATM   36  C26 UNL     1      15.521   3.107   2.513  1.00  0.00     0.014 C 
HETATM   37  C27 UNL     1      13.594   1.996   3.523  1.00  0.00     0.014 C 
ENDBRANCH   3  35
TORSDOF 7
ENDMDL
MODEL 2
REMARK VINA RESULT: -8.443849869      0.793      1.220
REMARK  7 active torsions:
REMARK  status: ('A' for Active; 'I' for Inactive)
REMARK    1  A    between atoms: C3_3  and  O1_4 
REMARK    2  A    between atoms: C3_3  and  C4_6 
REMARK    3  A    between atoms: C3_3  and  C25_35 
REMARK    4  A    between atoms: C4_6  and  C5_7 
REMARK    5  A    between atoms: C8_10  and  O2_11 
REMARK    6  A    between atoms: C9_13  and  C10_14 
REMARK    7  A    between atoms: C10_14  and  C12_16 
ROOT
HETATM    1  C1  UNL     1      15.549   3.561   2.070  1.00  0.00     0.015 C 
HETATM    2  C2  UNL     1      15.704   3.120   3.183  1.00  0.00    -0.079 C 
HETATM    3  C3  UNL     1      15.864   2.613   4.517  1.00  0.00     0.126 C 
ENDROOT
BRANCH   3   4
HETATM    4  O1  UNL     1      15.901   3.698   5.394  1.00  0.00    -0.377 OA
ATOM      5  H1  UNL     1      15.493   3.434   6.210  1.00  0.00     0.211 HD
ENDBRANCH   3   4
BRANCH   3   6
HETATM    6  C4  UNL     1      16.942   1.629   4.740  1.00  0.00     0.092 C 
BRANCH   6   7
HETATM    7  C5  UNL     1      18.082   2.004   5.597  1.00  0.00     0.099 C 
HETATM    8  C6  UNL     1      17.873   3.202   6.459  1.00  0.00     0.049 C 
HETATM    9  C7  UNL     1      19.413   2.003   4.874  1.00  0.00     0.075 C 
HETATM   10  C8  UNL     1      20.404   1.125   5.701  1.00  0.00     0.153 C 
HETATM   11  C9  UNL     1      19.858  -0.239   5.653  1.00  0.00     0.195 C 
HETATM   12  O5  UNL     1      18.488  -0.196   5.900  1.00  0.00    -0.232 OA
HETATM   13  O6  UNL     1      18.223   0.919   6.526  1.00  0.00    -0.229 OA
BRANCH  10  14
HETATM   14  O2  UNL     1      20.483   1.737   6.906  1.00  0.00    -0.393 OA
ATOM     15  H2  UNL     1      21.332   1.485   7.249  1.00  0.00     0.210 HD
ENDBRANCH  10  14
BRANCH  11  16
HETATM   16  C10 UNL     1      20.459  -1.308   6.486  1.00  0.00     0.046 C 
HETATM   17  C11 UNL     1      19.376  -2.323   6.714  1.00  0.00     0.015 C 
BRANCH  16  18
HETATM   18  C12 UNL     1      21.758  -1.867   5.975  1.00  0.00     0.136 C 
HETATM   19  O3  UNL     1      22.426  -0.859   5.293  1.00  0.00    -0.377 OA
HETATM   20  C13 UNL     1      23.488  -0.404   6.052  1.00  0.00     0.156 C 
HETATM   21  C14 UNL     1      24.762  -0.883   5.384  1.00  0.00     0.037 C 
HETATM   22  C24 UNL     1      23.464  -1.137   7.387  1.00  0.00     0.206 C 
HETATM   23  C15 UNL     1      24.434  -2.155   4.653  1.00  0.00     0.030 C 
HETATM   24  C16 UNL     1      24.519  -3.389   5.518  1.00  0.00     0.055 C 
HETATM   25 CL1  UNL     1      26.233  -3.297   6.140  1.00  0.00    -0.118 Cl
HETATM   26  C17 UNL     1      24.630  -4.526   4.524  1.00  0.00     0.109 C 
HETATM   27  C21 UNL     1      23.554  -3.548   6.589  1.00  0.00     0.004 C 
HETATM   28  C18 UNL     1      24.136  -5.817   5.079  1.00  0.00     0.150 C 
HETATM   29  O4  UNL     1      24.765  -6.890   5.048  1.00  0.00    -0.293 OA
HETATM   30  C19 UNL     1      22.812  -5.707   5.677  1.00  0.00     0.047 C 
HETATM   31  C20 UNL     1      22.566  -4.632   6.378  1.00  0.00    -0.011 C 
HETATM   32  C22 UNL     1      24.222  -3.962   7.930  1.00  0.00     0.022 C 
HETATM   33  C23 UNL     1      22.720  -2.354   6.990  1.00  0.00     0.065 C 
HETATM   34  F1  UNL     1      24.680  -1.298   7.956  1.00  0.00    -0.246 F 
ENDBRANCH  16  18
ENDBRANCH  11  16
ENDBRANCH   6   7
ENDBRANCH   3   6
BRANCH   3  35
HETATM   35  C25 UNL     1      14.549   1.892   4.869  1.00  0.00     0.024 C 
HETATM   36  C26 UNL     1      13.710   1.774   3.616  1.00  0.00     0.014 C 
HETATM   37  C27 UNL     1      13.760   2.683   5.882  1.00  0.00     0.014 C 
ENDBRANCH   3  35
TORSDOF 7
ENDMDL
MODEL 3
REMARK VINA RESULT: -8.381662975      2.726      4.765
REMARK  7 active torsions:
REMARK  status: ('A' for Active; 'I' for Inactive)
REMARK    1  A    between atoms: C3_3  and  O1_4 
REMARK    2  A    between atoms: C3_3  and  C4_6 
REMARK    3  A    between atoms: C3_3  and  C25_35 
REMARK    4  A    between atoms: C4_6  and  C5_7 
REMARK    5  A    between atoms: C8_10  and  O2_11 
REMARK    6  A    between atoms: C9_13  and  C10_14 
REMARK    7  A    between atoms: C10_14  and  C12_16 
ROOT
HETATM    1  C1  UNL     1      15.817   1.618   4.410  1.00  0.00     0.015 C 
HETATM    2  C2  UNL     1      16.905   1.206   4.732  1.00  0.00    -0.079 C 
HETATM    3  C3  UNL     1      18.212   0.732   5.092  1.00  0.00     0.126 C 
ENDROOT
BRANCH   3   4
HETATM    4  O1  UNL     1      18.835   0.254   3.938  1.00  0.00    -0.377 OA
ATOM      5  H1  UNL     1      19.595  -0.252   4.199  1.00  0.00     0.211 HD
ENDBRANCH   3   4
BRANCH   3   6
HETATM    6  C4  UNL     1      18.303  -0.188   6.243  1.00  0.00     0.092 C 
BRANCH   6   7
HETATM    7  C5  UNL     1      18.254  -1.641   5.999  1.00  0.00     0.099 C 
HETATM    8  C6  UNL     1      17.197  -2.100   5.053  1.00  0.00     0.049 C 
HETATM    9  C7  UNL     1      18.339  -2.473   7.262  1.00  0.00     0.075 C 
HETATM   10  C8  UNL     1      19.483  -3.518   7.068  1.00  0.00     0.153 C 
HETATM   11  C9  UNL     1      20.721  -2.733   6.955  1.00  0.00     0.195 C 
HETATM   12  O5  UNL     1      20.510  -1.663   6.089  1.00  0.00    -0.232 OA
HETATM   13  O6  UNL     1      19.486  -1.949   5.330  1.00  0.00    -0.229 OA
BRANCH  10  14
HETATM   14  O2  UNL     1      19.098  -4.256   6.000  1.00  0.00    -0.393 OA
ATOM     15  H2  UNL     1      19.808  -4.872   5.863  1.00  0.00     0.210 HD
ENDBRANCH  10  14
BRANCH  11  16
HETATM   16  C10 UNL     1      21.991  -3.401   6.587  1.00  0.00     0.046 C 
HETATM   17  C11 UNL     1      23.044  -2.330   6.585  1.00  0.00     0.015 C 
BRANCH  16  18
HETATM   18  C12 UNL     1      22.330  -4.625   7.390  1.00  0.00     0.136 C 
HETATM   19  O3  UNL     1      21.864  -5.739   6.703  1.00  0.00    -0.377 OA
HETATM   20  C13 UNL     1      22.927  -6.418   6.138  1.00  0.00     0.156 C 
HETATM   21  C14 UNL     1      23.104  -7.710   6.910  1.00  0.00     0.037 C 
HETATM   22  C24 UNL     1      24.198  -5.630   6.423  1.00  0.00     0.206 C 
HETATM   23  C15 UNL     1      22.610  -7.466   8.310  1.00  0.00     0.030 C 
HETATM   24  C16 UNL     1      23.653  -6.870   9.224  1.00  0.00     0.055 C 
HETATM   25 CL1  UNL     1      25.004  -8.092   9.102  1.00  0.00    -0.118 Cl
HETATM   26  C17 UNL     1      23.127  -7.154  10.615  1.00  0.00     0.109 C 
HETATM   27  C21 UNL     1      24.109  -5.519   8.961  1.00  0.00     0.004 C 
HETATM   28  C18 UNL     1      23.635  -6.185  11.625  1.00  0.00     0.150 C 
HETATM   29  O4  UNL     1      24.159  -6.498  12.708  1.00  0.00    -0.293 OA
HETATM   30  C19 UNL     1      23.456  -4.798  11.218  1.00  0.00     0.047 C 
HETATM   31  C20 UNL     1      23.684  -4.514   9.963  1.00  0.00    -0.011 C 
HETATM   32  C22 UNL     1      25.659  -5.399   9.005  1.00  0.00     0.022 C 
HETATM   33  C23 UNL     1      23.768  -4.889   7.630  1.00  0.00     0.065 C 
HETATM   34  F1  UNL     1      25.314  -6.388   6.513  1.00  0.00    -0.246 F 
ENDBRANCH  16  18
ENDBRANCH  11  16
ENDBRANCH   6   7
ENDBRANCH   3   6
BRANCH   3  35
HETATM   35  C25 UNL     1      19.036   1.977   5.474  1.00  0.00     0.024 C 
HETATM   36  C26 UNL     1      20.363   1.524   6.040  1.00  0.00     0.014 C 
HETATM   37  C27 UNL     1      18.329   2.781   6.535  1.00  0.00     0.014 C 
ENDBRANCH   3  35
TORSDOF 7
ENDMDL
MODEL 4
REMARK VINA RESULT: -8.161408271      2.398      4.018
REMARK  7 active torsions:
REMARK  status: ('A' for Active; 'I' for Inactive)
REMARK    1  A    between atoms: C3_3  and  O1_4 
REMARK    2  A    between atoms: C3_3  and  C4_6 
REMARK    3  A    between atoms: C3_3  and  C25_35 
REMARK    4  A    between atoms: C4_6  and  C5_7 
REMARK    5  A    between atoms: C8_10  and  O2_11 
REMARK    6  A    between atoms: C9_13  and  C10_14 
REMARK    7  A    between atoms: C10_14  and  C12_16 
ROOT
HETATM    1  C1  UNL     1      18.685   3.196   6.598  1.00  0.00     0.015 C 
HETATM    2  C2  UNL     1      18.048   2.365   5.998  1.00  0.00    -0.079 C 
HETATM    3  C3  UNL     1      17.263   1.387   5.296  1.00  0.00     0.126 C 
ENDROOT
BRANCH   3   4
HETATM    4  O1  UNL     1      16.352   0.833   6.196  1.00  0.00    -0.377 OA
ATOM      5  H1  UNL     1      16.281  -0.097   6.012  1.00  0.00     0.211 HD
ENDBRANCH   3   4
BRANCH   3   6
HETATM    6  C4  UNL     1      17.993   0.386   4.493  1.00  0.00     0.092 C 
BRANCH   6   7
HETATM    7  C5  UNL     1      18.016  -1.015   4.951  1.00  0.00     0.099 C 
HETATM    8  C6  UNL     1      16.913  -1.877   4.437  1.00  0.00     0.049 C 
HETATM    9  C7  UNL     1      18.260  -1.166   6.437  1.00  0.00     0.075 C 
HETATM   10  C8  UNL     1      19.447  -2.163   6.626  1.00  0.00     0.153 C 
HETATM   11  C9  UNL     1      20.619  -1.500   6.037  1.00  0.00     0.195 C 
HETATM   12  O5  UNL     1      20.268  -0.956   4.804  1.00  0.00    -0.232 OA
HETATM   13  O6  UNL     1      19.203  -1.578   4.373  1.00  0.00    -0.229 OA
BRANCH  10  14
HETATM   14  O2  UNL     1      19.019  -3.318   6.064  1.00  0.00    -0.393 OA
ATOM     15  H2  UNL     1      19.815  -3.791   5.848  1.00  0.00     0.210 HD
ENDBRANCH  10  14
BRANCH  11  16
HETATM   16  C10 UNL     1      21.892  -2.241   5.886  1.00  0.00     0.046 C 
HETATM   17  C11 UNL     1      22.906  -1.242   5.406  1.00  0.00     0.015 C 
BRANCH  16  18
HETATM   18  C12 UNL     1      22.312  -3.049   7.082  1.00  0.00     0.136 C 
HETATM   19  O3  UNL     1      21.282  -3.927   7.396  1.00  0.00    -0.377 OA
HETATM   20  C13 UNL     1      21.632  -5.211   7.023  1.00  0.00     0.156 C 
HETATM   21  C14 UNL     1      21.890  -5.999   8.292  1.00  0.00     0.037 C 
HETATM   22  C24 UNL     1      22.989  -5.151   6.334  1.00  0.00     0.206 C 
HETATM   23  C15 UNL     1      22.352  -5.023   9.339  1.00  0.00     0.030 C 
HETATM   24  C16 UNL     1      23.836  -4.753   9.301  1.00  0.00     0.055 C 
HETATM   25 CL1  UNL     1      24.530  -6.433   9.475  1.00  0.00    -0.118 Cl
HETATM   26  C17 UNL     1      24.138  -4.170  10.665  1.00  0.00     0.109 C 
HETATM   27  C21 UNL     1      24.380  -4.051   8.155  1.00  0.00     0.004 C 
HETATM   28  C18 UNL     1      25.348  -3.301  10.658  1.00  0.00     0.150 C 
HETATM   29  O4  UNL     1      26.296  -3.398  11.458  1.00  0.00    -0.293 OA
HETATM   30  C19 UNL     1      25.319  -2.299   9.601  1.00  0.00     0.047 C 
HETATM   31  C20 UNL     1      24.858  -2.678   8.438  1.00  0.00    -0.011 C 
HETATM   32  C22 UNL     1      25.654  -4.739   7.589  1.00  0.00     0.022 C 
HETATM   33  C23 UNL     1      23.514  -3.899   6.926  1.00  0.00     0.065 C 
HETATM   34  F1  UNL     1      23.732  -6.272   6.469  1.00  0.00    -0.246 F 
ENDBRANCH  16  18
ENDBRANCH  11  16
ENDBRANCH   6   7
ENDBRANCH   3   6
BRANCH   3  35
HETATM   35  C25 UNL     1      16.381   2.170   4.304  1.00  0.00     0.024 C 
HETATM   36  C26 UNL     1      15.903   3.438   4.976  1.00  0.00     0.014 C 
HETATM   37  C27 UNL     1      15.168   1.363   3.918  1.00  0.00     0.014 C 
ENDBRANCH   3  35
TORSDOF 7
ENDMDL
MODEL 5
REMARK VINA RESULT: -8.054870589      2.630      4.646
REMARK  7 active torsions:
REMARK  status: ('A' for Active; 'I' for Inactive)
REMARK    1  A    between atoms: C3_3  and  O1_4 
REMARK    2  A    between atoms: C3_3  and  C4_6 
REMARK    3  A    between atoms: C3_3  and  C25_35 
REMARK    4  A    between atoms: C4_6  and  C5_7 
REMARK    5  A    between atoms: C8_10  and  O2_11 
REMARK    6  A    between atoms: C9_13  and  C10_14 
REMARK    7  A    between atoms: C10_14  and  C12_16 
ROOT
HETATM    1  C1  UNL     1      15.819   2.034   4.191  1.00  0.00     0.015 C 
HETATM    2  C2  UNL     1      16.886   1.628   4.583  1.00  0.00    -0.079 C 
HETATM    3  C3  UNL     1      18.170   1.162   5.028  1.00  0.00     0.126 C 
ENDROOT
BRANCH   3   4
HETATM    4  O1  UNL     1      18.886   0.726   3.912  1.00  0.00    -0.377 OA
ATOM      5  H1  UNL     1      19.716   1.187   3.894  1.00  0.00     0.211 HD
ENDBRANCH   3   4
BRANCH   3   6
HETATM    6  C4  UNL     1      18.188   0.210   6.157  1.00  0.00     0.092 C 
BRANCH   6   7
HETATM    7  C5  UNL     1      18.085  -1.233   5.874  1.00  0.00     0.099 C 
HETATM    8  C6  UNL     1      17.046  -1.621   4.877  1.00  0.00     0.049 C 
HETATM    9  C7  UNL     1      18.085  -2.098   7.116  1.00  0.00     0.075 C 
HETATM   10  C8  UNL     1      19.188  -3.189   6.938  1.00  0.00     0.153 C 
HETATM   11  C9  UNL     1      20.462  -2.458   6.892  1.00  0.00     0.195 C 
HETATM   12  O5  UNL     1      20.332  -1.358   6.047  1.00  0.00    -0.232 OA
HETATM   13  O6  UNL     1      19.327  -1.580   5.243  1.00  0.00    -0.229 OA
BRANCH  10  14
HETATM   14  O2  UNL     1      18.812  -3.882   5.838  1.00  0.00    -0.393 OA
ATOM     15  H2  UNL     1      18.605  -4.752   6.160  1.00  0.00     0.210 HD
ENDBRANCH  10  14
BRANCH  11  16
HETATM   16  C10 UNL     1      21.716  -3.173   6.554  1.00  0.00     0.046 C 
HETATM   17  C11 UNL     1      22.567  -2.194   5.795  1.00  0.00     0.015 C 
BRANCH  16  18
HETATM   18  C12 UNL     1      22.400  -3.850   7.708  1.00  0.00     0.136 C 
HETATM   19  O3  UNL     1      21.599  -4.903   8.130  1.00  0.00    -0.377 OA
HETATM   20  C13 UNL     1      22.157  -6.104   7.733  1.00  0.00     0.156 C 
HETATM   21  C14 UNL     1      22.687  -6.792   8.975  1.00  0.00     0.037 C 
HETATM   22  C24 UNL     1      23.402  -5.798   6.911  1.00  0.00     0.206 C 
HETATM   23  C15 UNL     1      23.048  -5.717   9.963  1.00  0.00     0.030 C 
HETATM   24  C16 UNL     1      24.439  -5.163   9.774  1.00  0.00     0.055 C 
HETATM   25 CL1  UNL     1      25.464  -6.669   9.890  1.00  0.00    -0.118 Cl
HETATM   26  C17 UNL     1      24.751  -4.496  11.097  1.00  0.00     0.109 C 
HETATM   27  C21 UNL     1      24.719  -4.399   8.574  1.00  0.00     0.004 C 
HETATM   28  C18 UNL     1      25.759  -3.408  10.962  1.00  0.00     0.150 C 
HETATM   29  O4  UNL     1      26.780  -3.296  11.663  1.00  0.00    -0.293 OA
HETATM   30  C19 UNL     1      25.430  -2.460   9.906  1.00  0.00     0.047 C 
HETATM   31  C20 UNL     1      24.943  -2.952   8.798  1.00  0.00    -0.011 C 
HETATM   32  C22 UNL     1      26.043  -4.840   7.888  1.00  0.00     0.022 C 
HETATM   33  C23 UNL     1      23.726  -4.453   7.437  1.00  0.00     0.065 C 
HETATM   34  F1  UNL     1      24.361  -6.749   6.978  1.00  0.00    -0.246 F 
ENDBRANCH  16  18
ENDBRANCH  11  16
ENDBRANCH   6   7
ENDBRANCH   3   6
BRANCH   3  35
HETATM   35  C25 UNL     1      18.942   2.406   5.506  1.00  0.00     0.024 C 
HETATM   36  C26 UNL     1      20.245   1.957   6.132  1.00  0.00     0.014 C 
HETATM   37  C27 UNL     1      18.157   3.153   6.554  1.00  0.00     0.014 C 
ENDBRANCH   3  35
TORSDOF 7
ENDMDL
