MODEL 1
REMARK VINA RESULT: -6.493318027      0.000      0.000
REMARK  7 active torsions:
REMARK  status: ('A' for Active; 'I' for Inactive)
REMARK    1  A    between atoms: C2_2  and  C3_3 
REMARK       I    between atoms: C3_3  and  N1_5 
REMARK    2  A    between atoms: N1_5  and  C4_7 
REMARK    3  A    between atoms: C7_10  and  C8_11 
REMARK    4  A    between atoms: C12_17  and  O2_18 
REMARK    5  A    between atoms: C15_21  and  N2_22 
REMARK    6  A    between atoms: C18_25  and  N3_26 
REMARK    7  A    between atoms: C23_33  and  O3_34 
ROOT
HETATM    1  C4  UNL     1      21.746  -1.155   5.801  1.00  0.00     0.069 A 
HETATM    2  C5  UNL     1      22.619  -2.191   5.631  1.00  0.00     0.047 A 
HETATM    3  C6  UNL     1      23.977  -2.091   5.827  1.00  0.00     0.007 A 
HETATM    4  C7  UNL     1      24.817  -3.168   5.646  1.00  0.00     0.017 A 
HETATM    5  C15 UNL     1      26.160  -3.067   5.844  1.00  0.00     0.087 A 
HETATM    6  C18 UNL     1      26.694  -1.816   6.244  1.00  0.00     0.131 A 
HETATM    7  N4  UNL     1      25.877  -0.740   6.425  1.00  0.00    -0.335 N 
HETATM    8  C20 UNL     1      26.449   0.527   6.806  1.00  0.00     0.158 C 
HETATM    9  C21 UNL     1      24.535  -0.872   6.221  1.00  0.00     0.049 A 
HETATM   10  C22 UNL     1      23.659   0.177   6.396  1.00  0.00     0.069 A 
HETATM   11  C23 UNL     1      22.294   0.067   6.197  1.00  0.00     0.094 A 
ENDROOT
BRANCH   4  12
HETATM   12  C8  UNL     1      24.253  -4.447   5.247  1.00  0.00    -0.019 A 
HETATM   13  C9  UNL     1      24.310  -4.834   3.928  1.00  0.00     0.033 A 
HETATM   14  C10 UNL     1      23.784  -6.052   3.542  1.00  0.00     0.036 A 
HETATM   15 BR1  UNL     1      23.843  -6.622   1.719  1.00  0.00    -0.049 Br
HETATM   16  C11 UNL     1      23.203  -6.864   4.522  1.00  0.00     0.084 A 
HETATM   17 CL1  UNL     1      22.536  -8.414   4.042  1.00  0.00    -0.080 Cl
HETATM   18  C12 UNL     1      23.139  -6.489   5.845  1.00  0.00     0.092 A 
HETATM   19  C14 UNL     1      23.672  -5.269   6.197  1.00  0.00     0.051 A 
BRANCH  18  20
HETATM   20  O2  UNL     1      22.549  -7.348   6.757  1.00  0.00    -0.354 OA
HETATM   21  C13 UNL     1      22.517  -7.114   8.141  1.00  0.00     0.210 C 
ENDBRANCH  18  20
ENDBRANCH   4  12
BRANCH   5  22
HETATM   22  N2  UNL     1      26.987  -4.199   5.663  1.00  0.00    -0.374 N 
HETATM   23  C16 UNL     1      27.889  -5.035   4.792  1.00  0.00     0.143 A 
HETATM   24  C17 UNL     1      27.585  -5.390   6.202  1.00  0.00     0.143 A 
ENDBRANCH   5  22
BRANCH   6  25
HETATM   25  N3  UNL     1      27.931  -1.849   6.411  1.00  0.00    -0.379 N 
HETATM   26  C19 UNL     1      28.915  -1.954   7.374  1.00  0.00     0.147 C 
ATOM     27  H3  UNL     1      28.381  -1.770   5.500  1.00  0.00     0.160 HD
ENDBRANCH   6  25
BRANCH   1  28
HETATM   28  N1  UNL     1      20.347  -1.199   5.604  1.00  0.00    -0.321 N 
HETATM   29  C3  UNL     1      19.407  -1.973   6.270  1.00  0.00     0.245 C 
HETATM   30  O1  UNL     1      19.683  -2.774   7.177  1.00  0.00    -0.268 OA
ATOM     31  H1  UNL     1      19.982  -0.582   4.878  1.00  0.00     0.169 HD
BRANCH  29  32
HETATM   32  C2  UNL     1      17.989  -1.869   5.913  1.00  0.00     0.064 C 
HETATM   33  C1  UNL     1      17.586  -1.306   4.784  1.00  0.00     0.017 C 
ENDBRANCH  29  32
ENDBRANCH   1  28
BRANCH  11  34
HETATM   34  O3  UNL     1      21.501   1.195   6.402  1.00  0.00    -0.358 OA
ATOM     35  H3  UNL     1      20.880   1.246   7.119  1.00  0.00     0.217 HD
ENDBRANCH  11  34
TORSDOF 7
ENDMDL
MODEL 2
REMARK VINA RESULT: -6.093985450      1.414      2.027
REMARK  7 active torsions:
REMARK  status: ('A' for Active; 'I' for Inactive)
REMARK    1  A    between atoms: C2_2  and  C3_3 
REMARK       I    between atoms: C3_3  and  N1_5 
REMARK    2  A    between atoms: N1_5  and  C4_7 
REMARK    3  A    between atoms: C7_10  and  C8_11 
REMARK    4  A    between atoms: C12_17  and  O2_18 
REMARK    5  A    between atoms: C15_21  and  N2_22 
REMARK    6  A    between atoms: C18_25  and  N3_26 
REMARK    7  A    between atoms: C23_33  and  O3_34 
ROOT
HETATM    1  C4  UNL     1      21.825  -1.313   5.925  1.00  0.00     0.069 A 
HETATM    2  C5  UNL     1      22.723  -2.327   5.754  1.00  0.00     0.047 A 
HETATM    3  C6  UNL     1      24.086  -2.171   5.859  1.00  0.00     0.007 A 
HETATM    4  C7  UNL     1      24.953  -3.227   5.681  1.00  0.00     0.017 A 
HETATM    5  C15 UNL     1      26.300  -3.071   5.788  1.00  0.00     0.087 A 
HETATM    6  C18 UNL     1      26.811  -1.784   6.092  1.00  0.00     0.131 A 
HETATM    7  N4  UNL     1      25.968  -0.728   6.270  1.00  0.00    -0.335 N 
HETATM    8  C20 UNL     1      26.515   0.576   6.550  1.00  0.00     0.158 C 
HETATM    9  C21 UNL     1      24.621  -0.915   6.157  1.00  0.00     0.049 A 
HETATM   10  C22 UNL     1      23.720   0.111   6.333  1.00  0.00     0.069 A 
HETATM   11  C23 UNL     1      22.350  -0.054   6.225  1.00  0.00     0.094 A 
ENDROOT
BRANCH   4  12
HETATM   12  C8  UNL     1      24.412  -4.543   5.381  1.00  0.00    -0.019 A 
HETATM   13  C9  UNL     1      24.039  -5.376   6.411  1.00  0.00     0.033 A 
HETATM   14  C10 UNL     1      23.517  -6.625   6.135  1.00  0.00     0.036 A 
HETATM   15 BR1  UNL     1      22.991  -7.810   7.538  1.00  0.00    -0.049 Br
HETATM   16  C11 UNL     1      23.381  -7.006   4.795  1.00  0.00     0.084 A 
HETATM   17 CL1  UNL     1      22.716  -8.588   4.435  1.00  0.00    -0.080 Cl
HETATM   18  C12 UNL     1      23.751  -6.182   3.755  1.00  0.00     0.092 A 
HETATM   19  C14 UNL     1      24.268  -4.944   4.065  1.00  0.00     0.051 A 
BRANCH  18  20
HETATM   20  O2  UNL     1      23.585  -6.630   2.455  1.00  0.00    -0.354 OA
HETATM   21  C13 UNL     1      23.771  -5.821   1.323  1.00  0.00     0.210 C 
ENDBRANCH  18  20
ENDBRANCH   4  12
BRANCH   5  22
HETATM   22  N2  UNL     1      27.156  -4.183   5.613  1.00  0.00    -0.374 N 
HETATM   23  C16 UNL     1      28.009  -5.051   4.724  1.00  0.00     0.143 A 
HETATM   24  C17 UNL     1      27.854  -5.305   6.179  1.00  0.00     0.143 A 
ENDBRANCH   5  22
BRANCH   6  25
HETATM   25  N3  UNL     1      28.056  -1.767   6.184  1.00  0.00    -0.379 N 
HETATM   26  C19 UNL     1      29.100  -1.777   7.087  1.00  0.00     0.147 C 
ATOM     27  H3  UNL     1      28.447  -1.733   5.242  1.00  0.00     0.160 HD
ENDBRANCH   6  25
BRANCH   1  28
HETATM   28  N1  UNL     1      20.419  -1.414   5.818  1.00  0.00    -0.321 N 
HETATM   29  C3  UNL     1      19.567  -2.303   6.459  1.00  0.00     0.245 C 
HETATM   30  O1  UNL     1      19.946  -3.177   7.256  1.00  0.00    -0.268 OA
ATOM     31  H1  UNL     1      19.973  -0.747   5.187  1.00  0.00     0.169 HD
BRANCH  29  32
HETATM   32  C2  UNL     1      18.124  -2.242   6.211  1.00  0.00     0.064 C 
HETATM   33  C1  UNL     1      17.615  -1.600   5.170  1.00  0.00     0.017 C 
ENDBRANCH  29  32
ENDBRANCH   1  28
BRANCH  11  34
HETATM   34  O3  UNL     1      21.530   1.055   6.422  1.00  0.00    -0.358 OA
ATOM     35  H3  UNL     1      21.815   1.934   6.199  1.00  0.00     0.217 HD
ENDBRANCH  11  34
TORSDOF 7
ENDMDL
MODEL 3
REMARK VINA RESULT: -6.069781045      3.512      5.080
REMARK  7 active torsions:
REMARK  status: ('A' for Active; 'I' for Inactive)
REMARK    1  A    between atoms: C2_2  and  C3_3 
REMARK       I    between atoms: C3_3  and  N1_5 
REMARK    2  A    between atoms: N1_5  and  C4_7 
REMARK    3  A    between atoms: C7_10  and  C8_11 
REMARK    4  A    between atoms: C12_17  and  O2_18 
REMARK    5  A    between atoms: C15_21  and  N2_22 
REMARK    6  A    between atoms: C18_25  and  N3_26 
REMARK    7  A    between atoms: C23_33  and  O3_34 
ROOT
HETATM    1  C4  UNL     1      21.190  -2.138   6.146  1.00  0.00     0.069 A 
HETATM    2  C5  UNL     1      22.543  -2.318   6.139  1.00  0.00     0.047 A 
HETATM    3  C6  UNL     1      23.187  -3.321   6.826  1.00  0.00     0.007 A 
HETATM    4  C7  UNL     1      24.557  -3.465   6.785  1.00  0.00     0.017 A 
HETATM    5  C15 UNL     1      25.192  -4.460   7.462  1.00  0.00     0.087 A 
HETATM    6  C18 UNL     1      24.411  -5.363   8.227  1.00  0.00     0.131 A 
HETATM    7  N4  UNL     1      23.056  -5.234   8.280  1.00  0.00    -0.335 N 
HETATM    8  C20 UNL     1      22.288  -6.150   9.088  1.00  0.00     0.158 C 
HETATM    9  C21 UNL     1      22.447  -4.228   7.589  1.00  0.00     0.049 A 
HETATM   10  C22 UNL     1      21.081  -4.052   7.599  1.00  0.00     0.069 A 
HETATM   11  C23 UNL     1      20.441  -3.040   6.905  1.00  0.00     0.094 A 
ENDROOT
BRANCH   4  12
HETATM   12  C8  UNL     1      25.342  -2.537   5.986  1.00  0.00    -0.019 A 
HETATM   13  C9  UNL     1      25.829  -1.387   6.562  1.00  0.00     0.033 A 
HETATM   14  C10 UNL     1      26.583  -0.504   5.813  1.00  0.00     0.036 A 
HETATM   15 BR1  UNL     1      27.273   1.105   6.578  1.00  0.00    -0.049 Br
HETATM   16  C11 UNL     1      26.833  -0.817   4.472  1.00  0.00     0.084 A 
HETATM   17 CL1  UNL     1      27.793   0.295   3.514  1.00  0.00    -0.080 Cl
HETATM   18  C12 UNL     1      26.352  -1.966   3.884  1.00  0.00     0.092 A 
HETATM   19  C14 UNL     1      25.603  -2.823   4.658  1.00  0.00     0.051 A 
BRANCH  18  20
HETATM   20  O2  UNL     1      26.642  -2.207   2.551  1.00  0.00    -0.354 OA
HETATM   21  C13 UNL     1      26.363  -3.419   1.899  1.00  0.00     0.210 C 
ENDBRANCH  18  20
ENDBRANCH   4  12
BRANCH   5  22
HETATM   22  N2  UNL     1      26.598  -4.583   7.382  1.00  0.00    -0.374 N 
HETATM   23  C16 UNL     1      27.973  -4.235   7.891  1.00  0.00     0.143 A 
HETATM   24  C17 UNL     1      27.753  -5.156   6.746  1.00  0.00     0.143 A 
ENDBRANCH   5  22
BRANCH   6  25
HETATM   25  N3  UNL     1      25.099  -6.242   8.788  1.00  0.00    -0.379 N 
HETATM   26  C19 UNL     1      25.665  -6.601   9.995  1.00  0.00     0.147 C 
ATOM     27  H3  UNL     1      25.327  -6.959   8.100  1.00  0.00     0.160 HD
ENDBRANCH   6  25
BRANCH   1  28
HETATM   28  N1  UNL     1      20.478  -1.120   5.470  1.00  0.00    -0.321 N 
HETATM   29  C3  UNL     1      20.077   0.118   5.953  1.00  0.00     0.245 C 
HETATM   30  O1  UNL     1      20.301   0.519   7.107  1.00  0.00    -0.268 OA
ATOM     31  H1  UNL     1      20.228  -1.323   4.502  1.00  0.00     0.169 HD
BRANCH  29  32
HETATM   32  C2  UNL     1      19.342   1.040   5.083  1.00  0.00     0.064 C 
HETATM   33  C1  UNL     1      18.021   1.134   5.113  1.00  0.00     0.017 C 
ENDBRANCH  29  32
ENDBRANCH   1  28
BRANCH  11  34
HETATM   34  O3  UNL     1      19.053  -2.955   6.987  1.00  0.00    -0.358 OA
ATOM     35  H3  UNL     1      18.542  -2.479   6.343  1.00  0.00     0.217 HD
ENDBRANCH  11  34
TORSDOF 7
ENDMDL
MODEL 4
REMARK VINA RESULT: -5.862600385      1.812      2.401
REMARK  7 active torsions:
REMARK  status: ('A' for Active; 'I' for Inactive)
REMARK    1  A    between atoms: C2_2  and  C3_3 
REMARK       I    between atoms: C3_3  and  N1_5 
REMARK    2  A    between atoms: N1_5  and  C4_7 
REMARK    3  A    between atoms: C7_10  and  C8_11 
REMARK    4  A    between atoms: C12_17  and  O2_18 
REMARK    5  A    between atoms: C15_21  and  N2_22 
REMARK    6  A    between atoms: C18_25  and  N3_26 
REMARK    7  A    between atoms: C23_33  and  O3_34 
ROOT
HETATM    1  C4  UNL     1      21.890  -1.500   6.029  1.00  0.00     0.069 A 
HETATM    2  C5  UNL     1      22.784  -2.446   5.615  1.00  0.00     0.047 A 
HETATM    3  C6  UNL     1      24.119  -2.196   5.396  1.00  0.00     0.007 A 
HETATM    4  C7  UNL     1      24.984  -3.185   4.982  1.00  0.00     0.017 A 
HETATM    5  C15 UNL     1      26.305  -2.936   4.770  1.00  0.00     0.087 A 
HETATM    6  C18 UNL     1      26.789  -1.621   4.984  1.00  0.00     0.131 A 
HETATM    7  N4  UNL     1      25.947  -0.630   5.392  1.00  0.00    -0.335 N 
HETATM    8  C20 UNL     1      26.460   0.705   5.574  1.00  0.00     0.158 C 
HETATM    9  C21 UNL     1      24.628  -0.910   5.597  1.00  0.00     0.049 A 
HETATM   10  C22 UNL     1      23.731   0.047   6.017  1.00  0.00     0.069 A 
HETATM   11  C23 UNL     1      22.389  -0.213   6.234  1.00  0.00     0.094 A 
ENDROOT
BRANCH   4  12
HETATM   12  C8  UNL     1      24.474  -4.532   4.779  1.00  0.00    -0.019 A 
HETATM   13  C9  UNL     1      24.224  -5.336   5.866  1.00  0.00     0.033 A 
HETATM   14  C10 UNL     1      23.731  -6.613   5.682  1.00  0.00     0.036 A 
HETATM   15 BR1  UNL     1      23.374  -7.761   7.168  1.00  0.00    -0.049 Br
HETATM   16  C11 UNL     1      23.497  -7.052   4.374  1.00  0.00     0.084 A 
HETATM   17 CL1  UNL     1      22.868  -8.671   4.130  1.00  0.00    -0.080 Cl
HETATM   18  C12 UNL     1      23.743  -6.257   3.277  1.00  0.00     0.092 A 
HETATM   19  C14 UNL     1      24.235  -4.989   3.495  1.00  0.00     0.051 A 
BRANCH  18  20
HETATM   20  O2  UNL     1      23.486  -6.762   2.013  1.00  0.00    -0.354 OA
HETATM   21  C13 UNL     1      23.623  -6.014   0.832  1.00  0.00     0.210 C 
ENDBRANCH  18  20
ENDBRANCH   4  12
BRANCH   5  22
HETATM   22  N2  UNL     1      27.164  -3.982   4.360  1.00  0.00    -0.374 N 
HETATM   23  C16 UNL     1      27.866  -4.746   3.268  1.00  0.00     0.143 A 
HETATM   24  C17 UNL     1      28.014  -5.089   4.706  1.00  0.00     0.143 A 
ENDBRANCH   5  22
BRANCH   6  25
HETATM   25  N3  UNL     1      28.016  -1.518   4.776  1.00  0.00    -0.379 N 
HETATM   26  C19 UNL     1      28.951  -1.125   3.839  1.00  0.00     0.147 C 
ATOM     27  H3  UNL     1      28.511  -1.844   5.605  1.00  0.00     0.160 HD
ENDBRANCH   6  25
BRANCH   1  28
HETATM   28  N1  UNL     1      20.509  -1.699   6.257  1.00  0.00    -0.321 N 
HETATM   29  C3  UNL     1      19.435  -1.199   5.533  1.00  0.00     0.245 C 
HETATM   30  O1  UNL     1      19.550  -0.470   4.534  1.00  0.00    -0.268 OA
ATOM     31  H1  UNL     1      20.271  -2.285   7.057  1.00  0.00     0.169 HD
BRANCH  29  32
HETATM   32  C2  UNL     1      18.065  -1.526   5.936  1.00  0.00     0.064 C 
HETATM   33  C1  UNL     1      17.783  -2.592   6.670  1.00  0.00     0.017 C 
ENDBRANCH  29  32
ENDBRANCH   1  28
BRANCH  11  34
HETATM   34  O3  UNL     1      21.571   0.833   6.657  1.00  0.00    -0.358 OA
ATOM     35  H3  UNL     1      20.818   0.684   7.216  1.00  0.00     0.217 HD
ENDBRANCH  11  34
TORSDOF 7
ENDMDL
MODEL 5
REMARK VINA RESULT: -5.815127880      2.041      2.520
REMARK  7 active torsions:
REMARK  status: ('A' for Active; 'I' for Inactive)
REMARK    1  A    between atoms: C2_2  and  C3_3 
REMARK       I    between atoms: C3_3  and  N1_5 
REMARK    2  A    between atoms: N1_5  and  C4_7 
REMARK    3  A    between atoms: C7_10  and  C8_11 
REMARK    4  A    between atoms: C12_17  and  O2_18 
REMARK    5  A    between atoms: C15_21  and  N2_22 
REMARK    6  A    between atoms: C18_25  and  N3_26 
REMARK    7  A    between atoms: C23_33  and  O3_34 
ROOT
HETATM    1  C4  UNL     1      21.575  -1.600   6.251  1.00  0.00     0.069 A 
HETATM    2  C5  UNL     1      22.473  -2.590   6.530  1.00  0.00     0.047 A 
HETATM    3  C6  UNL     1      23.838  -2.418   6.503  1.00  0.00     0.007 A 
HETATM    4  C7  UNL     1      24.705  -3.447   6.797  1.00  0.00     0.017 A 
HETATM    5  C15 UNL     1      26.054  -3.274   6.773  1.00  0.00     0.087 A 
HETATM    6  C18 UNL     1      26.567  -1.996   6.437  1.00  0.00     0.131 A 
HETATM    7  N4  UNL     1      25.723  -0.966   6.142  1.00  0.00    -0.335 N 
HETATM    8  C20 UNL     1      26.271   0.316   5.776  1.00  0.00     0.158 C 
HETATM    9  C21 UNL     1      24.375  -1.170   6.175  1.00  0.00     0.049 A 
HETATM   10  C22 UNL     1      23.473  -0.167   5.895  1.00  0.00     0.069 A 
HETATM   11  C23 UNL     1      22.102  -0.350   5.923  1.00  0.00     0.094 A 
ENDROOT
BRANCH   4  12
HETATM   12  C8  UNL     1      24.163  -4.750   7.152  1.00  0.00    -0.019 A 
HETATM   13  C9  UNL     1      24.120  -5.132   8.472  1.00  0.00     0.033 A 
HETATM   14  C10 UNL     1      23.598  -6.363   8.819  1.00  0.00     0.036 A 
HETATM   15 BR1  UNL     1      23.525  -6.930  10.642  1.00  0.00    -0.049 Br
HETATM   16  C11 UNL     1      23.123  -7.194   7.797  1.00  0.00     0.084 A 
HETATM   17 CL1  UNL     1      22.456  -8.757   8.228  1.00  0.00    -0.080 Cl
HETATM   18  C12 UNL     1      23.160  -6.823   6.471  1.00  0.00     0.092 A 
HETATM   19  C14 UNL     1      23.686  -5.589   6.160  1.00  0.00     0.051 A 
BRANCH  18  20
HETATM   20  O2  UNL     1      22.669  -7.699   5.518  1.00  0.00    -0.354 OA
HETATM   21  C13 UNL     1      23.028  -7.655   4.161  1.00  0.00     0.210 C 
ENDBRANCH  18  20
ENDBRANCH   4  12
BRANCH   5  22
HETATM   22  N2  UNL     1      26.911  -4.352   7.095  1.00  0.00    -0.374 N 
HETATM   23  C16 UNL     1      27.667  -5.590   6.686  1.00  0.00     0.143 A 
HETATM   24  C17 UNL     1      27.705  -5.049   8.070  1.00  0.00     0.143 A 
ENDBRANCH   5  22
BRANCH   6  25
HETATM   25  N3  UNL     1      27.814  -1.952   6.466  1.00  0.00    -0.379 N 
HETATM   26  C19 UNL     1      28.890  -1.552   7.233  1.00  0.00     0.147 C 
ATOM     27  H3  UNL     1      28.171  -2.363   5.603  1.00  0.00     0.160 HD
ENDBRANCH   6  25
BRANCH   1  28
HETATM   28  N1  UNL     1      20.166  -1.725   6.252  1.00  0.00    -0.321 N 
HETATM   29  C3  UNL     1      19.391  -2.737   6.800  1.00  0.00     0.245 C 
HETATM   30  O1  UNL     1      19.855  -3.724   7.394  1.00  0.00    -0.268 OA
ATOM     31  H1  UNL     1      19.654  -0.973   5.790  1.00  0.00     0.169 HD
BRANCH  29  32
HETATM   32  C2  UNL     1      17.930  -2.679   6.694  1.00  0.00     0.064 C 
HETATM   33  C1  UNL     1      17.307  -2.716   5.525  1.00  0.00     0.017 C 
ENDBRANCH  29  32
ENDBRANCH   1  28
BRANCH  11  34
HETATM   34  O3  UNL     1      21.282   0.736   5.621  1.00  0.00    -0.358 OA
ATOM     35  H3  UNL     1      20.705   1.124   6.269  1.00  0.00     0.217 HD
ENDBRANCH  11  34
TORSDOF 7
ENDMDL
