MODEL 1
REMARK VINA RESULT: -4.979394697      0.000      0.000
REMARK  5 active torsions:
REMARK  status: ('A' for Active; 'I' for Inactive)
REMARK    1  A    between atoms: C2_2  and  O1_3 
REMARK    2  A    between atoms: C5_7  and  O2_8 
REMARK    3  A    between atoms: C7_11  and  C8_12 
REMARK    4  A    between atoms: C9_13  and  O3_14 
REMARK    5  A    between atoms: C11_18  and  O5_19 
ROOT
HETATM    1  C1  UNL     1      -1.867  -5.597   8.205  1.00  0.00     0.046 C 
HETATM    2  C2  UNL     1      -2.860  -5.446   9.304  1.00  0.00     0.058 C 
HETATM    3  C3  UNL     1      -2.254  -5.703  10.656  1.00  0.00     0.040 C 
HETATM    4  C4  UNL     1      -3.176  -5.929  11.776  1.00  0.00     0.035 C 
HETATM    5  C5  UNL     1      -4.530  -6.540  11.475  1.00  0.00     0.123 C 
HETATM    6  C6  UNL     1      -5.030  -5.927  10.204  1.00  0.00     0.030 C 
HETATM    7  C7  UNL     1      -6.448  -5.946   9.880  1.00  0.00     0.033 C 
HETATM    8  C12 UNL     1      -6.741  -5.401   8.511  1.00  0.00     0.010 C 
HETATM    9  C13 UNL     1      -6.051  -6.352   7.548  1.00  0.00     0.001 C 
HETATM   10  C14 UNL     1      -4.567  -6.369   7.741  1.00  0.00     0.008 C 
HETATM   11  C15 UNL     1      -4.084  -6.350   9.122  1.00  0.00     0.027 C 
ENDROOT
BRANCH   7  12
HETATM   12  C8  UNL     1      -7.317  -5.313  10.857  1.00  0.00     0.040 A 
HETATM   13  C9  UNL     1      -7.097  -4.177  11.585  1.00  0.00     0.099 A 
HETATM   14  C10 UNL     1      -8.222  -3.858  12.280  1.00  0.00     0.182 A 
HETATM   15  O4  UNL     1      -9.126  -4.770  11.996  1.00  0.00    -0.297 OA
HETATM   16  C11 UNL     1      -8.630  -5.651  11.151  1.00  0.00     0.192 A 
BRANCH  13  17
HETATM   17  O3  UNL     1      -5.905  -3.447  11.608  1.00  0.00    -0.358 OA
ATOM     18  H3  UNL     1      -5.558  -2.982  12.360  1.00  0.00     0.217 HD
ENDBRANCH  13  17
BRANCH  16  19
HETATM   19  O5  UNL     1      -9.393  -6.709  10.686  1.00  0.00    -0.340 OA
ATOM     20  H5  UNL     1     -10.338  -6.800  10.644  1.00  0.00     0.220 HD
ENDBRANCH  16  19
ENDBRANCH   7  12
BRANCH   5  21
HETATM   21  O2  UNL     1      -5.387  -6.194  12.540  1.00  0.00    -0.395 OA
ATOM     22  H2  UNL     1      -5.618  -6.999  12.986  1.00  0.00     0.210 HD
ENDBRANCH   5  21
BRANCH   2  23
HETATM   23  O1  UNL     1      -3.348  -4.124   9.252  1.00  0.00    -0.390 OA
ATOM     24  H1  UNL     1      -4.098  -4.076   9.832  1.00  0.00     0.210 HD
ENDBRANCH   2  23
TORSDOF 5
ENDMDL
MODEL 2
REMARK VINA RESULT: -3.720813612     10.013     11.898
REMARK  5 active torsions:
REMARK  status: ('A' for Active; 'I' for Inactive)
REMARK    1  A    between atoms: C2_2  and  O1_3 
REMARK    2  A    between atoms: C5_7  and  O2_8 
REMARK    3  A    between atoms: C7_11  and  C8_12 
REMARK    4  A    between atoms: C9_13  and  O3_14 
REMARK    5  A    between atoms: C11_18  and  O5_19 
ROOT
HETATM    1  C1  UNL     1      -2.720   0.040   1.718  1.00  0.00     0.046 C 
HETATM    2  C2  UNL     1      -2.619   1.382   2.356  1.00  0.00     0.058 C 
HETATM    3  C3  UNL     1      -2.823   2.498   1.370  1.00  0.00     0.040 C 
HETATM    4  C4  UNL     1      -2.412   3.845   1.781  1.00  0.00     0.035 C 
HETATM    5  C5  UNL     1      -1.276   3.974   2.776  1.00  0.00     0.123 C 
HETATM    6  C6  UNL     1      -1.449   2.896   3.801  1.00  0.00     0.030 C 
HETATM    7  C7  UNL     1      -0.819   3.008   5.108  1.00  0.00     0.033 C 
HETATM    8  C12 UNL     1      -0.999   1.777   5.949  1.00  0.00     0.010 C 
HETATM    9  C13 UNL     1      -0.273   0.673   5.199  1.00  0.00     0.001 C 
HETATM   10  C14 UNL     1      -0.878   0.417   3.854  1.00  0.00     0.008 C 
HETATM   11  C15 UNL     1      -1.287   1.591   3.083  1.00  0.00     0.027 C 
ENDROOT
BRANCH   7  12
HETATM   12  C8  UNL     1      -1.187   4.186   5.875  1.00  0.00     0.040 A 
HETATM   13  C9  UNL     1      -2.367   4.877   5.863  1.00  0.00     0.099 A 
HETATM   14  C10 UNL     1      -2.342   5.833   6.832  1.00  0.00     0.182 A 
HETATM   15  O4  UNL     1      -1.177   5.743   7.436  1.00  0.00    -0.297 OA
HETATM   16  C11 UNL     1      -0.463   4.775   6.900  1.00  0.00     0.192 A 
BRANCH  13  17
HETATM   17  O3  UNL     1      -3.438   4.638   4.999  1.00  0.00    -0.358 OA
ATOM     18  H3  UNL     1      -3.628   5.128   4.208  1.00  0.00     0.217 HD
ENDBRANCH  13  17
BRANCH  16  19
HETATM   19  O5  UNL     1       0.804   4.472   7.373  1.00  0.00    -0.340 OA
ATOM     20  H5  UNL     1       1.065   3.880   8.067  1.00  0.00     0.220 HD
ENDBRANCH  16  19
ENDBRANCH   7  12
BRANCH   5  21
HETATM   21  O2  UNL     1      -1.402   5.238   3.388  1.00  0.00    -0.395 OA
ATOM     22  H2  UNL     1      -1.471   5.089   4.323  1.00  0.00     0.210 HD
ENDBRANCH   5  21
BRANCH   2  23
HETATM   23  O1  UNL     1      -3.615   1.448   3.353  1.00  0.00    -0.390 OA
ATOM     24  H1  UNL     1      -3.345   2.111   3.977  1.00  0.00     0.210 HD
ENDBRANCH   2  23
TORSDOF 5
ENDMDL
MODEL 3
REMARK VINA RESULT: -3.716342190     10.222     12.190
REMARK  5 active torsions:
REMARK  status: ('A' for Active; 'I' for Inactive)
REMARK    1  A    between atoms: C2_2  and  O1_3 
REMARK    2  A    between atoms: C5_7  and  O2_8 
REMARK    3  A    between atoms: C7_11  and  C8_12 
REMARK    4  A    between atoms: C9_13  and  O3_14 
REMARK    5  A    between atoms: C11_18  and  O5_19 
ROOT
HETATM    1  C1  UNL     1      -4.945   1.591  -0.804  1.00  0.00     0.046 C 
HETATM    2  C2  UNL     1      -4.209   2.307   0.275  1.00  0.00     0.058 C 
HETATM    3  C3  UNL     1      -3.887   3.726  -0.102  1.00  0.00     0.040 C 
HETATM    4  C4  UNL     1      -2.881   4.426   0.705  1.00  0.00     0.035 C 
HETATM    5  C5  UNL     1      -1.795   3.602   1.366  1.00  0.00     0.123 C 
HETATM    6  C6  UNL     1      -2.431   2.348   1.882  1.00  0.00     0.030 C 
HETATM    7  C7  UNL     1      -1.792   1.572   2.934  1.00  0.00     0.033 C 
HETATM    8  C12 UNL     1      -2.510   0.286   3.228  1.00  0.00     0.010 C 
HETATM    9  C13 UNL     1      -2.407  -0.528   1.949  1.00  0.00     0.001 C 
HETATM   10  C14 UNL     1      -3.092   0.142   0.800  1.00  0.00     0.008 C 
HETATM   11  C15 UNL     1      -2.919   1.591   0.686  1.00  0.00     0.027 C 
ENDROOT
BRANCH   7  12
HETATM   12  C8  UNL     1      -1.544   2.291   4.173  1.00  0.00     0.040 A 
HETATM   13  C9  UNL     1      -0.575   2.064   5.110  1.00  0.00     0.099 A 
HETATM   14  C10 UNL     1      -0.610   3.051   6.047  1.00  0.00     0.182 A 
HETATM   15  O4  UNL     1      -1.577   3.876   5.705  1.00  0.00    -0.297 OA
HETATM   16  C11 UNL     1      -2.154   3.462   4.596  1.00  0.00     0.192 A 
BRANCH  13  17
HETATM   17  O3  UNL     1       0.320   0.992   5.108  1.00  0.00    -0.358 OA
ATOM     18  H3  UNL     1       1.089   0.914   5.660  1.00  0.00     0.217 HD
ENDBRANCH  13  17
BRANCH  16  19
HETATM   19  O5  UNL     1      -3.197   4.171   4.023  1.00  0.00    -0.340 OA
ATOM     20  H5  UNL     1      -3.216   4.672   3.216  1.00  0.00     0.220 HD
ENDBRANCH  16  19
ENDBRANCH   7  12
BRANCH   5  21
HETATM   21  O2  UNL     1      -1.297   4.362   2.445  1.00  0.00    -0.395 OA
ATOM     22  H2  UNL     1      -0.800   3.770   2.997  1.00  0.00     0.210 HD
ENDBRANCH   5  21
BRANCH   2  23
HETATM   23  O1  UNL     1      -5.033   2.301   1.420  1.00  0.00    -0.390 OA
ATOM     24  H1  UNL     1      -4.683   2.945   2.023  1.00  0.00     0.210 HD
ENDBRANCH   2  23
TORSDOF 5
ENDMDL
MODEL 4
REMARK VINA RESULT: -3.643032036     10.211     12.203
REMARK  5 active torsions:
REMARK  status: ('A' for Active; 'I' for Inactive)
REMARK    1  A    between atoms: C2_2  and  O1_3 
REMARK    2  A    between atoms: C5_7  and  O2_8 
REMARK    3  A    between atoms: C7_11  and  C8_12 
REMARK    4  A    between atoms: C9_13  and  O3_14 
REMARK    5  A    between atoms: C11_18  and  O5_19 
ROOT
HETATM    1  C1  UNL     1      -5.097   1.466  -0.690  1.00  0.00     0.046 C 
HETATM    2  C2  UNL     1      -4.305   2.223   0.319  1.00  0.00     0.058 C 
HETATM    3  C3  UNL     1      -3.992   3.621  -0.137  1.00  0.00     0.040 C 
HETATM    4  C4  UNL     1      -2.943   4.347   0.588  1.00  0.00     0.035 C 
HETATM    5  C5  UNL     1      -1.832   3.544   1.233  1.00  0.00     0.123 C 
HETATM    6  C6  UNL     1      -2.450   2.320   1.835  1.00  0.00     0.030 C 
HETATM    7  C7  UNL     1      -1.767   1.586   2.888  1.00  0.00     0.033 C 
HETATM    8  C12 UNL     1      -2.478   0.321   3.274  1.00  0.00     0.010 C 
HETATM    9  C13 UNL     1      -2.443  -0.551   2.029  1.00  0.00     0.001 C 
HETATM   10  C14 UNL     1      -3.179   0.074   0.886  1.00  0.00     0.008 C 
HETATM   11  C15 UNL     1      -3.001   1.514   0.698  1.00  0.00     0.027 C 
ENDROOT
BRANCH   7  12
HETATM   12  C8  UNL     1      -1.454   2.356   4.080  1.00  0.00     0.040 A 
HETATM   13  C9  UNL     1      -2.089   3.464   4.570  1.00  0.00     0.099 A 
HETATM   14  C10 UNL     1      -1.561   3.791   5.781  1.00  0.00     0.182 A 
HETATM   15  O4  UNL     1      -0.620   2.910   6.045  1.00  0.00    -0.297 OA
HETATM   16  C11 UNL     1      -0.527   2.039   5.061  1.00  0.00     0.192 A 
BRANCH  13  17
HETATM   17  O3  UNL     1      -3.124   4.153   3.934  1.00  0.00    -0.358 OA
ATOM     18  H3  UNL     1      -3.014   4.829   3.276  1.00  0.00     0.217 HD
ENDBRANCH  13  17
BRANCH  16  19
HETATM   19  O5  UNL     1       0.387   0.999   5.108  1.00  0.00    -0.340 OA
ATOM     20  H5  UNL     1       0.250   0.067   4.991  1.00  0.00     0.220 HD
ENDBRANCH  16  19
ENDBRANCH   7  12
BRANCH   5  21
HETATM   21  O2  UNL     1      -1.277   4.346   2.251  1.00  0.00    -0.395 OA
ATOM     22  H2  UNL     1      -0.658   4.935   1.836  1.00  0.00     0.210 HD
ENDBRANCH   5  21
BRANCH   2  23
HETATM   23  O1  UNL     1      -5.072   2.275   1.501  1.00  0.00    -0.390 OA
ATOM     24  H1  UNL     1      -5.052   1.409   1.889  1.00  0.00     0.210 HD
ENDBRANCH   2  23
TORSDOF 5
ENDMDL
MODEL 5
REMARK VINA RESULT: -2.821684972      9.835     12.188
REMARK  5 active torsions:
REMARK  status: ('A' for Active; 'I' for Inactive)
REMARK    1  A    between atoms: C2_2  and  O1_3 
REMARK    2  A    between atoms: C5_7  and  O2_8 
REMARK    3  A    between atoms: C7_11  and  C8_12 
REMARK    4  A    between atoms: C9_13  and  O3_14 
REMARK    5  A    between atoms: C11_18  and  O5_19 
ROOT
HETATM    1  C1  UNL     1      -2.907   5.244   0.932  1.00  0.00     0.046 C 
HETATM    2  C2  UNL     1      -3.020   3.775   0.713  1.00  0.00     0.058 C 
HETATM    3  C3  UNL     1      -4.048   3.434  -0.329  1.00  0.00     0.040 C 
HETATM    4  C4  UNL     1      -4.505   2.041  -0.394  1.00  0.00     0.035 C 
HETATM    5  C5  UNL     1      -4.484   1.221   0.880  1.00  0.00     0.123 C 
HETATM    6  C6  UNL     1      -3.227   1.565   1.617  1.00  0.00     0.030 C 
HETATM    7  C7  UNL     1      -2.683   0.659   2.618  1.00  0.00     0.033 C 
HETATM    8  C12 UNL     1      -1.497   1.231   3.339  1.00  0.00     0.010 C 
HETATM    9  C13 UNL     1      -2.028   2.447   4.080  1.00  0.00     0.001 C 
HETATM   10  C14 UNL     1      -2.558   3.487   3.144  1.00  0.00     0.008 C 
HETATM   11  C15 UNL     1      -3.336   3.009   2.001  1.00  0.00     0.027 C 
ENDROOT
BRANCH   7  12
HETATM   12  C8  UNL     1      -2.372  -0.678   2.143  1.00  0.00     0.040 A 
HETATM   13  C9  UNL     1      -2.700  -1.880   2.705  1.00  0.00     0.099 A 
HETATM   14  C10 UNL     1      -2.334  -2.888   1.866  1.00  0.00     0.182 A 
HETATM   15  O4  UNL     1      -1.792  -2.332   0.805  1.00  0.00    -0.297 OA
HETATM   16  C11 UNL     1      -1.798  -1.020   0.928  1.00  0.00     0.192 A 
BRANCH  13  17
HETATM   17  O3  UNL     1      -3.321  -2.054   3.944  1.00  0.00    -0.358 OA
ATOM     18  H3  UNL     1      -2.939  -2.491   4.696  1.00  0.00     0.217 HD
ENDBRANCH  13  17
BRANCH  16  19
HETATM   19  O5  UNL     1      -1.291  -0.204  -0.070  1.00  0.00    -0.340 OA
ATOM     20  H5  UNL     1      -0.590   0.436  -0.030  1.00  0.00     0.220 HD
ENDBRANCH  16  19
ENDBRANCH   7  12
BRANCH   5  21
HETATM   21  O2  UNL     1      -4.457  -0.137   0.499  1.00  0.00    -0.395 OA
ATOM     22  H2  UNL     1      -3.544  -0.394   0.447  1.00  0.00     0.210 HD
ENDBRANCH   5  21
BRANCH   2  23
HETATM   23  O1  UNL     1      -1.755   3.315   0.292  1.00  0.00    -0.390 OA
ATOM     24  H1  UNL     1      -1.126   3.999   0.489  1.00  0.00     0.210 HD
ENDBRANCH   2  23
TORSDOF 5
ENDMDL
