MODEL 1
REMARK VINA RESULT: -5.833660978      0.000      0.000
REMARK  3 active torsions:
REMARK  status: ('A' for Active; 'I' for Inactive)
REMARK    1  A    between atoms: O1_1  and  C1_3 
REMARK    2  A    between atoms: C4_6  and  O2_7 
REMARK    3  A    between atoms: N1_9  and  C5_10 
ROOT
HETATM    1  C1  UNL     1      -1.980   1.054   3.238  1.00  0.00     0.172 A 
HETATM    2  C2  UNL     1      -1.355   1.384   4.426  1.00  0.00     0.093 A 
HETATM    3  C3  UNL     1      -1.425   2.732   4.572  1.00  0.00     0.061 A 
HETATM    4  C4  UNL     1      -2.099   3.200   3.459  1.00  0.00     0.156 A 
HETATM    5  N1  UNL     1      -2.439   2.161   2.640  1.00  0.00    -0.301 N 
HETATM    6  C11 UNL     1      -0.770   3.171   5.834  1.00  0.00     0.174 C 
HETATM    7  C12 UNL     1      -1.802   3.674   6.791  1.00  0.00     0.046 C 
HETATM    8  C13 UNL     1      -1.253   4.448   7.941  1.00  0.00     0.004 C 
HETATM    9  C14 UNL     1      -0.319   5.509   7.455  1.00  0.00     0.027 C 
HETATM   10  C15 UNL     1       0.785   4.801   6.659  1.00  0.00     0.233 C 
HETATM   11  N2  UNL     1       0.139   4.245   5.489  1.00  0.00    -0.060 N 
ATOM     12  H21 UNL     1      -0.331   4.968   4.945  1.00  0.00     0.278 HD
ATOM     13  H22 UNL     1       0.824   3.943   4.796  1.00  0.00     0.278 HD
HETATM   14  C16 UNL     1      -0.057   1.941   6.305  1.00  0.00     0.164 C 
HETATM   15  N3  UNL     1      -0.667   0.860   5.553  1.00  0.00    -0.383 N 
ATOM     16  H3  UNL     1      -0.609  -0.129   5.796  1.00  0.00     0.159 HD
ENDROOT
BRANCH   4  17
HETATM   17  O2  UNL     1      -2.412   4.500   3.161  1.00  0.00    -0.345 OA
ATOM     18  H2  UNL     1      -3.101   4.810   2.585  1.00  0.00     0.219 HD
ENDBRANCH   4  17
BRANCH   1  19
HETATM   19  O1  UNL     1      -2.057  -0.286   2.834  1.00  0.00    -0.344 OA
ATOM     20  H1  UNL     1      -2.116  -0.502   1.911  1.00  0.00     0.219 HD
ENDBRANCH   1  19
BRANCH   5  21
HETATM   21  C5  UNL     1      -3.135   2.233   1.410  1.00  0.00     0.094 C 
HETATM   22  C6  UNL     1      -4.581   1.850   1.424  1.00  0.00     0.026 C 
HETATM   23  C7  UNL     1      -4.995   1.566  -0.008  1.00  0.00     0.002 C 
HETATM   24  C8  UNL     1      -4.192   2.366  -0.998  1.00  0.00     0.000 C 
HETATM   25  C9  UNL     1      -3.959   3.738  -0.410  1.00  0.00     0.002 C 
HETATM   26  C10 UNL     1      -3.073   3.637   0.834  1.00  0.00     0.026 C 
ENDBRANCH   5  21
TORSDOF 3
ENDMDL
MODEL 2
REMARK VINA RESULT: -5.754722655      2.109      6.323
REMARK  3 active torsions:
REMARK  status: ('A' for Active; 'I' for Inactive)
REMARK    1  A    between atoms: O1_1  and  C1_3 
REMARK    2  A    between atoms: C4_6  and  O2_7 
REMARK    3  A    between atoms: N1_9  and  C5_10 
ROOT
HETATM    1  C1  UNL     1      -2.159   3.437   3.079  1.00  0.00     0.172 A 
HETATM    2  C2  UNL     1      -2.455   2.390   2.227  1.00  0.00     0.093 A 
HETATM    3  C3  UNL     1      -2.225   1.231   2.896  1.00  0.00     0.061 A 
HETATM    4  C4  UNL     1      -1.789   1.601   4.155  1.00  0.00     0.156 A 
HETATM    5  N1  UNL     1      -1.750   2.963   4.262  1.00  0.00    -0.301 N 
HETATM    6  C11 UNL     1      -2.521   0.049   2.043  1.00  0.00     0.174 C 
HETATM    7  C12 UNL     1      -3.729  -0.659   2.562  1.00  0.00     0.046 C 
HETATM    8  C13 UNL     1      -3.927  -2.031   2.010  1.00  0.00     0.004 C 
HETATM    9  C14 UNL     1      -2.668  -2.826   2.132  1.00  0.00     0.027 C 
HETATM   10  C15 UNL     1      -1.578  -2.055   1.377  1.00  0.00     0.233 C 
HETATM   11  N2  UNL     1      -1.371  -0.829   2.120  1.00  0.00    -0.060 N 
ATOM     12  H21 UNL     1      -1.114  -1.020   3.088  1.00  0.00     0.278 HD
ATOM     13  H22 UNL     1      -0.521  -0.353   1.819  1.00  0.00     0.278 HD
HETATM   14  C16 UNL     1      -2.706   0.639   0.679  1.00  0.00     0.164 C 
HETATM   15  N3  UNL     1      -2.907   2.055   0.922  1.00  0.00    -0.383 N 
ATOM     16  H3  UNL     1      -3.311   2.713   0.256  1.00  0.00     0.159 HD
ENDROOT
BRANCH   4  17
HETATM   17  O2  UNL     1      -1.432   0.775   5.189  1.00  0.00    -0.345 OA
ATOM     18  H2  UNL     1      -1.493   0.956   6.119  1.00  0.00     0.219 HD
ENDBRANCH   4  17
BRANCH   1  19
HETATM   19  O1  UNL     1      -2.310   4.761   2.643  1.00  0.00    -0.344 OA
ATOM     20  H1  UNL     1      -2.807   5.380   3.165  1.00  0.00     0.219 HD
ENDBRANCH   1  19
BRANCH   5  21
HETATM   21  C5  UNL     1      -1.360   3.722   5.391  1.00  0.00     0.094 C 
HETATM   22  C6  UNL     1       0.017   4.303   5.377  1.00  0.00     0.026 C 
HETATM   23  C7  UNL     1       0.377   4.667   6.805  1.00  0.00     0.002 C 
HETATM   24  C8  UNL     1      -0.837   5.016   7.624  1.00  0.00     0.000 C 
HETATM   25  C9  UNL     1      -1.790   5.785   6.739  1.00  0.00     0.002 C 
HETATM   26  C10 UNL     1      -2.310   4.886   5.615  1.00  0.00     0.026 C 
ENDBRANCH   5  21
TORSDOF 3
ENDMDL
MODEL 3
REMARK VINA RESULT: -4.572522246      8.811     10.180
REMARK  3 active torsions:
REMARK  status: ('A' for Active; 'I' for Inactive)
REMARK    1  A    between atoms: O1_1  and  C1_3 
REMARK    2  A    between atoms: C4_6  and  O2_7 
REMARK    3  A    between atoms: N1_9  and  C5_10 
ROOT
HETATM    1  C1  UNL     1      -6.223  -5.670   7.119  1.00  0.00     0.172 A 
HETATM    2  C2  UNL     1      -6.390  -5.921   8.467  1.00  0.00     0.093 A 
HETATM    3  C3  UNL     1      -5.255  -5.537   9.106  1.00  0.00     0.061 A 
HETATM    4  C4  UNL     1      -4.412  -5.053   8.123  1.00  0.00     0.156 A 
HETATM    5  N1  UNL     1      -5.014  -5.138   6.899  1.00  0.00    -0.301 N 
HETATM    6  C11 UNL     1      -5.354  -5.777  10.571  1.00  0.00     0.174 C 
HETATM    7  C12 UNL     1      -5.419  -4.472  11.294  1.00  0.00     0.046 C 
HETATM    8  C13 UNL     1      -5.179  -4.566  12.763  1.00  0.00     0.004 C 
HETATM    9  C14 UNL     1      -3.931  -5.341  13.037  1.00  0.00     0.027 C 
HETATM   10  C15 UNL     1      -4.113  -6.722  12.395  1.00  0.00     0.233 C 
HETATM   11  N2  UNL     1      -4.158  -6.494  10.966  1.00  0.00    -0.060 N 
ATOM     12  H21 UNL     1      -3.317  -6.020  10.638  1.00  0.00     0.278 HD
ATOM     13  H22 UNL     1      -4.061  -7.367  10.448  1.00  0.00     0.278 HD
HETATM   14  C16 UNL     1      -6.594  -6.606  10.708  1.00  0.00     0.164 C 
HETATM   15  N3  UNL     1      -7.288  -6.428   9.445  1.00  0.00    -0.383 N 
ATOM     16  H3  UNL     1      -8.273  -6.635   9.284  1.00  0.00     0.159 HD
ENDROOT
BRANCH   4  17
HETATM   17  O2  UNL     1      -3.148  -4.550   8.283  1.00  0.00    -0.345 OA
ATOM     18  H2  UNL     1      -2.613  -4.113   7.630  1.00  0.00     0.219 HD
ENDBRANCH   4  17
BRANCH   1  19
HETATM   19  O1  UNL     1      -7.251  -5.973   6.216  1.00  0.00    -0.344 OA
ATOM     20  H1  UNL     1      -7.969  -6.534   6.483  1.00  0.00     0.219 HD
ENDBRANCH   1  19
BRANCH   5  21
HETATM   21  C5  UNL     1      -4.476  -4.743   5.651  1.00  0.00     0.094 C 
HETATM   22  C6  UNL     1      -2.991  -4.824   5.495  1.00  0.00     0.026 C 
HETATM   23  C7  UNL     1      -2.606  -3.960   4.308  1.00  0.00     0.002 C 
HETATM   24  C8  UNL     1      -3.707  -3.882   3.285  1.00  0.00     0.000 C 
HETATM   25  C9  UNL     1      -4.365  -5.240   3.201  1.00  0.00     0.002 C 
HETATM   26  C10 UNL     1      -5.068  -5.568   4.521  1.00  0.00     0.026 C 
ENDBRANCH   5  21
TORSDOF 3
ENDMDL
MODEL 4
REMARK VINA RESULT: -4.255214032      1.399      6.258
REMARK  3 active torsions:
REMARK  status: ('A' for Active; 'I' for Inactive)
REMARK    1  A    between atoms: O1_1  and  C1_3 
REMARK    2  A    between atoms: C4_6  and  O2_7 
REMARK    3  A    between atoms: N1_9  and  C5_10 
ROOT
HETATM    1  C1  UNL     1      -1.164   1.325   4.470  1.00  0.00     0.172 A 
HETATM    2  C2  UNL     1      -1.903   0.911   3.378  1.00  0.00     0.093 A 
HETATM    3  C3  UNL     1      -2.559   1.993   2.884  1.00  0.00     0.061 A 
HETATM    4  C4  UNL     1      -2.200   3.055   3.695  1.00  0.00     0.156 A 
HETATM    5  N1  UNL     1      -1.341   2.637   4.671  1.00  0.00    -0.301 N 
HETATM    6  C11 UNL     1      -3.383   1.630   1.700  1.00  0.00     0.174 C 
HETATM    7  C12 UNL     1      -2.799   2.245   0.470  1.00  0.00     0.046 C 
HETATM    8  C13 UNL     1      -3.707   2.240  -0.713  1.00  0.00     0.004 C 
HETATM    9  C14 UNL     1      -5.045   2.794  -0.344  1.00  0.00     0.027 C 
HETATM   10  C15 UNL     1      -5.587   1.926   0.799  1.00  0.00     0.233 C 
HETATM   11  N2  UNL     1      -4.711   2.161   1.928  1.00  0.00    -0.060 N 
ATOM     12  H21 UNL     1      -4.677   3.151   2.172  1.00  0.00     0.278 HD
ATOM     13  H22 UNL     1      -5.113   1.797   2.791  1.00  0.00     0.278 HD
HETATM   14  C16 UNL     1      -3.354   0.132   1.699  1.00  0.00     0.164 C 
HETATM   15  N3  UNL     1      -2.245  -0.208   2.572  1.00  0.00    -0.383 N 
ATOM     16  H3  UNL     1      -1.779  -1.115   2.602  1.00  0.00     0.159 HD
ENDROOT
BRANCH   4  17
HETATM   17  O2  UNL     1      -2.611   4.358   3.589  1.00  0.00    -0.345 OA
ATOM     18  H2  UNL     1      -2.374   5.085   4.153  1.00  0.00     0.219 HD
ENDBRANCH   4  17
BRANCH   1  19
HETATM   19  O1  UNL     1      -0.381   0.403   5.178  1.00  0.00    -0.344 OA
ATOM     20  H1  UNL     1      -0.515  -0.529   5.054  1.00  0.00     0.219 HD
ENDBRANCH   1  19
BRANCH   5  21
HETATM   21  C5  UNL     1      -0.752   3.426   5.687  1.00  0.00     0.094 C 
HETATM   22  C6  UNL     1      -1.607   4.483   6.309  1.00  0.00     0.026 C 
HETATM   23  C7  UNL     1      -0.686   5.466   7.009  1.00  0.00     0.002 C 
HETATM   24  C8  UNL     1       0.583   4.811   7.486  1.00  0.00     0.000 C 
HETATM   25  C9  UNL     1       0.234   3.428   7.987  1.00  0.00     0.002 C 
HETATM   26  C10 UNL     1      -0.256   2.555   6.829  1.00  0.00     0.026 C 
ENDBRANCH   5  21
TORSDOF 3
ENDMDL
MODEL 5
REMARK VINA RESULT: -4.216411308      1.426      6.195
REMARK  3 active torsions:
REMARK  status: ('A' for Active; 'I' for Inactive)
REMARK    1  A    between atoms: O1_1  and  C1_3 
REMARK    2  A    between atoms: C4_6  and  O2_7 
REMARK    3  A    between atoms: N1_9  and  C5_10 
ROOT
HETATM    1  C1  UNL     1      -1.147   1.449   4.512  1.00  0.00     0.172 A 
HETATM    2  C2  UNL     1      -1.798   0.983   3.385  1.00  0.00     0.093 A 
HETATM    3  C3  UNL     1      -2.562   1.993   2.898  1.00  0.00     0.061 A 
HETATM    4  C4  UNL     1      -2.359   3.065   3.747  1.00  0.00     0.156 A 
HETATM    5  N1  UNL     1      -1.486   2.724   4.741  1.00  0.00    -0.301 N 
HETATM    6  C11 UNL     1      -3.300   1.570   1.677  1.00  0.00     0.174 C 
HETATM    7  C12 UNL     1      -2.757   2.285   0.484  1.00  0.00     0.046 C 
HETATM    8  C13 UNL     1      -3.620   2.208  -0.730  1.00  0.00     0.004 C 
HETATM    9  C14 UNL     1      -5.026   2.589  -0.392  1.00  0.00     0.027 C 
HETATM   10  C15 UNL     1      -5.495   1.629   0.710  1.00  0.00     0.233 C 
HETATM   11  N2  UNL     1      -4.689   1.933   1.873  1.00  0.00    -0.060 N 
ATOM     12  H21 UNL     1      -4.781   2.912   2.144  1.00  0.00     0.278 HD
ATOM     13  H22 UNL     1      -5.071   1.498   2.713  1.00  0.00     0.278 HD
HETATM   14  C16 UNL     1      -3.093   0.087   1.639  1.00  0.00     0.164 C 
HETATM   15  N3  UNL     1      -1.978  -0.145   2.540  1.00  0.00    -0.383 N 
ATOM     16  H3  UNL     1      -1.409  -0.991   2.562  1.00  0.00     0.159 HD
ENDROOT
BRANCH   4  17
HETATM   17  O2  UNL     1      -2.919   4.313   3.661  1.00  0.00    -0.345 OA
ATOM     18  H2  UNL     1      -2.770   4.967   2.988  1.00  0.00     0.219 HD
ENDBRANCH   4  17
BRANCH   1  19
HETATM   19  O1  UNL     1      -0.282   0.605   5.223  1.00  0.00    -0.344 OA
ATOM     20  H1  UNL     1      -0.192   0.700   6.163  1.00  0.00     0.219 HD
ENDBRANCH   1  19
BRANCH   5  21
HETATM   21  C5  UNL     1      -1.027   3.546   5.797  1.00  0.00     0.094 C 
HETATM   22  C6  UNL     1       0.276   4.253   5.591  1.00  0.00     0.026 C 
HETATM   23  C7  UNL     1       0.783   4.687   6.954  1.00  0.00     0.002 C 
HETATM   24  C8  UNL     1      -0.342   4.944   7.921  1.00  0.00     0.000 C 
HETATM   25  C9  UNL     1      -1.472   5.597   7.159  1.00  0.00     0.002 C 
HETATM   26  C10 UNL     1      -2.046   4.623   6.127  1.00  0.00     0.026 C 
ENDBRANCH   5  21
TORSDOF 3
ENDMDL
