MODEL 1
REMARK VINA RESULT: -7.587317623      0.000      0.000
REMARK  2 active torsions:
REMARK  status: ('A' for Active; 'I' for Inactive)
REMARK    1  A    between atoms: N1_1  and  C1_4 
REMARK    2  A    between atoms: C5_14  and  C6_15 
ROOT
HETATM    1  C1  UNL     1      -2.691  -0.726   1.736  1.00  0.00     0.677 A 
HETATM    2  N2  UNL     1      -3.339  -0.157   0.723  1.00  0.00    -0.180 N 
ATOM      3  H2  UNL     1      -3.727  -0.728  -0.028  1.00  0.00     0.185 HD
HETATM    4  C2  UNL     1      -3.475   1.180   0.701  1.00  0.00     0.145 A 
HETATM    5  S1  UNL     1      -4.261   1.906  -0.522  1.00  0.00    -0.057 SA
HETATM    6  C3  UNL     1      -2.959   1.996   1.707  1.00  0.00     0.100 A 
HETATM    7  N3  UNL     1      -2.962   3.323   1.912  1.00  0.00    -0.345 N 
ATOM      8  H3  UNL     1      -3.384   4.027   1.306  1.00  0.00     0.167 HD
HETATM    9  C4  UNL     1      -2.301   3.553   3.072  1.00  0.00     0.089 A 
HETATM   10  S2  UNL     1      -1.763   4.735   4.173  1.00  0.00    -0.073 SA
HETATM   11  C5  UNL     1      -0.997   3.728   5.320  1.00  0.00     0.020 A 
HETATM   12  C7  UNL     1      -1.190   2.480   4.796  1.00  0.00     0.075 A 
HETATM   13  N4  UNL     1      -0.653   1.340   5.531  1.00  0.00    -0.100 NA
HETATM   14  C8  UNL     1      -1.862   2.384   3.636  1.00  0.00     0.053 A 
HETATM   15  C9  UNL     1      -2.300   1.393   2.734  1.00  0.00     0.094 A 
HETATM   16  N5  UNL     1      -2.200   0.053   2.695  1.00  0.00    -0.189 N 
ATOM     17  H5  UNL     1      -1.706  -0.403   3.462  1.00  0.00     0.184 HD
ENDROOT
BRANCH   1  18
HETATM   18  N1  UNL     1      -2.536  -2.021   1.797  1.00  0.00    -0.234 N 
ATOM     19  H12 UNL     1      -3.349  -2.635   1.837  1.00  0.00     0.174 HD
ATOM     20  H11 UNL     1      -1.606  -2.441   1.805  1.00  0.00     0.174 HD
ENDBRANCH   1  18
BRANCH  11  21
HETATM   21  C6  UNL     1      -0.282   4.101   6.597  1.00  0.00     0.134 C 
HETATM   22  S3  UNL     1      -1.531   4.841   7.692  1.00  0.00    -0.092 SA
ENDBRANCH  11  21
TORSDOF 2
ENDMDL
MODEL 2
REMARK VINA RESULT: -6.794086254      1.775      2.097
REMARK  2 active torsions:
REMARK  status: ('A' for Active; 'I' for Inactive)
REMARK    1  A    between atoms: N1_1  and  C1_4 
REMARK    2  A    between atoms: C5_14  and  C6_15 
ROOT
HETATM    1  C1  UNL     1      -3.848   1.284  -0.063  1.00  0.00     0.677 A 
HETATM    2  N2  UNL     1      -4.085   2.443  -0.672  1.00  0.00    -0.180 N 
ATOM      3  H2  UNL     1      -4.575   2.466  -1.566  1.00  0.00     0.185 HD
HETATM    4  C2  UNL     1      -3.671   3.583  -0.093  1.00  0.00     0.145 A 
HETATM    5  S1  UNL     1      -3.946   5.016  -0.810  1.00  0.00    -0.057 SA
HETATM    6  C3  UNL     1      -2.997   3.596   1.128  1.00  0.00     0.100 A 
HETATM    7  N3  UNL     1      -2.494   4.576   1.894  1.00  0.00    -0.345 N 
ATOM      8  H3  UNL     1      -2.522   5.576   1.693  1.00  0.00     0.167 HD
HETATM    9  C4  UNL     1      -1.942   3.991   2.985  1.00  0.00     0.089 A 
HETATM   10  S2  UNL     1      -1.113   4.248   4.450  1.00  0.00    -0.073 SA
HETATM   11  C5  UNL     1      -0.959   2.632   4.977  1.00  0.00     0.020 A 
HETATM   12  C7  UNL     1      -1.571   1.932   3.974  1.00  0.00     0.075 A 
HETATM   13  N4  UNL     1      -1.628   0.478   4.091  1.00  0.00    -0.100 NA
HETATM   14  C8  UNL     1      -2.079   2.629   2.944  1.00  0.00     0.053 A 
HETATM   15  C9  UNL     1      -2.765   2.399   1.733  1.00  0.00     0.094 A 
HETATM   16  N5  UNL     1      -3.205   1.297   1.101  1.00  0.00    -0.189 N 
ATOM     17  H5  UNL     1      -3.033   0.398   1.551  1.00  0.00     0.184 HD
ENDROOT
BRANCH   1  18
HETATM   18  N1  UNL     1      -4.232   0.154  -0.589  1.00  0.00    -0.234 N 
ATOM     19  H12 UNL     1      -3.542  -0.526  -0.909  1.00  0.00     0.174 HD
ATOM     20  H11 UNL     1      -5.222  -0.072  -0.690  1.00  0.00     0.174 HD
ENDBRANCH   1  18
BRANCH  11  21
HETATM   21  C6  UNL     1      -0.315   2.088   6.230  1.00  0.00     0.134 C 
HETATM   22  S3  UNL     1      -0.563   3.343   7.524  1.00  0.00    -0.092 SA
ENDBRANCH  11  21
TORSDOF 2
ENDMDL
MODEL 3
REMARK VINA RESULT: -6.232677755      8.911     10.926
REMARK  2 active torsions:
REMARK  status: ('A' for Active; 'I' for Inactive)
REMARK    1  A    between atoms: N1_1  and  C1_4 
REMARK    2  A    between atoms: C5_14  and  C6_15 
ROOT
HETATM    1  C1  UNL     1      -1.219  -4.968   9.585  1.00  0.00     0.677 A 
HETATM    2  N2  UNL     1      -1.589  -5.313  10.816  1.00  0.00    -0.180 N 
ATOM      3  H2  UNL     1      -0.921  -5.281  11.585  1.00  0.00     0.185 HD
HETATM    4  C2  UNL     1      -2.857  -5.706  11.031  1.00  0.00     0.145 A 
HETATM    5  S1  UNL     1      -3.342  -6.134  12.522  1.00  0.00    -0.057 SA
HETATM    6  C3  UNL     1      -3.801  -5.766  10.006  1.00  0.00     0.100 A 
HETATM    7  N3  UNL     1      -5.096  -6.115   9.965  1.00  0.00    -0.345 N 
ATOM      8  H3  UNL     1      -5.665  -6.427  10.753  1.00  0.00     0.167 HD
HETATM    9  C4  UNL     1      -5.509  -5.977   8.682  1.00  0.00     0.089 A 
HETATM   10  S2  UNL     1      -6.817  -6.127   7.602  1.00  0.00    -0.073 SA
HETATM   11  C5  UNL     1      -6.053  -5.630   6.158  1.00  0.00     0.020 A 
HETATM   12  C7  UNL     1      -4.778  -5.359   6.574  1.00  0.00     0.075 A 
HETATM   13  N4  UNL     1      -3.818  -4.897   5.578  1.00  0.00    -0.100 NA
HETATM   14  C8  UNL     1      -4.493  -5.537   7.875  1.00  0.00     0.053 A 
HETATM   15  C9  UNL     1      -3.400  -5.408   8.756  1.00  0.00     0.094 A 
HETATM   16  N5  UNL     1      -2.120  -5.026   8.610  1.00  0.00    -0.189 N 
ATOM     17  H5  UNL     1      -1.815  -4.757   7.674  1.00  0.00     0.184 HD
ENDROOT
BRANCH   1  18
HETATM   18  N1  UNL     1       0.002  -4.581   9.332  1.00  0.00    -0.234 N 
ATOM     19  H12 UNL     1       0.267  -4.303   8.387  1.00  0.00     0.174 HD
ATOM     20  H11 UNL     1       0.709  -4.548  10.067  1.00  0.00     0.174 HD
ENDBRANCH   1  18
BRANCH  11  21
HETATM   21  C6  UNL     1      -6.621  -5.512   4.763  1.00  0.00     0.134 C 
HETATM   22  S3  UNL     1      -8.375  -5.979   4.879  1.00  0.00    -0.092 SA
ENDBRANCH  11  21
TORSDOF 2
ENDMDL
MODEL 4
REMARK VINA RESULT: -6.199747448      1.845      2.838
REMARK  2 active torsions:
REMARK  status: ('A' for Active; 'I' for Inactive)
REMARK    1  A    between atoms: N1_1  and  C1_4 
REMARK    2  A    between atoms: C5_14  and  C6_15 
ROOT
HETATM    1  C1  UNL     1      -3.403   2.591   0.705  1.00  0.00     0.677 A 
HETATM    2  N2  UNL     1      -3.173   1.295   0.517  1.00  0.00    -0.180 N 
ATOM      3  H2  UNL     1      -3.489   0.832  -0.335  1.00  0.00     0.185 HD
HETATM    4  C2  UNL     1      -2.518   0.602   1.465  1.00  0.00     0.145 A 
HETATM    5  S1  UNL     1      -2.220  -0.983   1.266  1.00  0.00    -0.057 SA
HETATM    6  C3  UNL     1      -2.070   1.197   2.644  1.00  0.00     0.100 A 
HETATM    7  N3  UNL     1      -1.409   0.734   3.717  1.00  0.00    -0.345 N 
ATOM      8  H3  UNL     1      -1.091  -0.224   3.865  1.00  0.00     0.167 HD
HETATM    9  C4  UNL     1      -1.241   1.776   4.566  1.00  0.00     0.089 A 
HETATM   10  S2  UNL     1      -0.609   2.282   6.064  1.00  0.00    -0.073 SA
HETATM   11  C5  UNL     1      -1.047   3.931   6.016  1.00  0.00     0.020 A 
HETATM   12  C7  UNL     1      -1.684   4.035   4.811  1.00  0.00     0.075 A 
HETATM   13  N4  UNL     1      -2.208   5.341   4.425  1.00  0.00    -0.100 NA
HETATM   14  C8  UNL     1      -1.786   2.926   4.059  1.00  0.00     0.053 A 
HETATM   15  C9  UNL     1      -2.316   2.524   2.816  1.00  0.00     0.094 A 
HETATM   16  N5  UNL     1      -2.975   3.157   1.830  1.00  0.00    -0.189 N 
ATOM     17  H5  UNL     1      -3.162   4.152   1.954  1.00  0.00     0.184 HD
ENDROOT
BRANCH   1  18
HETATM   18  N1  UNL     1      -4.035   3.302  -0.189  1.00  0.00    -0.234 N 
ATOM     19  H12 UNL     1      -4.626   2.846  -0.884  1.00  0.00     0.174 HD
ATOM     20  H11 UNL     1      -3.951   4.318  -0.211  1.00  0.00     0.174 HD
ENDBRANCH   1  18
BRANCH  11  21
HETATM   21  C6  UNL     1      -0.803   5.018   7.036  1.00  0.00     0.134 C 
HETATM   22  S3  UNL     1      -2.420   5.405   7.774  1.00  0.00    -0.092 SA
ENDBRANCH  11  21
TORSDOF 2
ENDMDL
MODEL 5
REMARK VINA RESULT: -5.492972311      7.627      9.759
REMARK  2 active torsions:
REMARK  status: ('A' for Active; 'I' for Inactive)
REMARK    1  A    between atoms: N1_1  and  C1_4 
REMARK    2  A    between atoms: C5_14  and  C6_15 
ROOT
HETATM    1  C1  UNL     1      -0.737  -5.052   9.569  1.00  0.00     0.677 A 
HETATM    2  N2  UNL     1      -1.583  -5.473  10.504  1.00  0.00    -0.180 N 
ATOM      3  H2  UNL     1      -1.267  -5.611  11.464  1.00  0.00     0.185 HD
HETATM    4  C2  UNL     1      -2.862  -5.715  10.168  1.00  0.00     0.145 A 
HETATM    5  S1  UNL     1      -3.923  -6.231  11.287  1.00  0.00    -0.057 SA
HETATM    6  C3  UNL     1      -3.335  -5.541   8.868  1.00  0.00     0.100 A 
HETATM    7  N3  UNL     1      -4.536  -5.710   8.292  1.00  0.00    -0.345 N 
ATOM      8  H3  UNL     1      -5.389  -6.025   8.755  1.00  0.00     0.167 HD
HETATM    9  C4  UNL     1      -4.404  -5.383   6.984  1.00  0.00     0.089 A 
HETATM   10  S2  UNL     1      -5.197  -5.244   5.483  1.00  0.00    -0.073 SA
HETATM   11  C5  UNL     1      -3.894  -4.703   4.522  1.00  0.00     0.020 A 
HETATM   12  C7  UNL     1      -2.864  -4.649   5.420  1.00  0.00     0.075 A 
HETATM   13  N4  UNL     1      -1.557  -4.215   4.937  1.00  0.00    -0.100 NA
HETATM   14  C8  UNL     1      -3.123  -4.999   6.692  1.00  0.00     0.053 A 
HETATM   15  C9  UNL     1      -2.451  -5.110   7.927  1.00  0.00     0.094 A 
HETATM   16  N5  UNL     1      -1.189  -4.886   8.329  1.00  0.00    -0.189 N 
ATOM     17  H5  UNL     1      -0.523  -4.563   7.627  1.00  0.00     0.184 HD
ENDROOT
BRANCH   1  18
HETATM   18  N1  UNL     1       0.513  -4.805   9.851  1.00  0.00    -0.234 N 
ATOM     19  H12 UNL     1       1.157  -5.571  10.050  1.00  0.00     0.174 HD
ATOM     20  H11 UNL     1       0.869  -3.849   9.880  1.00  0.00     0.174 HD
ENDBRANCH   1  18
BRANCH  11  21
HETATM   21  C6  UNL     1      -3.863  -4.364   3.051  1.00  0.00     0.134 C 
HETATM   22  S3  UNL     1      -3.174  -2.686   2.922  1.00  0.00    -0.092 SA
ENDBRANCH  11  21
TORSDOF 2
ENDMDL
