MODEL 1
REMARK VINA RESULT: -6.522371473      0.000      0.000
REMARK  3 active torsions:
REMARK  status: ('A' for Active; 'I' for Inactive)
REMARK    1  A    between atoms: C3_5  and  C4_6 
REMARK    2  A    between atoms: C7_9  and  O1_10 
REMARK    3  A    between atoms: C11_17  and  N3_18 
ROOT
HETATM    1  C1  UNL     1      -3.917  -6.722  12.192  1.00  0.00     0.069 C 
HETATM    2  C2  UNL     1      -3.444  -6.285  10.866  1.00  0.00     0.020 A 
HETATM    3  N1  UNL     1      -2.146  -6.018  10.616  1.00  0.00    -0.360 N 
ATOM      4  H1  UNL     1      -1.483  -6.115  11.385  1.00  0.00     0.165 HD
HETATM    5  C3  UNL     1      -1.672  -5.635   9.428  1.00  0.00     0.048 A 
HETATM    6  C7  UNL     1      -2.498  -5.473   8.319  1.00  0.00     0.116 A 
HETATM    7  C8  UNL     1      -3.844  -5.731   8.519  1.00  0.00     0.084 A 
HETATM    8  N2  UNL     1      -4.654  -5.559   7.463  1.00  0.00    -0.338 N 
ATOM      9  H2  UNL     1      -4.278  -5.267   6.560  1.00  0.00     0.167 HD
HETATM   10  C9  UNL     1      -5.984  -5.781   7.620  1.00  0.00     0.131 A 
HETATM   11  C10 UNL     1      -6.506  -6.179   8.833  1.00  0.00     0.100 A 
HETATM   12  C11 UNL     1      -5.654  -6.353   9.918  1.00  0.00     0.071 A 
HETATM   13  C12 UNL     1      -4.273  -6.126   9.771  1.00  0.00     0.044 A 
HETATM   14  N4  UNL     1      -7.862  -6.464   9.183  1.00  0.00    -0.385 N 
ATOM     15  H4  UNL     1      -8.049  -7.129   9.934  1.00  0.00     0.159 HD
HETATM   16  C13 UNL     1      -8.988  -5.831   8.498  1.00  0.00     0.121 C 
HETATM   17  C14 UNL     1      -8.989  -6.415   7.107  1.00  0.00     0.039 C 
HETATM   18  C15 UNL     1      -8.129  -5.733   6.118  1.00  0.00     0.123 C 
HETATM   19  N5  UNL     1      -6.758  -5.555   6.439  1.00  0.00    -0.374 N 
ATOM     20  H5  UNL     1      -6.208  -5.186   5.663  1.00  0.00     0.161 HD
ENDROOT
BRANCH   5  21
HETATM   21  C4  UNL     1      -0.218  -5.371   9.215  1.00  0.00     0.030 C 
HETATM   22  C5  UNL     1       0.270  -4.359  10.250  1.00  0.00     0.016 C 
HETATM   23  C6  UNL     1       0.598  -6.647   9.386  1.00  0.00     0.016 C 
ENDBRANCH   5  21
BRANCH   6  24
HETATM   24  O1  UNL     1      -1.965  -5.076   7.105  1.00  0.00    -0.357 OA
ATOM     25  H1  UNL     1      -2.141  -4.205   6.769  1.00  0.00     0.218 HD
ENDBRANCH   6  24
BRANCH  12  26
HETATM   26  N3  UNL     1      -6.047  -6.689  11.044  1.00  0.00    -0.396 N 
ATOM     27  H32 UNL     1      -6.857  -7.308  11.082  1.00  0.00     0.156 HD
ATOM     28  H31 UNL     1      -5.593  -6.390  11.907  1.00  0.00     0.156 HD
ENDBRANCH  12  26
TORSDOF 3
ENDMDL
MODEL 2
REMARK VINA RESULT: -6.502731904      2.459      4.919
REMARK  3 active torsions:
REMARK  status: ('A' for Active; 'I' for Inactive)
REMARK    1  A    between atoms: C3_5  and  C4_6 
REMARK    2  A    between atoms: C7_9  and  O1_10 
REMARK    3  A    between atoms: C11_17  and  N3_18 
ROOT
HETATM    1  C1  UNL     1      -8.181  -6.661   8.029  1.00  0.00     0.069 C 
HETATM    2  C2  UNL     1      -6.907  -6.269   8.659  1.00  0.00     0.020 A 
HETATM    3  N1  UNL     1      -6.721  -6.312   9.994  1.00  0.00    -0.360 N 
ATOM      4  H1  UNL     1      -7.501  -6.618  10.574  1.00  0.00     0.165 HD
HETATM    5  C3  UNL     1      -5.580  -5.980  10.605  1.00  0.00     0.048 A 
HETATM    6  C7  UNL     1      -4.461  -5.549   9.898  1.00  0.00     0.116 A 
HETATM    7  C8  UNL     1      -4.597  -5.483   8.522  1.00  0.00     0.084 A 
HETATM    8  N2  UNL     1      -3.531  -5.049   7.831  1.00  0.00    -0.338 N 
ATOM      9  H2  UNL     1      -2.666  -4.800   8.311  1.00  0.00     0.167 HD
HETATM   10  C9  UNL     1      -3.628  -4.949   6.481  1.00  0.00     0.131 A 
HETATM   11  C10 UNL     1      -4.790  -5.284   5.818  1.00  0.00     0.100 A 
HETATM   12  C11 UNL     1      -5.886  -5.732   6.548  1.00  0.00     0.071 A 
HETATM   13  C12 UNL     1      -5.802  -5.840   7.949  1.00  0.00     0.044 A 
HETATM   14  N4  UNL     1      -5.074  -5.251   4.418  1.00  0.00    -0.385 N 
ATOM     15  H4  UNL     1      -5.766  -5.897   4.038  1.00  0.00     0.159 HD
HETATM   16  C13 UNL     1      -4.402  -4.318   3.514  1.00  0.00     0.121 C 
HETATM   17  C14 UNL     1      -2.972  -4.792   3.441  1.00  0.00     0.039 C 
HETATM   18  C15 UNL     1      -2.065  -4.279   4.489  1.00  0.00     0.123 C 
HETATM   19  N5  UNL     1      -2.443  -4.463   5.844  1.00  0.00    -0.374 N 
ATOM     20  H5  UNL     1      -1.715  -4.191   6.505  1.00  0.00     0.161 HD
ENDROOT
BRANCH   5  21
HETATM   21  C4  UNL     1      -5.435  -6.067  12.089  1.00  0.00     0.030 C 
HETATM   22  C5  UNL     1      -5.304  -4.661  12.668  1.00  0.00     0.016 C 
HETATM   23  C6  UNL     1      -6.659  -6.722  12.718  1.00  0.00     0.016 C 
ENDBRANCH   5  21
BRANCH   6  24
HETATM   24  O1  UNL     1      -3.298  -5.217  10.572  1.00  0.00    -0.357 OA
ATOM     25  H1  UNL     1      -2.633  -4.690  10.144  1.00  0.00     0.218 HD
ENDBRANCH   6  24
BRANCH  12  26
HETATM   26  N3  UNL     1      -6.971  -6.033   6.030  1.00  0.00    -0.396 N 
ATOM     27  H32 UNL     1      -7.092  -7.007   5.752  1.00  0.00     0.156 HD
ATOM     28  H31 UNL     1      -7.729  -5.365   5.891  1.00  0.00     0.156 HD
ENDBRANCH  12  26
TORSDOF 3
ENDMDL
MODEL 3
REMARK VINA RESULT: -6.314541461      3.168      5.714
REMARK  3 active torsions:
REMARK  status: ('A' for Active; 'I' for Inactive)
REMARK    1  A    between atoms: C3_5  and  C4_6 
REMARK    2  A    between atoms: C7_9  and  O1_10 
REMARK    3  A    between atoms: C11_17  and  N3_18 
ROOT
HETATM    1  C1  UNL     1      -6.677  -5.858   5.260  1.00  0.00     0.069 C 
HETATM    2  C2  UNL     1      -5.312  -5.311   5.177  1.00  0.00     0.020 A 
HETATM    3  N1  UNL     1      -4.790  -4.849   4.022  1.00  0.00    -0.360 N 
ATOM      4  H1  UNL     1      -5.369  -4.897   3.185  1.00  0.00     0.165 HD
HETATM    5  C3  UNL     1      -3.564  -4.331   3.905  1.00  0.00     0.048 A 
HETATM    6  C7  UNL     1      -2.699  -4.224   4.991  1.00  0.00     0.116 A 
HETATM    7  C8  UNL     1      -3.183  -4.687   6.203  1.00  0.00     0.084 A 
HETATM    8  N2  UNL     1      -2.351  -4.608   7.254  1.00  0.00    -0.338 N 
ATOM      9  H2  UNL     1      -1.417  -4.209   7.150  1.00  0.00     0.167 HD
HETATM   10  C9  UNL     1      -2.776  -5.070   8.457  1.00  0.00     0.131 A 
HETATM   11  C10 UNL     1      -4.036  -5.609   8.613  1.00  0.00     0.100 A 
HETATM   12  C11 UNL     1      -4.887  -5.684   7.515  1.00  0.00     0.071 A 
HETATM   13  C12 UNL     1      -4.460  -5.210   6.261  1.00  0.00     0.044 A 
HETATM   14  N4  UNL     1      -4.655  -6.133   9.789  1.00  0.00    -0.385 N 
ATOM     15  H4  UNL     1      -5.672  -6.095   9.872  1.00  0.00     0.159 HD
HETATM   16  C13 UNL     1      -3.876  -6.722  10.878  1.00  0.00     0.121 C 
HETATM   17  C14 UNL     1      -3.136  -5.568  11.509  1.00  0.00     0.039 C 
HETATM   18  C15 UNL     1      -1.838  -5.219  10.897  1.00  0.00     0.123 C 
HETATM   19  N5  UNL     1      -1.809  -4.953   9.503  1.00  0.00    -0.374 N 
ATOM     20  H5  UNL     1      -0.907  -4.605   9.179  1.00  0.00     0.161 HD
ENDROOT
BRANCH   5  21
HETATM   21  C4  UNL     1      -3.054  -3.821   2.598  1.00  0.00     0.030 C 
HETATM   22  C5  UNL     1      -4.038  -4.192   1.490  1.00  0.00     0.016 C 
HETATM   23  C6  UNL     1      -2.923  -2.303   2.619  1.00  0.00     0.016 C 
ENDBRANCH   5  21
BRANCH   6  24
HETATM   24  O1  UNL     1      -1.438  -3.680   4.825  1.00  0.00    -0.357 OA
ATOM     25  H1  UNL     1      -0.707  -4.004   5.338  1.00  0.00     0.218 HD
ENDBRANCH   6  24
BRANCH  12  26
HETATM   26  N3  UNL     1      -6.025  -6.172   7.569  1.00  0.00    -0.396 N 
ATOM     27  H32 UNL     1      -6.708  -5.818   6.900  1.00  0.00     0.156 HD
ATOM     28  H31 UNL     1      -6.288  -6.906   8.227  1.00  0.00     0.156 HD
ENDBRANCH  12  26
TORSDOF 3
ENDMDL
MODEL 4
REMARK VINA RESULT: -6.144431285      9.731     10.920
REMARK  3 active torsions:
REMARK  status: ('A' for Active; 'I' for Inactive)
REMARK    1  A    between atoms: C3_5  and  C4_6 
REMARK    2  A    between atoms: C7_9  and  O1_10 
REMARK    3  A    between atoms: C11_17  and  N3_18 
ROOT
HETATM    1  C1  UNL     1      -0.421   0.286   5.027  1.00  0.00     0.069 C 
HETATM    2  C2  UNL     1      -0.939   1.655   4.855  1.00  0.00     0.020 A 
HETATM    3  N1  UNL     1      -0.705   2.631   5.756  1.00  0.00    -0.360 N 
ATOM      4  H1  UNL     1      -0.159   2.395   6.584  1.00  0.00     0.165 HD
HETATM    5  C3  UNL     1      -1.141   3.888   5.634  1.00  0.00     0.048 A 
HETATM    6  C7  UNL     1      -1.895   4.305   4.540  1.00  0.00     0.116 A 
HETATM    7  C8  UNL     1      -2.168   3.342   3.584  1.00  0.00     0.084 A 
HETATM    8  N2  UNL     1      -2.911   3.728   2.534  1.00  0.00    -0.338 N 
ATOM      9  H2  UNL     1      -3.237   4.691   2.453  1.00  0.00     0.167 HD
HETATM   10  C9  UNL     1      -3.220   2.810   1.584  1.00  0.00     0.131 A 
HETATM   11  C10 UNL     1      -2.785   1.505   1.678  1.00  0.00     0.100 A 
HETATM   12  C11 UNL     1      -2.015   1.120   2.772  1.00  0.00     0.071 A 
HETATM   13  C12 UNL     1      -1.687   2.060   3.767  1.00  0.00     0.044 A 
HETATM   14  N4  UNL     1      -3.001   0.412   0.783  1.00  0.00    -0.385 N 
ATOM     15  H4  UNL     1      -2.308  -0.335   0.737  1.00  0.00     0.159 HD
HETATM   16  C13 UNL     1      -4.186   0.333  -0.070  1.00  0.00     0.121 C 
HETATM   17  C14 UNL     1      -4.017   1.431  -1.092  1.00  0.00     0.039 C 
HETATM   18  C15 UNL     1      -4.509   2.766  -0.696  1.00  0.00     0.123 C 
HETATM   19  N5  UNL     1      -4.026   3.320   0.519  1.00  0.00    -0.374 N 
ATOM     20  H5  UNL     1      -4.317   4.287   0.663  1.00  0.00     0.161 HD
ENDROOT
BRANCH   5  21
HETATM   21  C4  UNL     1      -0.832   4.925   6.662  1.00  0.00     0.030 C 
HETATM   22  C5  UNL     1      -1.884   4.873   7.767  1.00  0.00     0.016 C 
HETATM   23  C6  UNL     1       0.529   4.672   7.298  1.00  0.00     0.016 C 
ENDBRANCH   5  21
BRANCH   6  24
HETATM   24  O1  UNL     1      -2.325   5.618   4.452  1.00  0.00    -0.357 OA
ATOM     25  H1  UNL     1      -3.238   5.809   4.269  1.00  0.00     0.218 HD
ENDBRANCH   6  24
BRANCH  12  26
HETATM   26  N3  UNL     1      -1.603  -0.037   2.940  1.00  0.00    -0.396 N 
ATOM     27  H32 UNL     1      -0.974  -0.408   2.228  1.00  0.00     0.156 HD
ATOM     28  H31 UNL     1      -1.851  -0.607   3.749  1.00  0.00     0.156 HD
ENDBRANCH  12  26
TORSDOF 3
ENDMDL
MODEL 5
REMARK VINA RESULT: -5.446446504      2.341      4.953
REMARK  3 active torsions:
REMARK  status: ('A' for Active; 'I' for Inactive)
REMARK    1  A    between atoms: C3_5  and  C4_6 
REMARK    2  A    between atoms: C7_9  and  O1_10 
REMARK    3  A    between atoms: C11_17  and  N3_18 
ROOT
HETATM    1  C1  UNL     1      -7.352  -5.935   5.972  1.00  0.00     0.069 C 
HETATM    2  C2  UNL     1      -5.925  -5.593   6.099  1.00  0.00     0.020 A 
HETATM    3  N1  UNL     1      -5.155  -5.307   5.029  1.00  0.00    -0.360 N 
ATOM      4  H1  UNL     1      -5.588  -5.344   4.106  1.00  0.00     0.165 HD
HETATM    5  C3  UNL     1      -3.862  -4.978   5.098  1.00  0.00     0.048 A 
HETATM    6  C7  UNL     1      -3.183  -4.902   6.311  1.00  0.00     0.116 A 
HETATM    7  C8  UNL     1      -3.925  -5.190   7.444  1.00  0.00     0.084 A 
HETATM    8  N2  UNL     1      -3.275  -5.140   8.619  1.00  0.00    -0.338 N 
ATOM      9  H2  UNL     1      -2.288  -4.886   8.657  1.00  0.00     0.167 HD
HETATM   10  C9  UNL     1      -3.959  -5.435   9.753  1.00  0.00     0.131 A 
HETATM   11  C10 UNL     1      -5.295  -5.777   9.717  1.00  0.00     0.100 A 
HETATM   12  C11 UNL     1      -5.954  -5.824   8.493  1.00  0.00     0.071 A 
HETATM   13  C12 UNL     1      -5.258  -5.522   7.307  1.00  0.00     0.044 A 
HETATM   14  N4  UNL     1      -6.173  -6.108  10.795  1.00  0.00    -0.385 N 
ATOM     15  H4  UNL     1      -7.171  -5.922  10.695  1.00  0.00     0.159 HD
HETATM   16  C13 UNL     1      -5.683  -6.707  12.036  1.00  0.00     0.121 C 
HETATM   17  C14 UNL     1      -4.890  -5.620  12.718  1.00  0.00     0.039 C 
HETATM   18  C15 UNL     1      -3.471  -5.508  12.325  1.00  0.00     0.123 C 
HETATM   19  N5  UNL     1      -3.172  -5.367  10.945  1.00  0.00    -0.374 N 
ATOM     20  H5  UNL     1      -2.186  -5.178  10.765  1.00  0.00     0.161 HD
ENDROOT
BRANCH   5  21
HETATM   21  C4  UNL     1      -3.071  -4.656   3.873  1.00  0.00     0.030 C 
HETATM   22  C5  UNL     1      -4.024  -4.292   2.737  1.00  0.00     0.016 C 
HETATM   23  C6  UNL     1      -2.153  -3.465   4.116  1.00  0.00     0.016 C 
ENDBRANCH   5  21
BRANCH   6  24
HETATM   24  O1  UNL     1      -1.843  -4.556   6.338  1.00  0.00    -0.357 OA
ATOM     25  H1  UNL     1      -1.461  -4.188   7.126  1.00  0.00     0.218 HD
ENDBRANCH   6  24
BRANCH  12  26
HETATM   26  N3  UNL     1      -7.146  -6.142   8.374  1.00  0.00    -0.396 N 
ATOM     27  H32 UNL     1      -7.833  -5.394   8.477  1.00  0.00     0.156 HD
ATOM     28  H31 UNL     1      -7.454  -7.092   8.167  1.00  0.00     0.156 HD
ENDBRANCH  12  26
TORSDOF 3
ENDMDL
