MODEL 1
REMARK VINA RESULT: -5.684487631      0.000      0.000
REMARK  2 active torsions:
REMARK  status: ('A' for Active; 'I' for Inactive)
REMARK    1  A    between atoms: C3_5  and  C4_6 
REMARK    2  A    between atoms: N5_24  and  O1_26 
ROOT
HETATM    1  C1  UNL     1      -0.160   1.033   3.872  1.00  0.00     0.066 C 
HETATM    2  C2  UNL     1      -1.015   2.253   3.884  1.00  0.00     0.022 C 
HETATM    3  N1  UNL     1      -0.857   3.254   4.667  1.00  0.00    -0.362 N 
ATOM      4  H1  UNL     1      -0.126   3.333   5.375  1.00  0.00     0.161 HD
HETATM    5  C3  UNL     1      -1.855   4.248   4.407  1.00  0.00     0.336 C 
HETATM    6  N4  UNL     1      -2.939   3.466   3.866  1.00  0.00    -0.029 N 
ATOM      7  H41 UNL     1      -3.676   3.991   3.398  1.00  0.00     0.281 HD
ATOM      8  H42 UNL     1      -3.565   3.040   4.550  1.00  0.00     0.281 HD
HETATM    9  C8  UNL     1      -2.177   2.532   3.020  1.00  0.00     0.205 C 
HETATM   10  C9  UNL     1      -1.841   3.253   1.757  1.00  0.00     0.052 C 
HETATM   11  C10 UNL     1      -2.194   2.332   0.594  1.00  0.00     0.012 C 
HETATM   12  C11 UNL     1      -3.670   2.035   0.571  1.00  0.00    -0.043 C 
HETATM   13  C12 UNL     1      -3.916   1.001  -0.508  1.00  0.00     0.015 C 
HETATM   14  C13 UNL     1      -4.386   3.311   0.160  1.00  0.00     0.015 C 
HETATM   15  C14 UNL     1      -4.195   1.518   1.878  1.00  0.00     0.066 C 
HETATM   16  C15 UNL     1      -3.033   1.345   2.807  1.00  0.00     0.052 C 
HETATM   17  N5  UNL     1      -2.803   0.219   3.382  1.00  0.00    -0.275 N 
ATOM     18  H5  UNL     1      -2.008   0.110   4.012  1.00  0.00     0.193 HD
ENDROOT
BRANCH   5  19
HETATM   19  C4  UNL     1      -2.256   4.969   5.616  1.00  0.00     0.061 A 
HETATM   20  C5  UNL     1      -3.151   6.002   5.715  1.00  0.00     0.057 A 
HETATM   21  C6  UNL     1      -3.262   6.419   7.026  1.00  0.00     0.063 A 
HETATM   22  N2  UNL     1      -4.061   7.447   7.599  1.00  0.00    -0.101 NA
HETATM   23  C7  UNL     1      -2.402   5.606   7.734  1.00  0.00     0.114 A 
HETATM   24  N3  UNL     1      -1.809   4.743   6.863  1.00  0.00    -0.364 N 
ATOM     25  H3  UNL     1      -1.125   4.030   7.119  1.00  0.00     0.165 HD
ENDBRANCH   5  19
BRANCH  17  26
HETATM   26  O1  UNL     1      -3.644  -0.835   3.133  1.00  0.00    -0.290 OA
ATOM     27  H1  UNL     1      -3.322  -1.566   2.620  1.00  0.00     0.244 HD
ENDBRANCH  17  26
TORSDOF 2
ENDMDL
MODEL 2
REMARK VINA RESULT: -3.856612216      3.983      6.519
REMARK  2 active torsions:
REMARK  status: ('A' for Active; 'I' for Inactive)
REMARK    1  A    between atoms: C3_5  and  C4_6 
REMARK    2  A    between atoms: N5_24  and  O1_26 
ROOT
HETATM    1  C1  UNL     1      -1.111  -0.823  -0.744  1.00  0.00     0.066 C 
HETATM    2  C2  UNL     1      -1.676  -0.876   0.633  1.00  0.00     0.022 C 
HETATM    3  N1  UNL     1      -1.537  -1.854   1.448  1.00  0.00    -0.362 N 
ATOM      4  H1  UNL     1      -1.022  -2.713   1.248  1.00  0.00     0.161 HD
HETATM    5  C3  UNL     1      -2.208  -1.570   2.681  1.00  0.00     0.336 C 
HETATM    6  N4  UNL     1      -3.240  -0.652   2.269  1.00  0.00    -0.029 N 
ATOM      7  H41 UNL     1      -3.704  -0.138   3.017  1.00  0.00     0.281 HD
ATOM      8  H42 UNL     1      -4.099  -1.076   1.918  1.00  0.00     0.281 HD
HETATM    9  C8  UNL     1      -2.483   0.161   1.303  1.00  0.00     0.205 C 
HETATM   10  C9  UNL     1      -1.682   1.147   2.088  1.00  0.00     0.052 C 
HETATM   11  C10 UNL     1      -1.886   2.516   1.450  1.00  0.00     0.012 C 
HETATM   12  C11 UNL     1      -3.330   2.937   1.527  1.00  0.00    -0.043 C 
HETATM   13  C12 UNL     1      -3.479   4.224   0.742  1.00  0.00     0.015 C 
HETATM   14  C13 UNL     1      -3.638   3.245   2.983  1.00  0.00     0.015 C 
HETATM   15  C14 UNL     1      -4.279   1.913   0.978  1.00  0.00     0.066 C 
HETATM   16  C15 UNL     1      -3.469   0.793   0.401  1.00  0.00     0.052 C 
HETATM   17  N5  UNL     1      -3.633   0.412  -0.815  1.00  0.00    -0.275 N 
ATOM     18  H5  UNL     1      -3.075  -0.351  -1.200  1.00  0.00     0.193 HD
ENDROOT
BRANCH   5  19
HETATM   19  C4  UNL     1      -2.767  -2.771   3.305  1.00  0.00     0.061 A 
HETATM   20  C5  UNL     1      -3.894  -3.457   2.936  1.00  0.00     0.057 A 
HETATM   21  C6  UNL     1      -4.094  -4.539   3.770  1.00  0.00     0.063 A 
HETATM   22  N2  UNL     1      -5.121  -5.523   3.770  1.00  0.00    -0.101 NA
HETATM   23  C7  UNL     1      -3.048  -4.495   4.669  1.00  0.00     0.114 A 
HETATM   24  N3  UNL     1      -2.264  -3.423   4.368  1.00  0.00    -0.364 N 
ATOM     25  H3  UNL     1      -1.421  -3.153   4.874  1.00  0.00     0.165 HD
ENDBRANCH   5  19
BRANCH  17  26
HETATM   26  O1  UNL     1      -4.569   1.049  -1.588  1.00  0.00    -0.290 OA
ATOM     27  H1  UNL     1      -4.762   1.962  -1.413  1.00  0.00     0.244 HD
ENDBRANCH  17  26
TORSDOF 2
ENDMDL
MODEL 3
REMARK VINA RESULT: -3.530501080      2.698      4.105
REMARK  2 active torsions:
REMARK  status: ('A' for Active; 'I' for Inactive)
REMARK    1  A    between atoms: C3_5  and  C4_6 
REMARK    2  A    between atoms: N5_24  and  O1_26 
ROOT
HETATM    1  C1  UNL     1      -3.543   1.918   0.279  1.00  0.00     0.066 C 
HETATM    2  C2  UNL     1      -3.033   1.728   1.665  1.00  0.00     0.022 C 
HETATM    3  N1  UNL     1      -2.840   2.668   2.514  1.00  0.00    -0.362 N 
ATOM      4  H1  UNL     1      -3.015   3.658   2.338  1.00  0.00     0.161 HD
HETATM    5  C3  UNL     1      -2.344   2.129   3.744  1.00  0.00     0.336 C 
HETATM    6  N4  UNL     1      -1.690   0.920   3.313  1.00  0.00    -0.029 N 
ATOM      7  H41 UNL     1      -1.456   0.253   4.048  1.00  0.00     0.281 HD
ATOM      8  H42 UNL     1      -0.728   1.024   2.990  1.00  0.00     0.281 HD
HETATM    9  C8  UNL     1      -2.659   0.454   2.307  1.00  0.00     0.205 C 
HETATM   10  C9  UNL     1      -3.776  -0.210   3.043  1.00  0.00     0.052 C 
HETATM   11  C10 UNL     1      -4.049  -1.544   2.357  1.00  0.00     0.012 C 
HETATM   12  C11 UNL     1      -2.847  -2.448   2.439  1.00  0.00    -0.043 C 
HETATM   13  C12 UNL     1      -3.139  -3.681   1.610  1.00  0.00     0.015 C 
HETATM   14  C13 UNL     1      -2.705  -2.887   3.888  1.00  0.00     0.015 C 
HETATM   15  C14 UNL     1      -1.584  -1.808   1.943  1.00  0.00     0.066 C 
HETATM   16  C15 UNL     1      -1.934  -0.458   1.396  1.00  0.00     0.052 C 
HETATM   17  N5  UNL     1      -1.615  -0.122   0.198  1.00  0.00    -0.275 N 
ATOM     18  H5  UNL     1      -1.859   0.799  -0.166  1.00  0.00     0.193 HD
ENDROOT
BRANCH   5  19
HETATM   19  C4  UNL     1      -1.417   3.037   4.420  1.00  0.00     0.061 A 
HETATM   20  C5  UNL     1      -1.134   3.101   5.760  1.00  0.00     0.057 A 
HETATM   21  C6  UNL     1      -0.206   4.090   6.011  1.00  0.00     0.063 A 
HETATM   22  N2  UNL     1       0.380   4.512   7.237  1.00  0.00    -0.101 NA
HETATM   23  C7  UNL     1       0.075   4.638   4.776  1.00  0.00     0.114 A 
HETATM   24  N3  UNL     1      -0.666   3.987   3.836  1.00  0.00    -0.364 N 
ATOM     25  H3  UNL     1      -0.653   4.191   2.837  1.00  0.00     0.165 HD
ENDBRANCH   5  19
BRANCH  17  26
HETATM   26  O1  UNL     1      -0.942  -1.025  -0.585  1.00  0.00    -0.290 OA
ATOM     27  H1  UNL     1      -0.007  -1.133  -0.458  1.00  0.00     0.244 HD
ENDBRANCH  17  26
TORSDOF 2
ENDMDL
MODEL 4
REMARK VINA RESULT: -3.364547299      0.821      1.061
REMARK  2 active torsions:
REMARK  status: ('A' for Active; 'I' for Inactive)
REMARK    1  A    between atoms: C3_5  and  C4_6 
REMARK    2  A    between atoms: N5_24  and  O1_26 
ROOT
HETATM    1  C1  UNL     1      -0.220   0.873   3.624  1.00  0.00     0.066 C 
HETATM    2  C2  UNL     1      -1.050   2.108   3.684  1.00  0.00     0.022 C 
HETATM    3  N1  UNL     1      -0.850   3.090   4.483  1.00  0.00    -0.362 N 
ATOM      4  H1  UNL     1      -0.097   3.140   5.171  1.00  0.00     0.161 HD
HETATM    5  C3  UNL     1      -1.835   4.108   4.271  1.00  0.00     0.336 C 
HETATM    6  N4  UNL     1      -2.949   3.359   3.746  1.00  0.00    -0.029 N 
ATOM      7  H41 UNL     1      -3.688   3.908   3.310  1.00  0.00     0.281 HD
ATOM      8  H42 UNL     1      -3.564   2.931   4.438  1.00  0.00     0.281 HD
HETATM    9  C8  UNL     1      -2.230   2.428   2.860  1.00  0.00     0.205 C 
HETATM   10  C9  UNL     1      -1.915   3.168   1.602  1.00  0.00     0.052 C 
HETATM   11  C10 UNL     1      -2.319   2.278   0.432  1.00  0.00     0.012 C 
HETATM   12  C11 UNL     1      -3.801   2.010   0.445  1.00  0.00    -0.043 C 
HETATM   13  C12 UNL     1      -4.098   1.003  -0.647  1.00  0.00     0.015 C 
HETATM   14  C13 UNL     1      -4.502   3.308   0.080  1.00  0.00     0.015 C 
HETATM   15  C14 UNL     1      -4.299   1.476   1.756  1.00  0.00     0.066 C 
HETATM   16  C15 UNL     1      -3.115   1.262   2.648  1.00  0.00     0.052 C 
HETATM   17  N5  UNL     1      -2.891   0.120   3.193  1.00  0.00    -0.275 N 
ATOM     18  H5  UNL     1      -2.081  -0.017   3.798  1.00  0.00     0.193 HD
ENDROOT
BRANCH   5  19
HETATM   19  C4  UNL     1      -2.187   4.812   5.505  1.00  0.00     0.061 A 
HETATM   20  C5  UNL     1      -1.765   4.531   6.778  1.00  0.00     0.057 A 
HETATM   21  C6  UNL     1      -2.317   5.422   7.677  1.00  0.00     0.063 A 
HETATM   22  N2  UNL     1      -2.165   5.516   9.088  1.00  0.00    -0.101 NA
HETATM   23  C7  UNL     1      -3.097   6.264   6.912  1.00  0.00     0.114 A 
HETATM   24  N3  UNL     1      -3.001   5.876   5.609  1.00  0.00    -0.364 N 
ATOM     25  H3  UNL     1      -3.478   6.327   4.828  1.00  0.00     0.165 HD
ENDBRANCH   5  19
BRANCH  17  26
HETATM   26  O1  UNL     1      -3.760  -0.912   2.947  1.00  0.00    -0.290 OA
ATOM     27  H1  UNL     1      -4.437  -1.102   3.585  1.00  0.00     0.244 HD
ENDBRANCH  17  26
TORSDOF 2
ENDMDL
MODEL 5
REMARK VINA RESULT: -2.969674504      1.498      1.790
REMARK  2 active torsions:
REMARK  status: ('A' for Active; 'I' for Inactive)
REMARK    1  A    between atoms: C3_5  and  C4_6 
REMARK    2  A    between atoms: N5_24  and  O1_26 
ROOT
HETATM    1  C1  UNL     1      -2.478  -0.322   3.265  1.00  0.00     0.066 C 
HETATM    2  C2  UNL     1      -2.224   1.145   3.312  1.00  0.00     0.022 C 
HETATM    3  N1  UNL     1      -1.455   1.732   4.151  1.00  0.00    -0.362 N 
ATOM      4  H1  UNL     1      -0.924   1.262   4.886  1.00  0.00     0.161 HD
HETATM    5  C3  UNL     1      -1.446   3.144   3.910  1.00  0.00     0.336 C 
HETATM    6  N4  UNL     1      -2.730   3.363   3.294  1.00  0.00    -0.029 N 
ATOM      7  H41 UNL     1      -2.854   4.262   2.830  1.00  0.00     0.281 HD
ATOM      8  H42 UNL     1      -3.514   3.494   3.934  1.00  0.00     0.281 HD
HETATM    9  C8  UNL     1      -2.799   2.175   2.426  1.00  0.00     0.205 C 
HETATM   10  C9  UNL     1      -1.977   2.466   1.214  1.00  0.00     0.052 C 
HETATM   11  C10 UNL     1      -2.806   2.078  -0.006  1.00  0.00     0.012 C 
HETATM   12  C11 UNL     1      -4.058   2.910  -0.093  1.00  0.00    -0.043 C 
HETATM   13  C12 UNL     1      -4.896   2.366  -1.232  1.00  0.00     0.015 C 
HETATM   14  C13 UNL     1      -3.641   4.325  -0.460  1.00  0.00     0.015 C 
HETATM   15  C14 UNL     1      -4.872   2.897   1.167  1.00  0.00     0.066 C 
HETATM   16  C15 UNL     1      -4.227   1.941   2.124  1.00  0.00     0.052 C 
HETATM   17  N5  UNL     1      -4.892   0.974   2.647  1.00  0.00    -0.275 N 
ATOM     18  H5  UNL     1      -4.443   0.327   3.296  1.00  0.00     0.193 HD
ENDROOT
BRANCH   5  19
HETATM   19  C4  UNL     1      -1.294   3.921   5.141  1.00  0.00     0.061 A 
HETATM   20  C5  UNL     1      -2.157   4.855   5.652  1.00  0.00     0.057 A 
HETATM   21  C6  UNL     1      -1.663   5.372   6.833  1.00  0.00     0.063 A 
HETATM   22  N2  UNL     1      -2.209   6.355   7.706  1.00  0.00    -0.101 NA
HETATM   23  C7  UNL     1      -0.462   4.724   7.033  1.00  0.00     0.114 A 
HETATM   24  N3  UNL     1      -0.263   3.856   6.002  1.00  0.00    -0.364 N 
ATOM     25  H3  UNL     1       0.548   3.247   5.898  1.00  0.00     0.165 HD
ENDBRANCH   5  19
BRANCH  17  26
HETATM   26  O1  UNL     1      -6.214   0.825   2.316  1.00  0.00    -0.290 OA
ATOM     27  H1  UNL     1      -6.684   0.066   2.638  1.00  0.00     0.244 HD
ENDBRANCH  17  26
TORSDOF 2
ENDMDL
