MODEL 1
REMARK VINA RESULT: -7.733656967      0.000      0.000
REMARK  18 active torsions:
REMARK  status: ('A' for Active; 'I' for Inactive)
REMARK    1  A    between atoms: C2_2  and  N1_3 
REMARK    2  A    between atoms: C2_2  and  C3_7 
REMARK    3  A    between atoms: C3_7  and  N2_8 
REMARK    4  A    between atoms: C3_7  and  C4_12 
REMARK    5  A    between atoms: C4_12  and  N3_13 
REMARK    6  A    between atoms: C4_12  and  C5_17 
REMARK    7  A    between atoms: C5_17  and  C6_18 
REMARK    8  A    between atoms: C7_20  and  C8_21 
REMARK    9  A    between atoms: C8_21  and  N4_22 
REMARK       I    between atoms: N4_22  and  C9_24 
REMARK   10  A    between atoms: C10_29  and  O2_30 
REMARK   11  A    between atoms: C11_32  and  O3_33 
REMARK   12  A    between atoms: O3_33  and  C12_34 
REMARK   13  A    between atoms: C12_34  and  C13_35 
REMARK       I    between atoms: C13_35  and  N7_37 
REMARK   14  A    between atoms: N7_37  and  C14_39 
REMARK   15  A    between atoms: C14_39  and  C15_40 
REMARK   16  A    between atoms: C14_39  and  C17_44 
REMARK   17  A    between atoms: C15_40  and  C16_41 
REMARK   18  A    between atoms: C17_44  and  C18_46 
ROOT
HETATM    1  C6  UNL     1      -3.377  14.385 121.523  1.00  0.00     0.265 C 
HETATM    2  O1  UNL     1      -4.481  15.146 121.157  1.00  0.00    -0.351 OA
HETATM    3  C7  UNL     1      -4.973  15.889 122.189  1.00  0.00     0.176 C 
HETATM    4  C10 UNL     1      -5.336  15.015 123.338  1.00  0.00     0.204 C 
HETATM    5  C11 UNL     1      -4.127  14.204 123.742  1.00  0.00     0.294 C 
HETATM    6  O9  UNL     1      -3.608  13.591 122.603  1.00  0.00    -0.329 OA
ENDROOT
BRANCH   1   7
HETATM    7  C5  UNL     1      -2.154  15.228 121.533  1.00  0.00     0.096 C 
BRANCH   7   8
HETATM    8  C4  UNL     1      -1.552  15.598 120.230  1.00  0.00     0.220 C 
BRANCH   8   9
HETATM    9  C3  UNL     1      -1.563  17.057 119.900  1.00  0.00     0.243 C 
BRANCH   9  10
HETATM   10  C2  UNL     1      -0.777  17.823 120.963  1.00  0.00     0.211 C 
HETATM   11  C1  UNL     1       0.263  18.675 120.279  1.00  0.00     0.042 C 
BRANCH  10  12
HETATM   12  N1  UNL     1      -1.746  18.762 121.515  1.00  0.00    -0.073 N 
ATOM     13  H13 UNL     1      -1.632  19.716 121.177  1.00  0.00     0.274 HD
ATOM     14  H12 UNL     1      -2.695  18.624 121.168  1.00  0.00     0.274 HD
ATOM     15  H11 UNL     1      -1.663  18.673 122.528  1.00  0.00     0.274 HD
ENDBRANCH  10  12
ENDBRANCH   9  10
BRANCH   9  16
HETATM   16  N2  UNL     1      -2.892  17.588 119.842  1.00  0.00    -0.071 N 
ATOM     17  H23 UNL     1      -3.599  16.862 119.729  1.00  0.00     0.274 HD
ATOM     18  H22 UNL     1      -3.207  17.952 120.742  1.00  0.00     0.274 HD
ATOM     19  H21 UNL     1      -2.931  18.289 119.102  1.00  0.00     0.274 HD
ENDBRANCH   9  16
ENDBRANCH   8   9
BRANCH   8  20
HETATM   20  N3  UNL     1      -1.990  14.856 119.077  1.00  0.00    -0.073 N 
ATOM     21  H33 UNL     1      -1.243  14.718 118.397  1.00  0.00     0.274 HD
ATOM     22  H32 UNL     1      -2.169  13.874 119.291  1.00  0.00     0.274 HD
ATOM     23  H31 UNL     1      -2.804  15.320 118.675  1.00  0.00     0.274 HD
ENDBRANCH   8  20
ENDBRANCH   7   8
ENDBRANCH   1   7
BRANCH   3  24
HETATM   24  C8  UNL     1      -6.082  16.820 121.744  1.00  0.00     0.157 C 
BRANCH  24  25
HETATM   25  N4  UNL     1      -6.707  16.481 120.524  1.00  0.00    -0.362 N 
HETATM   26  C9  UNL     1      -7.999  15.912 120.504  1.00  0.00     0.181 C 
HETATM   27  N5  UNL     1      -8.196  14.678 120.886  1.00  0.00    -0.374 N 
HETATM   28  N6  UNL     1      -9.076  16.717 120.062  1.00  0.00    -0.064 NA
ATOM     29  H52 UNL     1      -7.420  14.097 121.205  1.00  0.00     0.158 HD
ATOM     30  H51 UNL     1      -9.129  14.268 120.872  1.00  0.00     0.158 HD
ATOM     31  H4  UNL     1      -6.218  16.648 119.645  1.00  0.00     0.162 HD
ENDBRANCH  24  25
ENDBRANCH   3  24
BRANCH   5  32
HETATM   32  O3  UNL     1      -4.512  13.156 124.590  1.00  0.00    -0.349 OA
BRANCH  32  33
HETATM   33  C12 UNL     1      -3.490  12.277 124.755  1.00  0.00     0.273 C 
BRANCH  33  34
HETATM   34  C13 UNL     1      -3.631  11.087 123.856  1.00  0.00     0.242 C 
HETATM   35  O4  UNL     1      -2.623  10.340 123.758  1.00  0.00    -0.271 OA
HETATM   36  N7  UNL     1      -4.808  10.798 123.154  1.00  0.00    -0.347 N 
ATOM     37  H7  UNL     1      -5.609  11.422 123.258  1.00  0.00     0.163 HD
BRANCH  36  38
HETATM   38  C14 UNL     1      -4.930   9.639 122.282  1.00  0.00     0.174 C 
BRANCH  38  39
HETATM   39  C15 UNL     1      -5.612   9.971 121.008  1.00  0.00     0.133 C 
BRANCH  39  40
HETATM   40  C16 UNL     1      -5.391  11.356 120.515  1.00  0.00     0.233 C 
HETATM   41  N8  UNL     1      -4.315  11.671 119.657  1.00  0.00    -0.062 NA
HETATM   42  O5  UNL     1      -6.183  12.250 120.877  1.00  0.00    -0.277 OA
ENDBRANCH  39  40
ENDBRANCH  38  39
BRANCH  38  43
HETATM   43  C17 UNL     1      -5.552   8.513 122.983  1.00  0.00     0.247 C 
HETATM   44  O6  UNL     1      -6.784   8.258 122.685  1.00  0.00    -0.283 OA
BRANCH  43  45
HETATM   45  C18 UNL     1      -4.915   7.687 123.952  1.00  0.00     0.249 C 
HETATM   46  O7  UNL     1      -4.611   8.007 125.095  1.00  0.00    -0.642 OA
HETATM   47  O8  UNL     1      -4.590   6.358 123.579  1.00  0.00    -0.642 OA
ENDBRANCH  43  45
ENDBRANCH  38  43
ENDBRANCH  36  38
ENDBRANCH  33  34
ENDBRANCH  32  33
ENDBRANCH   5  32
BRANCH   4  48
HETATM   48  O2  UNL     1      -6.284  14.061 122.887  1.00  0.00    -0.388 OA
ATOM     49  H2  UNL     1      -6.176  13.955 121.949  1.00  0.00     0.210 HD
ENDBRANCH   4  48
TORSDOF 18
ENDMDL
MODEL 2
REMARK VINA RESULT: -7.670429182      3.088      8.089
REMARK  18 active torsions:
REMARK  status: ('A' for Active; 'I' for Inactive)
REMARK    1  A    between atoms: C2_2  and  N1_3 
REMARK    2  A    between atoms: C2_2  and  C3_7 
REMARK    3  A    between atoms: C3_7  and  N2_8 
REMARK    4  A    between atoms: C3_7  and  C4_12 
REMARK    5  A    between atoms: C4_12  and  N3_13 
REMARK    6  A    between atoms: C4_12  and  C5_17 
REMARK    7  A    between atoms: C5_17  and  C6_18 
REMARK    8  A    between atoms: C7_20  and  C8_21 
REMARK    9  A    between atoms: C8_21  and  N4_22 
REMARK       I    between atoms: N4_22  and  C9_24 
REMARK   10  A    between atoms: C10_29  and  O2_30 
REMARK   11  A    between atoms: C11_32  and  O3_33 
REMARK   12  A    between atoms: O3_33  and  C12_34 
REMARK   13  A    between atoms: C12_34  and  C13_35 
REMARK       I    between atoms: C13_35  and  N7_37 
REMARK   14  A    between atoms: N7_37  and  C14_39 
REMARK   15  A    between atoms: C14_39  and  C15_40 
REMARK   16  A    between atoms: C14_39  and  C17_44 
REMARK   17  A    between atoms: C15_40  and  C16_41 
REMARK   18  A    between atoms: C17_44  and  C18_46 
ROOT
HETATM    1  C6  UNL     1      -5.239   9.291 122.735  1.00  0.00     0.265 C 
HETATM    2  O1  UNL     1      -4.636   8.305 121.963  1.00  0.00    -0.351 OA
HETATM    3  C7  UNL     1      -3.555   8.766 121.272  1.00  0.00     0.176 C 
HETATM    4  C10 UNL     1      -3.940   9.908 120.398  1.00  0.00     0.204 C 
HETATM    5  C11 UNL     1      -4.578  10.984 121.246  1.00  0.00     0.294 C 
HETATM    6  O9  UNL     1      -5.578  10.398 122.020  1.00  0.00    -0.329 OA
ENDROOT
BRANCH   1   7
HETATM    7  C5  UNL     1      -4.482   9.488 123.998  1.00  0.00     0.096 C 
BRANCH   7   8
HETATM    8  C4  UNL     1      -4.821  10.661 124.837  1.00  0.00     0.220 C 
BRANCH   8   9
HETATM    9  C3  UNL     1      -4.686  10.467 126.313  1.00  0.00     0.243 C 
BRANCH   9  10
HETATM   10  C2  UNL     1      -3.413  11.157 126.801  1.00  0.00     0.211 C 
HETATM   11  C1  UNL     1      -3.778  12.509 127.363  1.00  0.00     0.042 C 
BRANCH  10  12
HETATM   12  N1  UNL     1      -2.993  10.361 127.948  1.00  0.00    -0.073 N 
ATOM     13  H13 UNL     1      -3.517  10.559 128.799  1.00  0.00     0.274 HD
ATOM     14  H12 UNL     1      -3.245   9.375 127.878  1.00  0.00     0.274 HD
ATOM     15  H11 UNL     1      -1.990  10.523 128.037  1.00  0.00     0.274 HD
ENDBRANCH  10  12
ENDBRANCH   9  10
BRANCH   9  16
HETATM   16  N2  UNL     1      -4.621   9.081 126.672  1.00  0.00    -0.071 N 
ATOM     17  H23 UNL     1      -5.542   8.646 126.723  1.00  0.00     0.274 HD
ATOM     18  H22 UNL     1      -4.233   8.502 125.927  1.00  0.00     0.274 HD
ATOM     19  H21 UNL     1      -4.101   8.994 127.546  1.00  0.00     0.274 HD
ENDBRANCH   9  16
ENDBRANCH   8   9
BRANCH   8  20
HETATM   20  N3  UNL     1      -6.075  11.314 124.565  1.00  0.00    -0.073 N 
ATOM     21  H33 UNL     1      -6.661  10.780 123.924  1.00  0.00     0.274 HD
ATOM     22  H32 UNL     1      -6.701  11.305 125.371  1.00  0.00     0.274 HD
ATOM     23  H31 UNL     1      -5.890  12.259 124.228  1.00  0.00     0.274 HD
ENDBRANCH   8  20
ENDBRANCH   7   8
ENDBRANCH   1   7
BRANCH   3  24
HETATM   24  C8  UNL     1      -2.823   7.654 120.549  1.00  0.00     0.157 C 
BRANCH  24  25
HETATM   25  N4  UNL     1      -3.636   6.608 120.061  1.00  0.00    -0.362 N 
HETATM   26  C9  UNL     1      -3.075   5.517 119.364  1.00  0.00     0.181 C 
HETATM   27  N5  UNL     1      -2.621   5.659 118.146  1.00  0.00    -0.374 N 
HETATM   28  N6  UNL     1      -3.014   4.265 120.020  1.00  0.00    -0.064 NA
ATOM     29  H52 UNL     1      -2.665   6.562 117.673  1.00  0.00     0.158 HD
ATOM     30  H51 UNL     1      -2.215   4.871 117.643  1.00  0.00     0.158 HD
ATOM     31  H4  UNL     1      -4.645   6.642 120.214  1.00  0.00     0.162 HD
ENDBRANCH  24  25
ENDBRANCH   3  24
BRANCH   5  32
HETATM   32  O3  UNL     1      -5.234  11.915 120.428  1.00  0.00    -0.349 OA
BRANCH  32  33
HETATM   33  C12 UNL     1      -6.009  12.743 121.176  1.00  0.00     0.273 C 
BRANCH  33  34
HETATM   34  C13 UNL     1      -5.192  13.776 121.888  1.00  0.00     0.242 C 
HETATM   35  O4  UNL     1      -5.245  13.759 123.146  1.00  0.00    -0.271 OA
HETATM   36  N7  UNL     1      -4.402  14.718 121.217  1.00  0.00    -0.347 N 
ATOM     37  H7  UNL     1      -4.377  14.703 120.197  1.00  0.00     0.163 HD
BRANCH  36  38
HETATM   38  C14 UNL     1      -3.614  15.718 121.922  1.00  0.00     0.174 C 
BRANCH  38  39
HETATM   39  C15 UNL     1      -4.360  16.986 122.105  1.00  0.00     0.133 C 
BRANCH  39  40
HETATM   40  C16 UNL     1      -5.605  17.109 121.301  1.00  0.00     0.233 C 
HETATM   41  N8  UNL     1      -5.568  17.436 119.929  1.00  0.00    -0.062 NA
HETATM   42  O5  UNL     1      -6.700  16.915 121.868  1.00  0.00    -0.277 OA
ENDBRANCH  39  40
ENDBRANCH  38  39
BRANCH  38  43
HETATM   43  C17 UNL     1      -2.311  15.912 121.282  1.00  0.00     0.247 C 
HETATM   44  O6  UNL     1      -1.385  16.447 122.011  1.00  0.00    -0.283 OA
BRANCH  43  45
HETATM   45  C18 UNL     1      -1.986  15.562 119.941  1.00  0.00     0.249 C 
HETATM   46  O7  UNL     1      -2.585  15.912 118.932  1.00  0.00    -0.642 OA
HETATM   47  O8  UNL     1      -0.861  14.725 119.728  1.00  0.00    -0.642 OA
ENDBRANCH  43  45
ENDBRANCH  38  43
ENDBRANCH  36  38
ENDBRANCH  33  34
ENDBRANCH  32  33
ENDBRANCH   5  32
BRANCH   4  48
HETATM   48  O2  UNL     1      -4.968   9.472 119.524  1.00  0.00    -0.388 OA
ATOM     49  H2  UNL     1      -4.658   8.702 119.061  1.00  0.00     0.210 HD
ENDBRANCH   4  48
TORSDOF 18
ENDMDL
MODEL 3
REMARK VINA RESULT: -7.567959484      2.159      4.760
REMARK  18 active torsions:
REMARK  status: ('A' for Active; 'I' for Inactive)
REMARK    1  A    between atoms: C2_2  and  N1_3 
REMARK    2  A    between atoms: C2_2  and  C3_7 
REMARK    3  A    between atoms: C3_7  and  N2_8 
REMARK    4  A    between atoms: C3_7  and  C4_12 
REMARK    5  A    between atoms: C4_12  and  N3_13 
REMARK    6  A    between atoms: C4_12  and  C5_17 
REMARK    7  A    between atoms: C5_17  and  C6_18 
REMARK    8  A    between atoms: C7_20  and  C8_21 
REMARK    9  A    between atoms: C8_21  and  N4_22 
REMARK       I    between atoms: N4_22  and  C9_24 
REMARK   10  A    between atoms: C10_29  and  O2_30 
REMARK   11  A    between atoms: C11_32  and  O3_33 
REMARK   12  A    between atoms: O3_33  and  C12_34 
REMARK   13  A    between atoms: C12_34  and  C13_35 
REMARK       I    between atoms: C13_35  and  N7_37 
REMARK   14  A    between atoms: N7_37  and  C14_39 
REMARK   15  A    between atoms: C14_39  and  C15_40 
REMARK   16  A    between atoms: C14_39  and  C17_44 
REMARK   17  A    between atoms: C15_40  and  C16_41 
REMARK   18  A    between atoms: C17_44  and  C18_46 
ROOT
HETATM    1  C6  UNL     1      -1.796  13.883 123.404  1.00  0.00     0.265 C 
HETATM    2  O1  UNL     1      -1.900  15.135 122.812  1.00  0.00    -0.351 OA
HETATM    3  C7  UNL     1      -2.704  15.132 121.712  1.00  0.00     0.176 C 
HETATM    4  C10 UNL     1      -2.211  14.151 120.705  1.00  0.00     0.204 C 
HETATM    5  C11 UNL     1      -2.118  12.788 121.350  1.00  0.00     0.294 C 
HETATM    6  O9  UNL     1      -1.399  12.911 122.537  1.00  0.00    -0.329 OA
ENDROOT
BRANCH   1   7
HETATM    7  C5  UNL     1      -2.989  13.612 124.246  1.00  0.00     0.096 C 
BRANCH   7   8
HETATM    8  C4  UNL     1      -3.319  12.201 124.553  1.00  0.00     0.220 C 
BRANCH   8   9
HETATM    9  C3  UNL     1      -4.253  11.986 125.702  1.00  0.00     0.243 C 
BRANCH   9  10
HETATM   10  C2  UNL     1      -3.499  11.318 126.850  1.00  0.00     0.211 C 
HETATM   11  C1  UNL     1      -3.745  12.102 128.116  1.00  0.00     0.042 C 
BRANCH  10  12
HETATM   12  N1  UNL     1      -4.191  10.049 127.040  1.00  0.00    -0.073 N 
ATOM     13  H13 UNL     1      -4.618   9.947 127.960  1.00  0.00     0.274 HD
ATOM     14  H12 UNL     1      -5.052   9.965 126.499  1.00  0.00     0.274 HD
ATOM     15  H11 UNL     1      -3.501   9.329 126.827  1.00  0.00     0.274 HD
ENDBRANCH  10  12
ENDBRANCH   9  10
BRANCH   9  16
HETATM   16  N2  UNL     1      -5.369  11.161 125.345  1.00  0.00    -0.071 N 
ATOM     17  H23 UNL     1      -5.680  10.570 126.116  1.00  0.00     0.274 HD
ATOM     18  H22 UNL     1      -6.228  11.697 125.222  1.00  0.00     0.274 HD
ATOM     19  H21 UNL     1      -5.123  10.621 124.515  1.00  0.00     0.274 HD
ENDBRANCH   9  16
ENDBRANCH   8   9
BRANCH   8  20
HETATM   20  N3  UNL     1      -2.215  11.286 124.673  1.00  0.00    -0.073 N 
ATOM     21  H33 UNL     1      -2.136  10.891 125.610  1.00  0.00     0.274 HD
ATOM     22  H32 UNL     1      -2.373  10.416 124.165  1.00  0.00     0.274 HD
ATOM     23  H31 UNL     1      -1.361  11.759 124.377  1.00  0.00     0.274 HD
ENDBRANCH   8  20
ENDBRANCH   7   8
ENDBRANCH   1   7
BRANCH   3  24
HETATM   24  C8  UNL     1      -2.924  16.526 121.161  1.00  0.00     0.157 C 
BRANCH  24  25
HETATM   25  N4  UNL     1      -4.145  16.724 120.480  1.00  0.00    -0.362 N 
HETATM   26  C9  UNL     1      -5.381  16.520 121.132  1.00  0.00     0.181 C 
HETATM   27  N5  UNL     1      -5.798  15.315 121.419  1.00  0.00    -0.374 N 
HETATM   28  N6  UNL     1      -6.153  17.656 121.469  1.00  0.00    -0.064 NA
ATOM     29  H52 UNL     1      -5.241  14.495 121.176  1.00  0.00     0.158 HD
ATOM     30  H51 UNL     1      -6.690  15.168 121.890  1.00  0.00     0.158 HD
ATOM     31  H4  UNL     1      -4.135  17.018 119.503  1.00  0.00     0.162 HD
ENDBRANCH  24  25
ENDBRANCH   3  24
BRANCH   5  32
HETATM   32  O3  UNL     1      -1.365  11.924 120.543  1.00  0.00    -0.349 OA
BRANCH  32  33
HETATM   33  C12 UNL     1      -1.411  10.657 121.029  1.00  0.00     0.273 C 
BRANCH  33  34
HETATM   34  C13 UNL     1      -2.715   9.989 120.714  1.00  0.00     0.242 C 
HETATM   35  O4  UNL     1      -2.832   9.512 119.556  1.00  0.00    -0.271 OA
HETATM   36  N7  UNL     1      -3.761   9.886 121.640  1.00  0.00    -0.347 N 
ATOM     37  H7  UNL     1      -3.634  10.281 122.573  1.00  0.00     0.163 HD
BRANCH  36  38
HETATM   38  C14 UNL     1      -5.023   9.237 121.320  1.00  0.00     0.174 C 
BRANCH  38  39
HETATM   39  C15 UNL     1      -6.021  10.194 120.784  1.00  0.00     0.133 C 
BRANCH  39  40
HETATM   40  C16 UNL     1      -5.808  11.613 121.174  1.00  0.00     0.233 C 
HETATM   41  N8  UNL     1      -6.238  12.107 122.425  1.00  0.00    -0.062 NA
HETATM   42  O5  UNL     1      -5.236  12.372 120.366  1.00  0.00    -0.277 OA
ENDBRANCH  39  40
ENDBRANCH  38  39
BRANCH  38  43
HETATM   43  C17 UNL     1      -5.527   8.470 122.461  1.00  0.00     0.247 C 
HETATM   44  O6  UNL     1      -6.812   8.347 122.552  1.00  0.00    -0.283 OA
BRANCH  43  45
HETATM   45  C18 UNL     1      -4.726   7.853 123.464  1.00  0.00     0.249 C 
HETATM   46  O7  UNL     1      -4.647   6.653 123.696  1.00  0.00    -0.642 OA
HETATM   47  O8  UNL     1      -3.933   8.692 124.288  1.00  0.00    -0.642 OA
ENDBRANCH  43  45
ENDBRANCH  38  43
ENDBRANCH  36  38
ENDBRANCH  33  34
ENDBRANCH  32  33
ENDBRANCH   5  32
BRANCH   4  48
HETATM   48  O2  UNL     1      -0.875  14.491 120.371  1.00  0.00    -0.388 OA
ATOM     49  H2  UNL     1      -0.553  13.853 119.746  1.00  0.00     0.210 HD
ENDBRANCH   4  48
TORSDOF 18
ENDMDL
MODEL 4
REMARK VINA RESULT: -7.558166141      2.689      4.276
REMARK  18 active torsions:
REMARK  status: ('A' for Active; 'I' for Inactive)
REMARK    1  A    between atoms: C2_2  and  N1_3 
REMARK    2  A    between atoms: C2_2  and  C3_7 
REMARK    3  A    between atoms: C3_7  and  N2_8 
REMARK    4  A    between atoms: C3_7  and  C4_12 
REMARK    5  A    between atoms: C4_12  and  N3_13 
REMARK    6  A    between atoms: C4_12  and  C5_17 
REMARK    7  A    between atoms: C5_17  and  C6_18 
REMARK    8  A    between atoms: C7_20  and  C8_21 
REMARK    9  A    between atoms: C8_21  and  N4_22 
REMARK       I    between atoms: N4_22  and  C9_24 
REMARK   10  A    between atoms: C10_29  and  O2_30 
REMARK   11  A    between atoms: C11_32  and  O3_33 
REMARK   12  A    between atoms: O3_33  and  C12_34 
REMARK   13  A    between atoms: C12_34  and  C13_35 
REMARK       I    between atoms: C13_35  and  N7_37 
REMARK   14  A    between atoms: N7_37  and  C14_39 
REMARK   15  A    between atoms: C14_39  and  C15_40 
REMARK   16  A    between atoms: C14_39  and  C17_44 
REMARK   17  A    between atoms: C15_40  and  C16_41 
REMARK   18  A    between atoms: C17_44  and  C18_46 
ROOT
HETATM    1  C6  UNL     1      -4.191  13.962 124.084  1.00  0.00     0.265 C 
HETATM    2  O1  UNL     1      -4.339  14.359 125.407  1.00  0.00    -0.351 OA
HETATM    3  C7  UNL     1      -3.165  14.329 126.100  1.00  0.00     0.176 C 
HETATM    4  C10 UNL     1      -2.566  12.966 126.058  1.00  0.00     0.204 C 
HETATM    5  C11 UNL     1      -2.392  12.548 124.617  1.00  0.00     0.294 C 
HETATM    6  O9  UNL     1      -3.601  12.743 123.953  1.00  0.00    -0.329 OA
ENDROOT
BRANCH   1   7
HETATM    7  C5  UNL     1      -3.653  15.081 123.270  1.00  0.00     0.096 C 
BRANCH   7   8
HETATM    8  C4  UNL     1      -4.109  15.202 121.865  1.00  0.00     0.220 C 
BRANCH   8   9
HETATM    9  C3  UNL     1      -3.932  16.548 121.237  1.00  0.00     0.243 C 
BRANCH   9  10
HETATM   10  C2  UNL     1      -2.468  16.737 120.847  1.00  0.00     0.211 C 
HETATM   11  C1  UNL     1      -2.382  16.919 119.351  1.00  0.00     0.042 C 
BRANCH  10  12
HETATM   12  N1  UNL     1      -2.111  18.032 121.415  1.00  0.00    -0.073 N 
ATOM     13  H13 UNL     1      -2.028  18.026 122.432  1.00  0.00     0.274 HD
ATOM     14  H12 UNL     1      -1.152  18.317 121.218  1.00  0.00     0.274 HD
ATOM     15  H11 UNL     1      -2.813  18.684 121.065  1.00  0.00     0.274 HD
ENDBRANCH  10  12
ENDBRANCH   9  10
BRANCH   9  16
HETATM   16  N2  UNL     1      -4.311  17.611 122.121  1.00  0.00    -0.071 N 
ATOM     17  H23 UNL     1      -4.123  17.392 123.099  1.00  0.00     0.274 HD
ATOM     18  H22 UNL     1      -3.701  18.424 122.039  1.00  0.00     0.274 HD
ATOM     19  H21 UNL     1      -5.291  17.839 121.954  1.00  0.00     0.274 HD
ENDBRANCH   9  16
ENDBRANCH   8   9
BRANCH   8  20
HETATM   20  N3  UNL     1      -5.431  14.718 121.566  1.00  0.00    -0.073 N 
ATOM     21  H33 UNL     1      -6.091  15.474 121.386  1.00  0.00     0.274 HD
ATOM     22  H32 UNL     1      -5.482  14.265 120.654  1.00  0.00     0.274 HD
ATOM     23  H31 UNL     1      -5.737  14.106 122.322  1.00  0.00     0.274 HD
ENDBRANCH   8  20
ENDBRANCH   7   8
ENDBRANCH   1   7
BRANCH   3  24
HETATM   24  C8  UNL     1      -3.311  14.898 127.496  1.00  0.00     0.157 C 
BRANCH  24  25
HETATM   25  N4  UNL     1      -4.503  14.554 128.170  1.00  0.00    -0.362 N 
HETATM   26  C9  UNL     1      -4.466  13.865 129.402  1.00  0.00     0.181 C 
HETATM   27  N5  UNL     1      -4.136  12.601 129.454  1.00  0.00    -0.374 N 
HETATM   28  N6  UNL     1      -4.795  14.580 130.578  1.00  0.00    -0.064 NA
ATOM     29  H52 UNL     1      -3.899  12.085 128.607  1.00  0.00     0.158 HD
ATOM     30  H51 UNL     1      -4.110  12.103 130.344  1.00  0.00     0.158 HD
ATOM     31  H4  UNL     1      -5.403  14.808 127.762  1.00  0.00     0.162 HD
ENDBRANCH  24  25
ENDBRANCH   3  24
BRANCH   5  32
HETATM   32  O3  UNL     1      -2.139  11.172 124.542  1.00  0.00    -0.349 OA
BRANCH  32  33
HETATM   33  C12 UNL     1      -1.630  10.846 123.326  1.00  0.00     0.273 C 
BRANCH  33  34
HETATM   34  C13 UNL     1      -2.517   9.887 122.592  1.00  0.00     0.242 C 
HETATM   35  O4  UNL     1      -1.956   8.873 122.101  1.00  0.00    -0.271 OA
HETATM   36  N7  UNL     1      -3.897  10.083 122.448  1.00  0.00    -0.347 N 
ATOM     37  H7  UNL     1      -4.322  10.914 122.861  1.00  0.00     0.163 HD
BRANCH  36  38
HETATM   38  C14 UNL     1      -4.746   9.144 121.731  1.00  0.00     0.174 C 
BRANCH  38  39
HETATM   39  C15 UNL     1      -5.652   9.829 120.777  1.00  0.00     0.133 C 
BRANCH  39  40
HETATM   40  C16 UNL     1      -5.593  11.315 120.807  1.00  0.00     0.233 C 
HETATM   41  N8  UNL     1      -4.580  12.026 120.129  1.00  0.00    -0.062 NA
HETATM   42  O5  UNL     1      -6.467  11.931 121.450  1.00  0.00    -0.277 OA
ENDBRANCH  39  40
ENDBRANCH  38  39
BRANCH  38  43
HETATM   43  C17 UNL     1      -5.459   8.262 122.658  1.00  0.00     0.247 C 
HETATM   44  O6  UNL     1      -6.747   8.222 122.541  1.00  0.00    -0.283 OA
BRANCH  43  45
HETATM   45  C18 UNL     1      -4.855   7.453 123.662  1.00  0.00     0.249 C 
HETATM   46  O7  UNL     1      -4.541   6.274 123.556  1.00  0.00    -0.642 OA
HETATM   47  O8  UNL     1      -4.580   8.051 124.918  1.00  0.00    -0.642 OA
ENDBRANCH  43  45
ENDBRANCH  38  43
ENDBRANCH  36  38
ENDBRANCH  33  34
ENDBRANCH  32  33
ENDBRANCH   5  32
BRANCH   4  48
HETATM   48  O2  UNL     1      -3.508  12.051 126.594  1.00  0.00    -0.388 OA
ATOM     49  H2  UNL     1      -3.115  11.626 127.346  1.00  0.00     0.210 HD
ENDBRANCH   4  48
TORSDOF 18
ENDMDL
MODEL 5
REMARK VINA RESULT: -7.453351829      1.193      2.698
REMARK  18 active torsions:
REMARK  status: ('A' for Active; 'I' for Inactive)
REMARK    1  A    between atoms: C2_2  and  N1_3 
REMARK    2  A    between atoms: C2_2  and  C3_7 
REMARK    3  A    between atoms: C3_7  and  N2_8 
REMARK    4  A    between atoms: C3_7  and  C4_12 
REMARK    5  A    between atoms: C4_12  and  N3_13 
REMARK    6  A    between atoms: C4_12  and  C5_17 
REMARK    7  A    between atoms: C5_17  and  C6_18 
REMARK    8  A    between atoms: C7_20  and  C8_21 
REMARK    9  A    between atoms: C8_21  and  N4_22 
REMARK       I    between atoms: N4_22  and  C9_24 
REMARK   10  A    between atoms: C10_29  and  O2_30 
REMARK   11  A    between atoms: C11_32  and  O3_33 
REMARK   12  A    between atoms: O3_33  and  C12_34 
REMARK   13  A    between atoms: C12_34  and  C13_35 
REMARK       I    between atoms: C13_35  and  N7_37 
REMARK   14  A    between atoms: N7_37  and  C14_39 
REMARK   15  A    between atoms: C14_39  and  C15_40 
REMARK   16  A    between atoms: C14_39  and  C17_44 
REMARK   17  A    between atoms: C15_40  and  C16_41 
REMARK   18  A    between atoms: C17_44  and  C18_46 
ROOT
HETATM    1  C6  UNL     1      -3.401  14.151 121.625  1.00  0.00     0.265 C 
HETATM    2  O1  UNL     1      -4.484  14.935 121.246  1.00  0.00    -0.351 OA
HETATM    3  C7  UNL     1      -4.919  15.751 122.247  1.00  0.00     0.176 C 
HETATM    4  C10 UNL     1      -5.284  14.955 123.452  1.00  0.00     0.204 C 
HETATM    5  C11 UNL     1      -4.097  14.119 123.869  1.00  0.00     0.294 C 
HETATM    6  O9  UNL     1      -3.633  13.426 122.753  1.00  0.00    -0.329 OA
ENDROOT
BRANCH   1   7
HETATM    7  C5  UNL     1      -2.146  14.943 121.558  1.00  0.00     0.096 C 
BRANCH   7   8
HETATM    8  C4  UNL     1      -1.610  15.287 120.220  1.00  0.00     0.220 C 
BRANCH   8   9
HETATM    9  C3  UNL     1      -1.662  16.735 119.851  1.00  0.00     0.243 C 
BRANCH   9  10
HETATM   10  C2  UNL     1      -1.033  17.566 120.968  1.00  0.00     0.211 C 
HETATM   11  C1  UNL     1      -0.096  18.577 120.353  1.00  0.00     0.042 C 
BRANCH  10  12
HETATM   12  N1  UNL     1      -2.144  18.343 121.504  1.00  0.00    -0.073 N 
ATOM     13  H13 UNL     1      -2.797  18.670 120.793  1.00  0.00     0.274 HD
ATOM     14  H12 UNL     1      -2.813  17.788 122.036  1.00  0.00     0.274 HD
ATOM     15  H11 UNL     1      -1.714  19.095 122.042  1.00  0.00     0.274 HD
ENDBRANCH  10  12
ENDBRANCH   9  10
BRANCH   9  16
HETATM   16  N2  UNL     1      -3.004  17.192 119.642  1.00  0.00    -0.071 N 
ATOM     17  H23 UNL     1      -3.514  16.615 118.973  1.00  0.00     0.274 HD
ATOM     18  H22 UNL     1      -3.603  17.031 120.452  1.00  0.00     0.274 HD
ATOM     19  H21 UNL     1      -2.975  18.174 119.366  1.00  0.00     0.274 HD
ENDBRANCH   9  16
ENDBRANCH   8   9
BRANCH   8  20
HETATM   20  N3  UNL     1      -2.084  14.505 119.109  1.00  0.00    -0.073 N 
ATOM     21  H33 UNL     1      -2.422  13.586 119.396  1.00  0.00     0.274 HD
ATOM     22  H32 UNL     1      -2.958  14.864 118.725  1.00  0.00     0.274 HD
ATOM     23  H31 UNL     1      -1.346  14.447 118.407  1.00  0.00     0.274 HD
ENDBRANCH   8  20
ENDBRANCH   7   8
ENDBRANCH   1   7
BRANCH   3  24
HETATM   24  C8  UNL     1      -6.003  16.700 121.780  1.00  0.00     0.157 C 
BRANCH  24  25
HETATM   25  N4  UNL     1      -6.634  16.351 120.566  1.00  0.00    -0.362 N 
HETATM   26  C9  UNL     1      -7.926  15.782 120.557  1.00  0.00     0.181 C 
HETATM   27  N5  UNL     1      -8.119  14.550 120.948  1.00  0.00    -0.374 N 
HETATM   28  N6  UNL     1      -9.005  16.582 120.114  1.00  0.00    -0.064 NA
ATOM     29  H52 UNL     1      -7.341  13.973 121.268  1.00  0.00     0.158 HD
ATOM     30  H51 UNL     1      -9.052  14.139 120.942  1.00  0.00     0.158 HD
ATOM     31  H4  UNL     1      -6.149  16.512 119.683  1.00  0.00     0.162 HD
ENDBRANCH  24  25
ENDBRANCH   3  24
BRANCH   5  32
HETATM   32  O3  UNL     1      -4.498  13.135 124.782  1.00  0.00    -0.349 OA
BRANCH  32  33
HETATM   33  C12 UNL     1      -3.834  11.973 124.554  1.00  0.00     0.273 C 
BRANCH  33  34
HETATM   34  C13 UNL     1      -4.646  11.022 123.730  1.00  0.00     0.242 C 
HETATM   35  O4  UNL     1      -5.884  11.004 123.958  1.00  0.00    -0.271 OA
HETATM   36  N7  UNL     1      -4.086  10.189 122.752  1.00  0.00    -0.347 N 
ATOM     37  H7  UNL     1      -3.079  10.230 122.589  1.00  0.00     0.163 HD
BRANCH  36  38
HETATM   38  C14 UNL     1      -4.887   9.269 121.961  1.00  0.00     0.174 C 
BRANCH  38  39
HETATM   39  C15 UNL     1      -4.264   7.926 121.868  1.00  0.00     0.133 C 
BRANCH  39  40
HETATM   40  C16 UNL     1      -3.936   7.290 123.172  1.00  0.00     0.233 C 
HETATM   41  N8  UNL     1      -2.671   7.455 123.775  1.00  0.00    -0.062 NA
HETATM   42  O5  UNL     1      -4.810   6.598 123.733  1.00  0.00    -0.277 OA
ENDBRANCH  39  40
ENDBRANCH  38  39
BRANCH  38  43
HETATM   43  C17 UNL     1      -5.207   9.838 120.650  1.00  0.00     0.247 C 
HETATM   44  O6  UNL     1      -5.431   8.996 119.694  1.00  0.00    -0.283 OA
BRANCH  43  45
HETATM   45  C18 UNL     1      -5.292  11.227 120.349  1.00  0.00     0.249 C 
HETATM   46  O7  UNL     1      -6.113  12.020 120.793  1.00  0.00    -0.642 OA
HETATM   47  O8  UNL     1      -4.341  11.769 119.446  1.00  0.00    -0.642 OA
ENDBRANCH  43  45
ENDBRANCH  38  43
ENDBRANCH  36  38
ENDBRANCH  33  34
ENDBRANCH  32  33
ENDBRANCH   5  32
BRANCH   4  48
HETATM   48  O2  UNL     1      -6.280  14.017 123.077  1.00  0.00    -0.388 OA
ATOM     49  H2  UNL     1      -5.853  13.191 122.885  1.00  0.00     0.210 HD
ENDBRANCH   4  48
TORSDOF 18
ENDMDL
