MODEL 1
REMARK VINA RESULT: -8.201180918      0.000      0.000
REMARK  16 active torsions:
REMARK  status: ('A' for Active; 'I' for Inactive)
REMARK    1  A    between atoms: N1_1  and  C1_5 
REMARK    2  A    between atoms: C1_5  and  C2_6 
REMARK    3  A    between atoms: C2_6  and  N2_7 
REMARK    4  A    between atoms: C2_6  and  C16_38 
REMARK       I    between atoms: N2_7  and  C3_9 
REMARK    5  A    between atoms: C3_9  and  C4_11 
REMARK    6  A    between atoms: C4_11  and  C5_12 
REMARK    7  A    between atoms: C4_11  and  C13_28 
REMARK    8  A    between atoms: C5_12  and  O2_13 
REMARK    9  A    between atoms: O2_13  and  C6_14 
REMARK   10  A    between atoms: C7_16  and  O4_17 
REMARK   11  A    between atoms: O4_17  and  C8_18 
REMARK   12  A    between atoms: C8_18  and  C9_19 
REMARK   13  A    between atoms: C11_23  and  C12_24 
REMARK   14  A    between atoms: C13_28  and  N4_29 
REMARK   15  A    between atoms: C13_28  and  C15_35 
REMARK   16  A    between atoms: N4_29  and  N5_30 
REMARK       I    between atoms: N5_30  and  C14_32 
ROOT
HETATM    1  C4  UNL     1      -4.832  12.721 121.147  1.00  0.00     0.131 C 
ENDROOT
BRANCH   1   2
HETATM    2  C3  UNL     1      -5.258  14.063 121.651  1.00  0.00     0.226 C 
HETATM    3  N2  UNL     1      -4.565  15.259 121.536  1.00  0.00    -0.344 N 
ATOM      4  H2  UNL     1      -3.662  15.255 121.063  1.00  0.00     0.163 HD
HETATM    5  O1  UNL     1      -6.388  14.097 122.250  1.00  0.00    -0.273 OA
BRANCH   3   6
HETATM    6  C2  UNL     1      -5.069  16.512 122.058  1.00  0.00     0.211 C 
BRANCH   6   7
HETATM    7  C1  UNL     1      -3.942  17.366 122.588  1.00  0.00     0.265 C 
BRANCH   7   8
HETATM    8  N1  UNL     1      -3.275  16.725 123.692  1.00  0.00    -0.077 N 
ATOM      9  H13 UNL     1      -3.804  16.824 124.558  1.00  0.00     0.274 HD
ATOM     10  H12 UNL     1      -3.303  15.708 123.608  1.00  0.00     0.274 HD
ATOM     11  H11 UNL     1      -2.320  17.066 123.797  1.00  0.00     0.274 HD
ENDBRANCH   7   8
ENDBRANCH   6   7
BRANCH   6  12
HETATM   12  C16 UNL     1      -5.893  17.242 121.086  1.00  0.00     0.198 C 
HETATM   13  O11 UNL     1      -7.027  17.658 121.432  1.00  0.00    -0.646 OA
HETATM   14  O12 UNL     1      -5.437  17.469 119.814  1.00  0.00    -0.646 OA
ENDBRANCH   6  12
ENDBRANCH   3   6
ENDBRANCH   1   2
BRANCH   1  15
HETATM   15  C5  UNL     1      -5.959  11.769 121.009  1.00  0.00     0.189 C 
BRANCH  15  16
HETATM   16  O2  UNL     1      -5.767  10.528 121.298  1.00  0.00    -0.338 OA
BRANCH  16  17
HETATM   17  C6  UNL     1      -5.706   9.332 120.855  1.00  0.00     0.416 C 
HETATM   18  O3  UNL     1      -4.561   9.067 120.054  1.00  0.00    -0.308 OA
HETATM   19  C7  UNL     1      -3.852   8.042 120.660  1.00  0.00     0.268 C 
HETATM   20  C10 UNL     1      -3.376   8.593 122.004  1.00  0.00     0.102 C 
HETATM   21  C11 UNL     1      -4.678   8.728 122.819  1.00  0.00     0.220 C 
HETATM   22  O8  UNL     1      -5.731   8.413 121.951  1.00  0.00    -0.324 OA
BRANCH  19  23
HETATM   23  O4  UNL     1      -2.802   7.679 119.858  1.00  0.00    -0.351 OA
BRANCH  23  24
HETATM   24  C8  UNL     1      -2.090   6.579 120.268  1.00  0.00     0.284 C 
BRANCH  24  25
HETATM   25  C9  UNL     1      -2.874   5.330 120.332  1.00  0.00     0.197 C 
HETATM   26  O5  UNL     1      -3.332   4.827 119.279  1.00  0.00    -0.646 OA
HETATM   27  O6  UNL     1      -3.127   4.683 121.526  1.00  0.00    -0.646 OA
ENDBRANCH  24  25
ENDBRANCH  23  24
ENDBRANCH  19  23
BRANCH  21  28
HETATM   28  C12 UNL     1      -4.710   7.773 123.943  1.00  0.00     0.260 C 
HETATM   29  N3  UNL     1      -4.781   8.245 125.303  1.00  0.00    -0.060 NA
HETATM   30  O7  UNL     1      -4.674   6.549 123.744  1.00  0.00    -0.274 OA
ENDBRANCH  21  28
ENDBRANCH  16  17
ENDBRANCH  15  16
ENDBRANCH   1  15
BRANCH   1  31
HETATM   31  C13 UNL     1      -3.676  12.199 121.910  1.00  0.00     0.203 C 
BRANCH  31  32
HETATM   32  N4  UNL     1      -2.424  12.666 121.237  1.00  0.00    -0.122 NA
BRANCH  32  33
HETATM   33  N5  UNL     1      -2.681  12.899 119.888  1.00  0.00    -0.257 N 
HETATM   34  C14 UNL     1      -1.903  13.835 119.141  1.00  0.00     0.344 C 
HETATM   35  N6  UNL     1      -2.151  14.074 117.782  1.00  0.00    -0.039 NA
HETATM   36  O9  UNL     1      -0.981  14.448 119.722  1.00  0.00    -0.250 OA
ATOM     37  H5  UNL     1      -3.437  12.393 119.427  1.00  0.00     0.186 HD
ENDBRANCH  32  33
ENDBRANCH  31  32
BRANCH  31  38
HETATM   38  C15 UNL     1      -3.592  12.604 123.328  1.00  0.00     0.253 C 
HETATM   39  N7  UNL     1      -4.280  11.944 124.346  1.00  0.00    -0.061 NA
HETATM   40  O10 UNL     1      -2.870  13.596 123.692  1.00  0.00    -0.275 OA
ENDBRANCH  31  38
ENDBRANCH   1  31
TORSDOF 16
ENDMDL
MODEL 2
REMARK VINA RESULT: -8.008092068      2.100      4.798
REMARK  16 active torsions:
REMARK  status: ('A' for Active; 'I' for Inactive)
REMARK    1  A    between atoms: N1_1  and  C1_5 
REMARK    2  A    between atoms: C1_5  and  C2_6 
REMARK    3  A    between atoms: C2_6  and  N2_7 
REMARK    4  A    between atoms: C2_6  and  C16_38 
REMARK       I    between atoms: N2_7  and  C3_9 
REMARK    5  A    between atoms: C3_9  and  C4_11 
REMARK    6  A    between atoms: C4_11  and  C5_12 
REMARK    7  A    between atoms: C4_11  and  C13_28 
REMARK    8  A    between atoms: C5_12  and  O2_13 
REMARK    9  A    between atoms: O2_13  and  C6_14 
REMARK   10  A    between atoms: C7_16  and  O4_17 
REMARK   11  A    between atoms: O4_17  and  C8_18 
REMARK   12  A    between atoms: C8_18  and  C9_19 
REMARK   13  A    between atoms: C11_23  and  C12_24 
REMARK   14  A    between atoms: C13_28  and  N4_29 
REMARK   15  A    between atoms: C13_28  and  C15_35 
REMARK   16  A    between atoms: N4_29  and  N5_30 
REMARK       I    between atoms: N5_30  and  C14_32 
ROOT
HETATM    1  C4  UNL     1      -4.735  15.749 122.887  1.00  0.00     0.131 C 
ENDROOT
BRANCH   1   2
HETATM    2  C3  UNL     1      -3.521  15.069 122.338  1.00  0.00     0.226 C 
HETATM    3  N2  UNL     1      -3.384  14.480 121.090  1.00  0.00    -0.344 N 
ATOM      4  H2  UNL     1      -4.182  14.493 120.455  1.00  0.00     0.163 HD
HETATM    5  O1  UNL     1      -2.504  15.037 123.115  1.00  0.00    -0.273 OA
BRANCH   3   6
HETATM    6  C2  UNL     1      -2.158  13.848 120.650  1.00  0.00     0.211 C 
BRANCH   6   7
HETATM    7  C1  UNL     1      -2.411  12.419 120.228  1.00  0.00     0.265 C 
BRANCH   7   8
HETATM    8  N1  UNL     1      -3.736  12.262 119.683  1.00  0.00    -0.077 N 
ATOM      9  H13 UNL     1      -4.220  13.157 119.613  1.00  0.00     0.274 HD
ATOM     10  H12 UNL     1      -3.707  12.021 118.692  1.00  0.00     0.274 HD
ATOM     11  H11 UNL     1      -4.278  11.585 120.218  1.00  0.00     0.274 HD
ENDBRANCH   7   8
ENDBRANCH   6   7
BRANCH   6  12
HETATM   12  C16 UNL     1      -1.471  14.610 119.601  1.00  0.00     0.198 C 
HETATM   13  O11 UNL     1      -1.979  14.671 118.452  1.00  0.00    -0.646 OA
HETATM   14  O12 UNL     1      -0.287  15.250 119.862  1.00  0.00    -0.646 OA
ENDBRANCH   6  12
ENDBRANCH   3   6
ENDBRANCH   1   2
BRANCH   1  15
HETATM   15  C5  UNL     1      -5.938  14.885 122.877  1.00  0.00     0.189 C 
BRANCH  15  16
HETATM   16  O2  UNL     1      -5.807  13.638 122.579  1.00  0.00    -0.338 OA
BRANCH  16  17
HETATM   17  C6  UNL     1      -6.243  12.451 122.761  1.00  0.00     0.416 C 
HETATM   18  O3  UNL     1      -5.659  11.480 121.900  1.00  0.00    -0.308 OA
HETATM   19  C7  UNL     1      -5.039  10.532 122.698  1.00  0.00     0.268 C 
HETATM   20  C10 UNL     1      -3.912  11.262 123.428  1.00  0.00     0.102 C 
HETATM   21  C11 UNL     1      -4.658  12.193 124.404  1.00  0.00     0.220 C 
HETATM   22  O8  UNL     1      -6.024  12.063 124.119  1.00  0.00    -0.324 OA
BRANCH  19  23
HETATM   23  O4  UNL     1      -4.563   9.516 121.911  1.00  0.00    -0.351 OA
BRANCH  23  24
HETATM   24  C8  UNL     1      -5.038   8.262 122.202  1.00  0.00     0.284 C 
BRANCH  24  25
HETATM   25  C9  UNL     1      -4.219   7.504 123.168  1.00  0.00     0.197 C 
HETATM   26  O5  UNL     1      -4.695   6.486 123.724  1.00  0.00    -0.646 OA
HETATM   27  O6  UNL     1      -2.929   7.877 123.488  1.00  0.00    -0.646 OA
ENDBRANCH  24  25
ENDBRANCH  23  24
ENDBRANCH  19  23
BRANCH  21  28
HETATM   28  C12 UNL     1      -4.442  11.787 125.805  1.00  0.00     0.260 C 
HETATM   29  N3  UNL     1      -4.094  10.425 126.128  1.00  0.00    -0.060 NA
HETATM   30  O7  UNL     1      -4.555  12.601 126.733  1.00  0.00    -0.274 OA
ENDBRANCH  21  28
ENDBRANCH  16  17
ENDBRANCH  15  16
ENDBRANCH   1  15
BRANCH   1  31
HETATM   31  C13 UNL     1      -4.930  17.083 122.276  1.00  0.00     0.203 C 
BRANCH  31  32
HETATM   32  N4  UNL     1      -3.585  17.630 121.911  1.00  0.00    -0.122 NA
BRANCH  32  33
HETATM   33  N5  UNL     1      -3.080  18.369 122.977  1.00  0.00    -0.257 N 
HETATM   34  C14 UNL     1      -1.672  18.500 123.181  1.00  0.00     0.344 C 
HETATM   35  N6  UNL     1      -1.153  19.246 124.249  1.00  0.00    -0.039 NA
HETATM   36  O9  UNL     1      -0.895  17.934 122.382  1.00  0.00    -0.250 OA
ATOM     37  H5  UNL     1      -3.725  18.825 123.622  1.00  0.00     0.186 HD
ENDBRANCH  32  33
ENDBRANCH  31  32
BRANCH  31  38
HETATM   38  C15 UNL     1      -5.769  17.129 121.062  1.00  0.00     0.253 C 
HETATM   39  N7  UNL     1      -7.159  17.240 121.106  1.00  0.00    -0.061 NA
HETATM   40  O10 UNL     1      -5.249  17.072 119.894  1.00  0.00    -0.275 OA
ENDBRANCH  31  38
ENDBRANCH   1  31
TORSDOF 16
ENDMDL
MODEL 3
REMARK VINA RESULT: -7.961778261      2.538      7.376
REMARK  16 active torsions:
REMARK  status: ('A' for Active; 'I' for Inactive)
REMARK    1  A    between atoms: N1_1  and  C1_5 
REMARK    2  A    between atoms: C1_5  and  C2_6 
REMARK    3  A    between atoms: C2_6  and  N2_7 
REMARK    4  A    between atoms: C2_6  and  C16_38 
REMARK       I    between atoms: N2_7  and  C3_9 
REMARK    5  A    between atoms: C3_9  and  C4_11 
REMARK    6  A    between atoms: C4_11  and  C5_12 
REMARK    7  A    between atoms: C4_11  and  C13_28 
REMARK    8  A    between atoms: C5_12  and  O2_13 
REMARK    9  A    between atoms: O2_13  and  C6_14 
REMARK   10  A    between atoms: C7_16  and  O4_17 
REMARK   11  A    between atoms: O4_17  and  C8_18 
REMARK   12  A    between atoms: C8_18  and  C9_19 
REMARK   13  A    between atoms: C11_23  and  C12_24 
REMARK   14  A    between atoms: C13_28  and  N4_29 
REMARK   15  A    between atoms: C13_28  and  C15_35 
REMARK   16  A    between atoms: N4_29  and  N5_30 
REMARK       I    between atoms: N5_30  and  C14_32 
ROOT
HETATM    1  C4  UNL     1      -3.923   9.923 123.187  1.00  0.00     0.131 C 
ENDROOT
BRANCH   1   2
HETATM    2  C3  UNL     1      -4.361  10.743 124.359  1.00  0.00     0.226 C 
HETATM    3  N2  UNL     1      -3.599  11.105 125.460  1.00  0.00    -0.344 N 
ATOM      4  H2  UNL     1      -2.631  10.790 125.507  1.00  0.00     0.163 HD
HETATM    5  O1  UNL     1      -5.574  11.151 124.327  1.00  0.00    -0.273 OA
BRANCH   3   6
HETATM    6  C2  UNL     1      -4.120  11.910 126.545  1.00  0.00     0.211 C 
BRANCH   6   7
HETATM    7  C1  UNL     1      -3.718  11.333 127.882  1.00  0.00     0.265 C 
BRANCH   7   8
HETATM    8  N1  UNL     1      -2.461  10.636 127.794  1.00  0.00    -0.077 N 
ATOM      9  H13 UNL     1      -2.263  10.340 126.839  1.00  0.00     0.274 HD
ATOM     10  H12 UNL     1      -1.671  11.268 127.930  1.00  0.00     0.274 HD
ATOM     11  H11 UNL     1      -2.427   9.850 128.443  1.00  0.00     0.274 HD
ENDBRANCH   7   8
ENDBRANCH   6   7
BRANCH   6  12
HETATM   12  C16 UNL     1      -3.750  13.325 126.431  1.00  0.00     0.198 C 
HETATM   13  O11 UNL     1      -4.467  14.095 125.743  1.00  0.00    -0.646 OA
HETATM   14  O12 UNL     1      -2.634  13.810 127.063  1.00  0.00    -0.646 OA
ENDBRANCH   6  12
ENDBRANCH   3   6
ENDBRANCH   1   2
BRANCH   1  15
HETATM   15  C5  UNL     1      -2.865  10.579 122.384  1.00  0.00     0.189 C 
BRANCH  15  16
HETATM   16  O2  UNL     1      -3.047  11.791 121.983  1.00  0.00    -0.338 OA
BRANCH  16  17
HETATM   17  C6  UNL     1      -3.849  12.618 121.432  1.00  0.00     0.416 C 
HETATM   18  O3  UNL     1      -4.389  13.585 122.324  1.00  0.00    -0.308 OA
HETATM   19  C7  UNL     1      -4.023  14.838 121.857  1.00  0.00     0.268 C 
HETATM   20  C10 UNL     1      -2.499  14.898 121.954  1.00  0.00     0.102 C 
HETATM   21  C11 UNL     1      -2.030  13.905 120.872  1.00  0.00     0.220 C 
HETATM   22  O8  UNL     1      -3.182  13.292 120.362  1.00  0.00    -0.324 OA
BRANCH  19  23
HETATM   23  O4  UNL     1      -4.622  15.802 122.624  1.00  0.00    -0.351 OA
BRANCH  23  24
HETATM   24  C8  UNL     1      -4.638  17.066 122.090  1.00  0.00     0.284 C 
BRANCH  24  25
HETATM   25  C9  UNL     1      -5.701  17.297 121.092  1.00  0.00     0.197 C 
HETATM   26  O5  UNL     1      -5.420  17.291 119.870  1.00  0.00    -0.646 OA
HETATM   27  O6  UNL     1      -7.014  17.522 121.457  1.00  0.00    -0.646 OA
ENDBRANCH  24  25
ENDBRANCH  23  24
ENDBRANCH  19  23
BRANCH  21  28
HETATM   28  C12 UNL     1      -1.351  14.600 119.763  1.00  0.00     0.260 C 
HETATM   29  N3  UNL     1      -1.970  14.684 118.463  1.00  0.00    -0.060 NA
HETATM   30  O7  UNL     1      -0.238  15.124 119.920  1.00  0.00    -0.274 OA
ENDBRANCH  21  28
ENDBRANCH  16  17
ENDBRANCH  15  16
ENDBRANCH   1  15
BRANCH   1  31
HETATM   31  C13 UNL     1      -5.081   9.440 122.402  1.00  0.00     0.203 C 
BRANCH  31  32
HETATM   32  N4  UNL     1      -4.618   9.174 121.004  1.00  0.00    -0.122 NA
BRANCH  32  33
HETATM   33  N5  UNL     1      -4.437   7.805 120.828  1.00  0.00    -0.257 N 
HETATM   34  C14 UNL     1      -3.227   7.288 120.269  1.00  0.00     0.344 C 
HETATM   35  N6  UNL     1      -3.033   5.911 120.091  1.00  0.00    -0.039 NA
HETATM   36  O9  UNL     1      -2.329   8.092 119.938  1.00  0.00    -0.250 OA
ATOM     37  H5  UNL     1      -5.179   7.161 121.102  1.00  0.00     0.186 HD
ENDBRANCH  32  33
ENDBRANCH  31  32
BRANCH  31  38
HETATM   38  C15 UNL     1      -5.735   8.209 122.892  1.00  0.00     0.253 C 
HETATM   39  N7  UNL     1      -5.070   7.252 123.659  1.00  0.00    -0.061 NA
HETATM   40  O10 UNL     1      -6.963   7.962 122.631  1.00  0.00    -0.275 OA
ENDBRANCH  31  38
ENDBRANCH   1  31
TORSDOF 16
ENDMDL
MODEL 4
REMARK VINA RESULT: -7.949738933      2.798      7.600
REMARK  16 active torsions:
REMARK  status: ('A' for Active; 'I' for Inactive)
REMARK    1  A    between atoms: N1_1  and  C1_5 
REMARK    2  A    between atoms: C1_5  and  C2_6 
REMARK    3  A    between atoms: C2_6  and  N2_7 
REMARK    4  A    between atoms: C2_6  and  C16_38 
REMARK       I    between atoms: N2_7  and  C3_9 
REMARK    5  A    between atoms: C3_9  and  C4_11 
REMARK    6  A    between atoms: C4_11  and  C5_12 
REMARK    7  A    between atoms: C4_11  and  C13_28 
REMARK    8  A    between atoms: C5_12  and  O2_13 
REMARK    9  A    between atoms: O2_13  and  C6_14 
REMARK   10  A    between atoms: C7_16  and  O4_17 
REMARK   11  A    between atoms: O4_17  and  C8_18 
REMARK   12  A    between atoms: C8_18  and  C9_19 
REMARK   13  A    between atoms: C11_23  and  C12_24 
REMARK   14  A    between atoms: C13_28  and  N4_29 
REMARK   15  A    between atoms: C13_28  and  C15_35 
REMARK   16  A    between atoms: N4_29  and  N5_30 
REMARK       I    between atoms: N5_30  and  C14_32 
ROOT
HETATM    1  C4  UNL     1      -4.676  11.877 123.071  1.00  0.00     0.131 C 
ENDROOT
BRANCH   1   2
HETATM    2  C3  UNL     1      -3.765  11.642 124.234  1.00  0.00     0.226 C 
HETATM    3  N2  UNL     1      -3.823  12.250 125.479  1.00  0.00    -0.344 N 
ATOM      4  H2  UNL     1      -4.555  12.940 125.651  1.00  0.00     0.163 HD
HETATM    5  O1  UNL     1      -2.836  10.782 124.046  1.00  0.00    -0.273 OA
BRANCH   3   6
HETATM    6  C2  UNL     1      -2.891  11.949 126.545  1.00  0.00     0.211 C 
BRANCH   6   7
HETATM    7  C1  UNL     1      -1.899  13.074 126.727  1.00  0.00     0.265 C 
BRANCH   7   8
HETATM    8  N1  UNL     1      -2.455  14.334 126.302  1.00  0.00    -0.077 N 
ATOM      9  H13 UNL     1      -3.474  14.307 126.285  1.00  0.00     0.274 HD
ATOM     10  H12 UNL     1      -2.329  15.057 127.011  1.00  0.00     0.274 HD
ATOM     11  H11 UNL     1      -2.074  14.621 125.401  1.00  0.00     0.274 HD
ENDBRANCH   7   8
ENDBRANCH   6   7
BRANCH   6  12
HETATM   12  C16 UNL     1      -3.560  11.606 127.806  1.00  0.00     0.198 C 
HETATM   13  O11 UNL     1      -3.944  12.529 128.568  1.00  0.00    -0.646 OA
HETATM   14  O12 UNL     1      -3.768  10.297 128.155  1.00  0.00    -0.646 OA
ENDBRANCH   6  12
ENDBRANCH   3   6
ENDBRANCH   1   2
BRANCH   1  15
HETATM   15  C5  UNL     1      -5.948  12.533 123.454  1.00  0.00     0.189 C 
BRANCH  15  16
HETATM   16  O2  UNL     1      -6.038  13.816 123.367  1.00  0.00    -0.338 OA
BRANCH  16  17
HETATM   17  C6  UNL     1      -5.649  14.941 123.828  1.00  0.00     0.416 C 
HETATM   18  O3  UNL     1      -4.234  15.088 123.880  1.00  0.00    -0.308 OA
HETATM   19  C7  UNL     1      -3.897  16.181 123.096  1.00  0.00     0.268 C 
HETATM   20  C10 UNL     1      -4.286  15.813 121.664  1.00  0.00     0.102 C 
HETATM   21  C11 UNL     1      -5.827  15.797 121.703  1.00  0.00     0.220 C 
HETATM   22  O8  UNL     1      -6.199  15.999 123.039  1.00  0.00    -0.324 OA
BRANCH  19  23
HETATM   23  O4  UNL     1      -2.554  16.427 123.212  1.00  0.00    -0.351 OA
BRANCH  23  24
HETATM   24  C8  UNL     1      -1.776  16.001 122.164  1.00  0.00     0.284 C 
BRANCH  24  25
HETATM   25  C9  UNL     1      -0.888  14.866 122.481  1.00  0.00     0.197 C 
HETATM   26  O5  UNL     1      -0.984  14.291 123.592  1.00  0.00    -0.646 OA
HETATM   27  O6  UNL     1       0.060  14.404 121.589  1.00  0.00    -0.646 OA
ENDBRANCH  24  25
ENDBRANCH  23  24
ENDBRANCH  19  23
BRANCH  21  28
HETATM   28  C12 UNL     1      -6.396  16.894 120.898  1.00  0.00     0.260 C 
HETATM   29  N3  UNL     1      -7.796  17.225 120.996  1.00  0.00    -0.060 NA
HETATM   30  O7  UNL     1      -5.688  17.552 120.122  1.00  0.00    -0.274 OA
ENDBRANCH  21  28
ENDBRANCH  16  17
ENDBRANCH  15  16
ENDBRANCH   1  15
BRANCH   1  31
HETATM   31  C13 UNL     1      -4.837  10.652 122.256  1.00  0.00     0.203 C 
BRANCH  31  32
HETATM   32  N4  UNL     1      -5.769   9.730 122.979  1.00  0.00    -0.122 NA
BRANCH  32  33
HETATM   33  N5  UNL     1      -5.412   8.410 122.717  1.00  0.00    -0.257 N 
HETATM   34  C14 UNL     1      -4.756   7.614 123.706  1.00  0.00     0.344 C 
HETATM   35  N6  UNL     1      -4.395   6.283 123.453  1.00  0.00    -0.039 NA
HETATM   36  O9  UNL     1      -4.505   8.127 124.818  1.00  0.00    -0.250 OA
ATOM     37  H5  UNL     1      -5.622   8.005 121.804  1.00  0.00     0.186 HD
ENDBRANCH  32  33
ENDBRANCH  31  32
BRANCH  31  38
HETATM   38  C15 UNL     1      -5.373  10.840 120.892  1.00  0.00     0.253 C 
HETATM   39  N7  UNL     1      -4.732  11.617 119.927  1.00  0.00    -0.061 NA
HETATM   40  O10 UNL     1      -6.468  10.287 120.528  1.00  0.00    -0.275 OA
ENDBRANCH  31  38
ENDBRANCH   1  31
TORSDOF 16
ENDMDL
MODEL 5
REMARK VINA RESULT: -7.937684879      2.430      7.889
REMARK  16 active torsions:
REMARK  status: ('A' for Active; 'I' for Inactive)
REMARK    1  A    between atoms: N1_1  and  C1_5 
REMARK    2  A    between atoms: C1_5  and  C2_6 
REMARK    3  A    between atoms: C2_6  and  N2_7 
REMARK    4  A    between atoms: C2_6  and  C16_38 
REMARK       I    between atoms: N2_7  and  C3_9 
REMARK    5  A    between atoms: C3_9  and  C4_11 
REMARK    6  A    between atoms: C4_11  and  C5_12 
REMARK    7  A    between atoms: C4_11  and  C13_28 
REMARK    8  A    between atoms: C5_12  and  O2_13 
REMARK    9  A    between atoms: O2_13  and  C6_14 
REMARK   10  A    between atoms: C7_16  and  O4_17 
REMARK   11  A    between atoms: O4_17  and  C8_18 
REMARK   12  A    between atoms: C8_18  and  C9_19 
REMARK   13  A    between atoms: C11_23  and  C12_24 
REMARK   14  A    between atoms: C13_28  and  N4_29 
REMARK   15  A    between atoms: C13_28  and  C15_35 
REMARK   16  A    between atoms: N4_29  and  N5_30 
REMARK       I    between atoms: N5_30  and  C14_32 
ROOT
HETATM    1  C4  UNL     1      -4.407  11.337 121.498  1.00  0.00     0.131 C 
ENDROOT
BRANCH   1   2
HETATM    2  C3  UNL     1      -4.607   9.864 121.666  1.00  0.00     0.226 C 
HETATM    3  N2  UNL     1      -3.632   8.878 121.636  1.00  0.00    -0.344 N 
ATOM      4  H2  UNL     1      -2.663   9.156 121.483  1.00  0.00     0.163 HD
HETATM    5  O1  UNL     1      -5.815   9.486 121.859  1.00  0.00    -0.273 OA
BRANCH   3   6
HETATM    6  C2  UNL     1      -3.930   7.472 121.813  1.00  0.00     0.211 C 
BRANCH   6   7
HETATM    7  C1  UNL     1      -3.081   6.623 120.897  1.00  0.00     0.265 C 
BRANCH   7   8
HETATM    8  N1  UNL     1      -2.831   5.325 121.471  1.00  0.00    -0.077 N 
ATOM      9  H13 UNL     1      -3.325   4.591 120.966  1.00  0.00     0.274 HD
ATOM     10  H12 UNL     1      -1.873   5.017 121.298  1.00  0.00     0.274 HD
ATOM     11  H11 UNL     1      -3.054   5.311 122.466  1.00  0.00     0.274 HD
ENDBRANCH   7   8
ENDBRANCH   6   7
BRANCH   6  12
HETATM   12  C16 UNL     1      -3.819   7.040 123.212  1.00  0.00     0.198 C 
HETATM   13  O11 UNL     1      -4.808   6.500 123.769  1.00  0.00    -0.646 OA
HETATM   14  O12 UNL     1      -2.654   7.222 123.910  1.00  0.00    -0.646 OA
ENDBRANCH   6  12
ENDBRANCH   3   6
ENDBRANCH   1   2
BRANCH   1  15
HETATM   15  C5  UNL     1      -5.544  12.002 120.819  1.00  0.00     0.189 C 
BRANCH  15  16
HETATM   16  O2  UNL     1      -5.964  13.134 121.270  1.00  0.00    -0.338 OA
BRANCH  16  17
HETATM   17  C6  UNL     1      -6.454  13.764 122.267  1.00  0.00     0.416 C 
HETATM   18  O3  UNL     1      -5.748  13.562 123.485  1.00  0.00    -0.308 OA
HETATM   19  C7  UNL     1      -5.305  14.800 123.924  1.00  0.00     0.268 C 
HETATM   20  C10 UNL     1      -4.311  15.292 122.873  1.00  0.00     0.102 C 
HETATM   21  C11 UNL     1      -5.199  15.586 121.647  1.00  0.00     0.220 C 
HETATM   22  O8  UNL     1      -6.493  15.164 121.978  1.00  0.00    -0.324 OA
BRANCH  19  23
HETATM   23  O4  UNL     1      -4.719  14.663 125.155  1.00  0.00    -0.351 OA
BRANCH  23  24
HETATM   24  C8  UNL     1      -4.094  15.782 125.646  1.00  0.00     0.284 C 
BRANCH  24  25
HETATM   25  C9  UNL     1      -4.382  16.073 127.064  1.00  0.00     0.197 C 
HETATM   26  O5  UNL     1      -5.569  16.208 127.444  1.00  0.00    -0.646 OA
HETATM   27  O6  UNL     1      -3.379  16.204 128.005  1.00  0.00    -0.646 OA
ENDBRANCH  24  25
ENDBRANCH  23  24
ENDBRANCH  19  23
BRANCH  21  28
HETATM   28  C12 UNL     1      -5.249  17.030 121.354  1.00  0.00     0.260 C 
HETATM   29  N3  UNL     1      -5.946  17.518 120.190  1.00  0.00    -0.060 NA
HETATM   30  O7  UNL     1      -4.695  17.854 122.097  1.00  0.00    -0.274 OA
ENDBRANCH  21  28
ENDBRANCH  16  17
ENDBRANCH  15  16
ENDBRANCH   1  15
BRANCH   1  31
HETATM   31  C13 UNL     1      -3.081  11.640 120.917  1.00  0.00     0.203 C 
BRANCH  31  32
HETATM   32  N4  UNL     1      -3.242  12.774 119.954  1.00  0.00    -0.122 NA
BRANCH  32  33
HETATM   33  N5  UNL     1      -2.376  13.807 120.303  1.00  0.00    -0.257 N 
HETATM   34  C14 UNL     1      -1.714  14.584 119.304  1.00  0.00     0.344 C 
HETATM   35  N6  UNL     1      -0.844  15.629 119.646  1.00  0.00    -0.039 NA
HETATM   36  O9  UNL     1      -1.926  14.319 118.101  1.00  0.00    -0.250 OA
ATOM     37  H5  UNL     1      -2.212  14.012 121.289  1.00  0.00     0.186 HD
ENDBRANCH  32  33
ENDBRANCH  31  32
BRANCH  31  38
HETATM   38  C15 UNL     1      -2.020  12.020 121.872  1.00  0.00     0.253 C 
HETATM   39  N7  UNL     1      -0.663  11.815 121.618  1.00  0.00    -0.061 NA
HETATM   40  O10 UNL     1      -2.303  12.566 122.994  1.00  0.00    -0.275 OA
ENDBRANCH  31  38
ENDBRANCH   1  31
TORSDOF 16
ENDMDL
