MODEL 1
REMARK VINA RESULT: -7.326850831      0.000      0.000
REMARK  19 active torsions:
REMARK  status: ('A' for Active; 'I' for Inactive)
REMARK    1  A    between atoms: O1_2  and  C2_3 
REMARK    2  A    between atoms: C2_3  and  C3_5 
REMARK    3  A    between atoms: C3_5  and  C4_6 
REMARK    4  A    between atoms: C4_6  and  N1_7 
REMARK    5  A    between atoms: C4_6  and  C19_44 
REMARK    6  A    between atoms: N1_7  and  C5_9 
REMARK    7  A    between atoms: C5_9  and  C6_10 
REMARK    8  A    between atoms: C5_9  and  C12_29 
REMARK       I    between atoms: C6_10  and  N2_12 
REMARK    9  A    between atoms: N2_12  and  C7_14 
REMARK   10  A    between atoms: C7_14  and  C8_15 
REMARK   11  A    between atoms: C7_14  and  C9_20 
REMARK       I    between atoms: C8_15  and  N3_16 
REMARK   12  A    between atoms: C9_20  and  N4_21 
REMARK   13  A    between atoms: C9_20  and  C10_25 
REMARK   14  A    between atoms: C10_25  and  O5_27 
REMARK   15  A    between atoms: C12_29  and  C13_31 
REMARK   16  A    between atoms: C14_33  and  C15_34 
REMARK   17  A    between atoms: C15_34  and  O8_36 
REMARK   18  A    between atoms: C17_38  and  O9_39 
REMARK   19  A    between atoms: C18_41  and  O10_42 
ROOT
HETATM    1  C5  UNL     1      -4.239  12.717 124.758  1.00  0.00     0.243 C 
ENDROOT
BRANCH   1   2
HETATM    2  N1  UNL     1      -4.180  13.563 123.583  1.00  0.00    -0.390 N 
ATOM      3  H1  UNL     1      -3.820  13.169 122.714  1.00  0.00     0.155 HD
BRANCH   2   4
HETATM    4  C4  UNL     1      -4.590  14.872 123.594  1.00  0.00     0.189 C 
BRANCH   4   5
HETATM    5  C3  UNL     1      -5.938  15.287 123.125  1.00  0.00     0.146 C 
BRANCH   5   6
HETATM    6  C2  UNL     1      -6.172  14.898 121.697  1.00  0.00     0.260 C 
HETATM    7  O2  UNL     1      -6.113  13.748 121.236  1.00  0.00    -0.265 OA
BRANCH   6   8
HETATM    8  O1  UNL     1      -6.452  15.953 120.845  1.00  0.00    -0.326 OA
HETATM    9  C1  UNL     1      -7.735  16.569 120.768  1.00  0.00     0.213 C 
ENDBRANCH   6   8
ENDBRANCH   5   6
ENDBRANCH   4   5
BRANCH   4  10
HETATM   10  C19 UNL     1      -3.498  15.671 122.886  1.00  0.00     0.196 C 
HETATM   11  O11 UNL     1      -2.554  15.079 122.342  1.00  0.00    -0.646 OA
HETATM   12  O12 UNL     1      -3.544  17.066 122.843  1.00  0.00    -0.646 OA
ENDBRANCH   4  10
ENDBRANCH   2   4
ENDBRANCH   1   2
BRANCH   1  13
HETATM   13  C6  UNL     1      -5.138  11.601 124.140  1.00  0.00     0.248 C 
HETATM   14  O3  UNL     1      -6.324  11.870 123.850  1.00  0.00    -0.271 OA
HETATM   15  N2  UNL     1      -4.548  10.353 123.894  1.00  0.00    -0.344 N 
ATOM     16  H2  UNL     1      -3.593  10.252 124.237  1.00  0.00     0.163 HD
BRANCH  15  17
HETATM   17  C7  UNL     1      -5.079   9.202 123.236  1.00  0.00     0.209 C 
BRANCH  17  18
HETATM   18  C8  UNL     1      -4.958   8.036 124.246  1.00  0.00     0.240 C 
HETATM   19  N3  UNL     1      -5.109   8.233 125.596  1.00  0.00    -0.368 N 
ATOM     20  H32 UNL     1      -5.297   9.164 125.965  1.00  0.00     0.159 HD
ATOM     21  H31 UNL     1      -5.030   7.464 126.262  1.00  0.00     0.159 HD
HETATM   22  O4  UNL     1      -4.723   6.872 123.785  1.00  0.00    -0.271 OA
ENDBRANCH  17  18
BRANCH  17  23
HETATM   23  C9  UNL     1      -4.594   8.804 121.938  1.00  0.00     0.243 C 
BRANCH  23  24
HETATM   24  N4  UNL     1      -3.121   8.718 121.928  1.00  0.00    -0.070 N 
ATOM     25  H43 UNL     1      -2.727   9.115 121.076  1.00  0.00     0.274 HD
ATOM     26  H42 UNL     1      -2.703   9.357 122.605  1.00  0.00     0.274 HD
ATOM     27  H41 UNL     1      -2.810   7.758 122.075  1.00  0.00     0.274 HD
ENDBRANCH  23  24
BRANCH  23  28
HETATM   28  C10 UNL     1      -4.866   9.974 120.935  1.00  0.00     0.147 C 
HETATM   29  C11 UNL     1      -4.976   9.308 119.541  1.00  0.00     0.041 C 
BRANCH  28  30
HETATM   30  O5  UNL     1      -6.082  10.547 121.136  1.00  0.00    -0.394 OA
ATOM     31  H5  UNL     1      -6.795   9.960 120.915  1.00  0.00     0.210 HD
ENDBRANCH  28  30
ENDBRANCH  23  28
ENDBRANCH  17  23
ENDBRANCH  15  17
ENDBRANCH   1  13
BRANCH   1  32
HETATM   32  C12 UNL     1      -3.045  12.165 125.282  1.00  0.00     0.189 C 
HETATM   33  O6  UNL     1      -2.259  11.547 124.583  1.00  0.00    -0.292 OA
BRANCH  32  34
HETATM   34  C13 UNL     1      -2.657  12.314 126.716  1.00  0.00     0.225 C 
HETATM   35  O7  UNL     1      -3.371  13.357 127.305  1.00  0.00    -0.365 OA
HETATM   36  C14 UNL     1      -4.264  12.760 128.197  1.00  0.00     0.182 C 
HETATM   37  C17 UNL     1      -3.323  11.689 128.834  1.00  0.00     0.181 C 
HETATM   38  C18 UNL     1      -2.831  11.082 127.543  1.00  0.00     0.185 C 
BRANCH  36  39
HETATM   39  C15 UNL     1      -4.754  13.669 129.266  1.00  0.00     0.145 C 
HETATM   40  C16 UNL     1      -6.225  13.712 129.468  1.00  0.00     0.042 C 
BRANCH  39  41
HETATM   41  O8  UNL     1      -4.116  13.409 130.470  1.00  0.00    -0.393 OA
ATOM     42  H8  UNL     1      -3.456  14.067 130.654  1.00  0.00     0.210 HD
ENDBRANCH  39  41
ENDBRANCH  36  39
BRANCH  37  43
HETATM   43  O9  UNL     1      -3.942  10.857 129.694  1.00  0.00    -0.390 OA
ATOM     44  H9  UNL     1      -3.350  10.322 130.209  1.00  0.00     0.210 HD
ENDBRANCH  37  43
BRANCH  38  45
HETATM   45  O10 UNL     1      -3.845  10.234 127.092  1.00  0.00    -0.390 OA
ATOM     46  H10 UNL     1      -4.577  10.156 127.692  1.00  0.00     0.210 HD
ENDBRANCH  38  45
ENDBRANCH  32  34
ENDBRANCH   1  32
TORSDOF 19
ENDMDL
MODEL 2
REMARK VINA RESULT: -7.292027260      1.341      1.958
REMARK  19 active torsions:
REMARK  status: ('A' for Active; 'I' for Inactive)
REMARK    1  A    between atoms: O1_2  and  C2_3 
REMARK    2  A    between atoms: C2_3  and  C3_5 
REMARK    3  A    between atoms: C3_5  and  C4_6 
REMARK    4  A    between atoms: C4_6  and  N1_7 
REMARK    5  A    between atoms: C4_6  and  C19_44 
REMARK    6  A    between atoms: N1_7  and  C5_9 
REMARK    7  A    between atoms: C5_9  and  C6_10 
REMARK    8  A    between atoms: C5_9  and  C12_29 
REMARK       I    between atoms: C6_10  and  N2_12 
REMARK    9  A    between atoms: N2_12  and  C7_14 
REMARK   10  A    between atoms: C7_14  and  C8_15 
REMARK   11  A    between atoms: C7_14  and  C9_20 
REMARK       I    between atoms: C8_15  and  N3_16 
REMARK   12  A    between atoms: C9_20  and  N4_21 
REMARK   13  A    between atoms: C9_20  and  C10_25 
REMARK   14  A    between atoms: C10_25  and  O5_27 
REMARK   15  A    between atoms: C12_29  and  C13_31 
REMARK   16  A    between atoms: C14_33  and  C15_34 
REMARK   17  A    between atoms: C15_34  and  O8_36 
REMARK   18  A    between atoms: C17_38  and  O9_39 
REMARK   19  A    between atoms: C18_41  and  O10_42 
ROOT
HETATM    1  C5  UNL     1      -4.174  13.370 123.712  1.00  0.00     0.243 C 
ENDROOT
BRANCH   1   2
HETATM    2  N1  UNL     1      -4.568  14.226 122.611  1.00  0.00    -0.390 N 
ATOM      3  H1  UNL     1      -5.216  13.860 121.913  1.00  0.00     0.155 HD
BRANCH   2   4
HETATM    4  C4  UNL     1      -4.105  15.510 122.471  1.00  0.00     0.189 C 
BRANCH   4   5
HETATM    5  C3  UNL     1      -5.017  16.682 122.406  1.00  0.00     0.146 C 
BRANCH   5   6
HETATM    6  C2  UNL     1      -5.784  16.716 121.120  1.00  0.00     0.260 C 
HETATM    7  O2  UNL     1      -5.665  17.565 120.223  1.00  0.00    -0.265 OA
BRANCH   6   8
HETATM    8  O1  UNL     1      -6.718  15.705 120.972  1.00  0.00    -0.326 OA
HETATM    9  C1  UNL     1      -8.098  15.954 120.717  1.00  0.00     0.213 C 
ENDBRANCH   6   8
ENDBRANCH   5   6
ENDBRANCH   4   5
BRANCH   4  10
HETATM   10  C19 UNL     1      -3.151  15.497 121.279  1.00  0.00     0.196 C 
HETATM   11  O11 UNL     1      -3.169  14.545 120.485  1.00  0.00    -0.646 OA
HETATM   12  O12 UNL     1      -2.251  16.544 121.068  1.00  0.00    -0.646 OA
ENDBRANCH   4  10
ENDBRANCH   2   4
ENDBRANCH   1   2
BRANCH   1  13
HETATM   13  C6  UNL     1      -5.167  12.205 123.407  1.00  0.00     0.248 C 
HETATM   14  O3  UNL     1      -6.339  12.482 123.068  1.00  0.00    -0.271 OA
HETATM   15  N2  UNL     1      -4.675  10.895 123.483  1.00  0.00    -0.344 N 
ATOM     16  H2  UNL     1      -3.720  10.811 123.831  1.00  0.00     0.163 HD
BRANCH  15  17
HETATM   17  C7  UNL     1      -5.305   9.658 123.145  1.00  0.00     0.209 C 
BRANCH  17  18
HETATM   18  C8  UNL     1      -5.073   8.716 124.350  1.00  0.00     0.240 C 
HETATM   19  N3  UNL     1      -5.023   9.189 125.637  1.00  0.00    -0.368 N 
ATOM     20  H32 UNL     1      -5.129  10.185 125.826  1.00  0.00     0.159 HD
ATOM     21  H31 UNL     1      -4.870   8.568 126.432  1.00  0.00     0.159 HD
HETATM   22  O4  UNL     1      -4.941   7.471 124.114  1.00  0.00    -0.271 OA
ENDBRANCH  17  18
BRANCH  17  23
HETATM   23  C9  UNL     1      -4.999   8.987 121.907  1.00  0.00     0.243 C 
BRANCH  23  24
HETATM   24  N4  UNL     1      -3.551   8.736 121.786  1.00  0.00    -0.070 N 
ATOM     25  H43 UNL     1      -3.274   8.585 120.817  1.00  0.00     0.274 HD
ATOM     26  H42 UNL     1      -3.006   9.577 121.974  1.00  0.00     0.274 HD
ATOM     27  H41 UNL     1      -3.264   7.961 122.385  1.00  0.00     0.274 HD
ENDBRANCH  23  24
BRANCH  23  28
HETATM   28  C10 UNL     1      -5.262   9.987 120.732  1.00  0.00     0.147 C 
HETATM   29  C11 UNL     1      -5.167   9.140 119.438  1.00  0.00     0.041 C 
BRANCH  28  30
HETATM   30  O5  UNL     1      -6.536  10.459 120.737  1.00  0.00    -0.394 OA
ATOM     31  H5  UNL     1      -6.816  10.743 119.875  1.00  0.00     0.210 HD
ENDBRANCH  28  30
ENDBRANCH  23  28
ENDBRANCH  17  23
ENDBRANCH  15  17
ENDBRANCH   1  13
BRANCH   1  32
HETATM   32  C12 UNL     1      -2.844  12.889 123.780  1.00  0.00     0.189 C 
HETATM   33  O6  UNL     1      -2.250  12.492 122.792  1.00  0.00    -0.292 OA
BRANCH  32  34
HETATM   34  C13 UNL     1      -2.073  12.848 125.058  1.00  0.00     0.225 C 
HETATM   35  O7  UNL     1      -2.941  12.903 126.149  1.00  0.00    -0.365 OA
HETATM   36  C14 UNL     1      -2.895  11.640 126.743  1.00  0.00     0.182 C 
HETATM   37  C17 UNL     1      -1.358  11.375 126.681  1.00  0.00     0.181 C 
HETATM   38  C18 UNL     1      -1.177  11.663 125.211  1.00  0.00     0.185 C 
BRANCH  36  39
HETATM   39  C15 UNL     1      -3.334  11.620 128.163  1.00  0.00     0.145 C 
HETATM   40  C16 UNL     1      -4.318  12.658 128.561  1.00  0.00     0.042 C 
BRANCH  39  41
HETATM   41  O8  UNL     1      -3.797  10.362 128.521  1.00  0.00    -0.393 OA
ATOM     42  H8  UNL     1      -3.074   9.772 128.700  1.00  0.00     0.210 HD
ENDBRANCH  39  41
ENDBRANCH  36  39
BRANCH  37  43
HETATM   43  O9  UNL     1      -0.996  10.147 127.105  1.00  0.00    -0.390 OA
ATOM     44  H9  UNL     1      -0.574  10.141 127.956  1.00  0.00     0.210 HD
ENDBRANCH  37  43
BRANCH  38  45
HETATM   45  O10 UNL     1      -1.617  10.527 124.529  1.00  0.00    -0.390 OA
ATOM     46  H10 UNL     1      -1.855   9.804 125.096  1.00  0.00     0.210 HD
ENDBRANCH  38  45
ENDBRANCH  32  34
ENDBRANCH   1  32
TORSDOF 19
ENDMDL
MODEL 3
REMARK VINA RESULT: -7.184203507      1.840      5.754
REMARK  19 active torsions:
REMARK  status: ('A' for Active; 'I' for Inactive)
REMARK    1  A    between atoms: O1_2  and  C2_3 
REMARK    2  A    between atoms: C2_3  and  C3_5 
REMARK    3  A    between atoms: C3_5  and  C4_6 
REMARK    4  A    between atoms: C4_6  and  N1_7 
REMARK    5  A    between atoms: C4_6  and  C19_44 
REMARK    6  A    between atoms: N1_7  and  C5_9 
REMARK    7  A    between atoms: C5_9  and  C6_10 
REMARK    8  A    between atoms: C5_9  and  C12_29 
REMARK       I    between atoms: C6_10  and  N2_12 
REMARK    9  A    between atoms: N2_12  and  C7_14 
REMARK   10  A    between atoms: C7_14  and  C8_15 
REMARK   11  A    between atoms: C7_14  and  C9_20 
REMARK       I    between atoms: C8_15  and  N3_16 
REMARK   12  A    between atoms: C9_20  and  N4_21 
REMARK   13  A    between atoms: C9_20  and  C10_25 
REMARK   14  A    between atoms: C10_25  and  O5_27 
REMARK   15  A    between atoms: C12_29  and  C13_31 
REMARK   16  A    between atoms: C14_33  and  C15_34 
REMARK   17  A    between atoms: C15_34  and  O8_36 
REMARK   18  A    between atoms: C17_38  and  O9_39 
REMARK   19  A    between atoms: C18_41  and  O10_42 
ROOT
HETATM    1  C5  UNL     1      -4.416  11.321 122.698  1.00  0.00     0.243 C 
ENDROOT
BRANCH   1   2
HETATM    2  N1  UNL     1      -4.994  10.140 122.090  1.00  0.00    -0.390 N 
ATOM      3  H1  UNL     1      -5.855  10.238 121.551  1.00  0.00     0.155 HD
BRANCH   2   4
HETATM    4  C4  UNL     1      -4.430   8.895 122.211  1.00  0.00     0.189 C 
BRANCH   4   5
HETATM    5  C3  UNL     1      -3.893   8.149 121.043  1.00  0.00     0.146 C 
BRANCH   5   6
HETATM    6  C2  UNL     1      -3.992   8.950 119.781  1.00  0.00     0.260 C 
HETATM    7  O2  UNL     1      -4.920   8.904 118.959  1.00  0.00    -0.265 OA
BRANCH   6   8
HETATM    8  O1  UNL     1      -2.915   9.785 119.536  1.00  0.00    -0.326 OA
HETATM    9  C1  UNL     1      -3.043  11.043 118.878  1.00  0.00     0.213 C 
ENDBRANCH   6   8
ENDBRANCH   5   6
ENDBRANCH   4   5
BRANCH   4  10
HETATM   10  C19 UNL     1      -5.431   8.041 122.987  1.00  0.00     0.196 C 
HETATM   11  O11 UNL     1      -6.635   8.337 122.974  1.00  0.00    -0.646 OA
HETATM   12  O12 UNL     1      -5.009   6.929 123.719  1.00  0.00    -0.646 OA
ENDBRANCH   4  10
ENDBRANCH   2   4
ENDBRANCH   1   2
BRANCH   1  13
HETATM   13  C6  UNL     1      -5.061  12.363 121.732  1.00  0.00     0.248 C 
HETATM   14  O3  UNL     1      -5.794  11.956 120.804  1.00  0.00    -0.271 OA
HETATM   15  N2  UNL     1      -4.820  13.721 121.986  1.00  0.00    -0.344 N 
ATOM     16  H2  UNL     1      -4.154  13.909 122.735  1.00  0.00     0.163 HD
BRANCH  15  17
HETATM   17  C7  UNL     1      -5.366  14.881 121.357  1.00  0.00     0.209 C 
BRANCH  17  18
HETATM   18  C8  UNL     1      -4.335  16.014 121.578  1.00  0.00     0.240 C 
HETATM   19  N3  UNL     1      -4.206  16.645 122.789  1.00  0.00    -0.368 N 
ATOM     20  H32 UNL     1      -4.801  16.384 123.574  1.00  0.00     0.159 HD
ATOM     21  H31 UNL     1      -3.526  17.392 122.935  1.00  0.00     0.159 HD
HETATM   22  O4  UNL     1      -3.591  16.339 120.596  1.00  0.00    -0.271 OA
ENDBRANCH  17  18
BRANCH  17  23
HETATM   23  C9  UNL     1      -6.698  15.335 121.673  1.00  0.00     0.243 C 
BRANCH  23  24
HETATM   24  N4  UNL     1      -7.707  14.347 121.247  1.00  0.00    -0.070 N 
ATOM     25  H43 UNL     1      -7.473  13.935 120.344  1.00  0.00     0.274 HD
ATOM     26  H42 UNL     1      -7.671  13.502 121.817  1.00  0.00     0.274 HD
ATOM     27  H41 UNL     1      -8.641  14.758 121.242  1.00  0.00     0.274 HD
ENDBRANCH  23  24
BRANCH  23  28
HETATM   28  C10 UNL     1      -7.025  16.562 120.759  1.00  0.00     0.147 C 
HETATM   29  C11 UNL     1      -8.518  16.405 120.375  1.00  0.00     0.041 C 
BRANCH  28  30
HETATM   30  O5  UNL     1      -6.970  17.736 121.439  1.00  0.00    -0.394 OA
ATOM     31  H5  UNL     1      -7.568  17.751 122.177  1.00  0.00     0.210 HD
ENDBRANCH  28  30
ENDBRANCH  23  28
ENDBRANCH  17  23
ENDBRANCH  15  17
ENDBRANCH   1  13
BRANCH   1  32
HETATM   32  C12 UNL     1      -4.719  11.632 124.045  1.00  0.00     0.189 C 
HETATM   33  O6  UNL     1      -5.844  11.946 124.397  1.00  0.00    -0.292 OA
BRANCH  32  34
HETATM   34  C13 UNL     1      -3.693  11.584 125.128  1.00  0.00     0.225 C 
HETATM   35  O7  UNL     1      -3.827  12.687 125.971  1.00  0.00    -0.365 OA
HETATM   36  C14 UNL     1      -4.308  12.191 127.185  1.00  0.00     0.182 C 
HETATM   37  C17 UNL     1      -3.419  10.914 127.318  1.00  0.00     0.181 C 
HETATM   38  C18 UNL     1      -3.712  10.339 125.954  1.00  0.00     0.185 C 
BRANCH  36  39
HETATM   39  C15 UNL     1      -4.054  13.080 128.349  1.00  0.00     0.145 C 
HETATM   40  C16 UNL     1      -4.623  14.450 128.264  1.00  0.00     0.042 C 
BRANCH  39  41
HETATM   41  O8  UNL     1      -4.449  12.473 129.532  1.00  0.00    -0.393 OA
ATOM     42  H8  UNL     1      -4.269  13.033 130.278  1.00  0.00     0.210 HD
ENDBRANCH  39  41
ENDBRANCH  36  39
BRANCH  37  43
HETATM   43  O9  UNL     1      -3.727  10.140 128.378  1.00  0.00    -0.390 OA
ATOM     44  H9  UNL     1      -4.453   9.547 128.226  1.00  0.00     0.210 HD
ENDBRANCH  37  43
BRANCH  38  45
HETATM   45  O10 UNL     1      -4.969   9.735 126.041  1.00  0.00    -0.390 OA
ATOM     46  H10 UNL     1      -4.941   8.786 126.046  1.00  0.00     0.210 HD
ENDBRANCH  38  45
ENDBRANCH  32  34
ENDBRANCH   1  32
TORSDOF 19
ENDMDL
MODEL 4
REMARK VINA RESULT: -7.144953430      3.008      6.590
REMARK  19 active torsions:
REMARK  status: ('A' for Active; 'I' for Inactive)
REMARK    1  A    between atoms: O1_2  and  C2_3 
REMARK    2  A    between atoms: C2_3  and  C3_5 
REMARK    3  A    between atoms: C3_5  and  C4_6 
REMARK    4  A    between atoms: C4_6  and  N1_7 
REMARK    5  A    between atoms: C4_6  and  C19_44 
REMARK    6  A    between atoms: N1_7  and  C5_9 
REMARK    7  A    between atoms: C5_9  and  C6_10 
REMARK    8  A    between atoms: C5_9  and  C12_29 
REMARK       I    between atoms: C6_10  and  N2_12 
REMARK    9  A    between atoms: N2_12  and  C7_14 
REMARK   10  A    between atoms: C7_14  and  C8_15 
REMARK   11  A    between atoms: C7_14  and  C9_20 
REMARK       I    between atoms: C8_15  and  N3_16 
REMARK   12  A    between atoms: C9_20  and  N4_21 
REMARK   13  A    between atoms: C9_20  and  C10_25 
REMARK   14  A    between atoms: C10_25  and  O5_27 
REMARK   15  A    between atoms: C12_29  and  C13_31 
REMARK   16  A    between atoms: C14_33  and  C15_34 
REMARK   17  A    between atoms: C15_34  and  O8_36 
REMARK   18  A    between atoms: C17_38  and  O9_39 
REMARK   19  A    between atoms: C18_41  and  O10_42 
ROOT
HETATM    1  C5  UNL     1      -4.464  11.589 121.646  1.00  0.00     0.243 C 
ENDROOT
BRANCH   1   2
HETATM    2  N1  UNL     1      -3.905  12.578 120.747  1.00  0.00    -0.390 N 
ATOM      3  H1  UNL     1      -4.517  13.306 120.378  1.00  0.00     0.155 HD
BRANCH   2   4
HETATM    4  C4  UNL     1      -2.585  12.576 120.375  1.00  0.00     0.189 C 
BRANCH   4   5
HETATM    5  C3  UNL     1      -1.525  11.945 121.205  1.00  0.00     0.146 C 
BRANCH   5   6
HETATM    6  C2  UNL     1      -1.151  12.806 122.373  1.00  0.00     0.260 C 
HETATM    7  O2  UNL     1      -1.911  13.167 123.285  1.00  0.00    -0.265 OA
BRANCH   6   8
HETATM    8  O1  UNL     1       0.164  13.236 122.382  1.00  0.00    -0.326 OA
HETATM    9  C1  UNL     1       0.534  14.601 122.564  1.00  0.00     0.213 C 
ENDBRANCH   6   8
ENDBRANCH   5   6
ENDBRANCH   4   5
BRANCH   4  10
HETATM   10  C19 UNL     1      -2.226  14.023 120.044  1.00  0.00     0.196 C 
HETATM   11  O11 UNL     1      -2.970  14.943 120.416  1.00  0.00    -0.646 OA
HETATM   12  O12 UNL     1      -1.071  14.329 119.321  1.00  0.00    -0.646 OA
ENDBRANCH   4  10
ENDBRANCH   2   4
ENDBRANCH   1   2
BRANCH   1  13
HETATM   13  C6  UNL     1      -5.235  12.587 122.566  1.00  0.00     0.248 C 
HETATM   14  O3  UNL     1      -6.091  12.140 123.361  1.00  0.00    -0.271 OA
HETATM   15  N2  UNL     1      -4.891  13.943 122.486  1.00  0.00    -0.344 N 
ATOM     16  H2  UNL     1      -4.223  14.177 121.751  1.00  0.00     0.163 HD
BRANCH  15  17
HETATM   17  C7  UNL     1      -5.330  15.049 123.276  1.00  0.00     0.209 C 
BRANCH  17  18
HETATM   18  C8  UNL     1      -6.229  15.906 122.353  1.00  0.00     0.240 C 
HETATM   19  N3  UNL     1      -7.361  15.394 121.771  1.00  0.00    -0.368 N 
ATOM     20  H32 UNL     1      -7.630  14.423 121.929  1.00  0.00     0.159 HD
ATOM     21  H31 UNL     1      -7.954  15.959 121.162  1.00  0.00     0.159 HD
HETATM   22  O4  UNL     1      -5.892  17.118 122.156  1.00  0.00    -0.271 OA
ENDBRANCH  17  18
BRANCH  17  23
HETATM   23  C9  UNL     1      -4.382  15.878 123.978  1.00  0.00     0.243 C 
BRANCH  23  24
HETATM   24  N4  UNL     1      -3.104  15.953 123.247  1.00  0.00    -0.070 N 
ATOM     25  H43 UNL     1      -3.184  15.564 122.307  1.00  0.00     0.274 HD
ATOM     26  H42 UNL     1      -2.869  16.914 122.997  1.00  0.00     0.274 HD
ATOM     27  H41 UNL     1      -2.354  15.507 123.775  1.00  0.00     0.274 HD
ENDBRANCH  23  24
BRANCH  23  28
HETATM   28  C10 UNL     1      -3.970  15.140 125.295  1.00  0.00     0.147 C 
HETATM   29  C11 UNL     1      -4.876  15.732 126.403  1.00  0.00     0.041 C 
BRANCH  28  30
HETATM   30  O5  UNL     1      -4.289  13.820 125.263  1.00  0.00    -0.394 OA
ATOM     31  H5  UNL     1      -4.239  13.419 126.123  1.00  0.00     0.210 HD
ENDBRANCH  28  30
ENDBRANCH  23  28
ENDBRANCH  17  23
ENDBRANCH  15  17
ENDBRANCH   1  13
BRANCH   1  32
HETATM   32  C12 UNL     1      -5.339  10.599 121.137  1.00  0.00     0.189 C 
HETATM   33  O6  UNL     1      -6.401  10.886 120.610  1.00  0.00    -0.292 OA
BRANCH  32  34
HETATM   34  C13 UNL     1      -5.018   9.142 121.193  1.00  0.00     0.225 C 
HETATM   35  O7  UNL     1      -3.645   8.955 121.356  1.00  0.00    -0.365 OA
HETATM   36  C14 UNL     1      -3.472   8.464 122.652  1.00  0.00     0.182 C 
HETATM   37  C17 UNL     1      -4.649   7.439 122.704  1.00  0.00     0.181 C 
HETATM   38  C18 UNL     1      -5.739   8.382 122.258  1.00  0.00     0.185 C 
BRANCH  36  39
HETATM   39  C15 UNL     1      -2.191   7.741 122.862  1.00  0.00     0.145 C 
HETATM   40  C16 UNL     1      -0.950   8.513 122.596  1.00  0.00     0.042 C 
BRANCH  39  41
HETATM   41  O8  UNL     1      -2.140   7.180 124.130  1.00  0.00    -0.393 OA
ATOM     42  H8  UNL     1      -1.362   7.464 124.596  1.00  0.00     0.210 HD
ENDBRANCH  39  41
ENDBRANCH  36  39
BRANCH  37  43
HETATM   43  O9  UNL     1      -4.812   6.852 123.907  1.00  0.00    -0.390 OA
ATOM     44  H9  UNL     1      -5.286   6.030 123.874  1.00  0.00     0.210 HD
ENDBRANCH  37  43
BRANCH  38  45
HETATM   45  O10 UNL     1      -6.076   9.152 123.375  1.00  0.00    -0.390 OA
ATOM     46  H10 UNL     1      -6.557   8.675 124.040  1.00  0.00     0.210 HD
ENDBRANCH  38  45
ENDBRANCH  32  34
ENDBRANCH   1  32
TORSDOF 19
ENDMDL
MODEL 5
REMARK VINA RESULT: -7.088699452      1.884      2.348
REMARK  19 active torsions:
REMARK  status: ('A' for Active; 'I' for Inactive)
REMARK    1  A    between atoms: O1_2  and  C2_3 
REMARK    2  A    between atoms: C2_3  and  C3_5 
REMARK    3  A    between atoms: C3_5  and  C4_6 
REMARK    4  A    between atoms: C4_6  and  N1_7 
REMARK    5  A    between atoms: C4_6  and  C19_44 
REMARK    6  A    between atoms: N1_7  and  C5_9 
REMARK    7  A    between atoms: C5_9  and  C6_10 
REMARK    8  A    between atoms: C5_9  and  C12_29 
REMARK       I    between atoms: C6_10  and  N2_12 
REMARK    9  A    between atoms: N2_12  and  C7_14 
REMARK   10  A    between atoms: C7_14  and  C8_15 
REMARK   11  A    between atoms: C7_14  and  C9_20 
REMARK       I    between atoms: C8_15  and  N3_16 
REMARK   12  A    between atoms: C9_20  and  N4_21 
REMARK   13  A    between atoms: C9_20  and  C10_25 
REMARK   14  A    between atoms: C10_25  and  O5_27 
REMARK   15  A    between atoms: C12_29  and  C13_31 
REMARK   16  A    between atoms: C14_33  and  C15_34 
REMARK   17  A    between atoms: C15_34  and  O8_36 
REMARK   18  A    between atoms: C17_38  and  O9_39 
REMARK   19  A    between atoms: C18_41  and  O10_42 
ROOT
HETATM    1  C5  UNL     1      -4.241  13.388 122.640  1.00  0.00     0.243 C 
ENDROOT
BRANCH   1   2
HETATM    2  N1  UNL     1      -4.392  14.440 121.655  1.00  0.00    -0.390 N 
ATOM      3  H1  UNL     1      -4.803  14.208 120.750  1.00  0.00     0.155 HD
BRANCH   2   4
HETATM    4  C4  UNL     1      -4.006  15.735 121.891  1.00  0.00     0.189 C 
BRANCH   4   5
HETATM    5  C3  UNL     1      -4.987  16.834 122.089  1.00  0.00     0.146 C 
BRANCH   5   6
HETATM    6  C2  UNL     1      -5.982  16.896 120.971  1.00  0.00     0.260 C 
HETATM    7  O2  UNL     1      -5.899  17.611 119.960  1.00  0.00    -0.265 OA
BRANCH   6   8
HETATM    8  O1  UNL     1      -7.093  16.086 121.134  1.00  0.00    -0.326 OA
HETATM    9  C1  UNL     1      -8.333  16.325 120.472  1.00  0.00     0.213 C 
ENDBRANCH   6   8
ENDBRANCH   5   6
ENDBRANCH   4   5
BRANCH   4  10
HETATM   10  C19 UNL     1      -3.003  16.093 120.797  1.00  0.00     0.196 C 
HETATM   11  O11 UNL     1      -2.575  15.209 120.040  1.00  0.00    -0.646 OA
HETATM   12  O12 UNL     1      -2.555  17.406 120.635  1.00  0.00    -0.646 OA
ENDBRANCH   4  10
ENDBRANCH   2   4
ENDBRANCH   1   2
BRANCH   1  13
HETATM   13  C6  UNL     1      -5.032  12.290 121.863  1.00  0.00     0.248 C 
HETATM   14  O3  UNL     1      -5.720  12.624 120.873  1.00  0.00    -0.271 OA
HETATM   15  N2  UNL     1      -4.890  10.962 122.290  1.00  0.00    -0.344 N 
ATOM     16  H2  UNL     1      -4.350  10.839 123.147  1.00  0.00     0.163 HD
BRANCH  15  17
HETATM   17  C7  UNL     1      -5.384   9.755 121.709  1.00  0.00     0.209 C 
BRANCH  17  18
HETATM   18  C8  UNL     1      -5.939   8.910 122.881  1.00  0.00     0.240 C 
HETATM   19  N3  UNL     1      -5.384   8.965 124.135  1.00  0.00    -0.368 N 
ATOM     20  H32 UNL     1      -4.579   9.562 124.319  1.00  0.00     0.159 HD
ATOM     21  H31 UNL     1      -5.750   8.408 124.908  1.00  0.00     0.159 HD
HETATM   22  O4  UNL     1      -6.945   8.164 122.651  1.00  0.00    -0.271 OA
ENDBRANCH  17  18
BRANCH  17  23
HETATM   23  C9  UNL     1      -4.548   8.951 120.853  1.00  0.00     0.243 C 
BRANCH  23  24
HETATM   24  N4  UNL     1      -3.145   9.402 120.910  1.00  0.00    -0.070 N 
ATOM     25  H43 UNL     1      -2.527   8.778 120.393  1.00  0.00     0.274 HD
ATOM     26  H42 UNL     1      -3.000  10.251 120.363  1.00  0.00     0.274 HD
ATOM     27  H41 UNL     1      -2.839   9.521 121.876  1.00  0.00     0.274 HD
ENDBRANCH  23  24
BRANCH  23  28
HETATM   28  C10 UNL     1      -4.936   9.255 119.367  1.00  0.00     0.147 C 
HETATM   29  C11 UNL     1      -3.901  10.297 118.874  1.00  0.00     0.041 C 
BRANCH  28  30
HETATM   30  O5  UNL     1      -4.748   8.179 118.559  1.00  0.00    -0.394 OA
ATOM     31  H5  UNL     1      -4.152   8.369 117.844  1.00  0.00     0.210 HD
ENDBRANCH  28  30
ENDBRANCH  23  28
ENDBRANCH  17  23
ENDBRANCH  15  17
ENDBRANCH   1  13
BRANCH   1  32
HETATM   32  C12 UNL     1      -2.945  12.929 122.977  1.00  0.00     0.189 C 
HETATM   33  O6  UNL     1      -2.247  12.325 122.180  1.00  0.00    -0.292 OA
BRANCH  32  34
HETATM   34  C13 UNL     1      -2.338  13.163 124.320  1.00  0.00     0.225 C 
HETATM   35  O7  UNL     1      -3.099  14.083 125.042  1.00  0.00    -0.365 OA
HETATM   36  C14 UNL     1      -3.706  13.360 126.071  1.00  0.00     0.182 C 
HETATM   37  C17 UNL     1      -2.501  12.471 126.514  1.00  0.00     0.181 C 
HETATM   38  C18 UNL     1      -2.153  11.933 125.148  1.00  0.00     0.185 C 
BRANCH  36  39
HETATM   39  C15 UNL     1      -4.142  14.192 127.223  1.00  0.00     0.145 C 
HETATM   40  C16 UNL     1      -4.790  15.486 126.890  1.00  0.00     0.042 C 
BRANCH  39  41
HETATM   41  O8  UNL     1      -4.951  13.463 128.084  1.00  0.00    -0.393 OA
ATOM     42  H8  UNL     1      -4.642  13.532 128.980  1.00  0.00     0.210 HD
ENDBRANCH  39  41
ENDBRANCH  36  39
BRANCH  37  43
HETATM   43  O9  UNL     1      -2.810  11.561 127.460  1.00  0.00    -0.390 OA
ATOM     44  H9  UNL     1      -3.409  10.886 127.166  1.00  0.00     0.210 HD
ENDBRANCH  37  43
BRANCH  38  45
HETATM   45  O10 UNL     1      -3.077  10.921 124.874  1.00  0.00    -0.390 OA
ATOM     46  H10 UNL     1      -3.812  10.898 125.474  1.00  0.00     0.210 HD
ENDBRANCH  38  45
ENDBRANCH  32  34
ENDBRANCH   1  32
TORSDOF 19
ENDMDL
