MODEL 1
REMARK VINA RESULT: -7.892118923      0.000      0.000
REMARK  17 active torsions:
REMARK  status: ('A' for Active; 'I' for Inactive)
REMARK    1  A    between atoms: C1_2  and  O2_4 
REMARK    2  A    between atoms: O2_4  and  N2_5 
REMARK    3  A    between atoms: N2_5  and  C2_6 
REMARK    4  A    between atoms: C2_6  and  C3_7 
REMARK    5  A    between atoms: C2_6  and  C12_27 
REMARK    6  A    between atoms: C3_7  and  O3_8 
REMARK    7  A    between atoms: C4_10  and  C5_11 
REMARK    8  A    between atoms: C5_11  and  N3_12 
REMARK    9  A    between atoms: C5_11  and  C11_24 
REMARK   10  A    between atoms: N3_12  and  C6_14 
REMARK   11  A    between atoms: C7_16  and  C8_17 
REMARK   12  A    between atoms: C10_21  and  O7_22 
REMARK       I    between atoms: C12_27  and  N4_29 
REMARK   13  A    between atoms: N4_29  and  C13_31 
REMARK   14  A    between atoms: C13_31  and  C14_32 
REMARK   15  A    between atoms: C13_31  and  C15_35 
REMARK   16  A    between atoms: C15_35  and  O12_36 
REMARK   17  A    between atoms: C15_35  and  C16_38 
ROOT
HETATM    1  C2  UNL     1      -0.978   9.878 122.818  1.00  0.00     0.255 C 
ENDROOT
BRANCH   1   2
HETATM    2  N2  UNL     1      -0.428   9.056 123.929  1.00  0.00    -0.069 NA
BRANCH   2   3
HETATM    3  O2  UNL     1       0.503   9.887 124.560  1.00  0.00    -0.190 OA
BRANCH   3   4
HETATM    4  C1  UNL     1       0.721   9.749 125.933  1.00  0.00     0.391 C 
HETATM    5  N1  UNL     1       1.955   9.338 126.483  1.00  0.00    -0.031 NA
HETATM    6  O1  UNL     1      -0.266  10.010 126.688  1.00  0.00    -0.241 OA
ENDBRANCH   3   4
ENDBRANCH   2   3
ENDBRANCH   1   2
BRANCH   1   7
HETATM    7  C3  UNL     1      -1.676  11.040 123.435  1.00  0.00     0.076 C 
HETATM    8  C4  UNL     1      -1.769  12.436 123.165  1.00  0.00     0.070 C 
BRANCH   7   9
HETATM    9  O3  UNL     1      -2.350  10.683 124.501  1.00  0.00    -0.363 OA
ATOM     10  H3  UNL     1      -2.883   9.915 124.332  1.00  0.00     0.217 HD
ENDBRANCH   7   9
BRANCH   8  11
HETATM   11  C5  UNL     1      -2.544  12.991 122.045  1.00  0.00     0.110 C 
BRANCH  11  12
HETATM   12  N3  UNL     1      -3.973  12.736 122.197  1.00  0.00    -0.356 N 
ATOM     13  H3  UNL     1      -4.319  11.988 122.799  1.00  0.00     0.162 HD
BRANCH  12  14
HETATM   14  C6  UNL     1      -4.861  13.572 121.473  1.00  0.00     0.251 C 
HETATM   15  O4  UNL     1      -4.550  14.901 121.550  1.00  0.00    -0.348 OA
HETATM   16  C7  UNL     1      -5.630  15.686 121.815  1.00  0.00     0.227 C 
HETATM   17  C9  UNL     1      -6.835  14.800 121.589  1.00  0.00     0.079 C 
HETATM   18  C10 UNL     1      -6.245  13.477 122.132  1.00  0.00     0.169 C 
BRANCH  16  19
HETATM   19  C8  UNL     1      -5.608  16.894 121.011  1.00  0.00     0.203 C 
HETATM   20  O5  UNL     1      -6.305  17.899 121.462  1.00  0.00    -0.646 OA
HETATM   21  O6  UNL     1      -4.929  17.088 119.827  1.00  0.00    -0.646 OA
ENDBRANCH  16  19
BRANCH  18  22
HETATM   22  O7  UNL     1      -6.984  12.443 121.640  1.00  0.00    -0.391 OA
ATOM     23  H7  UNL     1      -6.862  12.325 120.705  1.00  0.00     0.210 HD
ENDBRANCH  18  22
ENDBRANCH  12  14
ENDBRANCH  11  12
BRANCH  11  24
HETATM   24  C11 UNL     1      -2.055  12.802 120.681  1.00  0.00     0.226 C 
HETATM   25  O8  UNL     1      -1.354  13.553 119.983  1.00  0.00    -0.643 OA
HETATM   26  O9  UNL     1      -2.395  11.587 119.975  1.00  0.00    -0.643 OA
ENDBRANCH  11  24
ENDBRANCH   8  11
ENDBRANCH   1   7
BRANCH   1  27
HETATM   27  C12 UNL     1      -2.130   9.005 122.267  1.00  0.00     0.246 C 
HETATM   28  O10 UNL     1      -1.784   7.809 122.033  1.00  0.00    -0.271 OA
HETATM   29  N4  UNL     1      -3.400   9.474 122.068  1.00  0.00    -0.343 N 
ATOM     30  H4  UNL     1      -3.548  10.467 122.248  1.00  0.00     0.163 HD
BRANCH  29  31
HETATM   31  C13 UNL     1      -4.557   8.720 121.631  1.00  0.00     0.213 C 
BRANCH  31  32
HETATM   32  C14 UNL     1      -5.293   9.324 120.469  1.00  0.00     0.257 C 
HETATM   33  N5  UNL     1      -4.796   9.033 119.150  1.00  0.00    -0.060 NA
HETATM   34  O11 UNL     1      -6.294  10.066 120.565  1.00  0.00    -0.274 OA
ENDBRANCH  31  32
BRANCH  31  35
HETATM   35  C15 UNL     1      -5.475   8.567 122.798  1.00  0.00     0.250 C 
BRANCH  35  36
HETATM   36  O12 UNL     1      -5.938   9.818 123.261  1.00  0.00    -0.382 OA
ATOM     37  H12 UNL     1      -5.371  10.526 122.978  1.00  0.00     0.210 HD
ENDBRANCH  35  36
BRANCH  35  38
HETATM   38  C16 UNL     1      -4.860   7.811 123.917  1.00  0.00     0.205 C 
HETATM   39  O13 UNL     1      -4.480   8.362 124.949  1.00  0.00    -0.646 OA
HETATM   40  O14 UNL     1      -4.722   6.445 123.756  1.00  0.00    -0.646 OA
ENDBRANCH  35  38
ENDBRANCH  31  35
ENDBRANCH  29  31
ENDBRANCH   1  27
TORSDOF 17
ENDMDL
MODEL 2
REMARK VINA RESULT: -7.875921098      2.962      4.644
REMARK  17 active torsions:
REMARK  status: ('A' for Active; 'I' for Inactive)
REMARK    1  A    between atoms: C1_2  and  O2_4 
REMARK    2  A    between atoms: O2_4  and  N2_5 
REMARK    3  A    between atoms: N2_5  and  C2_6 
REMARK    4  A    between atoms: C2_6  and  C3_7 
REMARK    5  A    between atoms: C2_6  and  C12_27 
REMARK    6  A    between atoms: C3_7  and  O3_8 
REMARK    7  A    between atoms: C4_10  and  C5_11 
REMARK    8  A    between atoms: C5_11  and  N3_12 
REMARK    9  A    between atoms: C5_11  and  C11_24 
REMARK   10  A    between atoms: N3_12  and  C6_14 
REMARK   11  A    between atoms: C7_16  and  C8_17 
REMARK   12  A    between atoms: C10_21  and  O7_22 
REMARK       I    between atoms: C12_27  and  N4_29 
REMARK   13  A    between atoms: N4_29  and  C13_31 
REMARK   14  A    between atoms: C13_31  and  C14_32 
REMARK   15  A    between atoms: C13_31  and  C15_35 
REMARK   16  A    between atoms: C15_35  and  O12_36 
REMARK   17  A    between atoms: C15_35  and  C16_38 
ROOT
HETATM    1  C2  UNL     1      -3.339   9.730 120.838  1.00  0.00     0.255 C 
ENDROOT
BRANCH   1   2
HETATM    2  N2  UNL     1      -4.758  10.002 121.190  1.00  0.00    -0.069 NA
BRANCH   2   3
HETATM    3  O2  UNL     1      -4.889   9.561 122.510  1.00  0.00    -0.190 OA
BRANCH   3   4
HETATM    4  C1  UNL     1      -5.580   8.375 122.768  1.00  0.00     0.391 C 
HETATM    5  N1  UNL     1      -4.951   7.196 123.223  1.00  0.00    -0.031 NA
HETATM    6  O1  UNL     1      -6.834   8.398 122.564  1.00  0.00    -0.241 OA
ENDBRANCH   3   4
ENDBRANCH   2   3
ENDBRANCH   1   2
BRANCH   1   7
HETATM    7  C3  UNL     1      -2.960  10.692 119.765  1.00  0.00     0.076 C 
HETATM    8  C4  UNL     1      -3.092  12.095 119.559  1.00  0.00     0.070 C 
BRANCH   7   9
HETATM    9  O3  UNL     1      -2.385  10.082 118.758  1.00  0.00    -0.363 OA
ATOM     10  H3  UNL     1      -2.870  10.210 117.952  1.00  0.00     0.217 HD
ENDBRANCH   7   9
BRANCH   8  11
HETATM   11  C5  UNL     1      -2.287  13.095 120.277  1.00  0.00     0.110 C 
BRANCH  11  12
HETATM   12  N3  UNL     1      -2.967  13.577 121.475  1.00  0.00    -0.356 N 
ATOM     13  H3  UNL     1      -2.498  13.601 122.380  1.00  0.00     0.162 HD
BRANCH  12  14
HETATM   14  C6  UNL     1      -4.309  14.013 121.326  1.00  0.00     0.251 C 
HETATM   15  O4  UNL     1      -4.428  15.352 121.075  1.00  0.00    -0.348 OA
HETATM   16  C7  UNL     1      -5.378  15.954 121.842  1.00  0.00     0.227 C 
HETATM   17  C9  UNL     1      -6.180  14.823 122.449  1.00  0.00     0.079 C 
HETATM   18  C10 UNL     1      -5.021  13.823 122.673  1.00  0.00     0.169 C 
BRANCH  16  19
HETATM   19  C8  UNL     1      -6.158  16.897 121.061  1.00  0.00     0.203 C 
HETATM   20  O5  UNL     1      -5.582  17.377 119.995  1.00  0.00    -0.646 OA
HETATM   21  O6  UNL     1      -7.437  17.335 121.330  1.00  0.00    -0.646 OA
ENDBRANCH  16  19
BRANCH  18  22
HETATM   22  O7  UNL     1      -5.551  12.575 122.808  1.00  0.00    -0.391 OA
ATOM     23  H7  UNL     1      -5.065  12.042 123.427  1.00  0.00     0.210 HD
ENDBRANCH  18  22
ENDBRANCH  12  14
ENDBRANCH  11  12
BRANCH  11  24
HETATM   24  C11 UNL     1      -1.619  14.147 119.515  1.00  0.00     0.226 C 
HETATM   25  O8  UNL     1      -1.939  14.662 118.430  1.00  0.00    -0.643 OA
HETATM   26  O9  UNL     1      -0.399  14.723 120.034  1.00  0.00    -0.643 OA
ENDBRANCH  11  24
ENDBRANCH   8  11
ENDBRANCH   1   7
BRANCH   1  27
HETATM   27  C12 UNL     1      -3.410   8.369 120.106  1.00  0.00     0.246 C 
HETATM   28  O10 UNL     1      -4.416   8.262 119.344  1.00  0.00    -0.271 OA
HETATM   29  N4  UNL     1      -2.470   7.386 120.254  1.00  0.00    -0.343 N 
ATOM     30  H4  UNL     1      -1.728   7.568 120.930  1.00  0.00     0.163 HD
BRANCH  29  31
HETATM   31  C13 UNL     1      -2.408   6.117 119.558  1.00  0.00     0.213 C 
BRANCH  31  32
HETATM   32  C14 UNL     1      -2.760   4.925 120.403  1.00  0.00     0.257 C 
HETATM   33  N5  UNL     1      -3.345   3.792 119.735  1.00  0.00    -0.060 NA
HETATM   34  O11 UNL     1      -2.590   4.851 121.639  1.00  0.00    -0.274 OA
ENDBRANCH  31  32
BRANCH  31  35
HETATM   35  C15 UNL     1      -1.032   5.964 118.999  1.00  0.00     0.250 C 
BRANCH  35  36
HETATM   36  O12 UNL     1      -0.449   4.737 119.385  1.00  0.00    -0.382 OA
ATOM     37  H12 UNL     1       0.375   4.587 118.938  1.00  0.00     0.210 HD
ENDBRANCH  35  36
BRANCH  35  38
HETATM   38  C16 UNL     1      -0.135   7.087 119.367  1.00  0.00     0.205 C 
HETATM   39  O13 UNL     1       0.539   7.076 120.396  1.00  0.00    -0.646 OA
HETATM   40  O14 UNL     1      -0.085   8.165 118.504  1.00  0.00    -0.646 OA
ENDBRANCH  35  38
ENDBRANCH  31  35
ENDBRANCH  29  31
ENDBRANCH   1  27
TORSDOF 17
ENDMDL
MODEL 3
REMARK VINA RESULT: -7.804662494      1.820      2.413
REMARK  17 active torsions:
REMARK  status: ('A' for Active; 'I' for Inactive)
REMARK    1  A    between atoms: C1_2  and  O2_4 
REMARK    2  A    between atoms: O2_4  and  N2_5 
REMARK    3  A    between atoms: N2_5  and  C2_6 
REMARK    4  A    between atoms: C2_6  and  C3_7 
REMARK    5  A    between atoms: C2_6  and  C12_27 
REMARK    6  A    between atoms: C3_7  and  O3_8 
REMARK    7  A    between atoms: C4_10  and  C5_11 
REMARK    8  A    between atoms: C5_11  and  N3_12 
REMARK    9  A    between atoms: C5_11  and  C11_24 
REMARK   10  A    between atoms: N3_12  and  C6_14 
REMARK   11  A    between atoms: C7_16  and  C8_17 
REMARK   12  A    between atoms: C10_21  and  O7_22 
REMARK       I    between atoms: C12_27  and  N4_29 
REMARK   13  A    between atoms: N4_29  and  C13_31 
REMARK   14  A    between atoms: C13_31  and  C14_32 
REMARK   15  A    between atoms: C13_31  and  C15_35 
REMARK   16  A    between atoms: C15_35  and  O12_36 
REMARK   17  A    between atoms: C15_35  and  C16_38 
ROOT
HETATM    1  C2  UNL     1      -1.547  10.897 123.361  1.00  0.00     0.255 C 
ENDROOT
BRANCH   1   2
HETATM    2  N2  UNL     1      -2.540  11.777 124.032  1.00  0.00    -0.069 NA
BRANCH   2   3
HETATM    3  O2  UNL     1      -2.841  11.125 125.232  1.00  0.00    -0.190 OA
BRANCH   3   4
HETATM    4  C1  UNL     1      -3.983  11.499 125.944  1.00  0.00     0.391 C 
HETATM    5  N1  UNL     1      -3.964  11.835 127.315  1.00  0.00    -0.031 NA
HETATM    6  O1  UNL     1      -5.073  11.518 125.291  1.00  0.00    -0.241 OA
ENDBRANCH   3   4
ENDBRANCH   2   3
ENDBRANCH   1   2
BRANCH   1   7
HETATM    7  C3  UNL     1      -0.993  11.660 122.207  1.00  0.00     0.076 C 
HETATM    8  C4  UNL     1      -1.425  12.756 121.406  1.00  0.00     0.070 C 
BRANCH   7   9
HETATM    9  O3  UNL     1       0.168  11.181 121.830  1.00  0.00    -0.363 OA
ATOM     10  H3  UNL     1       0.731  11.866 121.490  1.00  0.00     0.217 HD
ENDBRANCH   7   9
BRANCH   8  11
HETATM   11  C5  UNL     1      -1.445  14.146 121.886  1.00  0.00     0.110 C 
BRANCH  11  12
HETATM   12  N3  UNL     1      -2.670  14.447 122.620  1.00  0.00    -0.356 N 
ATOM     13  H3  UNL     1      -2.666  14.571 123.632  1.00  0.00     0.162 HD
BRANCH  12  14
HETATM   14  C6  UNL     1      -3.866  14.559 121.866  1.00  0.00     0.251 C 
HETATM   15  O4  UNL     1      -4.307  15.846 121.722  1.00  0.00    -0.348 OA
HETATM   16  C7  UNL     1      -5.639  15.982 121.968  1.00  0.00     0.227 C 
HETATM   17  C9  UNL     1      -6.191  14.573 121.981  1.00  0.00     0.079 C 
HETATM   18  C10 UNL     1      -4.990  13.869 122.653  1.00  0.00     0.169 C 
BRANCH  16  19
HETATM   19  C8  UNL     1      -6.260  16.867 120.999  1.00  0.00     0.203 C 
HETATM   20  O5  UNL     1      -5.493  17.299 120.039  1.00  0.00    -0.646 OA
HETATM   21  O6  UNL     1      -7.571  17.294 120.990  1.00  0.00    -0.646 OA
ENDBRANCH  16  19
BRANCH  18  22
HETATM   22  O7  UNL     1      -5.067  12.535 122.383  1.00  0.00    -0.391 OA
ATOM     23  H7  UNL     1      -5.718  12.096 122.918  1.00  0.00     0.210 HD
ENDBRANCH  18  22
ENDBRANCH  12  14
ENDBRANCH  11  12
BRANCH  11  24
HETATM   24  C11 UNL     1      -1.024  15.214 120.982  1.00  0.00     0.226 C 
HETATM   25  O8  UNL     1      -0.881  16.428 121.205  1.00  0.00    -0.643 OA
HETATM   26  O9  UNL     1      -0.710  14.889 119.609  1.00  0.00    -0.643 OA
ENDBRANCH  11  24
ENDBRANCH   8  11
ENDBRANCH   1   7
BRANCH   1  27
HETATM   27  C12 UNL     1      -2.426   9.811 122.697  1.00  0.00     0.246 C 
HETATM   28  O10 UNL     1      -1.809   8.724 122.494  1.00  0.00    -0.271 OA
HETATM   29  N4  UNL     1      -3.743  10.001 122.377  1.00  0.00    -0.343 N 
ATOM     30  H4  UNL     1      -4.119  10.934 122.545  1.00  0.00     0.163 HD
BRANCH  29  31
HETATM   31  C13 UNL     1      -4.663   9.027 121.827  1.00  0.00     0.213 C 
BRANCH  31  32
HETATM   32  C14 UNL     1      -5.454   9.514 120.645  1.00  0.00     0.257 C 
HETATM   33  N5  UNL     1      -5.057   9.042 119.345  1.00  0.00    -0.060 NA
HETATM   34  O11 UNL     1      -6.420  10.304 120.710  1.00  0.00    -0.274 OA
ENDBRANCH  31  32
BRANCH  31  35
HETATM   35  C15 UNL     1      -5.583   8.594 122.919  1.00  0.00     0.250 C 
BRANCH  35  36
HETATM   36  O12 UNL     1      -6.202   9.699 123.544  1.00  0.00    -0.382 OA
ATOM     37  H12 UNL     1      -6.222  10.457 122.972  1.00  0.00     0.210 HD
ENDBRANCH  35  36
BRANCH  35  38
HETATM   38  C16 UNL     1      -4.910   7.751 123.937  1.00  0.00     0.205 C 
HETATM   39  O13 UNL     1      -4.595   8.186 125.043  1.00  0.00    -0.646 OA
HETATM   40  O14 UNL     1      -4.640   6.440 123.593  1.00  0.00    -0.646 OA
ENDBRANCH  35  38
ENDBRANCH  31  35
ENDBRANCH  29  31
ENDBRANCH   1  27
TORSDOF 17
ENDMDL
MODEL 4
REMARK VINA RESULT: -7.785124804      3.259      5.807
REMARK  17 active torsions:
REMARK  status: ('A' for Active; 'I' for Inactive)
REMARK    1  A    between atoms: C1_2  and  O2_4 
REMARK    2  A    between atoms: O2_4  and  N2_5 
REMARK    3  A    between atoms: N2_5  and  C2_6 
REMARK    4  A    between atoms: C2_6  and  C3_7 
REMARK    5  A    between atoms: C2_6  and  C12_27 
REMARK    6  A    between atoms: C3_7  and  O3_8 
REMARK    7  A    between atoms: C4_10  and  C5_11 
REMARK    8  A    between atoms: C5_11  and  N3_12 
REMARK    9  A    between atoms: C5_11  and  C11_24 
REMARK   10  A    between atoms: N3_12  and  C6_14 
REMARK   11  A    between atoms: C7_16  and  C8_17 
REMARK   12  A    between atoms: C10_21  and  O7_22 
REMARK       I    between atoms: C12_27  and  N4_29 
REMARK   13  A    between atoms: N4_29  and  C13_31 
REMARK   14  A    between atoms: C13_31  and  C14_32 
REMARK   15  A    between atoms: C13_31  and  C15_35 
REMARK   16  A    between atoms: C15_35  and  O12_36 
REMARK   17  A    between atoms: C15_35  and  C16_38 
ROOT
HETATM    1  C2  UNL     1      -3.406  11.476 120.797  1.00  0.00     0.255 C 
ENDROOT
BRANCH   1   2
HETATM    2  N2  UNL     1      -2.305  11.672 119.817  1.00  0.00    -0.069 NA
BRANCH   2   3
HETATM    3  O2  UNL     1      -2.671  12.812 119.093  1.00  0.00    -0.190 OA
BRANCH   3   4
HETATM    4  C1  UNL     1      -1.844  13.937 119.129  1.00  0.00     0.391 C 
HETATM    5  N1  UNL     1      -0.911  14.179 120.161  1.00  0.00    -0.031 NA
HETATM    6  O1  UNL     1      -1.973  14.761 118.171  1.00  0.00    -0.241 OA
ENDBRANCH   3   4
ENDBRANCH   2   3
ENDBRANCH   1   2
BRANCH   1   7
HETATM    7  C3  UNL     1      -2.945  12.044 122.095  1.00  0.00     0.076 C 
HETATM    8  C4  UNL     1      -3.532  12.820 123.136  1.00  0.00     0.070 C 
BRANCH   7   9
HETATM    9  O3  UNL     1      -1.679  11.779 122.311  1.00  0.00    -0.363 OA
ATOM     10  H3  UNL     1      -1.230  12.522 122.694  1.00  0.00     0.217 HD
ENDBRANCH   7   9
BRANCH   8  11
HETATM   11  C5  UNL     1      -4.499  12.274 124.100  1.00  0.00     0.110 C 
BRANCH  11  12
HETATM   12  N3  UNL     1      -3.837  11.534 125.170  1.00  0.00    -0.356 N 
ATOM     13  H3  UNL     1      -3.057  10.906 124.978  1.00  0.00     0.162 HD
BRANCH  12  14
HETATM   14  C6  UNL     1      -4.325  11.726 126.488  1.00  0.00     0.251 C 
HETATM   15  O4  UNL     1      -4.309  13.031 126.896  1.00  0.00    -0.348 OA
HETATM   16  C7  UNL     1      -3.790  13.191 128.145  1.00  0.00     0.227 C 
HETATM   17  C9  UNL     1      -3.739  11.801 128.739  1.00  0.00     0.079 C 
HETATM   18  C10 UNL     1      -3.363  11.022 127.457  1.00  0.00     0.169 C 
BRANCH  16  19
HETATM   19  C8  UNL     1      -4.564  14.150 128.912  1.00  0.00     0.203 C 
HETATM   20  O5  UNL     1      -4.542  14.003 130.207  1.00  0.00    -0.646 OA
HETATM   21  O6  UNL     1      -5.315  15.194 128.416  1.00  0.00    -0.646 OA
ENDBRANCH  16  19
BRANCH  18  22
HETATM   22  O7  UNL     1      -3.681   9.710 127.641  1.00  0.00    -0.391 OA
ATOM     23  H7  UNL     1      -2.962   9.213 128.012  1.00  0.00     0.210 HD
ENDBRANCH  18  22
ENDBRANCH  12  14
ENDBRANCH  11  12
BRANCH  11  24
HETATM   24  C11 UNL     1      -5.712  11.630 123.601  1.00  0.00     0.226 C 
HETATM   25  O8  UNL     1      -5.960  10.421 123.452  1.00  0.00    -0.643 OA
HETATM   26  O9  UNL     1      -6.830  12.452 123.200  1.00  0.00    -0.643 OA
ENDBRANCH  11  24
ENDBRANCH   8  11
ENDBRANCH   1   7
BRANCH   1  27
HETATM   27  C12 UNL     1      -3.397   9.948 121.040  1.00  0.00     0.246 C 
HETATM   28  O10 UNL     1      -3.640   9.274 119.995  1.00  0.00    -0.271 OA
HETATM   29  N4  UNL     1      -3.137   9.382 122.258  1.00  0.00    -0.343 N 
ATOM     30  H4  UNL     1      -3.001  10.026 123.036  1.00  0.00     0.163 HD
BRANCH  29  31
HETATM   31  C13 UNL     1      -3.032   7.970 122.567  1.00  0.00     0.213 C 
BRANCH  31  32
HETATM   32  C14 UNL     1      -3.996   7.487 123.613  1.00  0.00     0.257 C 
HETATM   33  N5  UNL     1      -4.213   8.337 124.754  1.00  0.00    -0.060 NA
HETATM   34  O11 UNL     1      -4.612   6.400 123.569  1.00  0.00    -0.274 OA
ENDBRANCH  31  32
BRANCH  31  35
HETATM   35  C15 UNL     1      -1.628   7.695 122.993  1.00  0.00     0.250 C 
BRANCH  35  36
HETATM   36  O12 UNL     1      -1.586   7.016 124.231  1.00  0.00    -0.382 OA
ATOM     37  H12 UNL     1      -1.395   7.610 124.947  1.00  0.00     0.210 HD
ENDBRANCH  35  36
BRANCH  35  38
HETATM   38  C16 UNL     1      -0.797   8.922 123.062  1.00  0.00     0.205 C 
HETATM   39  O13 UNL     1      -0.729   9.611 124.079  1.00  0.00    -0.646 OA
HETATM   40  O14 UNL     1      -0.096   9.275 121.924  1.00  0.00    -0.646 OA
ENDBRANCH  35  38
ENDBRANCH  31  35
ENDBRANCH  29  31
ENDBRANCH   1  27
TORSDOF 17
ENDMDL
MODEL 5
REMARK VINA RESULT: -7.676764711      2.932      8.126
REMARK  17 active torsions:
REMARK  status: ('A' for Active; 'I' for Inactive)
REMARK    1  A    between atoms: C1_2  and  O2_4 
REMARK    2  A    between atoms: O2_4  and  N2_5 
REMARK    3  A    between atoms: N2_5  and  C2_6 
REMARK    4  A    between atoms: C2_6  and  C3_7 
REMARK    5  A    between atoms: C2_6  and  C12_27 
REMARK    6  A    between atoms: C3_7  and  O3_8 
REMARK    7  A    between atoms: C4_10  and  C5_11 
REMARK    8  A    between atoms: C5_11  and  N3_12 
REMARK    9  A    between atoms: C5_11  and  C11_24 
REMARK   10  A    between atoms: N3_12  and  C6_14 
REMARK   11  A    between atoms: C7_16  and  C8_17 
REMARK   12  A    between atoms: C10_21  and  O7_22 
REMARK       I    between atoms: C12_27  and  N4_29 
REMARK   13  A    between atoms: N4_29  and  C13_31 
REMARK   14  A    between atoms: C13_31  and  C14_32 
REMARK   15  A    between atoms: C13_31  and  C15_35 
REMARK   16  A    between atoms: C15_35  and  O12_36 
REMARK   17  A    between atoms: C15_35  and  C16_38 
ROOT
HETATM    1  C2  UNL     1      -4.529  14.784 123.079  1.00  0.00     0.255 C 
ENDROOT
BRANCH   1   2
HETATM    2  N2  UNL     1      -5.370  15.999 122.912  1.00  0.00    -0.069 NA
BRANCH   2   3
HETATM    3  O2  UNL     1      -6.128  15.753 121.763  1.00  0.00    -0.190 OA
BRANCH   3   4
HETATM    4  C1  UNL     1      -6.512  16.826 120.955  1.00  0.00     0.391 C 
HETATM    5  N1  UNL     1      -5.650  17.432 120.015  1.00  0.00    -0.031 NA
HETATM    6  O1  UNL     1      -7.698  17.251 121.110  1.00  0.00    -0.241 OA
ENDBRANCH   3   4
ENDBRANCH   2   3
ENDBRANCH   1   2
BRANCH   1   7
HETATM    7  C3  UNL     1      -4.247  14.641 124.535  1.00  0.00     0.076 C 
HETATM    8  C4  UNL     1      -4.267  13.574 125.479  1.00  0.00     0.070 C 
BRANCH   7   9
HETATM    9  O3  UNL     1      -3.924  15.791 125.074  1.00  0.00    -0.363 OA
ATOM     10  H3  UNL     1      -3.116  16.130 124.709  1.00  0.00     0.217 HD
ENDBRANCH   7   9
BRANCH   8  11
HETATM   11  C5  UNL     1      -3.250  12.513 125.518  1.00  0.00     0.110 C 
BRANCH  11  12
HETATM   12  N3  UNL     1      -3.246  11.722 124.292  1.00  0.00    -0.356 N 
ATOM     13  H3  UNL     1      -2.730  12.024 123.466  1.00  0.00     0.162 HD
BRANCH  12  14
HETATM   14  C6  UNL     1      -3.991  10.515 124.297  1.00  0.00     0.251 C 
HETATM   15  O4  UNL     1      -3.282   9.429 123.864  1.00  0.00    -0.348 OA
HETATM   16  C7  UNL     1      -3.969   8.670 122.967  1.00  0.00     0.227 C 
HETATM   17  C9  UNL     1      -5.402   9.147 123.050  1.00  0.00     0.079 C 
HETATM   18  C10 UNL     1      -5.124  10.652 123.269  1.00  0.00     0.169 C 
BRANCH  16  19
HETATM   19  C8  UNL     1      -3.786   7.254 123.233  1.00  0.00     0.203 C 
HETATM   20  O5  UNL     1      -2.591   6.779 123.021  1.00  0.00    -0.646 OA
HETATM   21  O6  UNL     1      -4.739   6.367 123.683  1.00  0.00    -0.646 OA
ENDBRANCH  16  19
BRANCH  18  22
HETATM   22  O7  UNL     1      -6.241  11.223 123.802  1.00  0.00    -0.391 OA
ATOM     23  H7  UNL     1      -6.100  11.536 124.688  1.00  0.00     0.210 HD
ENDBRANCH  18  22
ENDBRANCH  12  14
ENDBRANCH  11  12
BRANCH  11  24
HETATM   24  C11 UNL     1      -3.105  11.715 126.734  1.00  0.00     0.226 C 
HETATM   25  O8  UNL     1      -3.908  11.544 127.667  1.00  0.00    -0.643 OA
HETATM   26  O9  UNL     1      -1.874  10.991 126.956  1.00  0.00    -0.643 OA
ENDBRANCH  11  24
ENDBRANCH   8  11
ENDBRANCH   1   7
BRANCH   1  27
HETATM   27  C12 UNL     1      -3.168  15.209 122.480  1.00  0.00     0.246 C 
HETATM   28  O10 UNL     1      -2.182  14.612 123.004  1.00  0.00    -0.271 OA
HETATM   29  N4  UNL     1      -3.044  16.127 121.472  1.00  0.00    -0.343 N 
ATOM     30  H4  UNL     1      -3.905  16.576 121.161  1.00  0.00     0.163 HD
BRANCH  29  31
HETATM   31  C13 UNL     1      -1.828  16.532 120.797  1.00  0.00     0.213 C 
BRANCH  31  32
HETATM   32  C14 UNL     1      -1.476  17.984 120.962  1.00  0.00     0.257 C 
HETATM   33  N5  UNL     1      -0.949  18.395 122.237  1.00  0.00    -0.060 NA
HETATM   34  O11 UNL     1      -1.619  18.858 120.080  1.00  0.00    -0.274 OA
ENDBRANCH  31  32
BRANCH  31  35
HETATM   35  C15 UNL     1      -1.971  16.199 119.350  1.00  0.00     0.250 C 
BRANCH  35  36
HETATM   36  O12 UNL     1      -3.255  16.533 118.866  1.00  0.00    -0.382 OA
ATOM     37  H12 UNL     1      -3.555  15.909 118.215  1.00  0.00     0.210 HD
ENDBRANCH  35  36
BRANCH  35  38
HETATM   38  C16 UNL     1      -1.676  14.774 119.056  1.00  0.00     0.205 C 
HETATM   39  O13 UNL     1      -1.060  14.058 119.843  1.00  0.00    -0.646 OA
HETATM   40  O14 UNL     1      -2.117  14.274 117.846  1.00  0.00    -0.646 OA
ENDBRANCH  35  38
ENDBRANCH  31  35
ENDBRANCH  29  31
ENDBRANCH   1  27
TORSDOF 17
ENDMDL
