MODEL 1
REMARK VINA RESULT: -7.035040820      0.000      0.000
REMARK  6 active torsions:
REMARK  status: ('A' for Active; 'I' for Inactive)
REMARK    1  A    between atoms: C6_9  and  S1_10 
REMARK    2  A    between atoms: S1_10  and  N3_13 
REMARK    3  A    between atoms: N3_13  and  N4_15 
REMARK       I    between atoms: N4_15  and  C7_17 
REMARK       I    between atoms: C7_17  and  N5_19 
REMARK    4  A    between atoms: N5_19  and  C8_21 
REMARK    5  A    between atoms: C8_21  and  C9_22 
REMARK    6  A    between atoms: C11_30  and  N9_31 
ROOT
HETATM    1  N4  UNL     1      -1.326   8.458  83.471  1.00  0.00    -0.244 N 
ATOM      2  H4  UNL     1      -2.307   8.496  83.198  1.00  0.00     0.192 HD
HETATM    3  C7  UNL     1      -0.879   7.318  84.175  1.00  0.00     0.335 C 
HETATM    4  O2  UNL     1       0.338   7.306  84.498  1.00  0.00    -0.246 OA
HETATM    5  N5  UNL     1      -1.750   6.245  84.503  1.00  0.00    -0.335 N 
ATOM      6  H5  UNL     1      -2.727   6.315  84.215  1.00  0.00     0.164 HD
ENDROOT
BRANCH   5   7
HETATM    7  C8  UNL     1      -1.336   5.062  85.219  1.00  0.00     0.203 C 
BRANCH   7   8
HETATM    8  C9  UNL     1      -1.047   3.906  84.342  1.00  0.00     0.133 A 
HETATM    9  N6  UNL     1      -1.233   3.949  83.006  1.00  0.00    -0.262 N 
HETATM   10  N7  UNL     1      -0.893   2.794  82.479  1.00  0.00    -0.029 N 
ATOM     11  H6  UNL     1      -1.582   4.753  82.486  1.00  0.00     0.189 HD
HETATM   12  C10 UNL     1      -0.913   2.383  81.197  1.00  0.00     0.374 A 
HETATM   13  C12 UNL     1      -0.485   1.998  83.475  1.00  0.00     0.725 A 
HETATM   14  O3  UNL     1      -1.301   3.161  80.304  1.00  0.00    -0.244 OA
HETATM   15  N8  UNL     1      -0.510   1.133  80.903  1.00  0.00    -0.139 N 
HETATM   16  C11 UNL     1      -0.096   0.314  81.885  1.00  0.00     0.694 A 
ATOM     17  H8  UNL     1      -0.520   0.808  79.936  1.00  0.00     0.189 HD
HETATM   18  N10 UNL     1      -0.086   0.753  83.169  1.00  0.00    -0.020 N 
ATOM     19  H10 UNL     1       0.228   0.128  83.912  1.00  0.00     0.203 HD
HETATM   20  N11 UNL     1      -0.580   2.687  84.636  1.00  0.00    -0.171 N 
HETATM   21  C13 UNL     1      -0.247   2.236  85.968  1.00  0.00     0.177 C 
BRANCH  16  22
HETATM   22  N9  UNL     1       0.283  -0.878  81.571  1.00  0.00    -0.234 N 
ATOM     23  H92 UNL     1       0.282  -1.206  80.604  1.00  0.00     0.174 HD
ATOM     24  H91 UNL     1       0.591  -1.502  82.317  1.00  0.00     0.174 HD
ENDBRANCH  16  22
ENDBRANCH   7   8
ENDBRANCH   5   7
BRANCH   1  25
HETATM   25  N3  UNL     1      -0.514   9.531  83.129  1.00  0.00    -0.243 N 
ATOM     26  H3  UNL     1      -0.042  10.125  83.810  1.00  0.00     0.198 HD
BRANCH  25  27
HETATM   27  S1  UNL     1      -0.393   9.747  81.425  1.00  0.00     0.140 S 
HETATM   28  O1  UNL     1      -1.627  10.476  80.978  1.00  0.00    -0.231 OA
HETATM   29  S2  UNL     1       0.943  10.706  80.992  1.00  0.00     0.036 SA
BRANCH  27  30
HETATM   30  C6  UNL     1      -0.301   8.173  80.678  1.00  0.00     0.098 A 
HETATM   31  C2  UNL     1      -1.265   7.512  79.955  1.00  0.00     0.045 A 
HETATM   32  C1  UNL     1      -2.621   7.988  79.633  1.00  0.00     0.071 C 
HETATM   33  N1  UNL     1      -0.744   6.324  79.579  1.00  0.00    -0.302 N 
HETATM   34  N2  UNL     1       0.491   6.200  80.023  1.00  0.00    -0.299 N 
ATOM     35  H1  UNL     1      -1.237   5.622  79.028  1.00  0.00     0.186 HD
HETATM   36  C3  UNL     1       1.411   5.099  79.854  1.00  0.00     0.177 C 
HETATM   37  C4  UNL     1       0.792   7.328  80.706  1.00  0.00     0.047 A 
HETATM   38  C5  UNL     1       2.071   7.613  81.369  1.00  0.00     0.071 C 
ENDBRANCH  27  30
ENDBRANCH  25  27
ENDBRANCH   1  25
TORSDOF 6
ENDMDL
MODEL 2
REMARK VINA RESULT: -6.961769962      3.578      4.993
REMARK  6 active torsions:
REMARK  status: ('A' for Active; 'I' for Inactive)
REMARK    1  A    between atoms: C6_9  and  S1_10 
REMARK    2  A    between atoms: S1_10  and  N3_13 
REMARK    3  A    between atoms: N3_13  and  N4_15 
REMARK       I    between atoms: N4_15  and  C7_17 
REMARK       I    between atoms: C7_17  and  N5_19 
REMARK    4  A    between atoms: N5_19  and  C8_21 
REMARK    5  A    between atoms: C8_21  and  C9_22 
REMARK    6  A    between atoms: C11_30  and  N9_31 
ROOT
HETATM    1  N4  UNL     1       3.660   4.967  81.672  1.00  0.00    -0.244 N 
ATOM      2  H4  UNL     1       4.021   4.160  81.164  1.00  0.00     0.192 HD
HETATM    3  C7  UNL     1       2.268   5.036  81.901  1.00  0.00     0.335 C 
HETATM    4  O2  UNL     1       1.858   6.046  82.530  1.00  0.00    -0.246 OA
HETATM    5  N5  UNL     1       1.378   4.025  81.447  1.00  0.00    -0.335 N 
ATOM      6  H5  UNL     1       1.772   3.232  80.941  1.00  0.00     0.164 HD
ENDROOT
BRANCH   5   7
HETATM    7  C8  UNL     1      -0.049   4.055  81.659  1.00  0.00     0.203 C 
BRANCH   7   8
HETATM    8  C9  UNL     1      -0.460   3.603  83.008  1.00  0.00     0.133 A 
HETATM    9  N6  UNL     1      -0.262   2.339  83.436  1.00  0.00    -0.262 N 
HETATM   10  N7  UNL     1      -0.714   2.217  84.663  1.00  0.00    -0.029 N 
ATOM     11  H6  UNL     1       0.172   1.593  82.891  1.00  0.00     0.189 HD
HETATM   12  C10 UNL     1      -0.730   1.148  85.483  1.00  0.00     0.374 A 
HETATM   13  C12 UNL     1      -1.207   3.405  85.034  1.00  0.00     0.725 A 
HETATM   14  O3  UNL     1      -0.259   0.062  85.093  1.00  0.00    -0.244 OA
HETATM   15  N8  UNL     1      -1.256   1.274  86.715  1.00  0.00    -0.139 N 
HETATM   16  C11 UNL     1      -1.757   2.457  87.111  1.00  0.00     0.694 A 
ATOM     17  H8  UNL     1      -1.275   0.473  87.347  1.00  0.00     0.189 HD
HETATM   18  N10 UNL     1      -1.730   3.518  86.265  1.00  0.00    -0.020 N 
ATOM     19  H10 UNL     1      -2.113   4.413  86.570  1.00  0.00     0.203 HD
HETATM   20  N11 UNL     1      -1.051   4.269  84.006  1.00  0.00    -0.171 N 
HETATM   21  C13 UNL     1      -1.430   5.663  83.949  1.00  0.00     0.177 C 
BRANCH  16  22
HETATM   22  N9  UNL     1      -2.256   2.545  88.298  1.00  0.00    -0.234 N 
ATOM     23  H92 UNL     1      -3.201   2.224  88.509  1.00  0.00     0.174 HD
ATOM     24  H91 UNL     1      -1.680   2.948  89.038  1.00  0.00     0.174 HD
ENDBRANCH  16  22
ENDBRANCH   7   8
ENDBRANCH   5   7
BRANCH   1  25
HETATM   25  N3  UNL     1       4.568   5.928  82.095  1.00  0.00    -0.243 N 
ATOM     26  H3  UNL     1       5.000   5.933  83.019  1.00  0.00     0.198 HD
BRANCH  25  27
HETATM   27  S1  UNL     1       4.884   7.112  80.886  1.00  0.00     0.140 S 
HETATM   28  O1  UNL     1       3.943   8.257  81.125  1.00  0.00    -0.231 OA
HETATM   29  S2  UNL     1       6.465   7.729  80.987  1.00  0.00     0.036 SA
BRANCH  27  30
HETATM   30  C6  UNL     1       4.594   6.391  79.324  1.00  0.00     0.098 A 
HETATM   31  C2  UNL     1       3.562   6.632  78.450  1.00  0.00     0.045 A 
HETATM   32  C1  UNL     1       2.443   7.573  78.628  1.00  0.00     0.071 C 
HETATM   33  N1  UNL     1       3.752   5.840  77.372  1.00  0.00    -0.302 N 
HETATM   34  N2  UNL     1       4.844   5.116  77.517  1.00  0.00    -0.299 N 
ATOM     35  H1  UNL     1       3.138   5.808  76.559  1.00  0.00     0.186 HD
HETATM   36  C3  UNL     1       5.418   4.145  76.614  1.00  0.00     0.177 C 
HETATM   37  C4  UNL     1       5.386   5.436  78.715  1.00  0.00     0.047 A 
HETATM   38  C5  UNL     1       6.615   4.864  79.280  1.00  0.00     0.071 C 
ENDBRANCH  27  30
ENDBRANCH  25  27
ENDBRANCH   1  25
TORSDOF 6
ENDMDL
MODEL 3
REMARK VINA RESULT: -6.955171717      4.730      7.840
REMARK  6 active torsions:
REMARK  status: ('A' for Active; 'I' for Inactive)
REMARK    1  A    between atoms: C6_9  and  S1_10 
REMARK    2  A    between atoms: S1_10  and  N3_13 
REMARK    3  A    between atoms: N3_13  and  N4_15 
REMARK       I    between atoms: N4_15  and  C7_17 
REMARK       I    between atoms: C7_17  and  N5_19 
REMARK    4  A    between atoms: N5_19  and  C8_21 
REMARK    5  A    between atoms: C8_21  and  C9_22 
REMARK    6  A    between atoms: C11_30  and  N9_31 
ROOT
HETATM    1  N4  UNL     1       2.368   4.060  82.222  1.00  0.00    -0.244 N 
ATOM      2  H4  UNL     1       2.636   3.097  82.020  1.00  0.00     0.192 HD
HETATM    3  C7  UNL     1       2.926   5.083  81.425  1.00  0.00     0.335 C 
HETATM    4  O2  UNL     1       2.574   6.259  81.703  1.00  0.00    -0.246 OA
HETATM    5  N5  UNL     1       3.835   4.805  80.368  1.00  0.00    -0.335 N 
ATOM      6  H5  UNL     1       4.082   3.831  80.193  1.00  0.00     0.164 HD
ENDROOT
BRANCH   5   7
HETATM    7  C8  UNL     1       4.427   5.819  79.529  1.00  0.00     0.203 C 
BRANCH   7   8
HETATM    8  C9  UNL     1       4.470   5.454  78.095  1.00  0.00     0.133 A 
HETATM    9  N6  UNL     1       3.546   5.887  77.212  1.00  0.00    -0.262 N 
HETATM   10  N7  UNL     1       3.829   5.418  76.017  1.00  0.00    -0.029 N 
ATOM     11  H6  UNL     1       2.751   6.485  77.437  1.00  0.00     0.189 HD
HETATM   12  C10 UNL     1       3.192   5.587  74.843  1.00  0.00     0.374 A 
HETATM   13  C12 UNL     1       4.940   4.680  76.124  1.00  0.00     0.725 A 
HETATM   14  O3  UNL     1       2.160   6.284  74.793  1.00  0.00    -0.244 OA
HETATM   15  N8  UNL     1       3.684   4.996  73.739  1.00  0.00    -0.139 N 
HETATM   16  C11 UNL     1       4.799   4.249  73.819  1.00  0.00     0.694 A 
ATOM     17  H8  UNL     1       3.212   5.114  72.842  1.00  0.00     0.189 HD
HETATM   18  N10 UNL     1       5.421   4.094  75.015  1.00  0.00    -0.020 N 
ATOM     19  H10 UNL     1       6.267   3.526  75.072  1.00  0.00     0.203 HD
HETATM   20  N11 UNL     1       5.342   4.699  77.415  1.00  0.00    -0.171 N 
HETATM   21  C13 UNL     1       6.492   4.047  78.001  1.00  0.00     0.177 C 
BRANCH  16  22
HETATM   22  N9  UNL     1       5.245   3.694  72.743  1.00  0.00    -0.234 N 
ATOM     23  H92 UNL     1       5.745   4.227  72.031  1.00  0.00     0.174 HD
ATOM     24  H91 UNL     1       5.090   2.694  72.612  1.00  0.00     0.174 HD
ENDBRANCH  16  22
ENDBRANCH   7   8
ENDBRANCH   5   7
BRANCH   1  25
HETATM   25  N3  UNL     1       1.478   4.281  83.265  1.00  0.00    -0.243 N 
ATOM     26  H3  UNL     1       1.741   4.705  84.154  1.00  0.00     0.198 HD
BRANCH  25  27
HETATM   27  S1  UNL     1      -0.119   3.761  82.888  1.00  0.00     0.140 S 
HETATM   28  O1  UNL     1      -0.677   4.724  81.882  1.00  0.00    -0.231 OA
HETATM   29  S2  UNL     1      -0.142   2.217  82.176  1.00  0.00     0.036 SA
BRANCH  27  30
HETATM   30  C6  UNL     1      -1.063   3.785  84.356  1.00  0.00     0.098 A 
HETATM   31  C2  UNL     1      -1.863   4.791  84.841  1.00  0.00     0.045 A 
HETATM   32  C1  UNL     1      -2.119   6.104  84.223  1.00  0.00     0.071 C 
HETATM   33  N1  UNL     1      -2.390   4.361  86.008  1.00  0.00    -0.302 N 
HETATM   34  N2  UNL     1      -1.968   3.144  86.284  1.00  0.00    -0.299 N 
ATOM     35  H1  UNL     1      -3.026   4.903  86.592  1.00  0.00     0.186 HD
HETATM   36  C3  UNL     1      -2.279   2.310  87.423  1.00  0.00     0.177 C 
HETATM   37  C4  UNL     1      -1.146   2.761  85.280  1.00  0.00     0.047 A 
HETATM   38  C5  UNL     1      -0.454   1.470  85.184  1.00  0.00     0.071 C 
ENDBRANCH  27  30
ENDBRANCH  25  27
ENDBRANCH   1  25
TORSDOF 6
ENDMDL
MODEL 4
REMARK VINA RESULT: -6.797021621      4.753      6.252
REMARK  6 active torsions:
REMARK  status: ('A' for Active; 'I' for Inactive)
REMARK    1  A    between atoms: C6_9  and  S1_10 
REMARK    2  A    between atoms: S1_10  and  N3_13 
REMARK    3  A    between atoms: N3_13  and  N4_15 
REMARK       I    between atoms: N4_15  and  C7_17 
REMARK       I    between atoms: C7_17  and  N5_19 
REMARK    4  A    between atoms: N5_19  and  C8_21 
REMARK    5  A    between atoms: C8_21  and  C9_22 
REMARK    6  A    between atoms: C11_30  and  N9_31 
ROOT
HETATM    1  N4  UNL     1       3.232   6.062  78.633  1.00  0.00    -0.244 N 
ATOM      2  H4  UNL     1       3.630   6.866  79.115  1.00  0.00     0.192 HD
HETATM    3  C7  UNL     1       1.936   5.641  79.007  1.00  0.00     0.335 C 
HETATM    4  O2  UNL     1       1.476   4.644  78.391  1.00  0.00    -0.246 OA
HETATM    5  N5  UNL     1       1.192   6.302  80.021  1.00  0.00    -0.335 N 
ATOM      6  H5  UNL     1       1.620   7.104  80.485  1.00  0.00     0.164 HD
ENDROOT
BRANCH   5   7
HETATM    7  C8  UNL     1      -0.133   5.907  80.434  1.00  0.00     0.203 C 
BRANCH   7   8
HETATM    8  C9  UNL     1      -0.147   4.779  81.392  1.00  0.00     0.133 A 
HETATM    9  N6  UNL     1      -0.153   3.491  80.990  1.00  0.00    -0.262 N 
HETATM   10  N7  UNL     1      -0.159   2.704  82.042  1.00  0.00    -0.029 N 
ATOM     11  H6  UNL     1      -0.153   3.177  80.020  1.00  0.00     0.189 HD
HETATM   12  C10 UNL     1      -0.167   1.360  82.124  1.00  0.00     0.374 A 
HETATM   13  C12 UNL     1      -0.156   3.483  83.131  1.00  0.00     0.725 A 
HETATM   14  O3  UNL     1      -0.169   0.677  81.082  1.00  0.00    -0.244 OA
HETATM   15  N8  UNL     1      -0.171   0.776  83.337  1.00  0.00    -0.139 N 
HETATM   16  C11 UNL     1      -0.168   1.537  84.446  1.00  0.00     0.694 A 
ATOM     17  H8  UNL     1      -0.178  -0.241  83.414  1.00  0.00     0.189 HD
HETATM   18  N10 UNL     1      -0.161   2.889  84.335  1.00  0.00    -0.020 N 
ATOM     19  H10 UNL     1      -0.160   3.462  85.179  1.00  0.00     0.203 HD
HETATM   20  N11 UNL     1      -0.149   4.775  82.730  1.00  0.00    -0.171 N 
HETATM   21  C13 UNL     1      -0.140   5.963  83.553  1.00  0.00     0.177 C 
BRANCH  16  22
HETATM   22  N9  UNL     1      -0.174   0.947  85.593  1.00  0.00    -0.234 N 
ATOM     23  H92 UNL     1       0.645   0.453  85.948  1.00  0.00     0.174 HD
ATOM     24  H91 UNL     1      -1.026   0.985  86.154  1.00  0.00     0.174 HD
ENDBRANCH  16  22
ENDBRANCH   7   8
ENDBRANCH   5   7
BRANCH   1  25
HETATM   25  N3  UNL     1       3.997   5.448  77.651  1.00  0.00    -0.243 N 
ATOM     26  H3  UNL     1       4.453   4.544  77.769  1.00  0.00     0.198 HD
BRANCH  25  27
HETATM   27  S1  UNL     1       4.091   6.385  76.209  1.00  0.00     0.140 S 
HETATM   28  O1  UNL     1       2.739   6.997  75.985  1.00  0.00    -0.231 OA
HETATM   29  S2  UNL     1       5.206   7.662  76.343  1.00  0.00     0.036 SA
BRANCH  27  30
HETATM   30  C6  UNL     1       4.514   5.322  74.892  1.00  0.00     0.098 A 
HETATM   31  C2  UNL     1       5.575   4.454  74.802  1.00  0.00     0.045 A 
HETATM   32  C1  UNL     1       6.617   4.210  75.814  1.00  0.00     0.071 C 
HETATM   33  N1  UNL     1       5.498   3.845  73.598  1.00  0.00    -0.302 N 
HETATM   34  N2  UNL     1       4.451   4.280  72.927  1.00  0.00    -0.299 N 
ATOM     35  H1  UNL     1       6.158   3.147  73.257  1.00  0.00     0.186 HD
HETATM   36  C3  UNL     1       3.994   3.902  71.609  1.00  0.00     0.177 C 
HETATM   37  C4  UNL     1       3.823   5.194  73.702  1.00  0.00     0.047 A 
HETATM   38  C5  UNL     1       2.605   5.931  73.343  1.00  0.00     0.071 C 
ENDBRANCH  27  30
ENDBRANCH  25  27
ENDBRANCH   1  25
TORSDOF 6
ENDMDL
MODEL 5
REMARK VINA RESULT: -6.741593743      1.899      2.556
REMARK  6 active torsions:
REMARK  status: ('A' for Active; 'I' for Inactive)
REMARK    1  A    between atoms: C6_9  and  S1_10 
REMARK    2  A    between atoms: S1_10  and  N3_13 
REMARK    3  A    between atoms: N3_13  and  N4_15 
REMARK       I    between atoms: N4_15  and  C7_17 
REMARK       I    between atoms: C7_17  and  N5_19 
REMARK    4  A    between atoms: N5_19  and  C8_21 
REMARK    5  A    between atoms: C8_21  and  C9_22 
REMARK    6  A    between atoms: C11_30  and  N9_31 
ROOT
HETATM    1  N4  UNL     1       0.524   8.236  83.349  1.00  0.00    -0.244 N 
ATOM      2  H4  UNL     1       1.293   8.292  84.015  1.00  0.00     0.192 HD
HETATM    3  C7  UNL     1      -0.432   7.211  83.527  1.00  0.00     0.335 C 
HETATM    4  O2  UNL     1      -1.367   7.170  82.685  1.00  0.00    -0.246 OA
HETATM    5  N5  UNL     1      -0.345   6.276  84.594  1.00  0.00    -0.335 N 
ATOM      6  H5  UNL     1       0.438   6.360  85.243  1.00  0.00     0.164 HD
ENDROOT
BRANCH   5   7
HETATM    7  C8  UNL     1      -1.299   5.215  84.814  1.00  0.00     0.203 C 
BRANCH   7   8
HETATM    8  C9  UNL     1      -1.019   3.992  84.029  1.00  0.00     0.133 A 
HETATM    9  N6  UNL     1      -1.201   3.933  82.694  1.00  0.00    -0.262 N 
HETATM   10  N7  UNL     1      -0.872   2.738  82.259  1.00  0.00    -0.029 N 
ATOM     11  H6  UNL     1      -1.542   4.699  82.112  1.00  0.00     0.189 HD
HETATM   12  C10 UNL     1      -0.893   2.229  81.012  1.00  0.00     0.374 A 
HETATM   13  C12 UNL     1      -0.474   2.018  83.315  1.00  0.00     0.725 A 
HETATM   14  O3  UNL     1      -1.271   2.939  80.060  1.00  0.00    -0.244 OA
HETATM   15  N8  UNL     1      -0.502   0.956  80.816  1.00  0.00    -0.139 N 
HETATM   16  C11 UNL     1      -0.097   0.212  81.860  1.00  0.00     0.694 A 
ATOM     17  H8  UNL     1      -0.512   0.557  79.878  1.00  0.00     0.189 HD
HETATM   18  N10 UNL     1      -0.087   0.749  83.107  1.00  0.00    -0.020 N 
ATOM     19  H10 UNL     1       0.220   0.180  83.897  1.00  0.00     0.203 HD
HETATM   20  N11 UNL     1      -0.565   2.795  84.418  1.00  0.00    -0.171 N 
HETATM   21  C13 UNL     1      -0.240   2.445  85.783  1.00  0.00     0.177 C 
BRANCH  16  22
HETATM   22  N9  UNL     1       0.270  -1.005  81.641  1.00  0.00    -0.234 N 
ATOM     23  H92 UNL     1      -0.283  -1.638  81.063  1.00  0.00     0.174 HD
ATOM     24  H91 UNL     1       1.141  -1.332  82.060  1.00  0.00     0.174 HD
ENDBRANCH  16  22
ENDBRANCH   7   8
ENDBRANCH   5   7
BRANCH   1  25
HETATM   25  N3  UNL     1       0.482   9.170  82.323  1.00  0.00    -0.243 N 
ATOM     26  H3  UNL     1       0.011  10.072  82.396  1.00  0.00     0.198 HD
BRANCH  25  27
HETATM   27  S1  UNL     1       1.314   8.638  80.914  1.00  0.00     0.140 S 
HETATM   28  O1  UNL     1       0.291   8.058  79.982  1.00  0.00    -0.231 OA
HETATM   29  S2  UNL     1       2.075   9.919  80.093  1.00  0.00     0.036 SA
BRANCH  27  30
HETATM   30  C6  UNL     1       2.475   7.424  81.388  1.00  0.00     0.098 A 
HETATM   31  C2  UNL     1       3.627   7.583  82.120  1.00  0.00     0.045 A 
HETATM   32  C1  UNL     1       4.157   8.834  82.688  1.00  0.00     0.071 C 
HETATM   33  N1  UNL     1       4.204   6.367  82.235  1.00  0.00    -0.302 N 
HETATM   34  N2  UNL     1       3.482   5.453  81.618  1.00  0.00    -0.299 N 
ATOM     35  H1  UNL     1       5.076   6.182  82.730  1.00  0.00     0.186 HD
HETATM   36  C3  UNL     1       3.726   4.035  81.490  1.00  0.00     0.177 C 
HETATM   37  C4  UNL     1       2.406   6.077  81.085  1.00  0.00     0.047 A 
HETATM   38  C5  UNL     1       1.337   5.433  80.312  1.00  0.00     0.071 C 
ENDBRANCH  27  30
ENDBRANCH  25  27
ENDBRANCH   1  25
TORSDOF 6
ENDMDL
