MODEL 1
REMARK VINA RESULT: -7.169398052      0.000      0.000
REMARK  9 active torsions:
REMARK  status: ('A' for Active; 'I' for Inactive)
REMARK    1  A    between atoms: C3_3  and  N1_4 
REMARK    2  A    between atoms: C7_10  and  C8_11 
REMARK    3  A    between atoms: N3_15  and  N4_16 
REMARK    4  A    between atoms: N4_16  and  C11_18 
REMARK    5  A    between atoms: C13_23  and  C14_24 
REMARK       I    between atoms: C14_24  and  N6_26 
REMARK    6  A    between atoms: N6_26  and  N7_28 
REMARK    7  A    between atoms: C15_31  and  O4_32 
REMARK    8  A    between atoms: C16_34  and  N8_35 
REMARK    9  A    between atoms: C18_41  and  O6_42 
ROOT
HETATM    1  N4  UNL     1      -0.045   4.916  80.609  1.00  0.00    -0.274 N 
ATOM      2  H4  UNL     1      -0.883   5.223  80.116  1.00  0.00     0.189 HD
ENDROOT
BRANCH   1   3
HETATM    3  N3  UNL     1       1.238   5.220  80.091  1.00  0.00    -0.180 N 
HETATM    4  C10 UNL     1       2.456   5.733  80.578  1.00  0.00     0.285 A 
HETATM    5  C9  UNL     1       3.083   5.634  79.251  1.00  0.00     0.105 A 
HETATM    6  O1  UNL     1       2.879   6.133  81.707  1.00  0.00    -0.265 OA
HETATM    7  C8  UNL     1       4.299   5.905  78.793  1.00  0.00     0.038 C 
HETATM    8  C17 UNL     1       1.812   5.109  78.791  1.00  0.00     0.285 A 
HETATM    9  O5  UNL     1       1.341   4.694  77.671  1.00  0.00    -0.265 OA
BRANCH   7  10
HETATM   10  C7  UNL     1       4.662   5.717  77.410  1.00  0.00     0.014 A 
HETATM   11  C6  UNL     1       4.204   6.597  76.461  1.00  0.00     0.104 A 
HETATM   12  N2  UNL     1       4.542   6.383  75.172  1.00  0.00    -0.351 N 
HETATM   13  C3  UNL     1       5.313   5.335  74.789  1.00  0.00     0.111 A 
ATOM     14  H2  UNL     1       4.205   7.032  74.460  1.00  0.00     0.166 HD
HETATM   15  C2  UNL     1       5.771   4.457  75.729  1.00  0.00     0.016 A 
HETATM   16  C1  UNL     1       6.617   3.325  75.259  1.00  0.00     0.055 C 
HETATM   17  C18 UNL     1       5.458   4.627  77.050  1.00  0.00     0.086 A 
BRANCH  13  18
HETATM   18  N1  UNL     1       5.575   5.243  73.407  1.00  0.00    -0.376 N 
HETATM   19  C4  UNL     1       6.601   6.051  72.815  1.00  0.00     0.150 C 
HETATM   20  C5  UNL     1       4.810   4.339  72.596  1.00  0.00     0.150 C 
ENDBRANCH  13  18
BRANCH  17  21
HETATM   21  O6  UNL     1       5.922   3.738  78.005  1.00  0.00    -0.359 OA
ATOM     22  H6  UNL     1       5.349   3.069  78.363  1.00  0.00     0.217 HD
ENDBRANCH  17  21
ENDBRANCH   7  10
ENDBRANCH   1   3
BRANCH   1  23
HETATM   23  C11 UNL     1      -0.160   4.168  81.841  1.00  0.00     0.137 A 
HETATM   24  N5  UNL     1      -0.267   2.896  81.750  1.00  0.00    -0.309 N 
HETATM   25  C12 UNL     1      -0.387   2.024  82.870  1.00  0.00     0.265 A 
ATOM     26  H5  UNL     1      -0.264   2.481  80.818  1.00  0.00     0.170 HD
HETATM   27  O2  UNL     1      -0.488   0.789  82.722  1.00  0.00    -0.267 OA
HETATM   28  C13 UNL     1      -0.392   2.595  84.208  1.00  0.00     0.133 A 
HETATM   29  C15 UNL     1      -0.281   3.916  84.284  1.00  0.00     0.102 A 
HETATM   30  C16 UNL     1      -0.156   4.833  83.144  1.00  0.00     0.309 A 
BRANCH  28  31
HETATM   31  C14 UNL     1      -0.509   1.827  85.429  1.00  0.00     0.277 C 
HETATM   32  O3  UNL     1       0.579   1.342  85.930  1.00  0.00    -0.266 OA
HETATM   33  N6  UNL     1      -1.667   1.528  86.159  1.00  0.00    -0.272 N 
ATOM     34  H6  UNL     1      -2.564   1.877  85.823  1.00  0.00     0.189 HD
BRANCH  33  35
HETATM   35  N7  UNL     1      -1.636   0.758  87.349  1.00  0.00    -0.342 N 
ATOM     36  H72 UNL     1      -2.380   0.907  88.031  1.00  0.00     0.176 HD
ATOM     37  H71 UNL     1      -0.905   0.072  87.537  1.00  0.00     0.176 HD
ENDBRANCH  33  35
ENDBRANCH  28  31
BRANCH  29  38
HETATM   38  O4  UNL     1      -0.286   4.475  85.578  1.00  0.00    -0.361 OA
ATOM     39  H4  UNL     1      -0.900   4.103  86.200  1.00  0.00     0.217 HD
ENDBRANCH  29  38
BRANCH  30  40
HETATM   40  N8  UNL     1      -1.252   5.792  83.268  1.00  0.00    -0.062 N 
ATOM     41  H83 UNL     1      -0.910   6.711  83.548  1.00  0.00     0.275 HD
ATOM     42  H82 UNL     1      -1.637   6.035  82.355  1.00  0.00     0.275 HD
ATOM     43  H81 UNL     1      -1.979   5.457  83.901  1.00  0.00     0.275 HD
ENDBRANCH  30  40
ENDBRANCH   1  23
TORSDOF 9
ENDMDL
MODEL 2
REMARK VINA RESULT: -6.941013123      6.074      7.484
REMARK  9 active torsions:
REMARK  status: ('A' for Active; 'I' for Inactive)
REMARK    1  A    between atoms: C3_3  and  N1_4 
REMARK    2  A    between atoms: C7_10  and  C8_11 
REMARK    3  A    between atoms: N3_15  and  N4_16 
REMARK    4  A    between atoms: N4_16  and  C11_18 
REMARK    5  A    between atoms: C13_23  and  C14_24 
REMARK       I    between atoms: C14_24  and  N6_26 
REMARK    6  A    between atoms: N6_26  and  N7_28 
REMARK    7  A    between atoms: C15_31  and  O4_32 
REMARK    8  A    between atoms: C16_34  and  N8_35 
REMARK    9  A    between atoms: C18_41  and  O6_42 
ROOT
HETATM    1  N4  UNL     1      -1.678   5.799  85.276  1.00  0.00    -0.274 N 
ATOM      2  H4  UNL     1      -2.083   5.890  86.208  1.00  0.00     0.189 HD
ENDROOT
BRANCH   1   3
HETATM    3  N3  UNL     1      -1.487   6.946  84.467  1.00  0.00    -0.180 N 
HETATM    4  C10 UNL     1      -2.155   7.587  83.406  1.00  0.00     0.285 A 
HETATM    5  C9  UNL     1      -1.130   8.641  83.334  1.00  0.00     0.105 A 
HETATM    6  O1  UNL     1      -3.219   7.370  82.747  1.00  0.00    -0.265 OA
HETATM    7  C8  UNL     1      -0.985   9.723  82.580  1.00  0.00     0.038 C 
HETATM    8  C17 UNL     1      -0.475   7.950  84.428  1.00  0.00     0.285 A 
HETATM    9  O5  UNL     1       0.591   8.130  85.121  1.00  0.00    -0.265 OA
BRANCH   7  10
HETATM   10  C7  UNL     1       0.145  10.610  82.714  1.00  0.00     0.014 A 
HETATM   11  C6  UNL     1       0.164  11.541  83.723  1.00  0.00     0.104 A 
HETATM   12  N2  UNL     1       1.225  12.371  83.809  1.00  0.00    -0.351 N 
HETATM   13  C3  UNL     1       2.263  12.313  82.938  1.00  0.00     0.111 A 
ATOM     14  H2  UNL     1       1.247  13.066  84.555  1.00  0.00     0.166 HD
HETATM   15  C2  UNL     1       2.250  11.388  81.934  1.00  0.00     0.016 A 
HETATM   16  C1  UNL     1       3.414  11.363  81.007  1.00  0.00     0.055 C 
HETATM   17  C18 UNL     1       1.199  10.523  81.800  1.00  0.00     0.086 A 
BRANCH  13  18
HETATM   18  N1  UNL     1       3.294  13.250  83.156  1.00  0.00    -0.376 N 
HETATM   19  C4  UNL     1       4.399  12.917  84.008  1.00  0.00     0.150 C 
HETATM   20  C5  UNL     1       3.234  14.536  82.522  1.00  0.00     0.150 C 
ENDBRANCH  13  18
BRANCH  17  21
HETATM   21  O6  UNL     1       1.183   9.585  80.782  1.00  0.00    -0.359 OA
ATOM     22  H6  UNL     1       0.653   8.799  80.856  1.00  0.00     0.217 HD
ENDBRANCH  17  21
ENDBRANCH   7  10
ENDBRANCH   1   3
BRANCH   1  23
HETATM   23  C11 UNL     1      -1.297   4.498  84.773  1.00  0.00     0.137 A 
HETATM   24  N5  UNL     1      -1.480   4.271  83.527  1.00  0.00    -0.309 N 
HETATM   25  C12 UNL     1      -1.155   3.042  82.884  1.00  0.00     0.265 A 
ATOM     26  H5  UNL     1      -1.882   5.017  82.959  1.00  0.00     0.170 HD
HETATM   27  O2  UNL     1      -1.355   2.877  81.663  1.00  0.00    -0.267 OA
HETATM   28  C13 UNL     1      -0.580   1.966  83.676  1.00  0.00     0.133 A 
HETATM   29  C15 UNL     1      -0.398   2.218  84.967  1.00  0.00     0.102 A 
HETATM   30  C16 UNL     1      -0.725   3.476  85.649  1.00  0.00     0.309 A 
BRANCH  28  31
HETATM   31  C14 UNL     1      -0.206   0.670  83.152  1.00  0.00     0.277 C 
HETATM   32  O3  UNL     1      -0.211  -0.326  83.977  1.00  0.00    -0.266 OA
HETATM   33  N6  UNL     1       0.170   0.337  81.845  1.00  0.00    -0.272 N 
ATOM     34  H6  UNL     1       0.197   1.073  81.139  1.00  0.00     0.189 HD
BRANCH  33  35
HETATM   35  N7  UNL     1       0.513  -0.986  81.466  1.00  0.00    -0.342 N 
ATOM     36  H72 UNL     1       1.501  -1.197  81.319  1.00  0.00     0.176 HD
ATOM     37  H71 UNL     1      -0.187  -1.717  81.339  1.00  0.00     0.176 HD
ENDBRANCH  33  35
ENDBRANCH  28  31
BRANCH  29  38
HETATM   38  O4  UNL     1       0.159   1.178  85.739  1.00  0.00    -0.361 OA
ATOM     39  H4  UNL     1       1.061   0.946  85.552  1.00  0.00     0.217 HD
ENDBRANCH  29  38
BRANCH  30  40
HETATM   40  N8  UNL     1      -1.632   3.126  86.740  1.00  0.00    -0.062 N 
ATOM     41  H83 UNL     1      -1.920   3.953  87.263  1.00  0.00     0.275 HD
ATOM     42  H82 UNL     1      -2.543   2.835  86.386  1.00  0.00     0.275 HD
ATOM     43  H81 UNL     1      -1.230   2.418  87.356  1.00  0.00     0.275 HD
ENDBRANCH  30  40
ENDBRANCH   1  23
TORSDOF 9
ENDMDL
MODEL 3
REMARK VINA RESULT: -6.901497597      5.704      7.399
REMARK  9 active torsions:
REMARK  status: ('A' for Active; 'I' for Inactive)
REMARK    1  A    between atoms: C3_3  and  N1_4 
REMARK    2  A    between atoms: C7_10  and  C8_11 
REMARK    3  A    between atoms: N3_15  and  N4_16 
REMARK    4  A    between atoms: N4_16  and  C11_18 
REMARK    5  A    between atoms: C13_23  and  C14_24 
REMARK       I    between atoms: C14_24  and  N6_26 
REMARK    6  A    between atoms: N6_26  and  N7_28 
REMARK    7  A    between atoms: C15_31  and  O4_32 
REMARK    8  A    between atoms: C16_34  and  N8_35 
REMARK    9  A    between atoms: C18_41  and  O6_42 
ROOT
HETATM    1  N4  UNL     1      -0.551   6.312  81.856  1.00  0.00    -0.274 N 
ATOM      2  H4  UNL     1      -0.590   6.139  80.852  1.00  0.00     0.189 HD
ENDROOT
BRANCH   1   3
HETATM    3  N3  UNL     1      -0.451   7.638  82.346  1.00  0.00    -0.180 N 
HETATM    4  C10 UNL     1      -1.227   8.512  83.133  1.00  0.00     0.285 A 
HETATM    5  C9  UNL     1      -0.222   9.581  83.020  1.00  0.00     0.105 A 
HETATM    6  O1  UNL     1      -2.351   8.439  83.720  1.00  0.00    -0.265 OA
HETATM    7  C8  UNL     1      -0.140  10.812  83.510  1.00  0.00     0.038 C 
HETATM    8  C17 UNL     1       0.545   8.649  82.216  1.00  0.00     0.285 A 
HETATM    9  O5  UNL     1       1.675   8.676  81.607  1.00  0.00    -0.265 OA
BRANCH   7  10
HETATM   10  C7  UNL     1       0.981  11.676  83.236  1.00  0.00     0.014 A 
HETATM   11  C6  UNL     1       0.836  12.723  82.359  1.00  0.00     0.104 A 
HETATM   12  N2  UNL     1       1.910  13.501  82.106  1.00  0.00    -0.351 N 
HETATM   13  C3  UNL     1       3.116  13.283  82.687  1.00  0.00     0.111 A 
ATOM     14  H2  UNL     1       1.810  14.281  81.456  1.00  0.00     0.166 HD
HETATM   15  C2  UNL     1       3.266  12.245  83.561  1.00  0.00     0.016 A 
HETATM   16  C1  UNL     1       4.608  12.050  84.174  1.00  0.00     0.055 C 
HETATM   17  C18 UNL     1       2.211  11.424  83.852  1.00  0.00     0.086 A 
BRANCH  13  18
HETATM   18  N1  UNL     1       4.140  14.179  82.319  1.00  0.00    -0.376 N 
HETATM   19  C4  UNL     1       4.977  13.889  81.191  1.00  0.00     0.150 C 
HETATM   20  C5  UNL     1       4.342  15.381  83.077  1.00  0.00     0.150 C 
ENDBRANCH  13  18
BRANCH  17  21
HETATM   21  O6  UNL     1       2.360  10.370  84.737  1.00  0.00    -0.359 OA
ATOM     22  H6  UNL     1       2.805  10.494  85.567  1.00  0.00     0.217 HD
ENDBRANCH  17  21
ENDBRANCH   7  10
ENDBRANCH   1   3
BRANCH   1  23
HETATM   23  C11 UNL     1      -0.597   5.207  82.787  1.00  0.00     0.137 A 
HETATM   24  N5  UNL     1      -1.126   5.422  83.932  1.00  0.00    -0.309 N 
HETATM   25  C12 UNL     1      -1.246   4.436  84.953  1.00  0.00     0.265 A 
ATOM     26  H5  UNL     1      -1.484   6.358  84.125  1.00  0.00     0.170 HD
HETATM   27  O2  UNL     1      -1.771   4.703  86.053  1.00  0.00    -0.267 OA
HETATM   28  C13 UNL     1      -0.742   3.095  84.698  1.00  0.00     0.133 A 
HETATM   29  C15 UNL     1      -0.196   2.890  83.505  1.00  0.00     0.102 A 
HETATM   30  C16 UNL     1      -0.063   3.890  82.439  1.00  0.00     0.309 A 
BRANCH  28  31
HETATM   31  C14 UNL     1      -0.797   2.003  85.645  1.00  0.00     0.277 C 
HETATM   32  O3  UNL     1       0.298   1.353  85.864  1.00  0.00    -0.266 OA
HETATM   33  N6  UNL     1      -1.901   1.541  86.373  1.00  0.00    -0.272 N 
ATOM     34  H6  UNL     1      -2.801   2.005  86.251  1.00  0.00     0.189 HD
BRANCH  33  35
HETATM   35  N7  UNL     1      -1.812   0.450  87.276  1.00  0.00    -0.342 N 
ATOM     36  H72 UNL     1      -1.825  -0.492  86.885  1.00  0.00     0.176 HD
ATOM     37  H71 UNL     1      -1.738   0.580  88.285  1.00  0.00     0.176 HD
ENDBRANCH  33  35
ENDBRANCH  28  31
BRANCH  29  38
HETATM   38  O4  UNL     1       0.294   1.592  83.252  1.00  0.00    -0.361 OA
ATOM     39  H4  UNL     1       1.030   1.526  82.656  1.00  0.00     0.217 HD
ENDBRANCH  29  38
BRANCH  30  40
HETATM   40  N8  UNL     1       1.361   3.951  82.111  1.00  0.00    -0.062 N 
ATOM     41  H83 UNL     1       1.535   4.593  81.338  1.00  0.00     0.275 HD
ATOM     42  H82 UNL     1       1.889   4.431  82.840  1.00  0.00     0.275 HD
ATOM     43  H81 UNL     1       1.746   3.026  81.921  1.00  0.00     0.275 HD
ENDBRANCH  30  40
ENDBRANCH   1  23
TORSDOF 9
ENDMDL
MODEL 4
REMARK VINA RESULT: -6.802587770      5.357      7.152
REMARK  9 active torsions:
REMARK  status: ('A' for Active; 'I' for Inactive)
REMARK    1  A    between atoms: C3_3  and  N1_4 
REMARK    2  A    between atoms: C7_10  and  C8_11 
REMARK    3  A    between atoms: N3_15  and  N4_16 
REMARK    4  A    between atoms: N4_16  and  C11_18 
REMARK    5  A    between atoms: C13_23  and  C14_24 
REMARK       I    between atoms: C14_24  and  N6_26 
REMARK    6  A    between atoms: N6_26  and  N7_28 
REMARK    7  A    between atoms: C15_31  and  O4_32 
REMARK    8  A    between atoms: C16_34  and  N8_35 
REMARK    9  A    between atoms: C18_41  and  O6_42 
ROOT
HETATM    1  N4  UNL     1      -0.191   5.588  81.158  1.00  0.00    -0.274 N 
ATOM      2  H4  UNL     1       0.109   5.273  80.236  1.00  0.00     0.189 HD
ENDROOT
BRANCH   1   3
HETATM    3  N3  UNL     1      -0.484   6.956  81.382  1.00  0.00    -0.180 N 
HETATM    4  C10 UNL     1      -1.593   7.724  81.789  1.00  0.00     0.285 A 
HETATM    5  C9  UNL     1      -0.824   8.974  81.687  1.00  0.00     0.105 A 
HETATM    6  O1  UNL     1      -2.793   7.470  82.118  1.00  0.00    -0.265 OA
HETATM    7  C8  UNL     1      -1.116  10.247  81.926  1.00  0.00     0.038 C 
HETATM    8  C17 UNL     1       0.292   8.147  81.273  1.00  0.00     0.285 A 
HETATM    9  O5  UNL     1       1.513   8.354  80.933  1.00  0.00    -0.265 OA
BRANCH   7  10
HETATM   10  C7  UNL     1      -0.156  11.306  81.736  1.00  0.00     0.014 A 
HETATM   11  C6  UNL     1      -0.121  11.990  80.546  1.00  0.00     0.104 A 
HETATM   12  N2  UNL     1       0.804  12.961  80.390  1.00  0.00    -0.351 N 
HETATM   13  C3  UNL     1       1.691  13.279  81.365  1.00  0.00     0.111 A 
ATOM     14  H2  UNL     1       0.836  13.473  79.509  1.00  0.00     0.166 HD
HETATM   15  C2  UNL     1       1.661  12.603  82.551  1.00  0.00     0.016 A 
HETATM   16  C1  UNL     1       2.653  12.993  83.590  1.00  0.00     0.055 C 
HETATM   17  C18 UNL     1       0.745  11.610  82.762  1.00  0.00     0.086 A 
BRANCH  13  18
HETATM   18  N1  UNL     1       2.597  14.312  81.051  1.00  0.00    -0.376 N 
HETATM   19  C4  UNL     1       3.858  14.001  80.442  1.00  0.00     0.150 C 
HETATM   20  C5  UNL     1       2.253  15.675  81.342  1.00  0.00     0.150 C 
ENDBRANCH  13  18
BRANCH  17  21
HETATM   21  O6  UNL     1       0.712  10.923  83.963  1.00  0.00    -0.359 OA
ATOM     22  H6  UNL     1       0.168  10.150  84.065  1.00  0.00     0.217 HD
ENDBRANCH  17  21
ENDBRANCH   7  10
ENDBRANCH   1   3
BRANCH   1  23
HETATM   23  C11 UNL     1      -0.319   4.642  82.244  1.00  0.00     0.137 A 
HETATM   24  N5  UNL     1      -0.800   5.073  83.348  1.00  0.00    -0.309 N 
HETATM   25  C12 UNL     1      -0.988   4.265  84.506  1.00  0.00     0.265 A 
ATOM     26  H5  UNL     1      -1.065   6.057  83.402  1.00  0.00     0.170 HD
HETATM   27  O2  UNL     1      -1.462   4.740  85.558  1.00  0.00    -0.267 OA
HETATM   28  C13 UNL     1      -0.616   2.859  84.449  1.00  0.00     0.133 A 
HETATM   29  C15 UNL     1      -0.119   2.429  83.296  1.00  0.00     0.102 A 
HETATM   30  C16 UNL     1       0.084   3.244  82.092  1.00  0.00     0.309 A 
BRANCH  28  31
HETATM   31  C14 UNL     1      -0.752   1.929  85.548  1.00  0.00     0.277 C 
HETATM   32  O3  UNL     1       0.312   1.299  85.926  1.00  0.00    -0.266 OA
HETATM   33  N6  UNL     1      -1.905   1.607  86.277  1.00  0.00    -0.272 N 
ATOM     34  H6  UNL     1      -2.783   2.065  86.035  1.00  0.00     0.189 HD
BRANCH  33  35
HETATM   35  N7  UNL     1      -1.895   0.669  87.340  1.00  0.00    -0.342 N 
ATOM     36  H72 UNL     1      -2.791   0.401  87.746  1.00  0.00     0.176 HD
ATOM     37  H71 UNL     1      -1.032   0.262  87.702  1.00  0.00     0.176 HD
ENDBRANCH  33  35
ENDBRANCH  28  31
BRANCH  29  38
HETATM   38  O4  UNL     1       0.243   1.067  83.235  1.00  0.00    -0.361 OA
ATOM     39  H4  UNL     1       0.957   0.844  82.649  1.00  0.00     0.217 HD
ENDBRANCH  29  38
BRANCH  30  40
HETATM   40  N8  UNL     1       1.499   3.120  81.747  1.00  0.00    -0.062 N 
ATOM     41  H83 UNL     1       1.781   3.835  81.076  1.00  0.00     0.275 HD
ATOM     42  H82 UNL     1       2.096   3.388  82.529  1.00  0.00     0.275 HD
ATOM     43  H81 UNL     1       1.726   2.184  81.409  1.00  0.00     0.275 HD
ENDBRANCH  30  40
ENDBRANCH   1  23
TORSDOF 9
ENDMDL
MODEL 5
REMARK VINA RESULT: -6.802213365      0.666      1.673
REMARK  9 active torsions:
REMARK  status: ('A' for Active; 'I' for Inactive)
REMARK    1  A    between atoms: C3_3  and  N1_4 
REMARK    2  A    between atoms: C7_10  and  C8_11 
REMARK    3  A    between atoms: N3_15  and  N4_16 
REMARK    4  A    between atoms: N4_16  and  C11_18 
REMARK    5  A    between atoms: C13_23  and  C14_24 
REMARK       I    between atoms: C14_24  and  N6_26 
REMARK    6  A    between atoms: N6_26  and  N7_28 
REMARK    7  A    between atoms: C15_31  and  O4_32 
REMARK    8  A    between atoms: C16_34  and  N8_35 
REMARK    9  A    between atoms: C18_41  and  O6_42 
ROOT
HETATM    1  N4  UNL     1      -0.113   5.460  81.095  1.00  0.00    -0.274 N 
ATOM      2  H4  UNL     1      -0.924   5.944  80.709  1.00  0.00     0.189 HD
ENDROOT
BRANCH   1   3
HETATM    3  N3  UNL     1       1.174   5.680  80.545  1.00  0.00    -0.180 N 
HETATM    4  C10 UNL     1       2.416   6.177  80.986  1.00  0.00     0.285 A 
HETATM    5  C9  UNL     1       3.023   5.966  79.662  1.00  0.00     0.105 A 
HETATM    6  O1  UNL     1       2.867   6.634  82.082  1.00  0.00    -0.265 OA
HETATM    7  C8  UNL     1       4.243   6.159  79.176  1.00  0.00     0.038 C 
HETATM    8  C17 UNL     1       1.728   5.461  79.250  1.00  0.00     0.285 A 
HETATM    9  O5  UNL     1       1.228   4.992  78.164  1.00  0.00    -0.265 OA
BRANCH   7  10
HETATM   10  C7  UNL     1       4.582   5.867  77.805  1.00  0.00     0.014 A 
HETATM   11  C6  UNL     1       4.091   6.662  76.799  1.00  0.00     0.104 A 
HETATM   12  N2  UNL     1       4.408   6.350  75.524  1.00  0.00    -0.351 N 
HETATM   13  C3  UNL     1       5.188   5.286  75.210  1.00  0.00     0.111 A 
ATOM     14  H2  UNL     1       4.047   6.936  74.770  1.00  0.00     0.166 HD
HETATM   15  C2  UNL     1       5.679   4.493  76.207  1.00  0.00     0.016 A 
HETATM   16  C1  UNL     1       6.533   3.340  75.811  1.00  0.00     0.055 C 
HETATM   17  C18 UNL     1       5.389   4.763  77.516  1.00  0.00     0.086 A 
BRANCH  13  18
HETATM   18  N1  UNL     1       5.424   5.089  73.835  1.00  0.00    -0.376 N 
HETATM   19  C4  UNL     1       6.617   5.605  73.229  1.00  0.00     0.150 C 
HETATM   20  C5  UNL     1       4.467   4.369  73.043  1.00  0.00     0.150 C 
ENDBRANCH  13  18
BRANCH  17  21
HETATM   21  O6  UNL     1       5.885   3.960  78.529  1.00  0.00    -0.359 OA
ATOM     22  H6  UNL     1       5.405   3.193  78.818  1.00  0.00     0.217 HD
ENDBRANCH  17  21
ENDBRANCH   7  10
ENDBRANCH   1   3
BRANCH   1  23
HETATM   23  C11 UNL     1      -0.272   4.546  82.204  1.00  0.00     0.137 A 
HETATM   24  N5  UNL     1      -0.698   5.029  83.309  1.00  0.00    -0.309 N 
HETATM   25  C12 UNL     1      -0.907   4.258  84.489  1.00  0.00     0.265 A 
ATOM     26  H5  UNL     1      -0.901   6.028  83.347  1.00  0.00     0.170 HD
HETATM   27  O2  UNL     1      -1.324   4.784  85.541  1.00  0.00    -0.267 OA
HETATM   28  C13 UNL     1      -0.623   2.831  84.455  1.00  0.00     0.133 A 
HETATM   29  C15 UNL     1      -0.182   2.347  83.300  1.00  0.00     0.102 A 
HETATM   30  C16 UNL     1       0.040   3.123  82.074  1.00  0.00     0.309 A 
BRANCH  28  31
HETATM   31  C14 UNL     1      -0.789   1.935  85.578  1.00  0.00     0.277 C 
HETATM   32  O3  UNL     1       0.255   1.283  85.974  1.00  0.00    -0.266 OA
HETATM   33  N6  UNL     1      -1.951   1.667  86.312  1.00  0.00    -0.272 N 
ATOM     34  H6  UNL     1      -2.815   2.145  86.056  1.00  0.00     0.189 HD
BRANCH  33  35
HETATM   35  N7  UNL     1      -1.970   0.757  87.399  1.00  0.00    -0.342 N 
ATOM     36  H72 UNL     1      -1.718   1.112  88.321  1.00  0.00     0.176 HD
ATOM     37  H71 UNL     1      -2.225  -0.225  87.285  1.00  0.00     0.176 HD
ENDBRANCH  33  35
ENDBRANCH  28  31
BRANCH  29  38
HETATM   38  O4  UNL     1       0.095   0.965  83.261  1.00  0.00    -0.361 OA
ATOM     39  H4  UNL     1      -0.631   0.393  83.041  1.00  0.00     0.217 HD
ENDBRANCH  29  38
BRANCH  30  40
HETATM   40  N8  UNL     1       1.436   2.905  81.698  1.00  0.00    -0.062 N 
ATOM     41  H83 UNL     1       2.072   3.266  82.409  1.00  0.00     0.275 HD
ATOM     42  H82 UNL     1       1.683   1.916  81.749  1.00  0.00     0.275 HD
ATOM     43  H81 UNL     1       1.647   3.294  80.779  1.00  0.00     0.275 HD
ENDBRANCH  30  40
ENDBRANCH   1  23
TORSDOF 9
ENDMDL
