MODEL 1
REMARK VINA RESULT: -6.473214264      0.000      0.000
REMARK  8 active torsions:
REMARK  status: ('A' for Active; 'I' for Inactive)
REMARK    1  A    between atoms: C2_2  and  S1_3 
REMARK    2  A    between atoms: S1_3  and  N1_5 
REMARK    3  A    between atoms: S1_3  and  C3_10 
REMARK    4  A    between atoms: N1_5  and  N2_7 
REMARK    5  A    between atoms: C4_13  and  N4_14 
REMARK    6  A    between atoms: C5_16  and  C6_17 
REMARK    7  A    between atoms: C10_25  and  N7_26 
REMARK    8  A    between atoms: C11_31  and  N9_32 
ROOT
HETATM    1  C3  UNL     1       3.007   5.542  81.955  1.00  0.00     0.188 A 
HETATM    2  N3  UNL     1       2.011   4.920  82.566  1.00  0.00    -0.319 N 
ATOM      3  H3  UNL     1       1.952   3.912  82.426  1.00  0.00     0.169 HD
HETATM    4  C4  UNL     1       1.069   5.471  83.349  1.00  0.00     0.125 A 
HETATM    5  C9  UNL     1       1.199   6.869  83.505  1.00  0.00     0.097 A 
HETATM    6  C10 UNL     1       0.301   7.583  84.286  1.00  0.00     0.132 A 
HETATM    7  N8  UNL     1       0.422   8.924  84.440  1.00  0.00    -0.176 N 
ATOM      8  H8  UNL     1      -0.247   9.431  85.019  1.00  0.00     0.186 HD
HETATM    9  C11 UNL     1       1.413   9.582  83.840  1.00  0.00     0.683 A 
HETATM   10  N11 UNL     1       2.288   8.883  83.078  1.00  0.00    -0.175 N 
ATOM     11  H11 UNL     1       3.045   9.392  82.621  1.00  0.00     0.186 HD
HETATM   12  C16 UNL     1       2.212   7.548  82.891  1.00  0.00     0.142 A 
HETATM   13  N12 UNL     1       3.107   6.887  82.124  1.00  0.00    -0.314 N 
HETATM   14  C17 UNL     1       4.150   7.644  81.502  1.00  0.00     0.160 C 
ENDROOT
BRANCH   4  15
HETATM   15  N4  UNL     1       0.130   4.919  83.933  1.00  0.00    -0.348 N 
HETATM   16  C5  UNL     1      -0.559   3.766  84.156  1.00  0.00     0.137 C 
ATOM     17  H4  UNL     1      -0.328   5.641  84.490  1.00  0.00     0.167 HD
BRANCH  16  18
HETATM   18  C6  UNL     1      -0.455   2.629  83.225  1.00  0.00     0.112 A 
HETATM   19  N5  UNL     1      -0.028   1.437  83.404  1.00  0.00    -0.374 N 
HETATM   20  C7  UNL     1      -0.104   0.636  82.200  1.00  0.00     0.141 A 
ATOM     21  H5  UNL     1       0.326   1.089  84.296  1.00  0.00     0.161 HD
HETATM   22  C8  UNL     1      -0.702   1.547  81.145  1.00  0.00     0.141 A 
HETATM   23  N6  UNL     1      -0.869   2.781  81.845  1.00  0.00    -0.374 N 
ATOM     24  H6  UNL     1      -1.227   3.643  81.434  1.00  0.00     0.161 HD
ENDBRANCH  16  18
ENDBRANCH   4  15
BRANCH   1  25
HETATM   25  S1  UNL     1       4.185   4.754  80.950  1.00  0.00     0.101 S 
HETATM   26  O1  UNL     1       4.107   3.257  81.065  1.00  0.00    -0.240 OA
BRANCH  25  27
HETATM   27  C2  UNL     1       4.057   5.294  79.253  1.00  0.00     0.122 C 
HETATM   28  C1  UNL     1       2.584   5.507  78.940  1.00  0.00     0.020 C 
ENDBRANCH  25  27
BRANCH  25  29
HETATM   29  N1  UNL     1       5.658   5.135  81.410  1.00  0.00    -0.260 N 
ATOM     30  H1  UNL     1       5.886   5.347  82.382  1.00  0.00     0.196 HD
BRANCH  29  31
HETATM   31  N2  UNL     1       6.617   5.162  80.403  1.00  0.00    -0.338 N 
ATOM     32  H22 UNL     1       7.614   5.184  80.622  1.00  0.00     0.177 HD
ATOM     33  H21 UNL     1       6.258   5.159  79.448  1.00  0.00     0.177 HD
ENDBRANCH  29  31
ENDBRANCH  25  29
ENDBRANCH   1  25
BRANCH   6  34
HETATM   34  N7  UNL     1      -0.652   6.939  84.861  1.00  0.00    -0.384 N 
ATOM     35  H72 UNL     1      -0.695   5.920  84.813  1.00  0.00     0.157 HD
ATOM     36  H71 UNL     1      -1.361   7.473  85.364  1.00  0.00     0.157 HD
ENDBRANCH   6  34
BRANCH   9  37
HETATM   37  N9  UNL     1       1.566  10.984  83.991  1.00  0.00    -0.214 N 
HETATM   38  C12 UNL     1       2.878  11.572  84.316  1.00  0.00     0.160 C 
HETATM   39  C13 UNL     1       2.855  12.927  83.585  1.00  0.00     0.134 C 
HETATM   40  N10 UNL     1       2.099  12.883  82.373  1.00  0.00    -0.418 N 
HETATM   41  C14 UNL     1       0.701  12.629  82.517  1.00  0.00     0.134 C 
ATOM     42  H10 UNL     1       2.532  13.024  81.460  1.00  0.00     0.153 HD
HETATM   43  C15 UNL     1       0.497  11.914  83.847  1.00  0.00     0.160 C 
ENDBRANCH   9  37
TORSDOF 8
ENDMDL
MODEL 2
REMARK VINA RESULT: -6.256670335      3.192      5.442
REMARK  8 active torsions:
REMARK  status: ('A' for Active; 'I' for Inactive)
REMARK    1  A    between atoms: C2_2  and  S1_3 
REMARK    2  A    between atoms: S1_3  and  N1_5 
REMARK    3  A    between atoms: S1_3  and  C3_10 
REMARK    4  A    between atoms: N1_5  and  N2_7 
REMARK    5  A    between atoms: C4_13  and  N4_14 
REMARK    6  A    between atoms: C5_16  and  C6_17 
REMARK    7  A    between atoms: C10_25  and  N7_26 
REMARK    8  A    between atoms: C11_31  and  N9_32 
ROOT
HETATM    1  C3  UNL     1      -0.306   6.700  82.359  1.00  0.00     0.188 A 
HETATM    2  N3  UNL     1      -0.335   5.379  82.418  1.00  0.00    -0.319 N 
ATOM      3  H3  UNL     1      -1.236   4.954  82.637  1.00  0.00     0.169 HD
HETATM    4  C4  UNL     1       0.691   4.534  82.223  1.00  0.00     0.125 A 
HETATM    5  C9  UNL     1       1.913   5.178  81.925  1.00  0.00     0.097 A 
HETATM    6  C10 UNL     1       3.067   4.441  81.696  1.00  0.00     0.132 A 
HETATM    7  N8  UNL     1       4.241   5.053  81.408  1.00  0.00    -0.176 N 
ATOM      8  H8  UNL     1       5.078   4.494  81.242  1.00  0.00     0.186 HD
HETATM    9  C11 UNL     1       4.306   6.382  81.340  1.00  0.00     0.683 A 
HETATM   10  N11 UNL     1       3.179   7.100  81.564  1.00  0.00    -0.175 N 
ATOM     11  H11 UNL     1       3.236   8.117  81.510  1.00  0.00     0.186 HD
HETATM   12  C16 UNL     1       1.985   6.539  81.854  1.00  0.00     0.142 A 
HETATM   13  N12 UNL     1       0.883   7.291  82.070  1.00  0.00    -0.314 N 
HETATM   14  C17 UNL     1       1.011   8.714  81.985  1.00  0.00     0.160 C 
ENDROOT
BRANCH   4  15
HETATM   15  N4  UNL     1       0.697   3.299  82.270  1.00  0.00    -0.348 N 
HETATM   16  C5  UNL     1       0.189   2.175  82.845  1.00  0.00     0.137 C 
ATOM     17  H4  UNL     1       1.376   2.987  81.576  1.00  0.00     0.167 HD
BRANCH  16  18
HETATM   18  C6  UNL     1      -0.494   2.234  84.149  1.00  0.00     0.112 A 
HETATM   19  N5  UNL     1      -1.309   3.095  84.628  1.00  0.00    -0.374 N 
HETATM   20  C7  UNL     1      -1.744   2.759  85.969  1.00  0.00     0.141 A 
ATOM     21  H5  UNL     1      -1.619   3.926  84.123  1.00  0.00     0.161 HD
HETATM   22  C8  UNL     1      -1.054   1.451  86.302  1.00  0.00     0.141 A 
HETATM   23  N6  UNL     1      -0.269   1.197  85.135  1.00  0.00    -0.374 N 
ATOM     24  H6  UNL     1       0.358   0.402  85.013  1.00  0.00     0.161 HD
ENDBRANCH  16  18
ENDBRANCH   4  15
BRANCH   1  25
HETATM   25  S1  UNL     1      -1.683   7.724  82.632  1.00  0.00     0.101 S 
HETATM   26  O1  UNL     1      -2.952   6.930  82.777  1.00  0.00    -0.240 OA
BRANCH  25  27
HETATM   27  C2  UNL     1      -1.421   8.808  84.026  1.00  0.00     0.122 C 
HETATM   28  C1  UNL     1      -0.846   7.977  85.163  1.00  0.00     0.020 C 
ENDBRANCH  25  27
BRANCH  25  29
HETATM   29  N1  UNL     1      -1.925   8.681  81.386  1.00  0.00    -0.260 N 
ATOM     30  H1  UNL     1      -1.876   9.697  81.465  1.00  0.00     0.196 HD
BRANCH  29  31
HETATM   31  N2  UNL     1      -2.209   8.045  80.182  1.00  0.00    -0.338 N 
ATOM     32  H22 UNL     1      -2.724   8.521  79.441  1.00  0.00     0.177 HD
ATOM     33  H21 UNL     1      -1.871   7.086  80.096  1.00  0.00     0.177 HD
ENDBRANCH  29  31
ENDBRANCH  25  29
ENDBRANCH   1  25
BRANCH   6  34
HETATM   34  N7  UNL     1       2.993   3.159  81.765  1.00  0.00    -0.384 N 
ATOM     35  H72 UNL     1       2.604   2.617  80.993  1.00  0.00     0.157 HD
ATOM     36  H71 UNL     1       3.335   2.701  82.610  1.00  0.00     0.157 HD
ENDBRANCH   6  34
BRANCH   9  37
HETATM   37  N9  UNL     1       5.522   7.047  81.034  1.00  0.00    -0.214 N 
HETATM   38  C12 UNL     1       5.757   7.615  79.694  1.00  0.00     0.160 C 
HETATM   39  C13 UNL     1       6.617   8.860  79.979  1.00  0.00     0.134 C 
HETATM   40  N10 UNL     1       6.306   9.466  81.235  1.00  0.00    -0.418 N 
HETATM   41  C14 UNL     1       6.578   8.678  82.395  1.00  0.00     0.134 C 
ATOM     42  H10 UNL     1       5.912  10.405  81.299  1.00  0.00     0.153 HD
HETATM   43  C15 UNL     1       6.585   7.215  81.966  1.00  0.00     0.160 C 
ENDBRANCH   9  37
TORSDOF 8
ENDMDL
MODEL 3
REMARK VINA RESULT: -6.220205797      1.710      6.995
REMARK  8 active torsions:
REMARK  status: ('A' for Active; 'I' for Inactive)
REMARK    1  A    between atoms: C2_2  and  S1_3 
REMARK    2  A    between atoms: S1_3  and  N1_5 
REMARK    3  A    between atoms: S1_3  and  C3_10 
REMARK    4  A    between atoms: N1_5  and  N2_7 
REMARK    5  A    between atoms: C4_13  and  N4_14 
REMARK    6  A    between atoms: C5_16  and  C6_17 
REMARK    7  A    between atoms: C10_25  and  N7_26 
REMARK    8  A    between atoms: C11_31  and  N9_32 
ROOT
HETATM    1  C3  UNL     1       3.387   6.908  81.983  1.00  0.00     0.188 A 
HETATM    2  N3  UNL     1       2.838   8.003  82.484  1.00  0.00    -0.319 N 
ATOM      3  H3  UNL     1       3.301   8.884  82.264  1.00  0.00     0.169 HD
HETATM    4  C4  UNL     1       1.737   8.081  83.251  1.00  0.00     0.125 A 
HETATM    5  C9  UNL     1       1.140   6.830  83.524  1.00  0.00     0.097 A 
HETATM    6  C10 UNL     1      -0.005   6.745  84.303  1.00  0.00     0.132 A 
HETATM    7  N8  UNL     1      -0.584   5.548  84.566  1.00  0.00    -0.176 N 
ATOM      8  H8  UNL     1      -1.426   5.506  85.140  1.00  0.00     0.186 HD
HETATM    9  C11 UNL     1      -0.057   4.426  84.078  1.00  0.00     0.683 A 
HETATM   10  N11 UNL     1       1.061   4.511  83.317  1.00  0.00    -0.175 N 
ATOM     11  H11 UNL     1       1.459   3.649  82.946  1.00  0.00     0.186 HD
HETATM   12  C16 UNL     1       1.676   5.678  83.026  1.00  0.00     0.142 A 
HETATM   13  N12 UNL     1       2.790   5.720  82.261  1.00  0.00    -0.314 N 
HETATM   14  C17 UNL     1       3.313   4.485  81.764  1.00  0.00     0.160 C 
ENDROOT
BRANCH   4  15
HETATM   15  N4  UNL     1       1.200   9.084  83.732  1.00  0.00    -0.348 N 
HETATM   16  C5  UNL     1       1.334  10.389  84.098  1.00  0.00     0.137 C 
ATOM     17  H4  UNL     1       0.239   8.821  83.949  1.00  0.00     0.167 HD
BRANCH  16  18
HETATM   18  C6  UNL     1       2.665  10.980  84.320  1.00  0.00     0.112 A 
HETATM   19  N5  UNL     1       3.207  12.028  83.827  1.00  0.00    -0.374 N 
HETATM   20  C7  UNL     1       4.550  12.243  84.327  1.00  0.00     0.141 A 
ATOM     21  H5  UNL     1       2.746  12.644  83.157  1.00  0.00     0.161 HD
HETATM   22  C8  UNL     1       4.806  11.107  85.299  1.00  0.00     0.141 A 
HETATM   23  N6  UNL     1       3.601  10.343  85.223  1.00  0.00    -0.374 N 
ATOM     24  H6  UNL     1       3.425   9.476  85.730  1.00  0.00     0.161 HD
ENDBRANCH  16  18
ENDBRANCH   4  15
BRANCH   1  25
HETATM   25  S1  UNL     1       4.820   6.893  81.001  1.00  0.00     0.101 S 
HETATM   26  O1  UNL     1       4.646   6.047  79.769  1.00  0.00    -0.240 OA
BRANCH  25  27
HETATM   27  C2  UNL     1       5.348   8.549  80.595  1.00  0.00     0.122 C 
HETATM   28  C1  UNL     1       6.323   9.006  81.669  1.00  0.00     0.020 C 
ENDBRANCH  25  27
BRANCH  25  29
HETATM   29  N1  UNL     1       6.034   6.240  81.792  1.00  0.00    -0.260 N 
ATOM     30  H1  UNL     1       6.365   6.612  82.682  1.00  0.00     0.196 HD
BRANCH  29  31
HETATM   31  N2  UNL     1       6.617   5.127  81.194  1.00  0.00    -0.338 N 
ATOM     32  H22 UNL     1       6.764   5.085  80.185  1.00  0.00     0.177 HD
ATOM     33  H21 UNL     1       6.880   4.371  81.826  1.00  0.00     0.177 HD
ENDBRANCH  29  31
ENDBRANCH  25  29
ENDBRANCH   1  25
BRANCH   6  34
HETATM   34  N7  UNL     1      -0.505   7.834  84.771  1.00  0.00    -0.384 N 
ATOM     35  H72 UNL     1      -0.016   8.364  85.492  1.00  0.00     0.157 HD
ATOM     36  H71 UNL     1      -1.401   8.152  84.400  1.00  0.00     0.157 HD
ENDBRANCH   6  34
BRANCH   9  37
HETATM   37  N9  UNL     1      -0.647   3.161  84.332  1.00  0.00    -0.214 N 
HETATM   38  C12 UNL     1      -0.309   1.987  83.507  1.00  0.00     0.160 C 
HETATM   39  C13 UNL     1      -0.392   0.815  84.501  1.00  0.00     0.134 C 
HETATM   40  N10 UNL     1      -0.018   1.192  85.827  1.00  0.00    -0.418 N 
HETATM   41  C14 UNL     1      -0.863   2.149  86.468  1.00  0.00     0.134 C 
ATOM     42  H10 UNL     1       0.804   0.802  86.289  1.00  0.00     0.153 HD
HETATM   43  C15 UNL     1      -1.589   2.927  85.375  1.00  0.00     0.160 C 
ENDBRANCH   9  37
TORSDOF 8
ENDMDL
MODEL 4
REMARK VINA RESULT: -6.171128483      2.023      6.952
REMARK  8 active torsions:
REMARK  status: ('A' for Active; 'I' for Inactive)
REMARK    1  A    between atoms: C2_2  and  S1_3 
REMARK    2  A    between atoms: S1_3  and  N1_5 
REMARK    3  A    between atoms: S1_3  and  C3_10 
REMARK    4  A    between atoms: N1_5  and  N2_7 
REMARK    5  A    between atoms: C4_13  and  N4_14 
REMARK    6  A    between atoms: C5_16  and  C6_17 
REMARK    7  A    between atoms: C10_25  and  N7_26 
REMARK    8  A    between atoms: C11_31  and  N9_32 
ROOT
HETATM    1  C3  UNL     1       4.279   6.320  81.641  1.00  0.00     0.188 A 
HETATM    2  N3  UNL     1       3.947   7.495  82.148  1.00  0.00    -0.319 N 
ATOM      3  H3  UNL     1       4.554   8.280  81.912  1.00  0.00     0.169 HD
HETATM    4  C4  UNL     1       2.897   7.770  82.941  1.00  0.00     0.125 A 
HETATM    5  C9  UNL     1       2.094   6.647  83.236  1.00  0.00     0.097 A 
HETATM    6  C10 UNL     1       0.971   6.769  84.044  1.00  0.00     0.132 A 
HETATM    7  N8  UNL     1       0.195   5.695  84.329  1.00  0.00    -0.176 N 
ATOM      8  H8  UNL     1      -0.626   5.805  84.923  1.00  0.00     0.186 HD
HETATM    9  C11 UNL     1       0.501   4.497  83.835  1.00  0.00     0.683 A 
HETATM   10  N11 UNL     1       1.597   4.379  83.046  1.00  0.00    -0.175 N 
ATOM     11  H11 UNL     1       1.825   3.459  82.671  1.00  0.00     0.186 HD
HETATM   12  C16 UNL     1       2.402   5.416  82.733  1.00  0.00     0.142 A 
HETATM   13  N12 UNL     1       3.487   5.257  81.941  1.00  0.00    -0.314 N 
HETATM   14  C17 UNL     1       3.768   3.947  81.439  1.00  0.00     0.160 C 
ENDROOT
BRANCH   4  15
HETATM   15  N4  UNL     1       2.560   8.854  83.429  1.00  0.00    -0.348 N 
HETATM   16  C5  UNL     1       2.946  10.096  83.835  1.00  0.00     0.137 C 
ATOM     17  H4  UNL     1       1.557   8.792  83.603  1.00  0.00     0.167 HD
BRANCH  16  18
HETATM   18  C6  UNL     1       4.360  10.393  84.121  1.00  0.00     0.112 A 
HETATM   19  N5  UNL     1       5.419  10.153  83.444  1.00  0.00    -0.374 N 
HETATM   20  C7  UNL     1       6.617  10.624  84.109  1.00  0.00     0.141 A 
ATOM     21  H5  UNL     1       5.420   9.683  82.539  1.00  0.00     0.161 HD
HETATM   22  C8  UNL     1       6.140  11.264  85.398  1.00  0.00     0.141 A 
HETATM   23  N6  UNL     1       4.727  11.059  85.353  1.00  0.00    -0.374 N 
ATOM     24  H6  UNL     1       4.072  11.340  86.083  1.00  0.00     0.161 HD
ENDBRANCH  16  18
ENDBRANCH   4  15
BRANCH   1  25
HETATM   25  S1  UNL     1       5.662   6.046  80.625  1.00  0.00     0.101 S 
HETATM   26  O1  UNL     1       6.617   5.058  81.233  1.00  0.00    -0.240 OA
BRANCH  25  27
HETATM   27  C2  UNL     1       5.172   5.563  78.977  1.00  0.00     0.122 C 
HETATM   28  C1  UNL     1       6.088   4.433  78.530  1.00  0.00     0.020 C 
ENDBRANCH  25  27
BRANCH  25  29
HETATM   29  N1  UNL     1       6.499   7.386  80.446  1.00  0.00    -0.260 N 
ATOM     30  H1  UNL     1       7.130   7.732  81.168  1.00  0.00     0.196 HD
BRANCH  29  31
HETATM   31  N2  UNL     1       6.315   8.057  79.241  1.00  0.00    -0.338 N 
ATOM     32  H22 UNL     1       5.386   8.168  78.833  1.00  0.00     0.177 HD
ATOM     33  H21 UNL     1       7.161   8.424  78.804  1.00  0.00     0.177 HD
ENDBRANCH  29  31
ENDBRANCH  25  29
ENDBRANCH   1  25
BRANCH   6  34
HETATM   34  N7  UNL     1       0.686   7.931  84.517  1.00  0.00    -0.384 N 
ATOM     35  H72 UNL     1      -0.057   8.494  84.102  1.00  0.00     0.157 HD
ATOM     36  H71 UNL     1       1.221   8.271  85.316  1.00  0.00     0.157 HD
ENDBRANCH   6  34
BRANCH   9  37
HETATM   37  N9  UNL     1      -0.299   3.357  84.112  1.00  0.00    -0.214 N 
HETATM   38  C12 UNL     1      -0.209   2.147  83.276  1.00  0.00     0.160 C 
HETATM   39  C13 UNL     1      -0.467   1.003  84.273  1.00  0.00     0.134 C 
HETATM   40  N10 UNL     1       0.016   1.299  85.585  1.00  0.00    -0.418 N 
HETATM   41  C14 UNL     1      -0.618   2.390  86.254  1.00  0.00     0.134 C 
ATOM     42  H10 UNL     1       0.770   0.764  86.017  1.00  0.00     0.153 HD
HETATM   43  C15 UNL     1      -1.230   3.292  85.188  1.00  0.00     0.160 C 
ENDBRANCH   9  37
TORSDOF 8
ENDMDL
MODEL 5
REMARK VINA RESULT: -6.135642592      1.904      6.956
REMARK  8 active torsions:
REMARK  status: ('A' for Active; 'I' for Inactive)
REMARK    1  A    between atoms: C2_2  and  S1_3 
REMARK    2  A    between atoms: S1_3  and  N1_5 
REMARK    3  A    between atoms: S1_3  and  C3_10 
REMARK    4  A    between atoms: N1_5  and  N2_7 
REMARK    5  A    between atoms: C4_13  and  N4_14 
REMARK    6  A    between atoms: C5_16  and  C6_17 
REMARK    7  A    between atoms: C10_25  and  N7_26 
REMARK    8  A    between atoms: C11_31  and  N9_32 
ROOT
HETATM    1  C3  UNL     1       3.802   6.759  81.823  1.00  0.00     0.188 A 
HETATM    2  N3  UNL     1       3.369   7.864  82.408  1.00  0.00    -0.319 N 
ATOM      3  H3  UNL     1       3.899   8.714  82.220  1.00  0.00     0.169 HD
HETATM    4  C4  UNL     1       2.309   7.988  83.224  1.00  0.00     0.125 A 
HETATM    5  C9  UNL     1       1.615   6.779  83.451  1.00  0.00     0.097 A 
HETATM    6  C10 UNL     1       0.497   6.744  84.271  1.00  0.00     0.132 A 
HETATM    7  N8  UNL     1      -0.174   5.587  84.490  1.00  0.00    -0.176 N 
ATOM      8  H8  UNL     1      -0.994   5.582  85.096  1.00  0.00     0.186 HD
HETATM    9  C11 UNL     1       0.235   4.456  83.917  1.00  0.00     0.683 A 
HETATM   10  N11 UNL     1       1.327   4.492  83.116  1.00  0.00    -0.175 N 
ATOM     11  H11 UNL     1       1.634   3.623  82.679  1.00  0.00     0.186 HD
HETATM   12  C16 UNL     1       2.030   5.617  82.865  1.00  0.00     0.142 A 
HETATM   13  N12 UNL     1       3.114   5.611  82.059  1.00  0.00    -0.314 N 
HETATM   14  C17 UNL     1       3.509   4.368  81.470  1.00  0.00     0.160 C 
ENDROOT
BRANCH   4  15
HETATM   15  N4  UNL     1       1.879   9.003  83.784  1.00  0.00    -0.348 N 
HETATM   16  C5  UNL     1       2.134  10.274  84.202  1.00  0.00     0.137 C 
ATOM     17  H4  UNL     1       0.915   8.801  84.047  1.00  0.00     0.167 HD
BRANCH  16  18
HETATM   18  C6  UNL     1       3.518  10.752  84.370  1.00  0.00     0.112 A 
HETATM   19  N5  UNL     1       4.274  10.779  85.401  1.00  0.00    -0.374 N 
HETATM   20  C7  UNL     1       5.579  11.340  85.115  1.00  0.00     0.141 A 
ATOM     21  H5  UNL     1       3.991  10.443  86.322  1.00  0.00     0.161 HD
HETATM   22  C8  UNL     1       5.557  11.680  83.637  1.00  0.00     0.141 A 
HETATM   23  N6  UNL     1       4.234  11.313  83.244  1.00  0.00    -0.374 N 
ATOM     24  H6  UNL     1       3.849  11.430  82.307  1.00  0.00     0.161 HD
ENDBRANCH  16  18
ENDBRANCH   4  15
BRANCH   1  25
HETATM   25  S1  UNL     1       5.191   6.681  80.782  1.00  0.00     0.101 S 
HETATM   26  O1  UNL     1       6.291   5.846  81.378  1.00  0.00    -0.240 OA
BRANCH  25  27
HETATM   27  C2  UNL     1       4.747   6.119  79.147  1.00  0.00     0.122 C 
HETATM   28  C1  UNL     1       5.791   5.105  78.702  1.00  0.00     0.020 C 
ENDBRANCH  25  27
BRANCH  25  29
HETATM   29  N1  UNL     1       5.822   8.126  80.581  1.00  0.00    -0.260 N 
ATOM     30  H1  UNL     1       5.654   8.679  79.740  1.00  0.00     0.196 HD
BRANCH  29  31
HETATM   31  N2  UNL     1       6.617   8.589  81.625  1.00  0.00    -0.338 N 
ATOM     32  H22 UNL     1       6.661   8.094  82.516  1.00  0.00     0.177 HD
ATOM     33  H21 UNL     1       7.143   9.443  81.436  1.00  0.00     0.177 HD
ENDBRANCH  29  31
ENDBRANCH  25  29
ENDBRANCH   1  25
BRANCH   6  34
HETATM   34  N7  UNL     1       0.111   7.842  84.821  1.00  0.00    -0.384 N 
ATOM     35  H72 UNL     1       0.787   8.474  85.250  1.00  0.00     0.157 HD
ATOM     36  H71 UNL     1      -0.885   8.060  84.815  1.00  0.00     0.157 HD
ENDBRANCH   6  34
BRANCH   9  37
HETATM   37  N9  UNL     1      -0.454   3.233  84.124  1.00  0.00    -0.214 N 
HETATM   38  C12 UNL     1      -0.253   2.088  83.218  1.00  0.00     0.160 C 
HETATM   39  C13 UNL     1      -0.399   0.867  84.145  1.00  0.00     0.134 C 
HETATM   40  N10 UNL     1       0.059   1.129  85.472  1.00  0.00    -0.418 N 
HETATM   41  C14 UNL     1      -0.673   2.113  86.204  1.00  0.00     0.134 C 
ATOM     42  H10 UNL     1       0.861   0.642  85.873  1.00  0.00     0.153 HD
HETATM   43  C15 UNL     1      -1.370   3.015  85.192  1.00  0.00     0.160 C 
ENDBRANCH   9  37
TORSDOF 8
ENDMDL
