MODEL 1
REMARK VINA RESULT: -7.506820739      0.000      0.000
REMARK  11 active torsions:
REMARK  status: ('A' for Active; 'I' for Inactive)
REMARK    1  A    between atoms: C2_2  and  N1_3 
REMARK    2  A    between atoms: C2_2  and  C14_36 
REMARK    3  A    between atoms: N1_3  and  C3_5 
REMARK    4  A    between atoms: C8_12  and  S1_13 
REMARK    5  A    between atoms: S1_13  and  C9_14 
REMARK    6  A    between atoms: C11_16  and  N3_17 
REMARK       I    between atoms: N3_17  and  C12_19 
REMARK    7  A    between atoms: C12_19  and  C13_21 
REMARK       I    between atoms: C13_21  and  N4_23 
REMARK    8  A    between atoms: N4_23  and  N5_25 
REMARK    9  A    between atoms: N6_28  and  O4_29 
REMARK   10  A    between atoms: C14_36  and  O5_37 
REMARK   11  A    between atoms: C14_36  and  O6_39 
ROOT
HETATM    1  C3  UNL     1      -0.703   4.013  83.972  1.00  0.00     0.096 A 
HETATM    2  C4  UNL     1      -0.014   3.546  82.966  1.00  0.00     0.129 A 
HETATM    3  C5  UNL     1      -0.197   2.158  82.522  1.00  0.00     0.106 C 
HETATM    4  N2  UNL     1      -0.359   1.045  82.181  1.00  0.00    -0.191 NA
HETATM    5  C6  UNL     1       0.906   4.420  82.330  1.00  0.00     0.212 A 
HETATM    6  O1  UNL     1       1.659   4.111  81.325  1.00  0.00    -0.285 OA
HETATM    7  C7  UNL     1       0.978   5.768  82.880  1.00  0.00     0.065 A 
HETATM    8  C8  UNL     1       1.733   6.784  82.499  1.00  0.00     0.074 C 
HETATM    9  S2  UNL     1      -0.214   5.711  84.213  1.00  0.00    -0.067 SA
ENDROOT
BRANCH   1  10
HETATM   10  N1  UNL     1      -1.672   3.350  84.765  1.00  0.00    -0.374 N 
ATOM     11  H1  UNL     1      -2.617   3.266  84.391  1.00  0.00     0.160 HD
BRANCH  10  12
HETATM   12  C2  UNL     1      -1.412   2.793  86.048  1.00  0.00     0.133 C 
HETATM   13  C1  UNL     1      -2.599   2.820  86.978  1.00  0.00     0.037 C 
BRANCH  12  14
HETATM   14  C14 UNL     1      -0.973   1.353  85.902  1.00  0.00     0.276 C 
BRANCH  14  15
HETATM   15  O5  UNL     1      -1.502   0.553  86.924  1.00  0.00    -0.369 OA
ATOM     16  H5  UNL     1      -1.568  -0.355  86.653  1.00  0.00     0.212 HD
ENDBRANCH  14  15
BRANCH  14  17
HETATM   17  O6  UNL     1       0.434   1.254  85.942  1.00  0.00    -0.369 OA
ATOM     18  H6  UNL     1       0.705   0.579  86.552  1.00  0.00     0.212 HD
ENDBRANCH  14  17
ENDBRANCH  12  14
ENDBRANCH  10  12
ENDBRANCH   1  10
BRANCH   8  19
HETATM   19  S1  UNL     1       1.623   8.335  83.354  1.00  0.00    -0.081 SA
BRANCH  19  20
HETATM   20  C9  UNL     1       0.726   9.472  82.306  1.00  0.00     0.093 A 
HETATM   21  C10 UNL     1      -0.017   8.958  81.270  1.00  0.00     0.091 A 
HETATM   22  C11 UNL     1      -0.716   9.799  80.448  1.00  0.00     0.159 A 
HETATM   23  N6  UNL     1      -0.673  11.138  80.661  1.00  0.00    -0.132 N 
HETATM   24  N7  UNL     1       0.046  11.603  81.661  1.00  0.00    -0.214 N 
HETATM   25  N8  UNL     1       0.742  10.803  82.483  1.00  0.00    -0.278 N 
ATOM     26  H7  UNL     1       0.076  12.611  81.817  1.00  0.00     0.211 HD
ATOM     27  H8  UNL     1       1.285  11.208  83.245  1.00  0.00     0.189 HD
BRANCH  22  28
HETATM   28  N3  UNL     1      -1.416   9.339  79.472  1.00  0.00    -0.302 N 
HETATM   29  C12 UNL     1      -1.612   7.939  79.383  1.00  0.00     0.316 C 
HETATM   30  O2  UNL     1      -2.639   7.406  79.870  1.00  0.00    -0.262 OA
ATOM     31  H3  UNL     1      -1.821   9.968  78.779  1.00  0.00     0.171 HD
BRANCH  29  32
HETATM   32  C13 UNL     1      -0.587   7.139  78.709  1.00  0.00     0.327 C 
HETATM   33  O3  UNL     1      -0.033   7.513  77.655  1.00  0.00    -0.261 OA
HETATM   34  N4  UNL     1      -0.217   5.899  79.283  1.00  0.00    -0.268 N 
ATOM     35  H4  UNL     1      -0.663   5.583  80.145  1.00  0.00     0.190 HD
BRANCH  34  36
HETATM   36  N5  UNL     1       0.751   5.115  78.674  1.00  0.00    -0.342 N 
ATOM     37  H52 UNL     1       1.340   5.528  77.950  1.00  0.00     0.176 HD
ATOM     38  H51 UNL     1       0.865   4.140  78.951  1.00  0.00     0.176 HD
ENDBRANCH  34  36
ENDBRANCH  29  32
ENDBRANCH  22  28
BRANCH  23  39
HETATM   39  O4  UNL     1      -1.389  11.967  79.814  1.00  0.00    -0.265 OA
ATOM     40  H4  UNL     1      -1.160  12.888  79.777  1.00  0.00     0.247 HD
ENDBRANCH  23  39
ENDBRANCH  19  20
ENDBRANCH   8  19
TORSDOF 11
ENDMDL
MODEL 2
REMARK VINA RESULT: -7.276296475      3.643      7.302
REMARK  11 active torsions:
REMARK  status: ('A' for Active; 'I' for Inactive)
REMARK    1  A    between atoms: C2_2  and  N1_3 
REMARK    2  A    between atoms: C2_2  and  C14_36 
REMARK    3  A    between atoms: N1_3  and  C3_5 
REMARK    4  A    between atoms: C8_12  and  S1_13 
REMARK    5  A    between atoms: S1_13  and  C9_14 
REMARK    6  A    between atoms: C11_16  and  N3_17 
REMARK       I    between atoms: N3_17  and  C12_19 
REMARK    7  A    between atoms: C12_19  and  C13_21 
REMARK       I    between atoms: C13_21  and  N4_23 
REMARK    8  A    between atoms: N4_23  and  N5_25 
REMARK    9  A    between atoms: N6_28  and  O4_29 
REMARK   10  A    between atoms: C14_36  and  O5_37 
REMARK   11  A    between atoms: C14_36  and  O6_39 
ROOT
HETATM    1  C3  UNL     1       2.306   7.110  81.803  1.00  0.00     0.096 A 
HETATM    2  C4  UNL     1       2.641   7.850  82.826  1.00  0.00     0.129 A 
HETATM    3  C5  UNL     1       3.955   8.503  82.868  1.00  0.00     0.106 C 
HETATM    4  N2  UNL     1       5.012   9.019  82.883  1.00  0.00    -0.191 NA
HETATM    5  C6  UNL     1       1.699   7.993  83.878  1.00  0.00     0.212 A 
HETATM    6  O1  UNL     1       1.879   8.687  84.953  1.00  0.00    -0.285 OA
HETATM    7  C7  UNL     1       0.438   7.285  83.694  1.00  0.00     0.065 A 
HETATM    8  C8  UNL     1      -0.613   7.235  84.496  1.00  0.00     0.074 C 
HETATM    9  S2  UNL     1       0.660   6.493  82.105  1.00  0.00    -0.067 SA
ENDROOT
BRANCH   1  10
HETATM   10  N1  UNL     1       3.059   6.813  80.640  1.00  0.00    -0.374 N 
ATOM     11  H1  UNL     1       3.524   7.586  80.163  1.00  0.00     0.160 HD
BRANCH  10  12
HETATM   12  C2  UNL     1       3.208   5.508  80.095  1.00  0.00     0.133 C 
HETATM   13  C1  UNL     1       3.517   5.493  78.618  1.00  0.00     0.037 C 
BRANCH  12  14
HETATM   14  C14 UNL     1       4.327   4.780  80.807  1.00  0.00     0.276 C 
BRANCH  14  15
HETATM   15  O5  UNL     1       5.072   3.995  79.916  1.00  0.00    -0.369 OA
ATOM     16  H5  UNL     1       5.462   3.249  80.356  1.00  0.00     0.212 HD
ENDBRANCH  14  15
BRANCH  14  17
HETATM   17  O6  UNL     1       3.812   3.941  81.817  1.00  0.00    -0.369 OA
ATOM     18  H6  UNL     1       4.510   3.452  82.235  1.00  0.00     0.212 HD
ENDBRANCH  14  17
ENDBRANCH  12  14
ENDBRANCH  10  12
ENDBRANCH   1  10
BRANCH   8  19
HETATM   19  S1  UNL     1      -2.036   6.287  84.025  1.00  0.00    -0.081 SA
BRANCH  19  20
HETATM   20  C9  UNL     1      -1.799   4.616  84.615  1.00  0.00     0.093 A 
HETATM   21  C10 UNL     1      -0.932   3.799  83.928  1.00  0.00     0.091 A 
HETATM   22  C11 UNL     1      -0.726   2.515  84.352  1.00  0.00     0.159 A 
HETATM   23  N6  UNL     1      -1.377   2.054  85.449  1.00  0.00    -0.132 N 
HETATM   24  N7  UNL     1      -2.200   2.859  86.087  1.00  0.00    -0.214 N 
HETATM   25  N8  UNL     1      -2.423   4.122  85.696  1.00  0.00    -0.278 N 
ATOM     26  H7  UNL     1      -2.688   2.508  86.912  1.00  0.00     0.211 HD
ATOM     27  H8  UNL     1      -3.070   4.710  86.221  1.00  0.00     0.189 HD
BRANCH  22  28
HETATM   28  N3  UNL     1       0.080   1.733  83.724  1.00  0.00    -0.302 N 
HETATM   29  C12 UNL     1       0.381   2.020  82.370  1.00  0.00     0.316 C 
HETATM   30  O2  UNL     1       1.402   2.687  82.071  1.00  0.00    -0.262 OA
ATOM     31  H3  UNL     1       0.492   0.925  84.190  1.00  0.00     0.171 HD
BRANCH  29  32
HETATM   32  C13 UNL     1      -0.530   1.518  81.338  1.00  0.00     0.327 C 
HETATM   33  O3  UNL     1      -0.777   0.303  81.198  1.00  0.00    -0.261 OA
HETATM   34  N4  UNL     1      -1.146   2.455  80.474  1.00  0.00    -0.268 N 
ATOM     35  H4  UNL     1      -0.951   3.451  80.578  1.00  0.00     0.190 HD
BRANCH  34  36
HETATM   36  N5  UNL     1      -2.015   2.016  79.485  1.00  0.00    -0.342 N 
ATOM     37  H52 UNL     1      -2.427   1.086  79.565  1.00  0.00     0.176 HD
ATOM     38  H51 UNL     1      -2.232   2.622  78.694  1.00  0.00     0.176 HD
ENDBRANCH  34  36
ENDBRANCH  29  32
ENDBRANCH  22  28
BRANCH  23  39
HETATM   39  O4  UNL     1      -1.150   0.750  85.856  1.00  0.00    -0.265 OA
ATOM     40  H4  UNL     1      -0.260   0.484  86.056  1.00  0.00     0.247 HD
ENDBRANCH  23  39
ENDBRANCH  19  20
ENDBRANCH   8  19
TORSDOF 11
ENDMDL
MODEL 3
REMARK VINA RESULT: -7.272473870      2.914      3.769
REMARK  11 active torsions:
REMARK  status: ('A' for Active; 'I' for Inactive)
REMARK    1  A    between atoms: C2_2  and  N1_3 
REMARK    2  A    between atoms: C2_2  and  C14_36 
REMARK    3  A    between atoms: N1_3  and  C3_5 
REMARK    4  A    between atoms: C8_12  and  S1_13 
REMARK    5  A    between atoms: S1_13  and  C9_14 
REMARK    6  A    between atoms: C11_16  and  N3_17 
REMARK       I    between atoms: N3_17  and  C12_19 
REMARK    7  A    between atoms: C12_19  and  C13_21 
REMARK       I    between atoms: C13_21  and  N4_23 
REMARK    8  A    between atoms: N4_23  and  N5_25 
REMARK    9  A    between atoms: N6_28  and  O4_29 
REMARK   10  A    between atoms: C14_36  and  O5_37 
REMARK   11  A    between atoms: C14_36  and  O6_39 
ROOT
HETATM    1  C3  UNL     1       0.142   4.063  84.005  1.00  0.00     0.096 A 
HETATM    2  C4  UNL     1      -0.074   3.625  82.794  1.00  0.00     0.129 A 
HETATM    3  C5  UNL     1      -0.182   2.184  82.535  1.00  0.00     0.106 C 
HETATM    4  N2  UNL     1      -0.266   1.026  82.349  1.00  0.00    -0.191 NA
HETATM    5  C6  UNL     1      -0.197   4.583  81.754  1.00  0.00     0.212 A 
HETATM    6  O1  UNL     1      -0.410   4.312  80.508  1.00  0.00    -0.285 OA
HETATM    7  C7  UNL     1      -0.067   5.977  82.163  1.00  0.00     0.065 A 
HETATM    8  C8  UNL     1      -0.135   7.071  81.424  1.00  0.00     0.074 C 
HETATM    9  S2  UNL     1       0.211   5.843  83.926  1.00  0.00    -0.067 SA
ENDROOT
BRANCH   1  10
HETATM   10  N1  UNL     1       0.301   3.319  85.200  1.00  0.00    -0.374 N 
ATOM     11  H1  UNL     1       1.243   3.029  85.460  1.00  0.00     0.160 HD
BRANCH  10  12
HETATM   12  C2  UNL     1      -0.771   2.949  86.060  1.00  0.00     0.133 C 
HETATM   13  C1  UNL     1      -2.098   3.555  85.677  1.00  0.00     0.037 C 
BRANCH  12  14
HETATM   14  C14 UNL     1      -0.933   1.445  86.059  1.00  0.00     0.276 C 
BRANCH  14  15
HETATM   15  O5  UNL     1      -1.299   0.971  87.325  1.00  0.00    -0.369 OA
ATOM     16  H5  UNL     1      -1.578   0.064  87.288  1.00  0.00     0.212 HD
ENDBRANCH  14  15
BRANCH  14  17
HETATM   17  O6  UNL     1       0.270   0.815  85.676  1.00  0.00    -0.369 OA
ATOM     18  H6  UNL     1       0.712   0.450  86.433  1.00  0.00     0.212 HD
ENDBRANCH  14  17
ENDBRANCH  12  14
ENDBRANCH  10  12
ENDBRANCH   1  10
BRANCH   8  19
HETATM   19  S1  UNL     1       0.060   8.662  82.185  1.00  0.00    -0.081 SA
BRANCH  19  20
HETATM   20  C9  UNL     1       1.802   8.902  82.508  1.00  0.00     0.093 A 
HETATM   21  C10 UNL     1       2.705   8.112  81.835  1.00  0.00     0.091 A 
HETATM   22  C11 UNL     1       4.045   8.268  82.057  1.00  0.00     0.159 A 
HETATM   23  N6  UNL     1       4.478   9.203  82.940  1.00  0.00    -0.132 N 
HETATM   24  N7  UNL     1       3.591   9.945  83.569  1.00  0.00    -0.214 N 
HETATM   25  N8  UNL     1       2.271   9.815  83.372  1.00  0.00    -0.278 N 
ATOM     26  H7  UNL     1       3.921  10.647  84.232  1.00  0.00     0.211 HD
ATOM     27  H8  UNL     1       1.621  10.412  83.882  1.00  0.00     0.189 HD
BRANCH  22  28
HETATM   28  N3  UNL     1       4.907   7.540  81.439  1.00  0.00    -0.302 N 
HETATM   29  C12 UNL     1       4.483   6.812  80.300  1.00  0.00     0.316 C 
HETATM   30  O2  UNL     1       4.628   7.289  79.148  1.00  0.00    -0.262 OA
ATOM     31  H3  UNL     1       5.873   7.487  81.762  1.00  0.00     0.171 HD
BRANCH  29  32
HETATM   32  C13 UNL     1       3.876   5.496  80.508  1.00  0.00     0.327 C 
HETATM   33  O3  UNL     1       3.043   5.010  79.716  1.00  0.00    -0.261 OA
HETATM   34  N4  UNL     1       4.255   4.755  81.654  1.00  0.00    -0.268 N 
ATOM     35  H4  UNL     1       4.934   5.142  82.310  1.00  0.00     0.190 HD
BRANCH  34  36
HETATM   36  N5  UNL     1       3.701   3.505  81.885  1.00  0.00    -0.342 N 
ATOM     37  H52 UNL     1       4.003   2.716  81.311  1.00  0.00     0.176 HD
ATOM     38  H51 UNL     1       3.003   3.385  82.619  1.00  0.00     0.176 HD
ENDBRANCH  34  36
ENDBRANCH  29  32
ENDBRANCH  22  28
BRANCH  23  39
HETATM   39  O4  UNL     1       5.840   9.340  83.145  1.00  0.00    -0.265 OA
ATOM     40  H4  UNL     1       6.181   9.234  84.026  1.00  0.00     0.247 HD
ENDBRANCH  23  39
ENDBRANCH  19  20
ENDBRANCH   8  19
TORSDOF 11
ENDMDL
MODEL 4
REMARK VINA RESULT: -7.217482592      0.880      1.057
REMARK  11 active torsions:
REMARK  status: ('A' for Active; 'I' for Inactive)
REMARK    1  A    between atoms: C2_2  and  N1_3 
REMARK    2  A    between atoms: C2_2  and  C14_36 
REMARK    3  A    between atoms: N1_3  and  C3_5 
REMARK    4  A    between atoms: C8_12  and  S1_13 
REMARK    5  A    between atoms: S1_13  and  C9_14 
REMARK    6  A    between atoms: C11_16  and  N3_17 
REMARK       I    between atoms: N3_17  and  C12_19 
REMARK    7  A    between atoms: C12_19  and  C13_21 
REMARK       I    between atoms: C13_21  and  N4_23 
REMARK    8  A    between atoms: N4_23  and  N5_25 
REMARK    9  A    between atoms: N6_28  and  O4_29 
REMARK   10  A    between atoms: C14_36  and  O5_37 
REMARK   11  A    between atoms: C14_36  and  O6_39 
ROOT
HETATM    1  C3  UNL     1      -0.567   4.088  83.981  1.00  0.00     0.096 A 
HETATM    2  C4  UNL     1       0.098   3.628  82.955  1.00  0.00     0.129 A 
HETATM    3  C5  UNL     1      -0.199   2.295  82.416  1.00  0.00     0.106 C 
HETATM    4  N2  UNL     1      -0.453   1.226  81.998  1.00  0.00    -0.191 NA
HETATM    5  C6  UNL     1       1.104   4.456  82.392  1.00  0.00     0.212 A 
HETATM    6  O1  UNL     1       1.846   4.148  81.379  1.00  0.00    -0.285 OA
HETATM    7  C7  UNL     1       1.285   5.753  83.034  1.00  0.00     0.065 A 
HETATM    8  C8  UNL     1       2.134   6.720  82.732  1.00  0.00     0.074 C 
HETATM    9  S2  UNL     1       0.066   5.715  84.343  1.00  0.00    -0.067 SA
ENDROOT
BRANCH   1  10
HETATM   10  N1  UNL     1      -1.606   3.463  84.714  1.00  0.00    -0.374 N 
ATOM     11  H1  UNL     1      -2.541   3.458  84.305  1.00  0.00     0.160 HD
BRANCH  10  12
HETATM   12  C2  UNL     1      -1.430   2.844  85.982  1.00  0.00     0.133 C 
HETATM   13  C1  UNL     1      -2.676   2.829  86.833  1.00  0.00     0.037 C 
BRANCH  12  14
HETATM   14  C14 UNL     1      -0.984   1.410  85.795  1.00  0.00     0.276 C 
BRANCH  14  15
HETATM   15  O5  UNL     1      -1.635   0.553  86.691  1.00  0.00    -0.369 OA
ATOM     16  H5  UNL     1      -2.471   0.910  86.966  1.00  0.00     0.212 HD
ENDBRANCH  14  15
BRANCH  14  17
HETATM   17  O6  UNL     1       0.408   1.293  85.995  1.00  0.00    -0.369 OA
ATOM     18  H6  UNL     1       0.710   0.429  85.742  1.00  0.00     0.212 HD
ENDBRANCH  14  17
ENDBRANCH  12  14
ENDBRANCH  10  12
ENDBRANCH   1  10
BRANCH   8  19
HETATM   19  S1  UNL     1       2.145   8.214  83.688  1.00  0.00    -0.081 SA
BRANCH  19  20
HETATM   20  C9  UNL     1       1.326   9.481  82.730  1.00  0.00     0.093 A 
HETATM   21  C10 UNL     1       0.905   9.167  81.459  1.00  0.00     0.091 A 
HETATM   22  C11 UNL     1       0.274  10.112  80.697  1.00  0.00     0.159 A 
HETATM   23  N6  UNL     1       0.067  11.355  81.200  1.00  0.00    -0.132 N 
HETATM   24  N7  UNL     1       0.481  11.627  82.420  1.00  0.00    -0.214 N 
HETATM   25  N8  UNL     1       1.102  10.722  83.190  1.00  0.00    -0.278 N 
ATOM     26  H7  UNL     1       0.323  12.563  82.794  1.00  0.00     0.211 HD
ATOM     27  H8  UNL     1       1.405  10.977  84.129  1.00  0.00     0.189 HD
BRANCH  22  28
HETATM   28  N3  UNL     1      -0.127   9.841  79.505  1.00  0.00    -0.302 N 
HETATM   29  C12 UNL     1      -1.397   9.234  79.343  1.00  0.00     0.316 C 
HETATM   30  O2  UNL     1      -2.413   9.934  79.115  1.00  0.00    -0.262 OA
ATOM     31  H3  UNL     1       0.456  10.058  78.697  1.00  0.00     0.171 HD
BRANCH  29  32
HETATM   32  C13 UNL     1      -1.483   7.775  79.447  1.00  0.00     0.327 C 
HETATM   33  O3  UNL     1      -2.549   7.186  79.719  1.00  0.00    -0.261 OA
HETATM   34  N4  UNL     1      -0.308   7.016  79.229  1.00  0.00    -0.268 N 
ATOM     35  H4  UNL     1       0.569   7.486  79.006  1.00  0.00     0.190 HD
BRANCH  34  36
HETATM   36  N5  UNL     1      -0.352   5.633  79.318  1.00  0.00    -0.342 N 
ATOM     37  H52 UNL     1      -1.000   5.118  78.721  1.00  0.00     0.176 HD
ATOM     38  H51 UNL     1       0.258   5.146  79.974  1.00  0.00     0.176 HD
ENDBRANCH  34  36
ENDBRANCH  29  32
ENDBRANCH  22  28
BRANCH  23  39
HETATM   39  O4  UNL     1      -0.573  12.293  80.407  1.00  0.00    -0.265 OA
ATOM     40  H4  UNL     1      -0.215  13.171  80.362  1.00  0.00     0.247 HD
ENDBRANCH  23  39
ENDBRANCH  19  20
ENDBRANCH   8  19
TORSDOF 11
ENDMDL
MODEL 5
REMARK VINA RESULT: -7.216880865      2.986      3.919
REMARK  11 active torsions:
REMARK  status: ('A' for Active; 'I' for Inactive)
REMARK    1  A    between atoms: C2_2  and  N1_3 
REMARK    2  A    between atoms: C2_2  and  C14_36 
REMARK    3  A    between atoms: N1_3  and  C3_5 
REMARK    4  A    between atoms: C8_12  and  S1_13 
REMARK    5  A    between atoms: S1_13  and  C9_14 
REMARK    6  A    between atoms: C11_16  and  N3_17 
REMARK       I    between atoms: N3_17  and  C12_19 
REMARK    7  A    between atoms: C12_19  and  C13_21 
REMARK       I    between atoms: C13_21  and  N4_23 
REMARK    8  A    between atoms: N4_23  and  N5_25 
REMARK    9  A    between atoms: N6_28  and  O4_29 
REMARK   10  A    between atoms: C14_36  and  O5_37 
REMARK   11  A    between atoms: C14_36  and  O6_39 
ROOT
HETATM    1  C3  UNL     1       0.152   3.961  83.781  1.00  0.00     0.096 A 
HETATM    2  C4  UNL     1      -0.079   3.398  82.625  1.00  0.00     0.129 A 
HETATM    3  C5  UNL     1      -0.169   1.937  82.517  1.00  0.00     0.106 C 
HETATM    4  N2  UNL     1      -0.239   0.765  82.451  1.00  0.00    -0.191 NA
HETATM    5  C6  UNL     1      -0.236   4.244  81.496  1.00  0.00     0.212 A 
HETATM    6  O1  UNL     1      -0.467   3.843  80.289  1.00  0.00    -0.285 OA
HETATM    7  C7  UNL     1      -0.121   5.673  81.758  1.00  0.00     0.065 A 
HETATM    8  C8  UNL     1      -0.219   6.686  80.913  1.00  0.00     0.074 C 
HETATM    9  S2  UNL     1       0.191   5.725  83.520  1.00  0.00    -0.067 SA
ENDROOT
BRANCH   1  10
HETATM   10  N1  UNL     1       0.343   3.345  85.043  1.00  0.00    -0.374 N 
ATOM     11  H1  UNL     1       1.296   3.114  85.321  1.00  0.00     0.160 HD
BRANCH  10  12
HETATM   12  C2  UNL     1      -0.709   3.029  85.946  1.00  0.00     0.133 C 
HETATM   13  C1  UNL     1      -2.048   3.602  85.550  1.00  0.00     0.037 C 
BRANCH  12  14
HETATM   14  C14 UNL     1      -0.863   1.527  86.047  1.00  0.00     0.276 C 
BRANCH  14  15
HETATM   15  O5  UNL     1      -1.218   1.137  87.345  1.00  0.00    -0.369 OA
ATOM     16  H5  UNL     1      -1.846   1.739  87.727  1.00  0.00     0.212 HD
ENDBRANCH  14  15
BRANCH  14  17
HETATM   17  O6  UNL     1       0.341   0.879  85.700  1.00  0.00    -0.369 OA
ATOM     18  H6  UNL     1       0.177   0.176  85.082  1.00  0.00     0.212 HD
ENDBRANCH  14  17
ENDBRANCH  12  14
ENDBRANCH  10  12
ENDBRANCH   1  10
BRANCH   8  19
HETATM   19  S1  UNL     1      -0.035   8.348  81.504  1.00  0.00    -0.081 SA
BRANCH  19  20
HETATM   20  C9  UNL     1       1.644   8.862  81.171  1.00  0.00     0.093 A 
HETATM   21  C10 UNL     1       2.667   8.013  81.521  1.00  0.00     0.091 A 
HETATM   22  C11 UNL     1       3.965   8.374  81.280  1.00  0.00     0.159 A 
HETATM   23  N6  UNL     1       4.235   9.569  80.697  1.00  0.00    -0.132 N 
HETATM   24  N7  UNL     1       3.236  10.361  80.372  1.00  0.00    -0.214 N 
HETATM   25  N8  UNL     1       1.954  10.035  80.595  1.00  0.00    -0.278 N 
ATOM     26  H7  UNL     1       3.444  11.259  79.934  1.00  0.00     0.211 HD
ATOM     27  H8  UNL     1       1.212  10.680  80.327  1.00  0.00     0.189 HD
BRANCH  22  28
HETATM   28  N3  UNL     1       4.938   7.596  81.600  1.00  0.00    -0.302 N 
HETATM   29  C12 UNL     1       5.358   6.620  80.663  1.00  0.00     0.316 C 
HETATM   30  O2  UNL     1       6.309   6.857  79.879  1.00  0.00    -0.262 OA
ATOM     31  H3  UNL     1       5.396   7.679  82.508  1.00  0.00     0.171 HD
BRANCH  29  32
HETATM   32  C13 UNL     1       4.654   5.336  80.640  1.00  0.00     0.327 C 
HETATM   33  O3  UNL     1       4.455   4.701  79.585  1.00  0.00    -0.261 OA
HETATM   34  N4  UNL     1       4.185   4.806  81.866  1.00  0.00    -0.268 N 
ATOM     35  H4  UNL     1       4.341   5.316  82.736  1.00  0.00     0.190 HD
BRANCH  34  36
HETATM   36  N5  UNL     1       3.515   3.592  81.884  1.00  0.00    -0.342 N 
ATOM     37  H52 UNL     1       4.042   2.732  81.729  1.00  0.00     0.176 HD
ATOM     38  H51 UNL     1       2.508   3.569  82.051  1.00  0.00     0.176 HD
ENDBRANCH  34  36
ENDBRANCH  29  32
ENDBRANCH  22  28
BRANCH  23  39
HETATM   39  O4  UNL     1       5.557   9.909  80.466  1.00  0.00    -0.265 OA
ATOM     40  H4  UNL     1       5.847  10.786  80.688  1.00  0.00     0.247 HD
ENDBRANCH  23  39
ENDBRANCH  19  20
ENDBRANCH   8  19
TORSDOF 11
ENDMDL
