MODEL 1
REMARK VINA RESULT: -7.571855369      0.000      0.000
REMARK  8 active torsions:
REMARK  status: ('A' for Active; 'I' for Inactive)
REMARK    1  A    between atoms: O1_2  and  C2_3 
REMARK    2  A    between atoms: C3_6  and  N2_7 
REMARK    3  A    between atoms: N2_7  and  N3_9 
REMARK       I    between atoms: N3_9  and  C4_11 
REMARK       I    between atoms: C4_11  and  N4_13 
REMARK    4  A    between atoms: N4_13  and  S1_15 
REMARK    5  A    between atoms: S1_15  and  N5_18 
REMARK    6  A    between atoms: N5_18  and  C5_20 
REMARK    7  A    between atoms: C9_27  and  S2_28 
REMARK    8  A    between atoms: C11_36  and  C12_37 
ROOT
HETATM    1  C5  UNL     1       2.212   6.738  81.451  1.00  0.00     0.132 A 
HETATM    2  C6  UNL     1       3.427   7.365  81.495  1.00  0.00     0.138 A 
HETATM    3  N6  UNL     1       3.657   8.193  82.560  1.00  0.00    -0.351 N 
ATOM      4  H6  UNL     1       4.552   8.678  82.631  1.00  0.00     0.166 HD
HETATM    5  C7  UNL     1       2.736   8.381  83.509  1.00  0.00     0.147 A 
HETATM    6  C8  UNL     1       2.998   9.264  84.629  1.00  0.00     0.120 C 
HETATM    7  N7  UNL     1       3.193   9.971  85.544  1.00  0.00    -0.190 NA
HETATM    8  C9  UNL     1       1.503   7.754  83.474  1.00  0.00     0.109 A 
HETATM    9  N8  UNL     1       1.283   6.935  82.422  1.00  0.00    -0.333 N 
ATOM     10  H8  UNL     1       0.389   6.449  82.354  1.00  0.00     0.168 HD
ENDROOT
BRANCH   8  11
HETATM   11  S2  UNL     1       0.305   8.057  84.756  1.00  0.00    -0.114 SA
HETATM   12  C10 UNL     1      -1.182   8.845  84.137  1.00  0.00     0.097 C 
ENDBRANCH   8  11
BRANCH   1  13
HETATM   13  N5  UNL     1       1.924   5.952  80.489  1.00  0.00    -0.251 N 
ATOM     14  H5  UNL     1       2.612   5.262  80.187  1.00  0.00     0.182 HD
BRANCH  13  15
HETATM   15  S1  UNL     1       0.411   6.029  79.693  1.00  0.00     0.328 S 
HETATM   16  O3  UNL     1      -0.501   7.087  80.262  1.00  0.00    -0.182 OA
HETATM   17  O4  UNL     1       0.574   6.341  78.218  1.00  0.00    -0.182 OA
BRANCH  15  18
HETATM   18  N4  UNL     1      -0.463   4.512  79.850  1.00  0.00    -0.217 N 
HETATM   19  C4  UNL     1      -0.027   3.545  80.774  1.00  0.00     0.349 C 
HETATM   20  N3  UNL     1      -0.703   2.322  80.924  1.00  0.00    -0.236 N 
HETATM   21  O2  UNL     1       0.986   3.783  81.477  1.00  0.00    -0.244 OA
ATOM     22  H3  UNL     1      -1.523   2.119  80.352  1.00  0.00     0.192 HD
ATOM     23  H4  UNL     1      -1.285   4.334  79.273  1.00  0.00     0.185 HD
BRANCH  20  24
HETATM   24  N2  UNL     1      -0.250   1.386  81.855  1.00  0.00    -0.127 N 
ATOM     25  H2  UNL     1       0.155   0.504  81.540  1.00  0.00     0.206 HD
BRANCH  24  26
HETATM   26  C3  UNL     1      -0.356   1.665  83.248  1.00  0.00     0.713 A 
HETATM   27  N1  UNL     1      -0.892   2.887  83.732  1.00  0.00    -0.169 N 
HETATM   28  C2  UNL     1      -1.002   3.178  84.969  1.00  0.00     0.168 A 
ATOM     29  H1  UNL     1      -1.210   3.574  83.048  1.00  0.00     0.186 HD
HETATM   30  C11 UNL     1      -0.570   2.276  86.044  1.00  0.00     0.275 A 
HETATM   31  N10 UNL     1      -0.055   1.046  85.504  1.00  0.00    -0.299 N 
HETATM   32  N9  UNL     1       0.028   0.828  84.144  1.00  0.00    -0.134 N 
ATOM     33  H10 UNL     1       0.257   0.315  86.144  1.00  0.00     0.182 HD
ATOM     34  H9  UNL     1       0.420  -0.059  83.828  1.00  0.00     0.205 HD
BRANCH  28  35
HETATM   35  O1  UNL     1      -1.556   4.425  85.327  1.00  0.00    -0.342 OA
HETATM   36  C1  UNL     1      -2.096   5.290  84.342  1.00  0.00     0.211 C 
ENDBRANCH  28  35
BRANCH  30  37
HETATM   37  C12 UNL     1      -1.794   1.894  86.849  1.00  0.00     0.206 C 
HETATM   38  O5  UNL     1      -2.543   0.968  86.401  1.00  0.00    -0.646 OA
HETATM   39  O6  UNL     1      -2.040   2.548  88.022  1.00  0.00    -0.646 OA
ENDBRANCH  30  37
ENDBRANCH  24  26
ENDBRANCH  20  24
ENDBRANCH  15  18
ENDBRANCH  13  15
ENDBRANCH   1  13
TORSDOF 8
ENDMDL
MODEL 2
REMARK VINA RESULT: -7.493907629      1.580      2.473
REMARK  8 active torsions:
REMARK  status: ('A' for Active; 'I' for Inactive)
REMARK    1  A    between atoms: O1_2  and  C2_3 
REMARK    2  A    between atoms: C3_6  and  N2_7 
REMARK    3  A    between atoms: N2_7  and  N3_9 
REMARK       I    between atoms: N3_9  and  C4_11 
REMARK       I    between atoms: C4_11  and  N4_13 
REMARK    4  A    between atoms: N4_13  and  S1_15 
REMARK    5  A    between atoms: S1_15  and  N5_18 
REMARK    6  A    between atoms: N5_18  and  C5_20 
REMARK    7  A    between atoms: C9_27  and  S2_28 
REMARK    8  A    between atoms: C11_36  and  C12_37 
ROOT
HETATM    1  C5  UNL     1       1.499   7.294  81.582  1.00  0.00     0.132 A 
HETATM    2  C6  UNL     1       1.583   8.548  82.123  1.00  0.00     0.138 A 
HETATM    3  N6  UNL     1       2.839   9.026  82.385  1.00  0.00    -0.351 N 
ATOM      4  H6  UNL     1       2.945   9.957  82.787  1.00  0.00     0.166 HD
HETATM    5  C7  UNL     1       3.929   8.299  82.125  1.00  0.00     0.147 A 
HETATM    6  C8  UNL     1       5.252   8.822  82.412  1.00  0.00     0.120 C 
HETATM    7  N7  UNL     1       6.328   9.229  82.632  1.00  0.00    -0.190 NA
HETATM    8  C9  UNL     1       3.857   7.030  81.580  1.00  0.00     0.109 A 
HETATM    9  N8  UNL     1       2.615   6.565  81.321  1.00  0.00    -0.333 N 
ATOM     10  H8  UNL     1       2.511   5.634  80.916  1.00  0.00     0.168 HD
ENDROOT
BRANCH   8  11
HETATM   11  S2  UNL     1       5.343   6.097  81.274  1.00  0.00    -0.114 SA
HETATM   12  C10 UNL     1       5.050   4.645  80.264  1.00  0.00     0.097 C 
ENDBRANCH   8  11
BRANCH   1  13
HETATM   13  N5  UNL     1       0.364   6.782  81.312  1.00  0.00    -0.251 N 
ATOM     14  H5  UNL     1      -0.360   6.765  82.032  1.00  0.00     0.182 HD
BRANCH  13  15
HETATM   15  S1  UNL     1       0.025   6.121  79.771  1.00  0.00     0.328 S 
HETATM   16  O3  UNL     1      -0.964   6.942  78.982  1.00  0.00    -0.182 OA
HETATM   17  O4  UNL     1       1.279   6.017  78.923  1.00  0.00    -0.182 OA
BRANCH  15  18
HETATM   18  N4  UNL     1      -0.689   4.521  79.911  1.00  0.00    -0.217 N 
HETATM   19  C4  UNL     1      -0.172   3.603  80.844  1.00  0.00     0.349 C 
HETATM   20  N3  UNL     1      -0.718   2.316  80.981  1.00  0.00    -0.236 N 
HETATM   21  O2  UNL     1       0.797   3.946  81.567  1.00  0.00    -0.244 OA
ATOM     22  H3  UNL     1      -1.501   2.029  80.393  1.00  0.00     0.192 HD
ATOM     23  H4  UNL     1      -1.475   4.258  79.317  1.00  0.00     0.185 HD
BRANCH  20  24
HETATM   24  N2  UNL     1      -0.189   1.431  81.923  1.00  0.00    -0.127 N 
ATOM     25  H2  UNL     1       0.300   0.590  81.616  1.00  0.00     0.206 HD
BRANCH  24  26
HETATM   26  C3  UNL     1      -0.333   1.707  83.312  1.00  0.00     0.713 A 
HETATM   27  N1  UNL     1      -0.911   2.914  83.784  1.00  0.00    -0.169 N 
HETATM   28  C2  UNL     1      -1.056   3.202  85.018  1.00  0.00     0.168 A 
ATOM     29  H1  UNL     1      -1.230   3.595  83.094  1.00  0.00     0.186 HD
HETATM   30  C11 UNL     1      -0.627   2.310  86.103  1.00  0.00     0.275 A 
HETATM   31  N10 UNL     1      -0.070   1.093  85.575  1.00  0.00    -0.299 N 
HETATM   32  N9  UNL     1       0.050   0.879  84.217  1.00  0.00    -0.134 N 
ATOM     33  H10 UNL     1       0.246   0.370  86.221  1.00  0.00     0.182 HD
ATOM     34  H9  UNL     1       0.471   0.002  83.910  1.00  0.00     0.205 HD
BRANCH  28  35
HETATM   35  O1  UNL     1      -1.649   4.434  85.364  1.00  0.00    -0.342 OA
HETATM   36  C1  UNL     1      -1.877   5.432  84.383  1.00  0.00     0.211 C 
ENDBRANCH  28  35
BRANCH  30  37
HETATM   37  C12 UNL     1      -1.859   1.897  86.880  1.00  0.00     0.206 C 
HETATM   38  O5  UNL     1      -2.120   2.511  87.964  1.00  0.00    -0.646 OA
HETATM   39  O6  UNL     1      -2.643   0.894  86.385  1.00  0.00    -0.646 OA
ENDBRANCH  30  37
ENDBRANCH  24  26
ENDBRANCH  20  24
ENDBRANCH  15  18
ENDBRANCH  13  15
ENDBRANCH   1  13
TORSDOF 8
ENDMDL
MODEL 3
REMARK VINA RESULT: -7.414369725      4.574      6.631
REMARK  8 active torsions:
REMARK  status: ('A' for Active; 'I' for Inactive)
REMARK    1  A    between atoms: O1_2  and  C2_3 
REMARK    2  A    between atoms: C3_6  and  N2_7 
REMARK    3  A    between atoms: N2_7  and  N3_9 
REMARK       I    between atoms: N3_9  and  C4_11 
REMARK       I    between atoms: C4_11  and  N4_13 
REMARK    4  A    between atoms: N4_13  and  S1_15 
REMARK    5  A    between atoms: S1_15  and  N5_18 
REMARK    6  A    between atoms: N5_18  and  C5_20 
REMARK    7  A    between atoms: C9_27  and  S2_28 
REMARK    8  A    between atoms: C11_36  and  C12_37 
ROOT
HETATM    1  C5  UNL     1       2.768   5.536  76.914  1.00  0.00     0.132 A 
HETATM    2  C6  UNL     1       1.607   5.984  76.345  1.00  0.00     0.138 A 
HETATM    3  N6  UNL     1       1.585   6.081  74.979  1.00  0.00    -0.351 N 
ATOM      4  H6  UNL     1       0.738   6.409  74.516  1.00  0.00     0.166 HD
HETATM    5  C7  UNL     1       2.649   5.756  74.241  1.00  0.00     0.147 A 
HETATM    6  C8  UNL     1       2.607   5.868  72.795  1.00  0.00     0.120 C 
HETATM    7  N7  UNL     1       2.590   5.948  71.626  1.00  0.00    -0.190 NA
HETATM    8  C9  UNL     1       3.828   5.304  74.805  1.00  0.00     0.109 A 
HETATM    9  N8  UNL     1       3.843   5.208  76.152  1.00  0.00    -0.333 N 
ATOM     10  H8  UNL     1       4.691   4.876  76.614  1.00  0.00     0.168 HD
ENDROOT
BRANCH   8  11
HETATM   11  S2  UNL     1       5.223   4.905  73.772  1.00  0.00    -0.114 SA
HETATM   12  C10 UNL     1       6.549   4.112  74.680  1.00  0.00     0.097 C 
ENDBRANCH   8  11
BRANCH   1  13
HETATM   13  N5  UNL     1       2.864   5.420  78.180  1.00  0.00    -0.251 N 
ATOM     14  H5  UNL     1       2.015   5.350  78.740  1.00  0.00     0.182 HD
BRANCH  13  15
HETATM   15  S1  UNL     1       4.386   5.379  78.960  1.00  0.00     0.328 S 
HETATM   16  O3  UNL     1       5.329   4.365  78.362  1.00  0.00    -0.182 OA
HETATM   17  O4  UNL     1       5.086   6.723  78.885  1.00  0.00    -0.182 OA
BRANCH  15  18
HETATM   18  N4  UNL     1       4.218   4.932  80.652  1.00  0.00    -0.217 N 
HETATM   19  C4  UNL     1       3.096   5.365  81.382  1.00  0.00     0.349 C 
HETATM   20  N3  UNL     1       2.931   5.026  82.735  1.00  0.00    -0.236 N 
HETATM   21  O2  UNL     1       2.227   6.068  80.809  1.00  0.00    -0.244 OA
ATOM     22  H3  UNL     1       3.635   4.461  83.209  1.00  0.00     0.192 HD
ATOM     23  H4  UNL     1       4.932   4.360  81.103  1.00  0.00     0.185 HD
BRANCH  20  24
HETATM   24  N2  UNL     1       1.802   5.464  83.431  1.00  0.00    -0.127 N 
ATOM     25  H2  UNL     1       1.675   6.457  83.628  1.00  0.00     0.206 HD
BRANCH  24  26
HETATM   26  C3  UNL     1       0.828   4.520  83.865  1.00  0.00     0.713 A 
HETATM   27  N1  UNL     1       0.535   3.347  83.123  1.00  0.00    -0.169 N 
HETATM   28  C2  UNL     1      -0.331   2.478  83.473  1.00  0.00     0.168 A 
ATOM     29  H1  UNL     1       1.048   3.188  82.255  1.00  0.00     0.186 HD
HETATM   30  C11 UNL     1      -1.139   2.601  84.694  1.00  0.00     0.275 A 
HETATM   31  N10 UNL     1      -0.790   3.793  85.420  1.00  0.00    -0.299 N 
HETATM   32  N9  UNL     1       0.161   4.677  84.952  1.00  0.00    -0.134 N 
ATOM     33  H10 UNL     1      -1.257   3.990  86.305  1.00  0.00     0.182 HD
ATOM     34  H9  UNL     1       0.347   5.512  85.507  1.00  0.00     0.205 HD
BRANCH  28  35
HETATM   35  O1  UNL     1      -0.531   1.348  82.653  1.00  0.00    -0.342 OA
HETATM   36  C1  UNL     1      -0.647   1.482  81.246  1.00  0.00     0.211 C 
ENDBRANCH  28  35
BRANCH  30  37
HETATM   37  C12 UNL     1      -0.786   1.444  85.603  1.00  0.00     0.206 C 
HETATM   38  O5  UNL     1      -1.737   0.787  86.137  1.00  0.00    -0.646 OA
HETATM   39  O6  UNL     1       0.531   1.146  85.808  1.00  0.00    -0.646 OA
ENDBRANCH  30  37
ENDBRANCH  24  26
ENDBRANCH  20  24
ENDBRANCH  15  18
ENDBRANCH  13  15
ENDBRANCH   1  13
TORSDOF 8
ENDMDL
MODEL 4
REMARK VINA RESULT: -7.406979925      1.730      1.787
REMARK  8 active torsions:
REMARK  status: ('A' for Active; 'I' for Inactive)
REMARK    1  A    between atoms: O1_2  and  C2_3 
REMARK    2  A    between atoms: C3_6  and  N2_7 
REMARK    3  A    between atoms: N2_7  and  N3_9 
REMARK       I    between atoms: N3_9  and  C4_11 
REMARK       I    between atoms: C4_11  and  N4_13 
REMARK    4  A    between atoms: N4_13  and  S1_15 
REMARK    5  A    between atoms: S1_15  and  N5_18 
REMARK    6  A    between atoms: N5_18  and  C5_20 
REMARK    7  A    between atoms: C9_27  and  S2_28 
REMARK    8  A    between atoms: C11_36  and  C12_37 
ROOT
HETATM    1  C5  UNL     1       2.264   7.462  82.240  1.00  0.00     0.132 A 
HETATM    2  C6  UNL     1       3.134   8.248  82.945  1.00  0.00     0.138 A 
HETATM    3  N6  UNL     1       2.658   9.453  83.387  1.00  0.00    -0.351 N 
ATOM      4  H6  UNL     1       3.275  10.068  83.918  1.00  0.00     0.166 HD
HETATM    5  C7  UNL     1       1.405   9.841  83.139  1.00  0.00     0.147 A 
HETATM    6  C8  UNL     1       0.920  11.123  83.616  1.00  0.00     0.120 C 
HETATM    7  N7  UNL     1       0.510  12.153  83.995  1.00  0.00    -0.190 NA
HETATM    8  C9  UNL     1       0.517   9.056  82.427  1.00  0.00     0.109 A 
HETATM    9  N8  UNL     1       0.991   7.866  81.995  1.00  0.00    -0.333 N 
ATOM     10  H8  UNL     1       0.371   7.251  81.468  1.00  0.00     0.168 HD
ENDROOT
BRANCH   8  11
HETATM   11  S2  UNL     1      -1.138   9.633  82.109  1.00  0.00    -0.114 SA
HETATM   12  C10 UNL     1      -1.258  10.576  80.589  1.00  0.00     0.097 C 
ENDBRANCH   8  11
BRANCH   1  13
HETATM   13  N5  UNL     1       2.634   6.326  81.795  1.00  0.00    -0.251 N 
ATOM     14  H5  UNL     1       3.183   5.710  82.395  1.00  0.00     0.182 HD
BRANCH  13  15
HETATM   15  S1  UNL     1       2.232   5.812  80.213  1.00  0.00     0.328 S 
HETATM   16  O3  UNL     1       1.866   6.953  79.297  1.00  0.00    -0.182 OA
HETATM   17  O4  UNL     1       3.385   5.078  79.557  1.00  0.00    -0.182 OA
BRANCH  15  18
HETATM   18  N4  UNL     1       0.832   4.749  80.231  1.00  0.00    -0.217 N 
HETATM   19  C4  UNL     1       0.802   3.646  81.104  1.00  0.00     0.349 C 
HETATM   20  N3  UNL     1      -0.301   2.776  81.143  1.00  0.00    -0.236 N 
HETATM   21  O2  UNL     1       1.782   3.438  81.862  1.00  0.00    -0.244 OA
ATOM     22  H3  UNL     1      -1.098   2.935  80.526  1.00  0.00     0.192 HD
ATOM     23  H4  UNL     1       0.044   4.931  79.610  1.00  0.00     0.185 HD
BRANCH  20  24
HETATM   24  N2  UNL     1      -0.305   1.695  82.027  1.00  0.00    -0.127 N 
ATOM     25  H2  UNL     1      -0.201   0.744  81.673  1.00  0.00     0.206 HD
BRANCH  24  26
HETATM   26  C3  UNL     1      -0.455   1.924  83.424  1.00  0.00     0.713 A 
HETATM   27  N1  UNL     1      -1.073   3.096  83.933  1.00  0.00    -0.169 N 
HETATM   28  C2  UNL     1      -1.224   3.342  85.175  1.00  0.00     0.168 A 
ATOM     29  H1  UNL     1      -1.417   3.785  83.264  1.00  0.00     0.186 HD
HETATM   30  C11 UNL     1      -0.761   2.433  86.233  1.00  0.00     0.275 A 
HETATM   31  N10 UNL     1      -0.164   1.253  85.667  1.00  0.00    -0.299 N 
HETATM   32  N9  UNL     1      -0.041   1.083  84.303  1.00  0.00    -0.134 N 
ATOM     33  H10 UNL     1       0.178   0.522  86.291  1.00  0.00     0.182 HD
ATOM     34  H9  UNL     1       0.410   0.231  83.970  1.00  0.00     0.205 HD
BRANCH  28  35
HETATM   35  O1  UNL     1      -1.859   4.542  85.559  1.00  0.00    -0.342 OA
HETATM   36  C1  UNL     1      -1.900   5.655  84.682  1.00  0.00     0.211 C 
ENDBRANCH  28  35
BRANCH  30  37
HETATM   37  C12 UNL     1      -1.977   1.955  86.998  1.00  0.00     0.206 C 
HETATM   38  O5  UNL     1      -2.632   0.969  86.531  1.00  0.00    -0.646 OA
HETATM   39  O6  UNL     1      -2.316   2.591  88.158  1.00  0.00    -0.646 OA
ENDBRANCH  30  37
ENDBRANCH  24  26
ENDBRANCH  20  24
ENDBRANCH  15  18
ENDBRANCH  13  15
ENDBRANCH   1  13
TORSDOF 8
ENDMDL
MODEL 5
REMARK VINA RESULT: -7.398992145      1.084      1.175
REMARK  8 active torsions:
REMARK  status: ('A' for Active; 'I' for Inactive)
REMARK    1  A    between atoms: O1_2  and  C2_3 
REMARK    2  A    between atoms: C3_6  and  N2_7 
REMARK    3  A    between atoms: N2_7  and  N3_9 
REMARK       I    between atoms: N3_9  and  C4_11 
REMARK       I    between atoms: C4_11  and  N4_13 
REMARK    4  A    between atoms: N4_13  and  S1_15 
REMARK    5  A    between atoms: S1_15  and  N5_18 
REMARK    6  A    between atoms: N5_18  and  C5_20 
REMARK    7  A    between atoms: C9_27  and  S2_28 
REMARK    8  A    between atoms: C11_36  and  C12_37 
ROOT
HETATM    1  C5  UNL     1       2.802   6.726  80.675  1.00  0.00     0.132 A 
HETATM    2  C6  UNL     1       3.964   7.232  80.160  1.00  0.00     0.138 A 
HETATM    3  N6  UNL     1       4.655   8.116  80.946  1.00  0.00    -0.351 N 
ATOM      4  H6  UNL     1       5.527   8.515  80.599  1.00  0.00     0.166 HD
HETATM    5  C7  UNL     1       4.211   8.467  82.156  1.00  0.00     0.147 A 
HETATM    6  C8  UNL     1       4.956   9.406  82.972  1.00  0.00     0.120 C 
HETATM    7  N7  UNL     1       5.546  10.160  83.648  1.00  0.00    -0.190 NA
HETATM    8  C9  UNL     1       3.037   7.963  82.685  1.00  0.00     0.109 A 
HETATM    9  N8  UNL     1       2.361   7.089  81.907  1.00  0.00    -0.333 N 
ATOM     10  H8  UNL     1       1.490   6.689  82.256  1.00  0.00     0.168 HD
ENDROOT
BRANCH   8  11
HETATM   11  S2  UNL     1       2.482   8.482  84.296  1.00  0.00    -0.114 SA
HETATM   12  C10 UNL     1       0.718   8.262  84.522  1.00  0.00     0.097 C 
ENDBRANCH   8  11
BRANCH   1  13
HETATM   13  N5  UNL     1       2.104   5.899  80.002  1.00  0.00    -0.251 N 
ATOM     14  H5  UNL     1       2.556   5.081  79.593  1.00  0.00     0.182 HD
BRANCH  13  15
HETATM   15  S1  UNL     1       0.424   6.129  79.768  1.00  0.00     0.328 S 
HETATM   16  O3  UNL     1      -0.193   7.048  80.792  1.00  0.00    -0.182 OA
HETATM   17  O4  UNL     1       0.130   6.732  78.407  1.00  0.00    -0.182 OA
BRANCH  15  18
HETATM   18  N4  UNL     1      -0.448   4.609  79.905  1.00  0.00    -0.217 N 
HETATM   19  C4  UNL     1      -0.020   3.637  80.829  1.00  0.00     0.349 C 
HETATM   20  N3  UNL     1      -0.694   2.412  80.963  1.00  0.00    -0.236 N 
HETATM   21  O2  UNL     1       0.984   3.874  81.545  1.00  0.00    -0.244 OA
ATOM     22  H3  UNL     1      -1.506   2.210  80.380  1.00  0.00     0.192 HD
ATOM     23  H4  UNL     1      -1.262   4.431  79.317  1.00  0.00     0.185 HD
BRANCH  20  24
HETATM   24  N2  UNL     1      -0.250   1.471  81.894  1.00  0.00    -0.127 N 
ATOM     25  H2  UNL     1       0.165   0.594  81.579  1.00  0.00     0.206 HD
BRANCH  24  26
HETATM   26  C3  UNL     1      -0.379   1.739  83.287  1.00  0.00     0.713 A 
HETATM   27  N1  UNL     1      -0.944   2.947  83.771  1.00  0.00    -0.169 N 
HETATM   28  C2  UNL     1      -1.075   3.229  85.009  1.00  0.00     0.168 A 
ATOM     29  H1  UNL     1      -1.266   3.634  83.088  1.00  0.00     0.186 HD
HETATM   30  C11 UNL     1      -0.640   2.327  86.084  1.00  0.00     0.275 A 
HETATM   31  N10 UNL     1      -0.096   1.111  85.543  1.00  0.00    -0.299 N 
HETATM   32  N9  UNL     1       0.008   0.904  84.182  1.00  0.00    -0.134 N 
ATOM     33  H10 UNL     1       0.221   0.382  86.182  1.00  0.00     0.182 HD
ATOM     34  H9  UNL     1       0.422   0.026  83.867  1.00  0.00     0.205 HD
BRANCH  28  35
HETATM   35  O1  UNL     1      -1.657   4.463  85.368  1.00  0.00    -0.342 OA
HETATM   36  C1  UNL     1      -1.933   5.449  84.387  1.00  0.00     0.211 C 
ENDBRANCH  28  35
BRANCH  30  37
HETATM   37  C12 UNL     1      -1.867   1.918  86.871  1.00  0.00     0.206 C 
HETATM   38  O5  UNL     1      -2.552   0.931  86.446  1.00  0.00    -0.646 OA
HETATM   39  O6  UNL     1      -2.186   2.612  88.002  1.00  0.00    -0.646 OA
ENDBRANCH  30  37
ENDBRANCH  24  26
ENDBRANCH  20  24
ENDBRANCH  15  18
ENDBRANCH  13  15
ENDBRANCH   1  13
TORSDOF 8
ENDMDL
