MODEL 1
REMARK VINA RESULT: -5.473249371      0.000      0.000
REMARK  1 active torsions:
REMARK  status: ('A' for Active; 'I' for Inactive)
REMARK    1  A    between atoms: C8_10  and  C9_11 
ROOT
HETATM    1  C1  UNL     1      -1.232   2.813  82.894  1.00  0.00     0.314 C 
HETATM    2  N1  UNL     1      -0.524   2.758  84.154  1.00  0.00     0.120 N 
HETATM    3  C2  UNL     1       0.641   3.614  84.159  1.00  0.00     0.276 C 
HETATM    4  C3  UNL     1       0.356   4.786  85.035  1.00  0.00     0.035 C 
HETATM    5  C4  UNL     1      -1.118   4.656  85.420  1.00  0.00     0.074 C 
HETATM    6  C5  UNL     1      -1.290   3.149  85.272  1.00  0.00     0.270 C 
HETATM    7  O1  UNL     1      -2.617   2.788  85.282  1.00  0.00    -0.352 OA
HETATM    8  C6  UNL     1      -3.006   3.195  86.577  1.00  0.00     0.172 C 
HETATM    9  C7  UNL     1      -1.865   2.894  87.503  1.00  0.00     0.043 C 
HETATM   10  C8  UNL     1      -0.784   2.447  86.512  1.00  0.00     0.118 C 
ENDROOT
BRANCH  10  11
HETATM   11  C9  UNL     1      -0.866   0.981  86.284  1.00  0.00     0.095 C 
HETATM   12  N2  UNL     1      -0.126   0.432  85.398  1.00  0.00    -0.391 N 
ATOM     13  H22 UNL     1       0.508   1.030  84.867  1.00  0.00     0.157 HD
ATOM     14  H21 UNL     1      -0.181  -0.575  85.242  1.00  0.00     0.157 HD
HETATM   15  N3  UNL     1      -1.750   0.147  87.024  1.00  0.00    -0.087 NA
ENDBRANCH  10  11
TORSDOF 1
ENDMDL
MODEL 2
REMARK VINA RESULT: -5.456369401      2.166      3.976
REMARK  1 active torsions:
REMARK  status: ('A' for Active; 'I' for Inactive)
REMARK    1  A    between atoms: C8_10  and  C9_11 
ROOT
HETATM    1  C1  UNL     1      -0.684   2.761  86.241  1.00  0.00     0.314 C 
HETATM    2  N1  UNL     1      -1.021   3.464  85.022  1.00  0.00     0.120 N 
HETATM    3  C2  UNL     1      -2.241   4.229  85.159  1.00  0.00     0.276 C 
HETATM    4  C3  UNL     1      -1.883   5.675  85.206  1.00  0.00     0.035 C 
HETATM    5  C4  UNL     1      -0.355   5.713  85.258  1.00  0.00     0.074 C 
HETATM    6  C5  UNL     1      -0.041   4.381  84.587  1.00  0.00     0.270 C 
HETATM    7  O1  UNL     1       1.275   4.024  84.760  1.00  0.00    -0.352 OA
HETATM    8  C6  UNL     1       1.938   5.073  84.087  1.00  0.00     0.172 C 
HETATM    9  C7  UNL     1       1.129   5.406  82.868  1.00  0.00     0.043 C 
HETATM   10  C8  UNL     1      -0.111   4.530  83.084  1.00  0.00     0.118 C 
ENDROOT
BRANCH  10  11
HETATM   11  C9  UNL     1       0.089   3.191  82.472  1.00  0.00     0.095 C 
HETATM   12  N2  UNL     1       1.274   2.751  82.275  1.00  0.00    -0.391 N 
ATOM     13  H22 UNL     1       2.057   3.346  82.551  1.00  0.00     0.157 HD
ATOM     14  H21 UNL     1       1.412   1.831  81.855  1.00  0.00     0.157 HD
HETATM   15  N3  UNL     1      -1.001   2.362  82.088  1.00  0.00    -0.087 NA
ENDBRANCH  10  11
TORSDOF 1
ENDMDL
MODEL 3
REMARK VINA RESULT: -5.257455773      1.625      2.295
REMARK  1 active torsions:
REMARK  status: ('A' for Active; 'I' for Inactive)
REMARK    1  A    between atoms: C8_10  and  C9_11 
ROOT
HETATM    1  C1  UNL     1      -0.880   2.138  82.124  1.00  0.00     0.314 C 
HETATM    2  N1  UNL     1      -0.112   2.767  83.176  1.00  0.00     0.120 N 
HETATM    3  C2  UNL     1       1.191   3.194  82.714  1.00  0.00     0.276 C 
HETATM    4  C3  UNL     1       1.189   4.682  82.622  1.00  0.00     0.035 C 
HETATM    5  C4  UNL     1      -0.254   5.104  82.899  1.00  0.00     0.074 C 
HETATM    6  C5  UNL     1      -0.715   3.915  83.733  1.00  0.00     0.270 C 
HETATM    7  O1  UNL     1      -2.082   3.898  83.880  1.00  0.00    -0.352 OA
HETATM    8  C6  UNL     1      -2.300   5.100  84.589  1.00  0.00     0.172 C 
HETATM    9  C7  UNL     1      -1.175   5.251  85.570  1.00  0.00     0.043 C 
HETATM   10  C8  UNL     1      -0.267   4.084  85.167  1.00  0.00     0.118 C 
ENDROOT
BRANCH  10  11
HETATM   11  C9  UNL     1      -0.636   2.858  85.920  1.00  0.00     0.095 C 
HETATM   12  N2  UNL     1      -1.838   2.698  86.327  1.00  0.00    -0.391 N 
ATOM     13  H22 UNL     1      -2.515   3.431  86.117  1.00  0.00     0.157 HD
ATOM     14  H21 UNL     1      -2.091   1.855  86.844  1.00  0.00     0.157 HD
HETATM   15  N3  UNL     1       0.309   1.836  86.214  1.00  0.00    -0.087 NA
ENDBRANCH  10  11
TORSDOF 1
ENDMDL
MODEL 4
REMARK VINA RESULT: -5.242193553      2.510      3.763
REMARK  1 active torsions:
REMARK  status: ('A' for Active; 'I' for Inactive)
REMARK    1  A    between atoms: C8_10  and  C9_11 
ROOT
HETATM    1  C1  UNL     1      -1.578   6.977  82.368  1.00  0.00     0.314 C 
HETATM    2  N1  UNL     1      -0.589   6.581  83.348  1.00  0.00     0.120 N 
HETATM    3  C2  UNL     1      -0.201   7.683  84.201  1.00  0.00     0.276 C 
HETATM    4  C3  UNL     1      -0.784   7.456  85.553  1.00  0.00     0.035 C 
HETATM    5  C4  UNL     1      -1.686   6.230  85.405  1.00  0.00     0.074 C 
HETATM    6  C5  UNL     1      -1.009   5.554  84.219  1.00  0.00     0.270 C 
HETATM    7  O1  UNL     1      -1.795   4.559  83.686  1.00  0.00    -0.352 OA
HETATM    8  C6  UNL     1      -1.880   3.661  84.771  1.00  0.00     0.172 C 
HETATM    9  C7  UNL     1      -0.540   3.644  85.445  1.00  0.00     0.043 C 
HETATM   10  C8  UNL     1       0.189   4.761  84.691  1.00  0.00     0.118 C 
ENDROOT
BRANCH  10  11
HETATM   11  C9  UNL     1       0.885   4.211  83.498  1.00  0.00     0.095 C 
HETATM   12  N2  UNL     1       0.502   3.101  82.993  1.00  0.00    -0.391 N 
ATOM     13  H22 UNL     1      -0.283   2.620  83.434  1.00  0.00     0.157 HD
ATOM     14  H21 UNL     1       0.979   2.723  82.174  1.00  0.00     0.157 HD
HETATM   15  N3  UNL     1       1.979   4.880  82.884  1.00  0.00    -0.087 NA
ENDBRANCH  10  11
TORSDOF 1
ENDMDL
MODEL 5
REMARK VINA RESULT: -5.121431354      2.585      3.775
REMARK  1 active torsions:
REMARK  status: ('A' for Active; 'I' for Inactive)
REMARK    1  A    between atoms: C8_10  and  C9_11 
ROOT
HETATM    1  C1  UNL     1       1.523   4.227  82.659  1.00  0.00     0.314 C 
HETATM    2  N1  UNL     1       0.089   4.049  82.724  1.00  0.00     0.120 N 
HETATM    3  C2  UNL     1      -0.414   3.291  81.599  1.00  0.00     0.276 C 
HETATM    4  C3  UNL     1      -0.808   1.939  82.086  1.00  0.00     0.035 C 
HETATM    5  C4  UNL     1      -0.350   1.882  83.543  1.00  0.00     0.074 C 
HETATM    6  C5  UNL     1      -0.364   3.370  83.875  1.00  0.00     0.270 C 
HETATM    7  O1  UNL     1       0.290   3.631  85.056  1.00  0.00    -0.352 OA
HETATM    8  C6  UNL     1      -0.510   2.922  85.979  1.00  0.00     0.172 C 
HETATM    9  C7  UNL     1      -1.939   3.086  85.551  1.00  0.00     0.043 C 
HETATM   10  C8  UNL     1      -1.769   3.812  84.212  1.00  0.00     0.118 C 
ENDROOT
BRANCH  10  11
HETATM   11  C9  UNL     1      -1.760   5.283  84.418  1.00  0.00     0.095 C 
HETATM   12  N2  UNL     1      -1.459   5.763  85.566  1.00  0.00    -0.391 N 
ATOM     13  H22 UNL     1      -1.232   5.108  86.314  1.00  0.00     0.157 HD
ATOM     14  H21 UNL     1      -1.452   6.774  85.707  1.00  0.00     0.157 HD
HETATM   15  N3  UNL     1      -2.077   6.198  83.376  1.00  0.00    -0.087 NA
ENDBRANCH  10  11
TORSDOF 1
ENDMDL
