MODEL 1
REMARK VINA RESULT: -6.107142776      0.000      0.000
REMARK  1 active torsions:
REMARK  status: ('A' for Active; 'I' for Inactive)
REMARK    1  A    between atoms: N1_1  and  N2_4 
REMARK       I    between atoms: N2_4  and  C1_6 
REMARK       I    between atoms: C1_6  and  N3_8 
ROOT
HETATM    1  N2  UNL     1      -1.844   1.580  87.022  1.00  0.00    -0.258 N 
ATOM      2  H2  UNL     1      -2.690   2.138  87.143  1.00  0.00     0.191 HD
HETATM    3  C1  UNL     1      -0.713   2.155  86.402  1.00  0.00     0.336 C 
HETATM    4  O1  UNL     1       0.317   1.399  86.283  1.00  0.00    -0.245 OA
HETATM    5  N3  UNL     1      -0.698   3.489  85.933  1.00  0.00    -0.330 N 
HETATM    6  C2  UNL     1       0.398   4.157  85.296  1.00  0.00     0.131 C 
HETATM    7  C3  UNL     1      -0.328   4.828  84.138  1.00  0.00     0.059 C 
HETATM    8  C4  UNL     1      -1.542   5.366  84.860  1.00  0.00     0.078 C 
HETATM    9  C5  UNL     1      -1.290   6.768  85.368  1.00  0.00     0.042 C 
HETATM   10  C6  UNL     1      -1.725   7.605  84.190  1.00  0.00     0.029 C 
HETATM   11  C7  UNL     1      -2.350   6.588  83.246  1.00  0.00     0.169 C 
HETATM   12  O2  UNL     1      -2.649   5.477  84.035  1.00  0.00    -0.378 OA
HETATM   13  C8  UNL     1      -1.786   4.417  86.015  1.00  0.00     0.165 C 
ENDROOT
BRANCH   1  14
HETATM   14  N1  UNL     1      -1.821   0.272  87.467  1.00  0.00    -0.341 N 
ATOM     15  H12 UNL     1      -1.557   0.092  88.435  1.00  0.00     0.177 HD
ATOM     16  H11 UNL     1      -2.062  -0.498  86.843  1.00  0.00     0.177 HD
ENDBRANCH   1  14
TORSDOF 1
ENDMDL
MODEL 2
REMARK VINA RESULT: -5.495144313      2.688      3.079
REMARK  1 active torsions:
REMARK  status: ('A' for Active; 'I' for Inactive)
REMARK    1  A    between atoms: N1_1  and  N2_4 
REMARK       I    between atoms: N2_4  and  C1_6 
REMARK       I    between atoms: C1_6  and  N3_8 
ROOT
HETATM    1  N2  UNL     1      -0.281   0.442  82.453  1.00  0.00    -0.258 N 
ATOM      2  H2  UNL     1      -0.311   1.175  81.745  1.00  0.00     0.191 HD
HETATM    3  C1  UNL     1      -0.493   0.773  83.809  1.00  0.00     0.336 C 
HETATM    4  O1  UNL     1      -0.444  -0.198  84.647  1.00  0.00    -0.245 OA
HETATM    5  N3  UNL     1      -0.747   2.096  84.239  1.00  0.00    -0.330 N 
HETATM    6  C2  UNL     1      -0.974   2.526  85.587  1.00  0.00     0.131 C 
HETATM    7  C3  UNL     1      -0.084   3.761  85.631  1.00  0.00     0.059 C 
HETATM    8  C4  UNL     1      -0.441   4.396  84.308  1.00  0.00     0.078 C 
HETATM    9  C5  UNL     1      -1.595   5.360  84.464  1.00  0.00     0.042 C 
HETATM   10  C6  UNL     1      -0.880   6.646  84.792  1.00  0.00     0.029 C 
HETATM   11  C7  UNL     1       0.588   6.297  84.584  1.00  0.00     0.169 C 
HETATM   12  O2  UNL     1       0.592   5.155  83.784  1.00  0.00    -0.378 OA
HETATM   13  C8  UNL     1      -0.824   3.250  83.394  1.00  0.00     0.165 C 
ENDROOT
BRANCH   1  14
HETATM   14  N1  UNL     1      -0.035  -0.864  82.072  1.00  0.00    -0.341 N 
ATOM     15  H12 UNL     1      -0.054  -1.092  81.078  1.00  0.00     0.177 HD
ATOM     16  H11 UNL     1       0.161  -1.584  82.766  1.00  0.00     0.177 HD
ENDBRANCH   1  14
TORSDOF 1
ENDMDL
MODEL 3
REMARK VINA RESULT: -5.492045630      3.232      4.979
REMARK  1 active torsions:
REMARK  status: ('A' for Active; 'I' for Inactive)
REMARK    1  A    between atoms: N1_1  and  N2_4 
REMARK       I    between atoms: N2_4  and  C1_6 
REMARK       I    between atoms: C1_6  and  N3_8 
ROOT
HETATM    1  N2  UNL     1       2.921   5.123  83.341  1.00  0.00    -0.258 N 
ATOM      2  H2  UNL     1       2.928   5.301  84.346  1.00  0.00     0.191 HD
HETATM    3  C1  UNL     1       1.785   4.533  82.746  1.00  0.00     0.336 C 
HETATM    4  O1  UNL     1       1.842   4.339  81.479  1.00  0.00    -0.245 OA
HETATM    5  N3  UNL     1       0.639   4.169  83.490  1.00  0.00    -0.330 N 
HETATM    6  C2  UNL     1      -0.557   3.568  82.975  1.00  0.00     0.131 C 
HETATM    7  C3  UNL     1      -0.781   2.478  84.014  1.00  0.00     0.059 C 
HETATM    8  C4  UNL     1      -0.522   3.259  85.281  1.00  0.00     0.078 C 
HETATM    9  C5  UNL     1      -1.800   3.870  85.810  1.00  0.00     0.042 C 
HETATM   10  C6  UNL     1      -2.325   2.769  86.697  1.00  0.00     0.029 C 
HETATM   11  C7  UNL     1      -1.187   1.758  86.716  1.00  0.00     0.169 C 
HETATM   12  O2  UNL     1      -0.052   2.462  86.313  1.00  0.00    -0.378 OA
HETATM   13  C8  UNL     1       0.468   4.339  84.901  1.00  0.00     0.165 C 
ENDROOT
BRANCH   1  14
HETATM   14  N1  UNL     1       4.024   5.464  82.582  1.00  0.00    -0.341 N 
ATOM     15  H12 UNL     1       4.002   6.339  82.057  1.00  0.00     0.177 HD
ATOM     16  H11 UNL     1       4.843   4.857  82.545  1.00  0.00     0.177 HD
ENDBRANCH   1  14
TORSDOF 1
ENDMDL
MODEL 4
REMARK VINA RESULT: -5.231656876      2.627      4.859
REMARK  1 active torsions:
REMARK  status: ('A' for Active; 'I' for Inactive)
REMARK    1  A    between atoms: N1_1  and  N2_4 
REMARK       I    between atoms: N2_4  and  C1_6 
REMARK       I    between atoms: C1_6  and  N3_8 
ROOT
HETATM    1  N2  UNL     1      -0.419   3.175  81.706  1.00  0.00    -0.258 N 
ATOM      2  H2  UNL     1      -0.385   2.185  81.949  1.00  0.00     0.191 HD
HETATM    3  C1  UNL     1      -0.662   4.132  82.715  1.00  0.00     0.336 C 
HETATM    4  O1  UNL     1      -0.691   5.360  82.341  1.00  0.00    -0.245 OA
HETATM    5  N3  UNL     1      -0.863   3.777  84.068  1.00  0.00    -0.330 N 
HETATM    6  C2  UNL     1      -1.114   4.674  85.158  1.00  0.00     0.131 C 
HETATM    7  C3  UNL     1      -2.259   3.947  85.851  1.00  0.00     0.059 C 
HETATM    8  C4  UNL     1      -1.732   2.532  85.825  1.00  0.00     0.078 C 
HETATM    9  C5  UNL     1      -0.933   2.229  87.073  1.00  0.00     0.042 C 
HETATM   10  C6  UNL     1      -2.003   1.724  88.008  1.00  0.00     0.029 C 
HETATM   11  C7  UNL     1      -3.231   1.615  87.115  1.00  0.00     0.169 C 
HETATM   12  O2  UNL     1      -2.743   1.585  85.808  1.00  0.00    -0.378 OA
HETATM   13  C8  UNL     1      -0.852   2.445  84.595  1.00  0.00     0.165 C 
ENDROOT
BRANCH   1  14
HETATM   14  N1  UNL     1      -0.227   3.561  80.393  1.00  0.00    -0.341 N 
ATOM     15  H12 UNL     1      -1.042   3.644  79.786  1.00  0.00     0.177 HD
ATOM     16  H11 UNL     1       0.708   3.760  80.037  1.00  0.00     0.177 HD
ENDBRANCH   1  14
TORSDOF 1
ENDMDL
MODEL 5
REMARK VINA RESULT: -5.167615010      2.059      2.749
REMARK  1 active torsions:
REMARK  status: ('A' for Active; 'I' for Inactive)
REMARK    1  A    between atoms: N1_1  and  N2_4 
REMARK       I    between atoms: N2_4  and  C1_6 
REMARK       I    between atoms: C1_6  and  N3_8 
ROOT
HETATM    1  N2  UNL     1      -1.424   1.127  86.558  1.00  0.00    -0.258 N 
ATOM      2  H2  UNL     1      -0.800   0.750  85.844  1.00  0.00     0.191 HD
HETATM    3  C1  UNL     1      -1.831   2.477  86.484  1.00  0.00     0.336 C 
HETATM    4  O1  UNL     1      -2.618   2.886  87.412  1.00  0.00    -0.245 OA
HETATM    5  N3  UNL     1      -1.406   3.344  85.452  1.00  0.00    -0.330 N 
HETATM    6  C2  UNL     1      -1.765   4.724  85.294  1.00  0.00     0.131 C 
HETATM    7  C3  UNL     1      -0.402   5.325  84.980  1.00  0.00     0.059 C 
HETATM    8  C4  UNL     1       0.116   4.309  83.989  1.00  0.00     0.078 C 
HETATM    9  C5  UNL     1      -0.256   4.695  82.575  1.00  0.00     0.042 C 
HETATM   10  C6  UNL     1       0.914   5.558  82.173  1.00  0.00     0.029 C 
HETATM   11  C7  UNL     1       1.890   5.392  83.330  1.00  0.00     0.169 C 
HETATM   12  O2  UNL     1       1.499   4.224  83.985  1.00  0.00    -0.378 OA
HETATM   13  C8  UNL     1      -0.533   2.996  84.372  1.00  0.00     0.165 C 
ENDROOT
BRANCH   1  14
HETATM   14  N1  UNL     1      -1.861   0.309  87.582  1.00  0.00    -0.341 N 
ATOM     15  H12 UNL     1      -1.180  -0.286  88.054  1.00  0.00     0.177 HD
ATOM     16  H11 UNL     1      -2.842   0.299  87.863  1.00  0.00     0.177 HD
ENDBRANCH   1  14
TORSDOF 1
ENDMDL
