MODEL 1
REMARK VINA RESULT: -5.654837823      0.000      0.000
REMARK  2 active torsions:
REMARK  status: ('A' for Active; 'I' for Inactive)
REMARK       I    between atoms: C2_2  and  N1_4 
REMARK    1  A    between atoms: N1_4  and  C3_6 
REMARK    2  A    between atoms: C3_6  and  N2_7 
ROOT
HETATM    1  C3  UNL     1      -0.890   3.036  85.302  1.00  0.00     0.273 C 
HETATM    2  C4  UNL     1      -1.723   4.199  85.760  1.00  0.00     0.087 C 
HETATM    3  C5  UNL     1      -2.799   3.675  86.622  1.00  0.00     0.036 C 
HETATM    4  C6  UNL     1      -2.361   2.261  86.934  1.00  0.00     0.024 C 
HETATM    5  C7  UNL     1      -3.576   1.329  86.988  1.00  0.00     0.038 C 
HETATM    6  C8  UNL     1      -1.730   2.292  88.314  1.00  0.00     0.038 C 
HETATM    7  N3  UNL     1      -1.463   1.935  85.922  1.00  0.00    -0.361 N 
HETATM    8  C9  UNL     1      -0.831   0.693  85.901  1.00  0.00     0.148 C 
ENDROOT
BRANCH   1   9
HETATM    9  N1  UNL     1      -0.781   2.965  83.860  1.00  0.00    -0.312 N 
HETATM   10  C2  UNL     1      -0.158   3.981  83.084  1.00  0.00     0.216 C 
HETATM   11  C1  UNL     1      -0.027   3.942  81.615  1.00  0.00     0.117 C 
HETATM   12  O1  UNL     1       0.309   4.970  83.699  1.00  0.00    -0.274 OA
ATOM     13  H1  UNL     1      -1.168   2.153  83.380  1.00  0.00     0.166 HD
ENDBRANCH   1   9
BRANCH   1  14
HETATM   14  N2  UNL     1       0.494   3.146  85.808  1.00  0.00    -0.034 N 
ATOM     15  H23 UNL     1       0.831   2.296  86.259  1.00  0.00     0.279 HD
ATOM     16  H22 UNL     1       1.196   3.179  85.069  1.00  0.00     0.279 HD
ATOM     17  H21 UNL     1       0.504   3.963  86.418  1.00  0.00     0.279 HD
ENDBRANCH   1  14
TORSDOF 2
ENDMDL
MODEL 2
REMARK VINA RESULT: -5.419877956      1.331      2.458
REMARK  2 active torsions:
REMARK  status: ('A' for Active; 'I' for Inactive)
REMARK       I    between atoms: C2_2  and  N1_4 
REMARK    1  A    between atoms: N1_4  and  C3_6 
REMARK    2  A    between atoms: C3_6  and  N2_7 
ROOT
HETATM    1  C3  UNL     1      -1.135   3.203  85.572  1.00  0.00     0.273 C 
HETATM    2  C4  UNL     1      -0.575   1.810  85.626  1.00  0.00     0.087 C 
HETATM    3  C5  UNL     1      -1.041   1.182  86.877  1.00  0.00     0.036 C 
HETATM    4  C6  UNL     1      -2.149   2.096  87.353  1.00  0.00     0.024 C 
HETATM    5  C7  UNL     1      -2.133   2.194  88.882  1.00  0.00     0.038 C 
HETATM    6  C8  UNL     1      -3.459   1.451  86.937  1.00  0.00     0.038 C 
HETATM    7  N3  UNL     1      -1.905   3.311  86.722  1.00  0.00    -0.361 N 
HETATM    8  C9  UNL     1      -2.754   4.399  86.914  1.00  0.00     0.148 C 
ENDROOT
BRANCH   1   9
HETATM    9  N1  UNL     1      -0.107   4.208  85.402  1.00  0.00    -0.312 N 
HETATM   10  C2  UNL     1       0.723   4.273  84.249  1.00  0.00     0.216 C 
HETATM   11  C1  UNL     1       1.778   5.283  84.041  1.00  0.00     0.117 C 
HETATM   12  O1  UNL     1       0.536   3.412  83.355  1.00  0.00    -0.274 OA
ATOM     13  H1  UNL     1       0.029   4.898  86.140  1.00  0.00     0.166 HD
ENDBRANCH   1   9
BRANCH   1  14
HETATM   14  N2  UNL     1      -2.050   3.360  84.422  1.00  0.00    -0.034 N 
ATOM     15  H23 UNL     1      -2.789   4.045  84.581  1.00  0.00     0.279 HD
ATOM     16  H22 UNL     1      -1.622   3.825  83.622  1.00  0.00     0.279 HD
ATOM     17  H21 UNL     1      -2.398   2.425  84.213  1.00  0.00     0.279 HD
ENDBRANCH   1  14
TORSDOF 2
ENDMDL
MODEL 3
REMARK VINA RESULT: -4.948462677      1.952      4.660
REMARK  2 active torsions:
REMARK  status: ('A' for Active; 'I' for Inactive)
REMARK       I    between atoms: C2_2  and  N1_4 
REMARK    1  A    between atoms: N1_4  and  C3_6 
REMARK    2  A    between atoms: C3_6  and  N2_7 
ROOT
HETATM    1  C3  UNL     1      -0.692   3.020  84.909  1.00  0.00     0.273 C 
HETATM    2  C4  UNL     1      -0.527   2.068  83.759  1.00  0.00     0.087 C 
HETATM    3  C5  UNL     1      -0.328   2.866  82.535  1.00  0.00     0.036 C 
HETATM    4  C6  UNL     1      -0.028   4.256  83.050  1.00  0.00     0.024 C 
HETATM    5  C7  UNL     1      -0.653   5.309  82.129  1.00  0.00     0.038 C 
HETATM    6  C8  UNL     1       1.480   4.426  83.002  1.00  0.00     0.038 C 
HETATM    7  N3  UNL     1      -0.546   4.278  84.341  1.00  0.00    -0.361 N 
HETATM    8  C9  UNL     1      -0.429   5.414  85.139  1.00  0.00     0.148 C 
ENDROOT
BRANCH   1   9
HETATM    9  N1  UNL     1      -1.919   2.795  85.644  1.00  0.00    -0.312 N 
HETATM   10  C2  UNL     1      -2.188   1.586  86.343  1.00  0.00     0.216 C 
HETATM   11  C1  UNL     1      -3.425   1.324  87.102  1.00  0.00     0.117 C 
HETATM   12  O1  UNL     1      -1.308   0.692  86.306  1.00  0.00    -0.274 OA
ATOM     13  H1  UNL     1      -2.621   3.535  85.661  1.00  0.00     0.166 HD
ENDBRANCH   1   9
BRANCH   1  14
HETATM   14  N2  UNL     1       0.402   2.858  85.889  1.00  0.00    -0.034 N 
ATOM     15  H23 UNL     1       0.676   1.887  86.038  1.00  0.00     0.279 HD
ATOM     16  H22 UNL     1       1.305   3.189  85.550  1.00  0.00     0.279 HD
ATOM     17  H21 UNL     1       0.088   3.328  86.738  1.00  0.00     0.279 HD
ENDBRANCH   1  14
TORSDOF 2
ENDMDL
MODEL 4
REMARK VINA RESULT: -4.787669310      2.474      3.934
REMARK  2 active torsions:
REMARK  status: ('A' for Active; 'I' for Inactive)
REMARK       I    between atoms: C2_2  and  N1_4 
REMARK    1  A    between atoms: N1_4  and  C3_6 
REMARK    2  A    between atoms: C3_6  and  N2_7 
ROOT
HETATM    1  C3  UNL     1      -0.442   4.382  83.912  1.00  0.00     0.273 C 
HETATM    2  C4  UNL     1       0.210   5.309  82.927  1.00  0.00     0.087 C 
HETATM    3  C5  UNL     1      -0.440   6.627  83.045  1.00  0.00     0.036 C 
HETATM    4  C6  UNL     1      -1.216   6.536  84.340  1.00  0.00     0.024 C 
HETATM    5  C7  UNL     1      -2.545   7.289  84.216  1.00  0.00     0.038 C 
HETATM    6  C8  UNL     1      -0.381   7.229  85.402  1.00  0.00     0.038 C 
HETATM    7  N3  UNL     1      -1.376   5.173  84.565  1.00  0.00    -0.361 N 
HETATM    8  C9  UNL     1      -2.038   4.709  85.700  1.00  0.00     0.148 C 
ENDROOT
BRANCH   1   9
HETATM    9  N1  UNL     1      -0.955   3.180  83.287  1.00  0.00    -0.312 N 
HETATM   10  C2  UNL     1      -0.123   2.253  82.601  1.00  0.00     0.216 C 
HETATM   11  C1  UNL     1      -0.610   1.020  81.955  1.00  0.00     0.117 C 
HETATM   12  O1  UNL     1       1.104   2.511  82.548  1.00  0.00    -0.274 OA
ATOM     13  H1  UNL     1      -1.956   2.991  83.341  1.00  0.00     0.166 HD
ENDBRANCH   1   9
BRANCH   1  14
HETATM   14  N2  UNL     1       0.527   3.926  84.930  1.00  0.00    -0.034 N 
ATOM     15  H23 UNL     1       0.093   3.651  85.811  1.00  0.00     0.279 HD
ATOM     16  H22 UNL     1       0.950   3.024  84.716  1.00  0.00     0.279 HD
ATOM     17  H21 UNL     1       1.205   4.682  85.028  1.00  0.00     0.279 HD
ENDBRANCH   1  14
TORSDOF 2
ENDMDL
MODEL 5
REMARK VINA RESULT: -4.757173583      1.872      4.683
REMARK  2 active torsions:
REMARK  status: ('A' for Active; 'I' for Inactive)
REMARK       I    between atoms: C2_2  and  N1_4 
REMARK    1  A    between atoms: N1_4  and  C3_6 
REMARK    2  A    between atoms: C3_6  and  N2_7 
ROOT
HETATM    1  C3  UNL     1      -0.804   3.257  84.548  1.00  0.00     0.273 C 
HETATM    2  C4  UNL     1      -0.006   4.340  85.216  1.00  0.00     0.087 C 
HETATM    3  C5  UNL     1       1.093   4.719  84.308  1.00  0.00     0.036 C 
HETATM    4  C6  UNL     1       0.704   4.098  82.985  1.00  0.00     0.024 C 
HETATM    5  C7  UNL     1       1.949   3.589  82.251  1.00  0.00     0.038 C 
HETATM    6  C8  UNL     1       0.083   5.201  82.148  1.00  0.00     0.038 C 
HETATM    7  N3  UNL     1      -0.191   3.085  83.315  1.00  0.00    -0.361 N 
HETATM    8  C9  UNL     1      -0.782   2.302  82.326  1.00  0.00     0.148 C 
ENDROOT
BRANCH   1   9
HETATM    9  N1  UNL     1      -0.923   2.070  85.368  1.00  0.00    -0.312 N 
HETATM   10  C2  UNL     1      -1.711   2.026  86.551  1.00  0.00     0.216 C 
HETATM   11  C1  UNL     1      -1.856   0.835  87.409  1.00  0.00     0.117 C 
HETATM   12  O1  UNL     1      -2.320   3.074  86.876  1.00  0.00    -0.274 OA
ATOM     13  H1  UNL     1      -0.419   1.229  85.086  1.00  0.00     0.166 HD
ENDBRANCH   1   9
BRANCH   1  14
HETATM   14  N2  UNL     1      -2.187   3.706  84.284  1.00  0.00    -0.034 N 
ATOM     15  H23 UNL     1      -2.334   4.032  83.329  1.00  0.00     0.279 HD
ATOM     16  H22 UNL     1      -2.865   2.945  84.260  1.00  0.00     0.279 HD
ATOM     17  H21 UNL     1      -2.391   4.412  84.991  1.00  0.00     0.279 HD
ENDBRANCH   1  14
TORSDOF 2
ENDMDL
