MODEL 1
REMARK VINA RESULT: -5.644352096      0.000      0.000
REMARK  3 active torsions:
REMARK  status: ('A' for Active; 'I' for Inactive)
REMARK    1  A    between atoms: C2_2  and  N1_3 
REMARK    2  A    between atoms: C2_2  and  C3_7 
REMARK    3  A    between atoms: C4_8  and  C5_9 
ROOT
HETATM    1  C5  UNL     1      -0.645   4.517  84.952  1.00  0.00     0.089 C 
HETATM    2  N2  UNL     1      -0.041   3.459  85.378  1.00  0.00    -0.355 N 
ATOM      3  H2  UNL     1       0.951   3.415  85.610  1.00  0.00     0.162 HD
HETATM    4  C6  UNL     1      -0.949   2.357  85.481  1.00  0.00     0.322 C 
HETATM    5  C7  UNL     1      -0.630   1.394  86.574  1.00  0.00     0.057 C 
HETATM    6  C8  UNL     1      -1.817   1.165  87.504  1.00  0.00     0.005 C 
HETATM    7  C9  UNL     1      -2.211   2.530  88.034  1.00  0.00     0.030 C 
HETATM    8  C10 UNL     1      -2.499   3.499  86.930  1.00  0.00     0.275 C 
HETATM    9  N3  UNL     1      -2.227   2.998  85.618  1.00  0.00     0.117 N 
HETATM   10  C11 UNL     1      -2.081   4.148  84.734  1.00  0.00     0.341 C 
ENDROOT
BRANCH   1  11
HETATM   11  C4  UNL     1      -0.011   5.791  84.741  1.00  0.00    -0.050 C 
HETATM   12  C3  UNL     1       0.511   6.863  84.545  1.00  0.00    -0.067 C 
BRANCH  12  13
HETATM   13  C2  UNL     1       1.130   8.184  84.294  1.00  0.00     0.258 C 
HETATM   14  C1  UNL     1       2.128   8.451  85.388  1.00  0.00     0.053 C 
BRANCH  13  15
HETATM   15  N1  UNL     1       0.094   9.197  84.253  1.00  0.00    -0.065 N 
ATOM     16  H13 UNL     1      -0.835   8.777  84.240  1.00  0.00     0.275 HD
ATOM     17  H12 UNL     1       0.030   9.699  85.139  1.00  0.00     0.275 HD
ATOM     18  H11 UNL     1       0.223   9.838  83.470  1.00  0.00     0.275 HD
ENDBRANCH  13  15
ENDBRANCH  12  13
ENDBRANCH   1  11
TORSDOF 3
ENDMDL
MODEL 2
REMARK VINA RESULT: -5.429730113      1.744      1.801
REMARK  3 active torsions:
REMARK  status: ('A' for Active; 'I' for Inactive)
REMARK    1  A    between atoms: C2_2  and  N1_3 
REMARK    2  A    between atoms: C2_2  and  C3_7 
REMARK    3  A    between atoms: C4_8  and  C5_9 
ROOT
HETATM    1  C5  UNL     1      -0.316   3.746  84.752  1.00  0.00     0.089 C 
HETATM    2  N2  UNL     1      -0.082   2.581  85.252  1.00  0.00    -0.355 N 
ATOM      3  H2  UNL     1       0.848   2.216  85.458  1.00  0.00     0.162 HD
HETATM    4  C6  UNL     1      -1.302   1.867  85.481  1.00  0.00     0.322 C 
HETATM    5  C7  UNL     1      -1.264   0.936  86.646  1.00  0.00     0.057 C 
HETATM    6  C8  UNL     1      -2.403   1.198  87.627  1.00  0.00     0.005 C 
HETATM    7  C9  UNL     1      -2.280   2.649  88.044  1.00  0.00     0.030 C 
HETATM    8  C10 UNL     1      -2.286   3.574  86.867  1.00  0.00     0.275 C 
HETATM    9  N3  UNL     1      -2.277   2.915  85.598  1.00  0.00     0.117 N 
HETATM   10  C11 UNL     1      -1.802   3.876  84.611  1.00  0.00     0.341 C 
ENDROOT
BRANCH   1  11
HETATM   11  C4  UNL     1       0.698   4.707  84.408  1.00  0.00    -0.050 C 
HETATM   12  C3  UNL     1       1.557   5.501  84.104  1.00  0.00    -0.067 C 
BRANCH  12  13
HETATM   13  C2  UNL     1       2.605   6.469  83.706  1.00  0.00     0.258 C 
HETATM   14  C1  UNL     1       1.937   7.624  83.011  1.00  0.00     0.053 C 
BRANCH  13  15
HETATM   15  N1  UNL     1       3.566   5.807  82.847  1.00  0.00    -0.065 N 
ATOM     16  H13 UNL     1       4.374   6.401  82.666  1.00  0.00     0.275 HD
ATOM     17  H12 UNL     1       4.036   5.043  83.334  1.00  0.00     0.275 HD
ATOM     18  H11 UNL     1       3.138   5.487  81.978  1.00  0.00     0.275 HD
ENDBRANCH  13  15
ENDBRANCH  12  13
ENDBRANCH   1  11
TORSDOF 3
ENDMDL
MODEL 3
REMARK VINA RESULT: -5.357287866      1.886      6.064
REMARK  3 active torsions:
REMARK  status: ('A' for Active; 'I' for Inactive)
REMARK    1  A    between atoms: C2_2  and  N1_3 
REMARK    2  A    between atoms: C2_2  and  C3_7 
REMARK    3  A    between atoms: C4_8  and  C5_9 
ROOT
HETATM    1  C5  UNL     1      -1.625   4.721  84.691  1.00  0.00     0.089 C 
HETATM    2  N2  UNL     1      -2.269   5.836  84.610  1.00  0.00    -0.355 N 
ATOM      3  H2  UNL     1      -3.058   6.093  85.203  1.00  0.00     0.162 HD
HETATM    4  C6  UNL     1      -1.727   6.666  83.576  1.00  0.00     0.322 C 
HETATM    5  C7  UNL     1      -1.828   8.130  83.842  1.00  0.00     0.057 C 
HETATM    6  C8  UNL     1      -0.477   8.829  83.732  1.00  0.00     0.005 C 
HETATM    7  C9  UNL     1       0.446   8.128  84.708  1.00  0.00     0.030 C 
HETATM    8  C10 UNL     1       0.516   6.655  84.454  1.00  0.00     0.275 C 
HETATM    9  N3  UNL     1      -0.380   6.185  83.444  1.00  0.00     0.117 N 
HETATM   10  C11 UNL     1      -0.553   4.753  83.645  1.00  0.00     0.341 C 
ENDROOT
BRANCH   1  11
HETATM   11  C4  UNL     1      -1.924   3.672  85.629  1.00  0.00    -0.050 C 
HETATM   12  C3  UNL     1      -2.167   2.803  86.433  1.00  0.00    -0.067 C 
BRANCH  12  13
HETATM   13  C2  UNL     1      -2.469   1.756  87.435  1.00  0.00     0.258 C 
HETATM   14  C1  UNL     1      -2.173   2.313  88.801  1.00  0.00     0.053 C 
BRANCH  13  15
HETATM   15  N1  UNL     1      -1.673   0.578  87.150  1.00  0.00    -0.065 N 
ATOM     16  H13 UNL     1      -1.687  -0.077  87.932  1.00  0.00     0.275 HD
ATOM     17  H12 UNL     1      -2.116  -0.008  86.443  1.00  0.00     0.275 HD
ATOM     18  H11 UNL     1      -0.719   0.822  86.887  1.00  0.00     0.275 HD
ENDBRANCH  13  15
ENDBRANCH  12  13
ENDBRANCH   1  11
TORSDOF 3
ENDMDL
MODEL 4
REMARK VINA RESULT: -5.276491966      2.504      5.908
REMARK  3 active torsions:
REMARK  status: ('A' for Active; 'I' for Inactive)
REMARK    1  A    between atoms: C2_2  and  N1_3 
REMARK    2  A    between atoms: C2_2  and  C3_7 
REMARK    3  A    between atoms: C4_8  and  C5_9 
ROOT
HETATM    1  C5  UNL     1       0.015   4.176  85.028  1.00  0.00     0.089 C 
HETATM    2  N2  UNL     1       1.243   4.031  84.658  1.00  0.00    -0.355 N 
ATOM      3  H2  UNL     1       1.859   3.284  84.980  1.00  0.00     0.162 HD
HETATM    4  C6  UNL     1       1.624   5.057  83.735  1.00  0.00     0.322 C 
HETATM    5  C7  UNL     1       2.635   4.633  82.723  1.00  0.00     0.057 C 
HETATM    6  C8  UNL     1       2.173   4.911  81.297  1.00  0.00     0.005 C 
HETATM    7  C9  UNL     1       0.852   4.189  81.129  1.00  0.00     0.030 C 
HETATM    8  C10 UNL     1      -0.147   4.596  82.168  1.00  0.00     0.275 C 
HETATM    9  N3  UNL     1       0.370   5.473  83.172  1.00  0.00     0.117 N 
HETATM   10  C11 UNL     1      -0.517   5.387  84.325  1.00  0.00     0.341 C 
ENDROOT
BRANCH   1  11
HETATM   11  C4  UNL     1      -0.668   3.308  85.950  1.00  0.00    -0.050 C 
HETATM   12  C3  UNL     1      -1.240   2.594  86.739  1.00  0.00    -0.067 C 
BRANCH  12  13
HETATM   13  C2  UNL     1      -1.950   1.739  87.717  1.00  0.00     0.258 C 
HETATM   14  C1  UNL     1      -3.257   1.313  87.105  1.00  0.00     0.053 C 
BRANCH  13  15
HETATM   15  N1  UNL     1      -2.149   2.482  88.946  1.00  0.00    -0.065 N 
ATOM     16  H13 UNL     1      -2.310   3.471  88.760  1.00  0.00     0.275 HD
ATOM     17  H12 UNL     1      -3.044   2.253  89.378  1.00  0.00     0.275 HD
ATOM     18  H11 UNL     1      -1.376   2.347  89.597  1.00  0.00     0.275 HD
ENDBRANCH  13  15
ENDBRANCH  12  13
ENDBRANCH   1  11
TORSDOF 3
ENDMDL
MODEL 5
REMARK VINA RESULT: -5.186528160      2.851      3.479
REMARK  3 active torsions:
REMARK  status: ('A' for Active; 'I' for Inactive)
REMARK    1  A    between atoms: C2_2  and  N1_3 
REMARK    2  A    between atoms: C2_2  and  C3_7 
REMARK    3  A    between atoms: C4_8  and  C5_9 
ROOT
HETATM    1  C5  UNL     1      -0.791   3.703  84.337  1.00  0.00     0.089 C 
HETATM    2  N2  UNL     1      -2.004   3.585  84.758  1.00  0.00    -0.355 N 
ATOM      3  H2  UNL     1      -2.828   3.594  84.157  1.00  0.00     0.162 HD
HETATM    4  C6  UNL     1      -2.041   3.441  86.182  1.00  0.00     0.322 C 
HETATM    5  C7  UNL     1      -3.165   2.602  86.690  1.00  0.00     0.057 C 
HETATM    6  C8  UNL     1      -2.678   1.470  87.589  1.00  0.00     0.005 C 
HETATM    7  C9  UNL     1      -1.688   0.670  86.767  1.00  0.00     0.030 C 
HETATM    8  C10 UNL     1      -0.580   1.526  86.235  1.00  0.00     0.275 C 
HETATM    9  N3  UNL     1      -0.737   2.924  86.492  1.00  0.00     0.117 N 
HETATM   10  C11 UNL     1       0.102   3.639  85.539  1.00  0.00     0.341 C 
ENDROOT
BRANCH   1  11
HETATM   11  C4  UNL     1      -0.417   3.864  82.957  1.00  0.00    -0.050 C 
HETATM   12  C3  UNL     1      -0.094   4.018  81.803  1.00  0.00    -0.067 C 
BRANCH  12  13
HETATM   13  C2  UNL     1       0.322   4.219  80.396  1.00  0.00     0.258 C 
HETATM   14  C1  UNL     1       1.760   4.663  80.391  1.00  0.00     0.053 C 
BRANCH  13  15
HETATM   15  N1  UNL     1      -0.546   5.201  79.777  1.00  0.00    -0.065 N 
ATOM     16  H13 UNL     1      -0.035   6.049  79.536  1.00  0.00     0.275 HD
ATOM     17  H12 UNL     1      -0.825   4.911  78.839  1.00  0.00     0.275 HD
ATOM     18  H11 UNL     1      -1.357   5.408  80.359  1.00  0.00     0.275 HD
ENDBRANCH  13  15
ENDBRANCH  12  13
ENDBRANCH   1  11
TORSDOF 3
ENDMDL
