MODEL 1
REMARK VINA RESULT: -7.664791098      0.000      0.000
REMARK  6 active torsions:
REMARK  status: ('A' for Active; 'I' for Inactive)
REMARK    1  A    between atoms: O1_2  and  C2_3 
REMARK    2  A    between atoms: C3_4  and  O2_5 
REMARK    3  A    between atoms: C9_12  and  O3_13 
REMARK    4  A    between atoms: C12_16  and  C13_17 
REMARK    5  A    between atoms: C16_20  and  O4_21 
REMARK    6  A    between atoms: O4_21  and  C17_22 
ROOT
HETATM    1  C2  UNL     1     -49.186  -1.178 -21.348  1.00  0.00     0.155 C 
HETATM    2  C3  UNL     1     -50.403  -0.712 -20.883  1.00  0.00     0.114 C 
HETATM    3  C4  UNL     1     -51.387  -0.179 -21.701  1.00  0.00     0.014 A 
HETATM    4  C5  UNL     1     -52.110   0.814 -21.097  1.00  0.00     0.022 A 
HETATM    5  C6  UNL     1     -53.121   1.449 -21.793  1.00  0.00    -0.058 A 
HETATM    6  C7  UNL     1     -53.936   2.517 -21.115  1.00  0.00     0.048 C 
HETATM    7  C8  UNL     1     -53.431   1.118 -23.084  1.00  0.00     0.044 A 
HETATM    8  C9  UNL     1     -52.693   0.106 -23.696  1.00  0.00     0.080 A 
HETATM    9  C11 UNL     1     -51.702  -0.529 -23.031  1.00  0.00     0.024 A 
HETATM   10  C12 UNL     1     -51.131  -1.577 -23.771  1.00  0.00     0.018 C 
HETATM   11  C16 UNL     1     -49.771  -1.884 -23.654  1.00  0.00     0.140 C 
HETATM   12  C22 UNL     1     -48.874  -1.677 -22.581  1.00  0.00     0.242 C 
HETATM   13  O5  UNL     1     -47.702  -1.976 -22.791  1.00  0.00    -0.282 OA
ENDROOT
BRANCH  11  14
HETATM   14  O4  UNL     1     -49.235  -2.475 -24.745  1.00  0.00    -0.302 OA
BRANCH  14  15
HETATM   15  C17 UNL     1     -49.032  -3.666 -25.260  1.00  0.00     0.116 A 
HETATM   16  C18 UNL     1     -49.280  -4.834 -24.498  1.00  0.00     0.148 A 
HETATM   17  N1  UNL     1     -49.002  -5.901 -25.235  1.00  0.00    -0.305 N 
HETATM   18  C19 UNL     1     -49.143  -7.292 -24.790  1.00  0.00     0.177 C 
HETATM   19  N2  UNL     1     -48.595  -5.508 -26.408  1.00  0.00    -0.301 N 
HETATM   20  C20 UNL     1     -48.606  -4.129 -26.446  1.00  0.00     0.057 A 
ATOM     21  H2  UNL     1     -48.315  -6.120 -27.174  1.00  0.00     0.187 HD
HETATM   22  C21 UNL     1     -48.191  -3.449 -27.695  1.00  0.00     0.072 C 
ENDBRANCH  14  15
ENDBRANCH  11  14
BRANCH  10  23
HETATM   23  C13 UNL     1     -52.066  -2.227 -24.694  1.00  0.00    -0.073 C 
HETATM   24  C14 UNL     1     -52.914  -3.426 -24.249  1.00  0.00     0.044 C 
HETATM   25  C15 UNL     1     -51.809  -2.200 -26.202  1.00  0.00     0.044 C 
ENDBRANCH  10  23
BRANCH   1  26
HETATM   26  O1  UNL     1     -48.168  -1.112 -20.396  1.00  0.00    -0.350 OA
HETATM   27  C1  UNL     1     -47.878  -2.232 -19.565  1.00  0.00     0.210 C 
ENDBRANCH   1  26
BRANCH   8  28
HETATM   28  O3  UNL     1     -52.939  -0.286 -24.989  1.00  0.00    -0.355 OA
HETATM   29  C10 UNL     1     -54.234   0.048 -25.529  1.00  0.00     0.210 C 
ENDBRANCH   8  28
BRANCH   2  30
HETATM   30  O2  UNL     1     -50.694  -0.752 -19.566  1.00  0.00    -0.357 OA
ATOM     31  H2  UNL     1     -51.090  -0.003 -19.137  1.00  0.00     0.217 HD
ENDBRANCH   2  30
TORSDOF 6
ENDMDL
MODEL 2
REMARK VINA RESULT: -7.566787045      0.608      1.433
REMARK  6 active torsions:
REMARK  status: ('A' for Active; 'I' for Inactive)
REMARK    1  A    between atoms: O1_2  and  C2_3 
REMARK    2  A    between atoms: C3_4  and  O2_5 
REMARK    3  A    between atoms: C9_12  and  O3_13 
REMARK    4  A    between atoms: C12_16  and  C13_17 
REMARK    5  A    between atoms: C16_20  and  O4_21 
REMARK    6  A    between atoms: O4_21  and  C17_22 
ROOT
HETATM    1  C2  UNL     1     -49.149  -1.303 -21.448  1.00  0.00     0.155 C 
HETATM    2  C3  UNL     1     -50.350  -0.887 -20.898  1.00  0.00     0.114 C 
HETATM    3  C4  UNL     1     -51.352  -0.260 -21.621  1.00  0.00     0.014 A 
HETATM    4  C5  UNL     1     -52.049   0.662 -20.887  1.00  0.00     0.022 A 
HETATM    5  C6  UNL     1     -53.074   1.377 -21.477  1.00  0.00    -0.058 A 
HETATM    6  C7  UNL     1     -53.861   2.364 -20.658  1.00  0.00     0.048 C 
HETATM    7  C8  UNL     1     -53.424   1.195 -22.788  1.00  0.00     0.044 A 
HETATM    8  C9  UNL     1     -52.712   0.256 -23.531  1.00  0.00     0.080 A 
HETATM    9  C11 UNL     1     -51.708  -0.456 -22.971  1.00  0.00     0.024 A 
HETATM   10  C12 UNL     1     -51.166  -1.416 -23.842  1.00  0.00     0.018 C 
HETATM   11  C16 UNL     1     -49.806  -1.740 -23.800  1.00  0.00     0.140 C 
HETATM   12  C22 UNL     1     -48.877  -1.660 -22.738  1.00  0.00     0.242 C 
HETATM   13  O5  UNL     1     -47.715  -1.939 -23.015  1.00  0.00    -0.282 OA
ENDROOT
BRANCH  11  14
HETATM   14  O4  UNL     1     -49.306  -2.206 -24.966  1.00  0.00    -0.302 OA
BRANCH  14  15
HETATM   15  C17 UNL     1     -49.042  -3.337 -25.580  1.00  0.00     0.116 A 
HETATM   16  C18 UNL     1     -48.446  -3.340 -26.865  1.00  0.00     0.148 A 
HETATM   17  N1  UNL     1     -48.282  -4.593 -27.267  1.00  0.00    -0.305 N 
HETATM   18  C19 UNL     1     -47.687  -4.997 -28.545  1.00  0.00     0.177 C 
HETATM   19  N2  UNL     1     -48.726  -5.393 -26.340  1.00  0.00    -0.301 N 
HETATM   20  C20 UNL     1     -49.202  -4.638 -25.288  1.00  0.00     0.057 A 
ATOM     21  H2  UNL     1     -48.724  -6.412 -26.385  1.00  0.00     0.187 HD
HETATM   22  C21 UNL     1     -49.751  -5.336 -24.102  1.00  0.00     0.072 C 
ENDBRANCH  14  15
ENDBRANCH  11  14
BRANCH  10  23
HETATM   23  C13 UNL     1     -52.133  -1.953 -24.804  1.00  0.00    -0.073 C 
HETATM   24  C14 UNL     1     -52.975  -3.192 -24.475  1.00  0.00     0.044 C 
HETATM   25  C15 UNL     1     -51.921  -1.753 -26.307  1.00  0.00     0.044 C 
ENDBRANCH  10  23
BRANCH   1  26
HETATM   26  O1  UNL     1     -48.104  -1.351 -20.525  1.00  0.00    -0.350 OA
HETATM   27  C1  UNL     1     -47.790  -2.563 -19.847  1.00  0.00     0.210 C 
ENDBRANCH   1  26
BRANCH   8  28
HETATM   28  O3  UNL     1     -52.998   0.014 -24.853  1.00  0.00    -0.355 OA
HETATM   29  C10 UNL     1     -54.302   0.421 -25.315  1.00  0.00     0.210 C 
ENDBRANCH   8  28
BRANCH   2  30
HETATM   30  O2  UNL     1     -50.603  -1.074 -19.586  1.00  0.00    -0.357 OA
ATOM     31  H2  UNL     1     -51.176  -0.480 -19.116  1.00  0.00     0.217 HD
ENDBRANCH   2  30
TORSDOF 6
ENDMDL
MODEL 3
REMARK VINA RESULT: -7.413548983      1.570      4.193
REMARK  6 active torsions:
REMARK  status: ('A' for Active; 'I' for Inactive)
REMARK    1  A    between atoms: O1_2  and  C2_3 
REMARK    2  A    between atoms: C3_4  and  O2_5 
REMARK    3  A    between atoms: C9_12  and  O3_13 
REMARK    4  A    between atoms: C12_16  and  C13_17 
REMARK    5  A    between atoms: C16_20  and  O4_21 
REMARK    6  A    between atoms: O4_21  and  C17_22 
ROOT
HETATM    1  C2  UNL     1     -52.838  -0.916 -24.822  1.00  0.00     0.155 C 
HETATM    2  C3  UNL     1     -52.675   0.185 -23.998  1.00  0.00     0.114 C 
HETATM    3  C4  UNL     1     -52.498   0.101 -22.626  1.00  0.00     0.014 A 
HETATM    4  C5  UNL     1     -53.055   1.150 -21.946  1.00  0.00     0.022 A 
HETATM    5  C6  UNL     1     -52.968   1.199 -20.568  1.00  0.00    -0.058 A 
HETATM    6  C7  UNL     1     -53.553   2.370 -19.826  1.00  0.00     0.048 C 
HETATM    7  C8  UNL     1     -52.336   0.223 -19.846  1.00  0.00     0.044 A 
HETATM    8  C9  UNL     1     -51.769  -0.843 -20.542  1.00  0.00     0.080 A 
HETATM    9  C11 UNL     1     -51.841  -0.908 -21.891  1.00  0.00     0.024 A 
HETATM   10  C12 UNL     1     -51.138  -2.001 -22.424  1.00  0.00     0.018 C 
HETATM   11  C16 UNL     1     -51.596  -2.661 -23.570  1.00  0.00     0.140 C 
HETATM   12  C22 UNL     1     -52.392  -2.195 -24.640  1.00  0.00     0.242 C 
HETATM   13  O5  UNL     1     -52.710  -3.029 -25.481  1.00  0.00    -0.282 OA
ENDROOT
BRANCH  11  14
HETATM   14  O4  UNL     1     -51.209  -3.953 -23.663  1.00  0.00    -0.302 OA
BRANCH  14  15
HETATM   15  C17 UNL     1     -50.393  -4.723 -24.344  1.00  0.00     0.116 A 
HETATM   16  C18 UNL     1     -50.494  -6.134 -24.263  1.00  0.00     0.148 A 
HETATM   17  N1  UNL     1     -49.568  -6.683 -25.038  1.00  0.00    -0.305 N 
HETATM   18  C19 UNL     1     -49.367  -8.124 -25.219  1.00  0.00     0.177 C 
HETATM   19  N2  UNL     1     -48.881  -5.734 -25.608  1.00  0.00    -0.301 N 
HETATM   20  C20 UNL     1     -49.374  -4.514 -25.193  1.00  0.00     0.057 A 
ATOM     21  H2  UNL     1     -48.105  -5.872 -26.255  1.00  0.00     0.187 HD
HETATM   22  C21 UNL     1     -48.752  -3.279 -25.725  1.00  0.00     0.072 C 
ENDBRANCH  14  15
ENDBRANCH  11  14
BRANCH  10  23
HETATM   23  C13 UNL     1     -49.970  -2.396 -21.631  1.00  0.00    -0.073 C 
HETATM   24  C14 UNL     1     -48.624  -1.678 -21.791  1.00  0.00     0.044 C 
HETATM   25  C15 UNL     1     -49.828  -3.835 -21.129  1.00  0.00     0.044 C 
ENDBRANCH  10  23
BRANCH   1  26
HETATM   26  O1  UNL     1     -53.558  -0.637 -25.983  1.00  0.00    -0.350 OA
HETATM   27  C1  UNL     1     -54.942  -0.303 -25.916  1.00  0.00     0.210 C 
ENDBRANCH   1  26
BRANCH   8  28
HETATM   28  O3  UNL     1     -51.118  -1.864 -19.894  1.00  0.00    -0.355 OA
HETATM   29  C10 UNL     1     -51.171  -1.851 -18.453  1.00  0.00     0.210 C 
ENDBRANCH   8  28
BRANCH   2  30
HETATM   30  O2  UNL     1     -52.689   1.432 -24.512  1.00  0.00    -0.357 OA
ATOM     31  H2  UNL     1     -53.439   2.000 -24.378  1.00  0.00     0.217 HD
ENDBRANCH   2  30
TORSDOF 6
ENDMDL
MODEL 4
REMARK VINA RESULT: -7.316012745      1.420      4.136
REMARK  6 active torsions:
REMARK  status: ('A' for Active; 'I' for Inactive)
REMARK    1  A    between atoms: O1_2  and  C2_3 
REMARK    2  A    between atoms: C3_4  and  O2_5 
REMARK    3  A    between atoms: C9_12  and  O3_13 
REMARK    4  A    between atoms: C12_16  and  C13_17 
REMARK    5  A    between atoms: C16_20  and  O4_21 
REMARK    6  A    between atoms: O4_21  and  C17_22 
ROOT
HETATM    1  C2  UNL     1     -52.278  -0.966 -25.045  1.00  0.00     0.155 C 
HETATM    2  C3  UNL     1     -52.181   0.018 -24.076  1.00  0.00     0.114 C 
HETATM    3  C4  UNL     1     -51.834  -0.232 -22.757  1.00  0.00     0.014 A 
HETATM    4  C5  UNL     1     -52.454   0.606 -21.870  1.00  0.00     0.022 A 
HETATM    5  C6  UNL     1     -52.215   0.472 -20.516  1.00  0.00    -0.058 A 
HETATM    6  C7  UNL     1     -52.872   1.415 -19.545  1.00  0.00     0.048 C 
HETATM    7  C8  UNL     1     -51.367  -0.483 -20.020  1.00  0.00     0.044 A 
HETATM    8  C9  UNL     1     -50.737  -1.333 -20.927  1.00  0.00     0.080 A 
HETATM    9  C11 UNL     1     -50.957  -1.215 -22.256  1.00  0.00     0.024 A 
HETATM   10  C12 UNL     1     -50.170  -2.094 -23.020  1.00  0.00     0.018 C 
HETATM   11  C16 UNL     1     -50.658  -2.649 -24.208  1.00  0.00     0.140 C 
HETATM   12  C22 UNL     1     -51.634  -2.169 -25.111  1.00  0.00     0.242 C 
HETATM   13  O5  UNL     1     -51.923  -2.916 -26.041  1.00  0.00    -0.282 OA
ENDROOT
BRANCH  11  14
HETATM   14  O4  UNL     1     -50.102  -3.835 -24.541  1.00  0.00    -0.302 OA
BRANCH  14  15
HETATM   15  C17 UNL     1     -49.262  -4.357 -25.405  1.00  0.00     0.116 A 
HETATM   16  C18 UNL     1     -48.870  -5.715 -25.301  1.00  0.00     0.148 A 
HETATM   17  N1  UNL     1     -48.024  -6.000 -26.281  1.00  0.00    -0.305 N 
HETATM   18  C19 UNL     1     -47.407  -7.311 -26.507  1.00  0.00     0.177 C 
HETATM   19  N2  UNL     1     -47.844  -4.932 -27.005  1.00  0.00    -0.301 N 
HETATM   20  C20 UNL     1     -48.599  -3.904 -26.481  1.00  0.00     0.057 A 
ATOM     21  H2  UNL     1     -47.241  -4.867 -27.826  1.00  0.00     0.187 HD
HETATM   22  C21 UNL     1     -48.565  -2.583 -27.151  1.00  0.00     0.072 C 
ENDBRANCH  14  15
ENDBRANCH  11  14
BRANCH  10  23
HETATM   23  C13 UNL     1     -48.873  -2.405 -22.413  1.00  0.00    -0.073 C 
HETATM   24  C14 UNL     1     -47.668  -1.473 -22.597  1.00  0.00     0.044 C 
HETATM   25  C15 UNL     1     -48.473  -3.858 -22.145  1.00  0.00     0.044 C 
ENDBRANCH  10  23
BRANCH   1  26
HETATM   26  O1  UNL     1     -53.162  -0.644 -26.074  1.00  0.00    -0.350 OA
HETATM   27  C1  UNL     1     -54.567  -0.614 -25.842  1.00  0.00     0.210 C 
ENDBRANCH   1  26
BRANCH   8  28
HETATM   28  O3  UNL     1     -49.874  -2.318 -20.513  1.00  0.00    -0.355 OA
HETATM   29  C10 UNL     1     -49.952  -2.702 -19.126  1.00  0.00     0.210 C 
ENDBRANCH   8  28
BRANCH   2  30
HETATM   30  O2  UNL     1     -52.436   1.307 -24.381  1.00  0.00    -0.357 OA
ATOM     31  H2  UNL     1     -53.153   1.532 -24.962  1.00  0.00     0.217 HD
ENDBRANCH   2  30
TORSDOF 6
ENDMDL
MODEL 5
REMARK VINA RESULT: -7.207833110      3.150      7.221
REMARK  6 active torsions:
REMARK  status: ('A' for Active; 'I' for Inactive)
REMARK    1  A    between atoms: O1_2  and  C2_3 
REMARK    2  A    between atoms: C3_4  and  O2_5 
REMARK    3  A    between atoms: C9_12  and  O3_13 
REMARK    4  A    between atoms: C12_16  and  C13_17 
REMARK    5  A    between atoms: C16_20  and  O4_21 
REMARK    6  A    between atoms: O4_21  and  C17_22 
ROOT
HETATM    1  C2  UNL     1     -52.711  -1.784 -25.216  1.00  0.00     0.155 C 
HETATM    2  C3  UNL     1     -52.013  -2.976 -25.302  1.00  0.00     0.114 C 
HETATM    3  C4  UNL     1     -50.705  -3.136 -24.871  1.00  0.00     0.014 A 
HETATM    4  C5  UNL     1     -49.994  -4.027 -25.629  1.00  0.00     0.022 A 
HETATM    5  C6  UNL     1     -48.670  -4.283 -25.327  1.00  0.00    -0.058 A 
HETATM    6  C7  UNL     1     -47.901  -5.288 -26.141  1.00  0.00     0.048 C 
HETATM    7  C8  UNL     1     -48.033  -3.670 -24.282  1.00  0.00     0.044 A 
HETATM    8  C9  UNL     1     -48.760  -2.764 -23.513  1.00  0.00     0.080 A 
HETATM    9  C11 UNL     1     -50.058  -2.502 -23.791  1.00  0.00     0.024 A 
HETATM   10  C12 UNL     1     -50.653  -1.636 -22.858  1.00  0.00     0.018 C 
HETATM   11  C16 UNL     1     -51.633  -0.718 -23.252  1.00  0.00     0.140 C 
HETATM   12  C22 UNL     1     -52.542  -0.755 -24.333  1.00  0.00     0.242 C 
HETATM   13  O5  UNL     1     -53.242   0.241 -24.484  1.00  0.00    -0.282 OA
ENDROOT
BRANCH  11  14
HETATM   14  O4  UNL     1     -51.719   0.378 -22.466  1.00  0.00    -0.302 OA
BRANCH  14  15
HETATM   15  C17 UNL     1     -52.442   0.874 -21.488  1.00  0.00     0.116 A 
HETATM   16  C18 UNL     1     -51.971   0.841 -20.152  1.00  0.00     0.148 A 
HETATM   17  N1  UNL     1     -52.874   1.399 -19.357  1.00  0.00    -0.305 N 
HETATM   18  C19 UNL     1     -52.737   1.555 -17.906  1.00  0.00     0.177 C 
HETATM   19  N2  UNL     1     -53.887   1.786 -20.079  1.00  0.00    -0.301 N 
HETATM   20  C20 UNL     1     -53.641   1.471 -21.399  1.00  0.00     0.057 A 
ATOM     21  H2  UNL     1     -54.725   2.246 -19.725  1.00  0.00     0.187 HD
HETATM   22  C21 UNL     1     -54.657   1.830 -22.417  1.00  0.00     0.072 C 
ENDBRANCH  14  15
ENDBRANCH  11  14
BRANCH  10  23
HETATM   23  C13 UNL     1     -50.096  -1.750 -21.507  1.00  0.00    -0.073 C 
HETATM   24  C14 UNL     1     -50.728  -2.682 -20.465  1.00  0.00     0.044 C 
HETATM   25  C15 UNL     1     -49.338  -0.576 -20.882  1.00  0.00     0.044 C 
ENDBRANCH  10  23
BRANCH   1  26
HETATM   26  O1  UNL     1     -53.713  -1.658 -26.178  1.00  0.00    -0.350 OA
HETATM   27  C1  UNL     1     -53.381  -1.455 -27.548  1.00  0.00     0.210 C 
ENDBRANCH   1  26
BRANCH   8  28
HETATM   28  O3  UNL     1     -48.197  -2.105 -22.448  1.00  0.00    -0.355 OA
HETATM   29  C10 UNL     1     -46.819  -2.414 -22.154  1.00  0.00     0.210 C 
ENDBRANCH   8  28
BRANCH   2  30
HETATM   30  O2  UNL     1     -52.593  -4.072 -25.834  1.00  0.00    -0.357 OA
ATOM     31  H2  UNL     1     -52.279  -4.434 -26.654  1.00  0.00     0.217 HD
ENDBRANCH   2  30
TORSDOF 6
ENDMDL
