MODEL 1
REMARK VINA RESULT: -6.464561672      0.000      0.000
REMARK  6 active torsions:
REMARK  status: ('A' for Active; 'I' for Inactive)
REMARK    1  A    between atoms: C1_2  and  C2_3 
REMARK    2  A    between atoms: C2_3  and  S1_4 
REMARK    3  A    between atoms: S1_4  and  C3_5 
REMARK    4  A    between atoms: C7_13  and  N2_14 
REMARK       I    between atoms: N2_14  and  C8_16 
REMARK    5  A    between atoms: C8_16  and  C9_18 
REMARK    6  A    between atoms: C9_18  and  C10_19 
ROOT
HETATM    1  C3  UNL     1     -52.227  -1.438 -21.532  1.00  0.00     0.023 A 
HETATM    2  C4  UNL     1     -52.734  -0.284 -21.038  1.00  0.00     0.050 A 
HETATM    3  C5  UNL     1     -53.111   0.797 -21.805  1.00  0.00     0.075 A 
HETATM    4  S2  UNL     1     -53.725   2.165 -21.109  1.00  0.00    -0.072 SA
HETATM    5  S3  UNL     1     -52.896   0.593 -23.472  1.00  0.00    -0.059 SA
HETATM    6  C6  UNL     1     -52.234  -0.948 -23.936  1.00  0.00     0.096 A 
HETATM    7  N1  UNL     1     -51.952  -1.402 -25.129  1.00  0.00    -0.330 N 
ATOM      8  H1  UNL     1     -52.121  -0.825 -25.953  1.00  0.00     0.168 HD
HETATM    9  C7  UNL     1     -51.444  -2.620 -25.260  1.00  0.00     0.152 A 
HETATM   10  S5  UNL     1     -51.352  -3.167 -23.648  1.00  0.00    -0.050 SA
HETATM   11  C14 UNL     1     -51.992  -1.756 -22.863  1.00  0.00     0.059 A 
ENDROOT
BRANCH   9  12
HETATM   12  N2  UNL     1     -51.103  -3.244 -26.371  1.00  0.00    -0.307 N 
HETATM   13  C8  UNL     1     -50.228  -2.576 -27.263  1.00  0.00     0.228 C 
HETATM   14  O2  UNL     1     -50.785  -1.984 -28.238  1.00  0.00    -0.273 OA
ATOM     15  H2  UNL     1     -51.458  -4.177 -26.582  1.00  0.00     0.171 HD
BRANCH  13  16
HETATM   16  C9  UNL     1     -48.774  -2.521 -27.143  1.00  0.00     0.149 C 
BRANCH  16  17
HETATM   17  C10 UNL     1     -48.227  -3.918 -27.303  1.00  0.00    -0.009 A 
HETATM   18  C11 UNL     1     -47.779  -4.498 -28.462  1.00  0.00     0.015 A 
HETATM   19  C12 UNL     1     -47.332  -5.756 -28.389  1.00  0.00     0.008 A 
HETATM   20  C13 UNL     1     -47.358  -6.362 -27.161  1.00  0.00     0.050 A 
HETATM   21  S4  UNL     1     -48.007  -5.155 -26.151  1.00  0.00    -0.106 SA
ENDBRANCH  16  17
ENDBRANCH  13  16
ENDBRANCH   9  12
BRANCH   1  22
HETATM   22  S1  UNL     1     -51.809  -2.709 -20.327  1.00  0.00    -0.122 SA
BRANCH  22  23
HETATM   23  C2  UNL     1     -51.209  -2.021 -18.789  1.00  0.00     0.149 C 
BRANCH  23  24
HETATM   24  C1  UNL     1     -50.732  -3.123 -17.909  1.00  0.00     0.241 C 
HETATM   25  O1  UNL     1     -51.550  -3.572 -17.111  1.00  0.00    -0.306 OA
ENDBRANCH  23  24
ENDBRANCH  22  23
ENDBRANCH   1  22
TORSDOF 6
ENDMDL
MODEL 2
REMARK VINA RESULT: -6.367468417      1.355      1.422
REMARK  6 active torsions:
REMARK  status: ('A' for Active; 'I' for Inactive)
REMARK    1  A    between atoms: C1_2  and  C2_3 
REMARK    2  A    between atoms: C2_3  and  S1_4 
REMARK    3  A    between atoms: S1_4  and  C3_5 
REMARK    4  A    between atoms: C7_13  and  N2_14 
REMARK       I    between atoms: N2_14  and  C8_16 
REMARK    5  A    between atoms: C8_16  and  C9_18 
REMARK    6  A    between atoms: C9_18  and  C10_19 
ROOT
HETATM    1  C3  UNL     1     -52.105  -1.223 -21.550  1.00  0.00     0.023 A 
HETATM    2  C4  UNL     1     -52.665  -0.079 -21.089  1.00  0.00     0.050 A 
HETATM    3  C5  UNL     1     -53.156   0.930 -21.889  1.00  0.00     0.075 A 
HETATM    4  S2  UNL     1     -53.827   2.290 -21.232  1.00  0.00    -0.072 SA
HETATM    5  S3  UNL     1     -53.013   0.649 -23.553  1.00  0.00    -0.059 SA
HETATM    6  C6  UNL     1     -52.269  -0.868 -23.972  1.00  0.00     0.096 A 
HETATM    7  N1  UNL     1     -52.018  -1.367 -25.154  1.00  0.00    -0.330 N 
ATOM      8  H1  UNL     1     -52.269  -0.849 -25.995  1.00  0.00     0.168 HD
HETATM    9  C7  UNL     1     -51.434  -2.554 -25.249  1.00  0.00     0.152 A 
HETATM   10  S5  UNL     1     -51.222  -3.004 -23.619  1.00  0.00    -0.050 SA
HETATM   11  C14 UNL     1     -51.918  -1.597 -22.873  1.00  0.00     0.059 A 
ENDROOT
BRANCH   9  12
HETATM   12  N2  UNL     1     -51.108  -3.214 -26.344  1.00  0.00    -0.307 N 
HETATM   13  C8  UNL     1     -50.242  -2.578 -27.266  1.00  0.00     0.228 C 
HETATM   14  O2  UNL     1     -50.808  -2.016 -28.254  1.00  0.00    -0.273 OA
ATOM     15  H2  UNL     1     -51.469  -4.152 -26.520  1.00  0.00     0.171 HD
BRANCH  13  16
HETATM   16  C9  UNL     1     -48.786  -2.524 -27.165  1.00  0.00     0.149 C 
BRANCH  16  17
HETATM   17  C10 UNL     1     -48.243  -3.923 -27.321  1.00  0.00    -0.009 A 
HETATM   18  C11 UNL     1     -47.779  -4.501 -28.476  1.00  0.00     0.015 A 
HETATM   19  C12 UNL     1     -47.339  -5.761 -28.401  1.00  0.00     0.008 A 
HETATM   20  C13 UNL     1     -47.388  -6.372 -27.176  1.00  0.00     0.050 A 
HETATM   21  S4  UNL     1     -48.047  -5.165 -26.171  1.00  0.00    -0.106 SA
ENDBRANCH  16  17
ENDBRANCH  13  16
ENDBRANCH   9  12
BRANCH   1  22
HETATM   22  S1  UNL     1     -51.539  -2.394 -20.306  1.00  0.00    -0.122 SA
BRANCH  22  23
HETATM   23  C2  UNL     1     -49.764  -2.353 -20.086  1.00  0.00     0.149 C 
BRANCH  23  24
HETATM   24  C1  UNL     1     -49.326  -0.946 -19.877  1.00  0.00     0.241 C 
HETATM   25  O1  UNL     1     -48.735  -0.417 -20.814  1.00  0.00    -0.306 OA
ENDBRANCH  23  24
ENDBRANCH  22  23
ENDBRANCH   1  22
TORSDOF 6
ENDMDL
MODEL 3
REMARK VINA RESULT: -6.280189526      5.817     10.675
REMARK  6 active torsions:
REMARK  status: ('A' for Active; 'I' for Inactive)
REMARK    1  A    between atoms: C1_2  and  C2_3 
REMARK    2  A    between atoms: C2_3  and  S1_4 
REMARK    3  A    between atoms: S1_4  and  C3_5 
REMARK    4  A    between atoms: C7_13  and  N2_14 
REMARK       I    between atoms: N2_14  and  C8_16 
REMARK    5  A    between atoms: C8_16  and  C9_18 
REMARK    6  A    between atoms: C9_18  and  C10_19 
ROOT
HETATM    1  C3  UNL     1     -51.126   0.075 -20.195  1.00  0.00     0.023 A 
HETATM    2  C4  UNL     1     -51.522   0.246 -21.479  1.00  0.00     0.050 A 
HETATM    3  C5  UNL     1     -52.618   0.986 -21.867  1.00  0.00     0.075 A 
HETATM    4  S2  UNL     1     -53.020   1.140 -23.464  1.00  0.00    -0.072 SA
HETATM    5  S3  UNL     1     -53.479   1.700 -20.597  1.00  0.00    -0.059 SA
HETATM    6  C6  UNL     1     -52.835   1.378 -19.013  1.00  0.00     0.096 A 
HETATM    7  N1  UNL     1     -53.270   1.779 -17.846  1.00  0.00    -0.330 N 
ATOM      8  H1  UNL     1     -54.098   2.370 -17.781  1.00  0.00     0.168 HD
HETATM    9  C7  UNL     1     -52.623   1.411 -16.748  1.00  0.00     0.152 A 
HETATM   10  S5  UNL     1     -51.347   0.462 -17.360  1.00  0.00    -0.050 SA
HETATM   11  C14 UNL     1     -51.722   0.590 -19.052  1.00  0.00     0.059 A 
ENDROOT
BRANCH   9  12
HETATM   12  N2  UNL     1     -52.907   1.717 -15.497  1.00  0.00    -0.307 N 
HETATM   13  C8  UNL     1     -51.859   2.210 -14.682  1.00  0.00     0.228 C 
HETATM   14  O2  UNL     1     -51.303   1.355 -13.927  1.00  0.00    -0.273 OA
ATOM     15  H2  UNL     1     -53.852   1.603 -15.128  1.00  0.00     0.171 HD
BRANCH  13  16
HETATM   16  C9  UNL     1     -51.386   3.591 -14.650  1.00  0.00     0.149 C 
BRANCH  16  17
HETATM   17  C10 UNL     1     -52.583   4.505 -14.565  1.00  0.00    -0.009 A 
HETATM   18  C11 UNL     1     -53.198   5.155 -15.605  1.00  0.00     0.015 A 
HETATM   19  C12 UNL     1     -54.251   5.924 -15.315  1.00  0.00     0.008 A 
HETATM   20  C13 UNL     1     -54.632   6.001 -14.001  1.00  0.00     0.050 A 
HETATM   21  S4  UNL     1     -53.504   4.994 -13.216  1.00  0.00    -0.106 SA
ENDBRANCH  16  17
ENDBRANCH  13  16
ENDBRANCH   9  12
BRANCH   1  22
HETATM   22  S1  UNL     1     -49.660  -0.937 -19.938  1.00  0.00    -0.122 SA
BRANCH  22  23
HETATM   23  C2  UNL     1     -49.980  -2.680 -20.186  1.00  0.00     0.149 C 
BRANCH  23  24
HETATM   24  C1  UNL     1     -51.355  -3.000 -19.717  1.00  0.00     0.241 C 
HETATM   25  O1  UNL     1     -51.499  -3.122 -18.504  1.00  0.00    -0.306 OA
ENDBRANCH  23  24
ENDBRANCH  22  23
ENDBRANCH   1  22
TORSDOF 6
ENDMDL
MODEL 4
REMARK VINA RESULT: -6.253898410      3.017      4.235
REMARK  6 active torsions:
REMARK  status: ('A' for Active; 'I' for Inactive)
REMARK    1  A    between atoms: C1_2  and  C2_3 
REMARK    2  A    between atoms: C2_3  and  S1_4 
REMARK    3  A    between atoms: S1_4  and  C3_5 
REMARK    4  A    between atoms: C7_13  and  N2_14 
REMARK       I    between atoms: N2_14  and  C8_16 
REMARK    5  A    between atoms: C8_16  and  C9_18 
REMARK    6  A    between atoms: C9_18  and  C10_19 
ROOT
HETATM    1  C3  UNL     1     -53.428   0.656 -23.609  1.00  0.00     0.023 A 
HETATM    2  C4  UNL     1     -53.323   1.059 -22.321  1.00  0.00     0.050 A 
HETATM    3  C5  UNL     1     -52.505   0.469 -21.381  1.00  0.00     0.075 A 
HETATM    4  S2  UNL     1     -52.443   1.036 -19.829  1.00  0.00    -0.072 SA
HETATM    5  S3  UNL     1     -51.599  -0.842 -21.951  1.00  0.00    -0.059 SA
HETATM    6  C6  UNL     1     -51.854  -1.226 -23.629  1.00  0.00     0.096 A 
HETATM    7  N1  UNL     1     -51.313  -2.172 -24.353  1.00  0.00    -0.330 N 
ATOM      8  H1  UNL     1     -50.634  -2.810 -23.940  1.00  0.00     0.168 HD
HETATM    9  C7  UNL     1     -51.655  -2.292 -25.628  1.00  0.00     0.152 A 
HETATM   10  S5  UNL     1     -52.783  -1.032 -25.839  1.00  0.00    -0.050 SA
HETATM   11  C14 UNL     1     -52.757  -0.393 -24.223  1.00  0.00     0.059 A 
ENDROOT
BRANCH   9  12
HETATM   12  N2  UNL     1     -51.217  -3.172 -26.507  1.00  0.00    -0.307 N 
HETATM   13  C8  UNL     1     -50.245  -2.744 -27.444  1.00  0.00     0.228 C 
HETATM   14  O2  UNL     1     -50.689  -2.421 -28.588  1.00  0.00    -0.273 OA
ATOM     15  H2  UNL     1     -51.567  -4.131 -26.512  1.00  0.00     0.171 HD
BRANCH  13  16
HETATM   16  C9  UNL     1     -48.808  -2.652 -27.195  1.00  0.00     0.149 C 
BRANCH  16  17
HETATM   17  C10 UNL     1     -48.196  -4.013 -27.414  1.00  0.00    -0.009 A 
HETATM   18  C11 UNL     1     -47.705  -4.514 -28.593  1.00  0.00     0.015 A 
HETATM   19  C12 UNL     1     -47.201  -5.752 -28.574  1.00  0.00     0.008 A 
HETATM   20  C13 UNL     1     -47.217  -6.419 -27.377  1.00  0.00     0.050 A 
HETATM   21  S4  UNL     1     -47.935  -5.294 -26.320  1.00  0.00    -0.106 SA
ENDBRANCH  16  17
ENDBRANCH  13  16
ENDBRANCH   9  12
BRANCH   1  22
HETATM   22  S1  UNL     1     -54.565   1.587 -24.648  1.00  0.00    -0.122 SA
BRANCH  22  23
HETATM   23  C2  UNL     1     -56.078   0.692 -24.978  1.00  0.00     0.149 C 
BRANCH  23  24
HETATM   24  C1  UNL     1     -56.442   0.850 -26.413  1.00  0.00     0.241 C 
HETATM   25  O1  UNL     1     -56.081  -0.049 -27.166  1.00  0.00    -0.306 OA
ENDBRANCH  23  24
ENDBRANCH  22  23
ENDBRANCH   1  22
TORSDOF 6
ENDMDL
MODEL 5
REMARK VINA RESULT: -6.188475095      2.814      8.761
REMARK  6 active torsions:
REMARK  status: ('A' for Active; 'I' for Inactive)
REMARK    1  A    between atoms: C1_2  and  C2_3 
REMARK    2  A    between atoms: C2_3  and  S1_4 
REMARK    3  A    between atoms: S1_4  and  C3_5 
REMARK    4  A    between atoms: C7_13  and  N2_14 
REMARK       I    between atoms: N2_14  and  C8_16 
REMARK    5  A    between atoms: C8_16  and  C9_18 
REMARK    6  A    between atoms: C9_18  and  C10_19 
ROOT
HETATM    1  C3  UNL     1     -50.245  -2.160 -25.823  1.00  0.00     0.023 A 
HETATM    2  C4  UNL     1     -49.406  -3.106 -26.307  1.00  0.00     0.050 A 
HETATM    3  C5  UNL     1     -48.914  -4.164 -25.575  1.00  0.00     0.075 A 
HETATM    4  S2  UNL     1     -47.895  -5.273 -26.257  1.00  0.00    -0.072 SA
HETATM    5  S3  UNL     1     -49.437  -4.218 -23.966  1.00  0.00    -0.059 SA
HETATM    6  C6  UNL     1     -50.510  -2.926 -23.507  1.00  0.00     0.096 A 
HETATM    7  N1  UNL     1     -51.076  -2.691 -22.352  1.00  0.00    -0.330 N 
ATOM      8  H1  UNL     1     -50.911  -3.314 -21.562  1.00  0.00     0.168 HD
HETATM    9  C7  UNL     1     -51.866  -1.635 -22.216  1.00  0.00     0.152 A 
HETATM   10  S5  UNL     1     -51.826  -0.930 -23.767  1.00  0.00    -0.050 SA
HETATM   11  C14 UNL     1     -50.760  -2.066 -24.537  1.00  0.00     0.059 A 
ENDROOT
BRANCH   9  12
HETATM   12  N2  UNL     1     -52.520  -1.243 -21.140  1.00  0.00    -0.307 N 
HETATM   13  C8  UNL     1     -51.810  -1.193 -19.916  1.00  0.00     0.228 C 
HETATM   14  O2  UNL     1     -51.960  -2.196 -19.153  1.00  0.00    -0.273 OA
ATOM     15  H2  UNL     1     -53.506  -0.982 -21.189  1.00  0.00     0.171 HD
BRANCH  13  16
HETATM   16  C9  UNL     1     -50.941  -0.102 -19.481  1.00  0.00     0.149 C 
BRANCH  16  17
HETATM   17  C10 UNL     1     -51.569   0.560 -18.280  1.00  0.00    -0.009 A 
HETATM   18  C11 UNL     1     -52.652   1.403 -18.277  1.00  0.00     0.015 A 
HETATM   19  C12 UNL     1     -53.053   1.887 -17.098  1.00  0.00     0.008 A 
HETATM   20  C13 UNL     1     -52.350   1.500 -15.987  1.00  0.00     0.050 A 
HETATM   21  S4  UNL     1     -51.152   0.474 -16.630  1.00  0.00    -0.106 SA
ENDBRANCH  16  17
ENDBRANCH  13  16
ENDBRANCH   9  12
BRANCH   1  22
HETATM   22  S1  UNL     1     -50.754  -0.875 -26.976  1.00  0.00    -0.122 SA
BRANCH  22  23
HETATM   23  C2  UNL     1     -51.819  -1.501 -28.271  1.00  0.00     0.149 C 
BRANCH  23  24
HETATM   24  C1  UNL     1     -52.792  -2.463 -27.686  1.00  0.00     0.241 C 
HETATM   25  O1  UNL     1     -53.923  -2.448 -28.163  1.00  0.00    -0.306 OA
ENDBRANCH  23  24
ENDBRANCH  22  23
ENDBRANCH   1  22
TORSDOF 6
ENDMDL
