MODEL 1
REMARK VINA RESULT: -4.545705478      0.000      0.000
REMARK  6 active torsions:
REMARK  status: ('A' for Active; 'I' for Inactive)
REMARK    1  A    between atoms: N1_1  and  N2_4 
REMARK    2  A    between atoms: N2_4  and  N3_5 
REMARK    3  A    between atoms: N3_5  and  C1_7 
REMARK    4  A    between atoms: C1_7  and  C2_8 
REMARK    5  A    between atoms: C2_8  and  N4_9 
REMARK    6  A    between atoms: C6_13  and  O1_14 
ROOT
HETATM    1  N4  UNL     1      11.849  -9.724 -25.558  1.00  0.00    -0.392 N 
HETATM    2  C3  UNL     1      11.559  -9.915 -24.185  1.00  0.00     0.122 C 
HETATM    3  C4  UNL     1      12.277  -8.822 -23.431  1.00  0.00     0.022 C 
HETATM    4  C5  UNL     1      11.861  -7.455 -23.683  1.00  0.00     0.033 C 
HETATM    5  C6  UNL     1      10.813  -7.143 -24.672  1.00  0.00     0.119 C 
HETATM    6  C7  UNL     1      10.990  -7.626 -26.057  1.00  0.00     0.051 C 
HETATM    7  C8  UNL     1      10.723  -9.132 -26.206  1.00  0.00     0.124 C 
ENDROOT
BRANCH   1   8
HETATM    8  C2  UNL     1      12.557 -10.703 -26.253  1.00  0.00     0.080 C 
BRANCH   8   9
HETATM    9  C1  UNL     1      13.150 -11.739 -25.298  1.00  0.00     0.199 C 
BRANCH   9  10
HETATM   10  N3  UNL     1      14.598 -11.605 -25.233  1.00  0.00    -0.248 N 
ATOM     11  H3  UNL     1      15.020 -10.691 -25.396  1.00  0.00     0.197 HD
BRANCH  10  12
HETATM   12  N2  UNL     1      15.334 -12.577 -24.983  1.00  0.00    -0.248 NA
BRANCH  12  13
HETATM   13  N1  UNL     1      16.205 -13.294 -24.476  1.00  0.00    -0.261 N 
ATOM     14  H12 UNL     1      15.851 -13.216 -23.523  1.00  0.00     0.193 HD
ATOM     15  H11 UNL     1      17.019 -13.898 -24.359  1.00  0.00     0.193 HD
ENDBRANCH  12  13
ENDBRANCH  10  12
ENDBRANCH   9  10
ENDBRANCH   8   9
ENDBRANCH   1   8
BRANCH   5  16
HETATM   16  O1  UNL     1      10.787  -5.725 -24.773  1.00  0.00    -0.396 OA
ATOM     17  H1  UNL     1      10.441  -5.534 -25.637  1.00  0.00     0.210 HD
ENDBRANCH   5  16
TORSDOF 6
ENDMDL
MODEL 2
REMARK VINA RESULT: -4.500337023      3.575      5.486
REMARK  6 active torsions:
REMARK  status: ('A' for Active; 'I' for Inactive)
REMARK    1  A    between atoms: N1_1  and  N2_4 
REMARK    2  A    between atoms: N2_4  and  N3_5 
REMARK    3  A    between atoms: N3_5  and  C1_7 
REMARK    4  A    between atoms: C1_7  and  C2_8 
REMARK    5  A    between atoms: C2_8  and  N4_9 
REMARK    6  A    between atoms: C6_13  and  O1_14 
ROOT
HETATM    1  N4  UNL     1      10.541  -9.144 -25.309  1.00  0.00    -0.392 N 
HETATM    2  C3  UNL     1       9.417  -9.150 -26.171  1.00  0.00     0.122 C 
HETATM    3  C4  UNL     1       9.813  -8.380 -27.408  1.00  0.00     0.022 C 
HETATM    4  C5  UNL     1      10.878  -8.933 -28.225  1.00  0.00     0.033 C 
HETATM    5  C6  UNL     1      11.577 -10.171 -27.837  1.00  0.00     0.119 C 
HETATM    6  C7  UNL     1      12.210 -10.229 -26.502  1.00  0.00     0.051 C 
HETATM    7  C8  UNL     1      11.193 -10.412 -25.365  1.00  0.00     0.124 C 
ENDROOT
BRANCH   1   8
HETATM    8  C2  UNL     1      10.449  -8.514 -24.069  1.00  0.00     0.080 C 
BRANCH   8   9
HETATM    9  C1  UNL     1      11.572  -7.494 -23.881  1.00  0.00     0.199 C 
BRANCH   9  10
HETATM   10  N3  UNL     1      11.417  -6.386 -24.812  1.00  0.00    -0.248 N 
ATOM     11  H3  UNL     1      12.147  -6.211 -25.502  1.00  0.00     0.197 HD
BRANCH  10  12
HETATM   12  N2  UNL     1      10.416  -5.646 -24.787  1.00  0.00    -0.248 NA
BRANCH  12  13
HETATM   13  N1  UNL     1       9.576  -4.792 -25.095  1.00  0.00    -0.261 N 
ATOM     14  H12 UNL     1       9.907  -4.672 -26.052  1.00  0.00     0.193 HD
ATOM     15  H11 UNL     1       8.794  -4.137 -25.048  1.00  0.00     0.193 HD
ENDBRANCH  12  13
ENDBRANCH  10  12
ENDBRANCH   9  10
ENDBRANCH   8   9
ENDBRANCH   1   8
BRANCH   5  16
HETATM   16  O1  UNL     1      12.648 -10.315 -28.762  1.00  0.00    -0.396 OA
ATOM     17  H1  UNL     1      12.962  -9.435 -28.932  1.00  0.00     0.210 HD
ENDBRANCH   5  16
TORSDOF 6
ENDMDL
MODEL 3
REMARK VINA RESULT: -4.485875302      3.625      5.678
REMARK  6 active torsions:
REMARK  status: ('A' for Active; 'I' for Inactive)
REMARK    1  A    between atoms: N1_1  and  N2_4 
REMARK    2  A    between atoms: N2_4  and  N3_5 
REMARK    3  A    between atoms: N3_5  and  C1_7 
REMARK    4  A    between atoms: C1_7  and  C2_8 
REMARK    5  A    between atoms: C2_8  and  N4_9 
REMARK    6  A    between atoms: C6_13  and  O1_14 
ROOT
HETATM    1  N4  UNL     1      10.696  -8.466 -25.744  1.00  0.00    -0.392 N 
HETATM    2  C3  UNL     1      11.552  -7.586 -25.038  1.00  0.00     0.122 C 
HETATM    3  C4  UNL     1      11.381  -7.895 -23.570  1.00  0.00     0.022 C 
HETATM    4  C5  UNL     1      11.790  -9.211 -23.114  1.00  0.00     0.033 C 
HETATM    5  C6  UNL     1      12.305 -10.222 -24.055  1.00  0.00     0.119 C 
HETATM    6  C7  UNL     1      11.467 -10.591 -25.215  1.00  0.00     0.051 C 
HETATM    7  C8  UNL     1      11.465  -9.521 -26.319  1.00  0.00     0.124 C 
ENDROOT
BRANCH   1   8
HETATM    8  C2  UNL     1       9.644  -7.945 -26.495  1.00  0.00     0.080 C 
BRANCH   8   9
HETATM    9  C1  UNL     1       8.377  -7.805 -25.652  1.00  0.00     0.199 C 
BRANCH   9  10
HETATM   10  N3  UNL     1       7.901  -6.430 -25.669  1.00  0.00    -0.248 N 
ATOM     11  H3  UNL     1       6.987  -6.225 -26.075  1.00  0.00     0.197 HD
BRANCH  10  12
HETATM   12  N2  UNL     1       8.579  -5.497 -25.202  1.00  0.00    -0.248 NA
BRANCH  12  13
HETATM   13  N1  UNL     1       9.392  -4.569 -25.097  1.00  0.00    -0.261 N 
ATOM     14  H12 UNL     1       9.255  -4.215 -26.044  1.00  0.00     0.193 HD
ATOM     15  H11 UNL     1      10.091  -3.929 -24.720  1.00  0.00     0.193 HD
ENDBRANCH  12  13
ENDBRANCH  10  12
ENDBRANCH   9  10
ENDBRANCH   8   9
ENDBRANCH   1   8
BRANCH   5  16
HETATM   16  O1  UNL     1      12.441 -11.419 -23.300  1.00  0.00    -0.396 OA
ATOM     17  H1  UNL     1      13.359 -11.657 -23.357  1.00  0.00     0.210 HD
ENDBRANCH   5  16
TORSDOF 6
ENDMDL
MODEL 4
REMARK VINA RESULT: -4.454366533      3.251      5.811
REMARK  6 active torsions:
REMARK  status: ('A' for Active; 'I' for Inactive)
REMARK    1  A    between atoms: N1_1  and  N2_4 
REMARK    2  A    between atoms: N2_4  and  N3_5 
REMARK    3  A    between atoms: N3_5  and  C1_7 
REMARK    4  A    between atoms: C1_7  and  C2_8 
REMARK    5  A    between atoms: C2_8  and  N4_9 
REMARK    6  A    between atoms: C6_13  and  O1_14 
ROOT
HETATM    1  N4  UNL     1      12.211  -9.725 -24.583  1.00  0.00    -0.392 N 
HETATM    2  C3  UNL     1      11.157  -9.996 -25.489  1.00  0.00     0.122 C 
HETATM    3  C4  UNL     1      11.773 -10.065 -26.866  1.00  0.00     0.022 C 
HETATM    4  C5  UNL     1      12.725 -11.132 -27.117  1.00  0.00     0.033 C 
HETATM    5  C6  UNL     1      13.112 -12.079 -26.056  1.00  0.00     0.119 C 
HETATM    6  C7  UNL     1      13.651 -11.533 -24.792  1.00  0.00     0.051 C 
HETATM    7  C8  UNL     1      12.566 -10.922 -23.892  1.00  0.00     0.124 C 
ENDROOT
BRANCH   1   8
HETATM    8  C2  UNL     1      12.203  -8.535 -23.858  1.00  0.00     0.080 C 
BRANCH   8   9
HETATM    9  C1  UNL     1      10.922  -7.741 -24.110  1.00  0.00     0.199 C 
BRANCH   9  10
HETATM   10  N3  UNL     1      11.225  -6.467 -24.744  1.00  0.00    -0.248 N 
ATOM     11  H3  UNL     1      12.133  -6.338 -25.190  1.00  0.00     0.197 HD
BRANCH  10  12
HETATM   12  N2  UNL     1      10.405  -5.530 -24.754  1.00  0.00    -0.248 NA
BRANCH  12  13
HETATM   13  N1  UNL     1       9.548  -4.721 -25.128  1.00  0.00    -0.261 N 
ATOM     14  H12 UNL     1       9.195  -5.300 -25.890  1.00  0.00     0.193 HD
ATOM     15  H11 UNL     1       8.963  -3.887 -25.195  1.00  0.00     0.193 HD
ENDBRANCH  12  13
ENDBRANCH  10  12
ENDBRANCH   9  10
ENDBRANCH   8   9
ENDBRANCH   1   8
BRANCH   5  16
HETATM   16  O1  UNL     1      14.166 -12.861 -26.602  1.00  0.00    -0.396 OA
ATOM     17  H1  UNL     1      14.357 -13.526 -25.951  1.00  0.00     0.210 HD
ENDBRANCH   5  16
TORSDOF 6
ENDMDL
MODEL 5
REMARK VINA RESULT: -4.430822433      6.795      7.836
REMARK  6 active torsions:
REMARK  status: ('A' for Active; 'I' for Inactive)
REMARK    1  A    between atoms: N1_1  and  N2_4 
REMARK    2  A    between atoms: N2_4  and  N3_5 
REMARK    3  A    between atoms: N3_5  and  C1_7 
REMARK    4  A    between atoms: C1_7  and  C2_8 
REMARK    5  A    between atoms: C2_8  and  N4_9 
REMARK    6  A    between atoms: C6_13  and  O1_14 
ROOT
HETATM    1  N4  UNL     1      20.105 -11.408 -25.594  1.00  0.00    -0.392 N 
HETATM    2  C3  UNL     1      20.076 -12.168 -26.790  1.00  0.00     0.122 C 
HETATM    3  C4  UNL     1      18.651 -12.147 -27.286  1.00  0.00     0.022 C 
HETATM    4  C5  UNL     1      18.102 -10.863 -27.681  1.00  0.00     0.033 C 
HETATM    5  C6  UNL     1      18.888  -9.622 -27.557  1.00  0.00     0.119 C 
HETATM    6  C7  UNL     1      19.446  -9.276 -26.233  1.00  0.00     0.051 C 
HETATM    7  C8  UNL     1      20.671 -10.125 -25.858  1.00  0.00     0.124 C 
ENDROOT
BRANCH   1   8
HETATM    8  C2  UNL     1      20.438 -12.031 -24.394  1.00  0.00     0.080 C 
BRANCH   8   9
HETATM    9  C1  UNL     1      20.826 -13.492 -24.617  1.00  0.00     0.199 C 
BRANCH   9  10
HETATM   10  N3  UNL     1      19.873 -14.379 -23.966  1.00  0.00    -0.248 N 
ATOM     11  H3  UNL     1      20.150 -15.338 -23.756  1.00  0.00     0.197 HD
BRANCH  10  12
HETATM   12  N2  UNL     1      18.729 -13.998 -23.658  1.00  0.00    -0.248 NA
BRANCH  12  13
HETATM   13  N1  UNL     1      17.575 -13.978 -23.213  1.00  0.00    -0.261 N 
ATOM     14  H12 UNL     1      17.556 -12.972 -23.041  1.00  0.00     0.193 HD
ATOM     15  H11 UNL     1      16.647 -14.272 -22.906  1.00  0.00     0.193 HD
ENDBRANCH  12  13
ENDBRANCH  10  12
ENDBRANCH   9  10
ENDBRANCH   8   9
ENDBRANCH   1   8
BRANCH   5  16
HETATM   16  O1  UNL     1      17.991  -8.564 -27.871  1.00  0.00    -0.396 OA
ATOM     17  H1  UNL     1      18.482  -7.965 -28.421  1.00  0.00     0.210 HD
ENDBRANCH   5  16
TORSDOF 6
ENDMDL
