MODEL 1
REMARK VINA RESULT: -4.638993841      0.000      0.000
REMARK  6 active torsions:
REMARK  status: ('A' for Active; 'I' for Inactive)
REMARK    1  A    between atoms: C2_2  and  C3_3 
REMARK    2  A    between atoms: C2_2  and  N4_10 
REMARK    3  A    between atoms: C3_3  and  N1_4 
REMARK    4  A    between atoms: N1_4  and  N2_6 
REMARK    5  A    between atoms: N2_6  and  N3_7 
REMARK    6  A    between atoms: C6_13  and  O1_14 
ROOT
HETATM    1  C1  UNL     1      11.541 -12.234 -25.926  1.00  0.00     0.045 C 
HETATM    2  C2  UNL     1      12.225 -10.930 -25.608  1.00  0.00     0.239 C 
ENDROOT
BRANCH   2   3
HETATM    3  C3  UNL     1      13.321 -11.274 -24.621  1.00  0.00     0.191 C 
BRANCH   3   4
HETATM    4  N1  UNL     1      14.579 -11.556 -25.223  1.00  0.00    -0.251 N 
ATOM      5  H1  UNL     1      14.933 -10.961 -25.973  1.00  0.00     0.197 HD
BRANCH   4   6
HETATM    6  N2  UNL     1      15.234 -12.516 -24.837  1.00  0.00    -0.249 NA
BRANCH   6   7
HETATM    7  N3  UNL     1      16.145 -13.244 -24.452  1.00  0.00    -0.261 N 
ATOM      8  H32 UNL     1      16.769 -12.993 -25.219  1.00  0.00     0.193 HD
ATOM      9  H31 UNL     1      16.712 -13.906 -23.923  1.00  0.00     0.193 HD
ENDBRANCH   6   7
ENDBRANCH   4   6
ENDBRANCH   3   4
ENDBRANCH   2   3
BRANCH   2  10
HETATM   10  N4  UNL     1      11.341  -9.942 -25.047  1.00  0.00     0.094 N 
HETATM   11  C4  UNL     1      11.978  -9.323 -23.947  1.00  0.00     0.275 C 
HETATM   12  C5  UNL     1      11.851  -7.862 -23.754  1.00  0.00     0.062 C 
HETATM   13  C6  UNL     1      11.428  -7.081 -24.959  1.00  0.00     0.121 C 
HETATM   14  C7  UNL     1      10.203  -7.814 -25.491  1.00  0.00     0.062 C 
HETATM   15  C8  UNL     1      10.737  -9.125 -26.038  1.00  0.00     0.275 C 
BRANCH  13  16
HETATM   16  O1  UNL     1      11.042  -5.802 -24.636  1.00  0.00    -0.395 OA
ATOM     17  H1  UNL     1      10.675  -5.341 -25.382  1.00  0.00     0.210 HD
ENDBRANCH  13  16
ENDBRANCH   2  10
TORSDOF 6
ENDMDL
MODEL 2
REMARK VINA RESULT: -4.597150642      3.218      5.729
REMARK  6 active torsions:
REMARK  status: ('A' for Active; 'I' for Inactive)
REMARK    1  A    between atoms: C2_2  and  C3_3 
REMARK    2  A    between atoms: C2_2  and  N4_10 
REMARK    3  A    between atoms: C3_3  and  N1_4 
REMARK    4  A    between atoms: N1_4  and  N2_6 
REMARK    5  A    between atoms: N2_6  and  N3_7 
REMARK    6  A    between atoms: C6_13  and  O1_14 
ROOT
HETATM    1  C1  UNL     1      11.959  -8.398 -22.653  1.00  0.00     0.045 C 
HETATM    2  C2  UNL     1      11.916  -8.423 -24.158  1.00  0.00     0.239 C 
ENDROOT
BRANCH   2   3
HETATM    3  C3  UNL     1      10.747  -7.543 -24.549  1.00  0.00     0.191 C 
BRANCH   3   4
HETATM    4  N1  UNL     1      11.100  -6.189 -24.812  1.00  0.00    -0.251 N 
ATOM      5  H1  UNL     1      12.073  -5.940 -24.995  1.00  0.00     0.197 HD
BRANCH   4   6
HETATM    6  N2  UNL     1      10.231  -5.326 -24.818  1.00  0.00    -0.249 NA
BRANCH   6   7
HETATM    7  N3  UNL     1       9.290  -4.604 -25.130  1.00  0.00    -0.261 N 
ATOM      8  H32 UNL     1       9.254  -4.942 -26.092  1.00  0.00     0.193 HD
ATOM      9  H31 UNL     1       8.532  -3.921 -25.116  1.00  0.00     0.193 HD
ENDBRANCH   6   7
ENDBRANCH   4   6
ENDBRANCH   3   4
ENDBRANCH   2   3
BRANCH   2  10
HETATM   10  N4  UNL     1      11.748  -9.744 -24.705  1.00  0.00     0.094 N 
HETATM   11  C4  UNL     1      11.138  -9.645 -25.976  1.00  0.00     0.275 C 
HETATM   12  C5  UNL     1      11.607 -10.506 -27.084  1.00  0.00     0.062 C 
HETATM   13  C6  UNL     1      12.968 -11.105 -26.910  1.00  0.00     0.121 C 
HETATM   14  C7  UNL     1      12.948 -11.725 -25.518  1.00  0.00     0.062 C 
HETATM   15  C8  UNL     1      12.913 -10.544 -24.564  1.00  0.00     0.275 C 
BRANCH  13  16
HETATM   16  O1  UNL     1      13.206 -12.115 -27.812  1.00  0.00    -0.395 OA
ATOM     17  H1  UNL     1      13.976 -12.623 -27.584  1.00  0.00     0.210 HD
ENDBRANCH  13  16
ENDBRANCH   2  10
TORSDOF 6
ENDMDL
MODEL 3
REMARK VINA RESULT: -4.521022597      3.254      5.637
REMARK  6 active torsions:
REMARK  status: ('A' for Active; 'I' for Inactive)
REMARK    1  A    between atoms: C2_2  and  C3_3 
REMARK    2  A    between atoms: C2_2  and  N4_10 
REMARK    3  A    between atoms: C3_3  and  N1_4 
REMARK    4  A    between atoms: N1_4  and  N2_6 
REMARK    5  A    between atoms: N2_6  and  N3_7 
REMARK    6  A    between atoms: C6_13  and  O1_14 
ROOT
HETATM    1  C1  UNL     1      11.023  -8.837 -22.752  1.00  0.00     0.045 C 
HETATM    2  C2  UNL     1      11.728  -8.231 -23.937  1.00  0.00     0.239 C 
ENDROOT
BRANCH   2   3
HETATM    3  C3  UNL     1      10.672  -7.439 -24.680  1.00  0.00     0.191 C 
BRANCH   3   4
HETATM    4  N1  UNL     1      10.965  -6.051 -24.803  1.00  0.00    -0.251 N 
ATOM      5  H1  UNL     1      11.934  -5.733 -24.834  1.00  0.00     0.197 HD
BRANCH   4   6
HETATM    6  N2  UNL     1      10.047  -5.242 -24.872  1.00  0.00    -0.249 NA
BRANCH   6   7
HETATM    7  N3  UNL     1       9.011  -4.658 -25.173  1.00  0.00    -0.261 N 
ATOM      8  H32 UNL     1       9.301  -3.773 -24.757  1.00  0.00     0.193 HD
ATOM      9  H31 UNL     1       8.085  -4.430 -25.535  1.00  0.00     0.193 HD
ENDBRANCH   6   7
ENDBRANCH   4   6
ENDBRANCH   3   4
ENDBRANCH   2   3
BRANCH   2  10
HETATM   10  N4  UNL     1      12.323  -9.208 -24.810  1.00  0.00     0.094 N 
HETATM   11  C4  UNL     1      12.731 -10.325 -24.046  1.00  0.00     0.275 C 
HETATM   12  C5  UNL     1      12.515 -11.691 -24.569  1.00  0.00     0.062 C 
HETATM   13  C6  UNL     1      11.498 -11.815 -25.661  1.00  0.00     0.121 C 
HETATM   14  C7  UNL     1      11.878 -10.742 -26.674  1.00  0.00     0.062 C 
HETATM   15  C8  UNL     1      11.560  -9.425 -25.987  1.00  0.00     0.275 C 
BRANCH  13  16
HETATM   16  O1  UNL     1      11.570 -13.032 -26.297  1.00  0.00    -0.395 OA
ATOM     17  H1  UNL     1      11.418 -12.955 -27.232  1.00  0.00     0.210 HD
ENDBRANCH  13  16
ENDBRANCH   2  10
TORSDOF 6
ENDMDL
MODEL 4
REMARK VINA RESULT: -4.473644461      6.674      8.132
REMARK  6 active torsions:
REMARK  status: ('A' for Active; 'I' for Inactive)
REMARK    1  A    between atoms: C2_2  and  C3_3 
REMARK    2  A    between atoms: C2_2  and  N4_10 
REMARK    3  A    between atoms: C3_3  and  N1_4 
REMARK    4  A    between atoms: N1_4  and  N2_6 
REMARK    5  A    between atoms: N2_6  and  N3_7 
REMARK    6  A    between atoms: C6_13  and  O1_14 
ROOT
HETATM    1  C1  UNL     1      21.082 -11.942 -27.405  1.00  0.00     0.045 C 
HETATM    2  C2  UNL     1      19.776 -11.445 -26.841  1.00  0.00     0.239 C 
ENDROOT
BRANCH   2   3
HETATM    3  C3  UNL     1      20.149 -10.465 -25.749  1.00  0.00     0.191 C 
BRANCH   3   4
HETATM    4  N1  UNL     1      19.892  -9.104 -26.075  1.00  0.00    -0.251 N 
ATOM      5  H1  UNL     1      20.507  -8.368 -25.726  1.00  0.00     0.197 HD
BRANCH   4   6
HETATM    6  N2  UNL     1      18.930  -8.821 -26.778  1.00  0.00    -0.249 NA
BRANCH   6   7
HETATM    7  N3  UNL     1      18.216  -8.461 -27.709  1.00  0.00    -0.261 N 
ATOM      8  H32 UNL     1      17.401  -8.294 -27.117  1.00  0.00     0.193 HD
ATOM      9  H31 UNL     1      17.861  -8.214 -28.633  1.00  0.00     0.193 HD
ENDBRANCH   6   7
ENDBRANCH   4   6
ENDBRANCH   3   4
ENDBRANCH   2   3
BRANCH   2  10
HETATM   10  N4  UNL     1      18.947 -12.494 -26.308  1.00  0.00     0.094 N 
HETATM   11  C4  UNL     1      19.737 -13.343 -25.500  1.00  0.00     0.275 C 
HETATM   12  C5  UNL     1      19.195 -13.850 -24.221  1.00  0.00     0.062 C 
HETATM   13  C6  UNL     1      18.031 -13.093 -23.662  1.00  0.00     0.121 C 
HETATM   14  C7  UNL     1      17.051 -12.967 -24.822  1.00  0.00     0.062 C 
HETATM   15  C8  UNL     1      17.716 -12.007 -25.794  1.00  0.00     0.275 C 
BRANCH  13  16
HETATM   16  O1  UNL     1      17.398 -13.785 -22.656  1.00  0.00    -0.395 OA
ATOM     17  H1  UNL     1      17.549 -13.394 -21.804  1.00  0.00     0.210 HD
ENDBRANCH  13  16
ENDBRANCH   2  10
TORSDOF 6
ENDMDL
MODEL 5
REMARK VINA RESULT: -4.413935467      1.726      2.302
REMARK  6 active torsions:
REMARK  status: ('A' for Active; 'I' for Inactive)
REMARK    1  A    between atoms: C2_2  and  C3_3 
REMARK    2  A    between atoms: C2_2  and  N4_10 
REMARK    3  A    between atoms: C3_3  and  N1_4 
REMARK    4  A    between atoms: N1_4  and  N2_6 
REMARK    5  A    between atoms: N2_6  and  N3_7 
REMARK    6  A    between atoms: C6_13  and  O1_14 
ROOT
HETATM    1  C1  UNL     1      13.267 -11.205 -24.802  1.00  0.00     0.045 C 
HETATM    2  C2  UNL     1      11.976 -10.975 -25.544  1.00  0.00     0.239 C 
ENDROOT
BRANCH   2   3
HETATM    3  C3  UNL     1      12.378 -10.602 -26.956  1.00  0.00     0.191 C 
BRANCH   3   4
HETATM    4  N1  UNL     1      13.671 -11.059 -27.333  1.00  0.00    -0.251 N 
ATOM      5  H1  UNL     1      14.307 -11.437 -26.630  1.00  0.00     0.197 HD
BRANCH   4   6
HETATM    6  N2  UNL     1      14.018 -10.996 -28.507  1.00  0.00    -0.249 NA
BRANCH   6   7
HETATM    7  N3  UNL     1      14.398 -11.275 -29.640  1.00  0.00    -0.261 N 
ATOM      8  H32 UNL     1      15.219 -10.671 -29.593  1.00  0.00     0.193 HD
ATOM      9  H31 UNL     1      14.478 -11.672 -30.576  1.00  0.00     0.193 HD
ENDBRANCH   6   7
ENDBRANCH   4   6
ENDBRANCH   3   4
ENDBRANCH   2   3
BRANCH   2  10
HETATM   10  N4  UNL     1      11.162  -9.938 -24.967  1.00  0.00     0.094 N 
HETATM   11  C4  UNL     1      11.880  -9.311 -23.923  1.00  0.00     0.275 C 
HETATM   12  C5  UNL     1      11.818  -7.842 -23.769  1.00  0.00     0.062 C 
HETATM   13  C6  UNL     1      11.358  -7.081 -24.974  1.00  0.00     0.121 C 
HETATM   14  C7  UNL     1      10.079  -7.781 -25.415  1.00  0.00     0.062 C 
HETATM   15  C8  UNL     1      10.534  -9.128 -25.949  1.00  0.00     0.275 C 
BRANCH  13  16
HETATM   16  O1  UNL     1      11.036  -5.779 -24.670  1.00  0.00    -0.395 OA
ATOM     17  H1  UNL     1      10.190  -5.710 -24.244  1.00  0.00     0.210 HD
ENDBRANCH  13  16
ENDBRANCH   2  10
TORSDOF 6
ENDMDL
