MODEL 1
REMARK VINA RESULT: -4.647023624      0.000      0.000
REMARK  5 active torsions:
REMARK  status: ('A' for Active; 'I' for Inactive)
REMARK    1  A    between atoms: N1_7  and  C7_8 
REMARK    2  A    between atoms: C7_8  and  O1_9 
REMARK    3  A    between atoms: C7_8  and  C8_11 
REMARK    4  A    between atoms: C8_11  and  N2_12 
REMARK    5  A    between atoms: N2_12  and  N3_14 
ROOT
HETATM    1  C7  UNL     1      18.030 -11.353 -24.699  1.00  0.00     0.376 C 
ENDROOT
BRANCH   1   2
HETATM    2  N1  UNL     1      18.887 -11.347 -25.854  1.00  0.00     0.127 N 
HETATM    3  C2  UNL     1      20.251 -11.590 -25.534  1.00  0.00     0.223 C 
HETATM    4  C1  UNL     1      20.868 -12.703 -26.339  1.00  0.00     0.043 C 
HETATM    5  C3  UNL     1      21.025 -10.325 -25.841  1.00  0.00     0.037 C 
HETATM    6  C4  UNL     1      19.958  -9.306 -26.074  1.00  0.00     0.037 C 
HETATM    7  C5  UNL     1      18.758 -10.092 -26.521  1.00  0.00     0.223 C 
HETATM    8  C6  UNL     1      18.672 -10.214 -28.021  1.00  0.00     0.043 C 
ENDBRANCH   1   2
BRANCH   1   9
HETATM    9  O1  UNL     1      18.806 -11.486 -23.520  1.00  0.00    -0.366 OA
ATOM     10  H1  UNL     1      18.441 -12.166 -22.966  1.00  0.00     0.212 HD
ENDBRANCH   1   9
BRANCH   1  11
HETATM   11  C8  UNL     1      17.022 -12.493 -24.738  1.00  0.00     0.205 C 
BRANCH  11  12
HETATM   12  N2  UNL     1      17.245 -13.255 -23.512  1.00  0.00    -0.318 N 
ATOM     13  H2  UNL     1      16.736 -13.015 -22.662  1.00  0.00     0.181 HD
BRANCH  12  14
HETATM   14  N3  UNL     1      18.041 -14.178 -23.506  1.00  0.00    -0.254 N 
HETATM   15  N4  UNL     1      19.100 -14.768 -23.622  1.00  0.00    -0.331 N 
ATOM     16  H42 UNL     1      19.666 -13.967 -23.900  1.00  0.00     0.178 HD
ATOM     17  H41 UNL     1      19.766 -15.541 -23.618  1.00  0.00     0.178 HD
ATOM     18  H3  UNL     1      17.431 -14.946 -23.225  1.00  0.00     0.207 HD
ENDBRANCH  12  14
ENDBRANCH  11  12
ENDBRANCH   1  11
TORSDOF 5
ENDMDL
MODEL 2
REMARK VINA RESULT: -4.471746565      7.070      8.210
REMARK  5 active torsions:
REMARK  status: ('A' for Active; 'I' for Inactive)
REMARK    1  A    between atoms: N1_7  and  C7_8 
REMARK    2  A    between atoms: C7_8  and  O1_9 
REMARK    3  A    between atoms: C7_8  and  C8_11 
REMARK    4  A    between atoms: C8_11  and  N2_12 
REMARK    5  A    between atoms: N2_12  and  N3_14 
ROOT
HETATM    1  C7  UNL     1      12.439 -10.644 -24.364  1.00  0.00     0.376 C 
ENDROOT
BRANCH   1   2
HETATM    2  N1  UNL     1      11.606 -10.936 -25.500  1.00  0.00     0.127 N 
HETATM    3  C2  UNL     1      11.682 -12.296 -25.910  1.00  0.00     0.223 C 
HETATM    4  C1  UNL     1      10.338 -12.964 -26.030  1.00  0.00     0.043 C 
HETATM    5  C3  UNL     1      12.329 -12.325 -27.278  1.00  0.00     0.037 C 
HETATM    6  C4  UNL     1      12.848 -10.936 -27.454  1.00  0.00     0.037 C 
HETATM    7  C5  UNL     1      11.976 -10.080 -26.580  1.00  0.00     0.223 C 
HETATM    8  C6  UNL     1      10.797  -9.505 -27.323  1.00  0.00     0.043 C 
ENDBRANCH   1   2
BRANCH   1   9
HETATM    9  O1  UNL     1      12.110 -11.505 -23.288  1.00  0.00    -0.366 OA
ATOM     10  H1  UNL     1      12.540 -11.211 -22.493  1.00  0.00     0.212 HD
ENDBRANCH   1   9
BRANCH   1  11
HETATM   11  C8  UNL     1      12.280  -9.205 -23.891  1.00  0.00     0.205 C 
BRANCH  11  12
HETATM   12  N2  UNL     1      11.142  -9.219 -22.976  1.00  0.00    -0.318 N 
ATOM     13  H2  UNL     1      11.277  -9.470 -21.996  1.00  0.00     0.181 HD
BRANCH  12  14
HETATM   14  N3  UNL     1      10.030  -8.929 -23.383  1.00  0.00    -0.254 N 
HETATM   15  N4  UNL     1       9.078  -8.858 -24.140  1.00  0.00    -0.331 N 
ATOM     16  H42 UNL     1       9.492  -9.369 -24.919  1.00  0.00     0.178 HD
ATOM     17  H41 UNL     1       8.148  -8.616 -24.481  1.00  0.00     0.178 HD
ATOM     18  H3  UNL     1       9.663  -8.426 -22.576  1.00  0.00     0.207 HD
ENDBRANCH  12  14
ENDBRANCH  11  12
ENDBRANCH   1  11
TORSDOF 5
ENDMDL
MODEL 3
REMARK VINA RESULT: -4.420273604      7.417      8.877
REMARK  5 active torsions:
REMARK  status: ('A' for Active; 'I' for Inactive)
REMARK    1  A    between atoms: N1_7  and  C7_8 
REMARK    2  A    between atoms: C7_8  and  O1_9 
REMARK    3  A    between atoms: C7_8  and  C8_11 
REMARK    4  A    between atoms: C8_11  and  N2_12 
REMARK    5  A    between atoms: N2_12  and  N3_14 
ROOT
HETATM    1  C7  UNL     1      11.967  -9.687 -25.971  1.00  0.00     0.376 C 
ENDROOT
BRANCH   1   2
HETATM    2  N1  UNL     1      11.126  -9.141 -24.939  1.00  0.00     0.127 N 
HETATM    3  C2  UNL     1       9.977  -8.478 -25.451  1.00  0.00     0.223 C 
HETATM    4  C1  UNL     1       8.685  -8.957 -24.843  1.00  0.00     0.043 C 
HETATM    5  C3  UNL     1      10.115  -7.006 -25.125  1.00  0.00     0.037 C 
HETATM    6  C4  UNL     1      11.529  -6.879 -24.661  1.00  0.00     0.037 C 
HETATM    7  C5  UNL     1      11.894  -8.240 -24.143  1.00  0.00     0.223 C 
HETATM    8  C6  UNL     1      11.646  -8.383 -22.662  1.00  0.00     0.043 C 
ENDBRANCH   1   2
BRANCH   1   9
HETATM    9  O1  UNL     1      11.190  -9.994 -27.116  1.00  0.00    -0.366 OA
ATOM     10  H1  UNL     1      11.722 -10.455 -27.755  1.00  0.00     0.212 HD
ENDBRANCH   1   9
BRANCH   1  11
HETATM   11  C8  UNL     1      12.676 -10.957 -25.521  1.00  0.00     0.205 C 
BRANCH  11  12
HETATM   12  N2  UNL     1      11.654 -11.762 -24.858  1.00  0.00    -0.318 N 
ATOM     13  H2  UNL     1      11.682 -11.889 -23.846  1.00  0.00     0.181 HD
BRANCH  12  14
HETATM   14  N3  UNL     1      10.769 -12.283 -25.514  1.00  0.00    -0.254 N 
HETATM   15  N4  UNL     1       9.644 -12.558 -25.890  1.00  0.00    -0.331 N 
ATOM     16  H42 UNL     1       9.137 -11.976 -25.224  1.00  0.00     0.178 HD
ATOM     17  H41 UNL     1       8.903 -12.994 -26.439  1.00  0.00     0.178 HD
ATOM     18  H3  UNL     1      11.323 -12.847 -26.157  1.00  0.00     0.207 HD
ENDBRANCH  12  14
ENDBRANCH  11  12
ENDBRANCH   1  11
TORSDOF 5
ENDMDL
MODEL 4
REMARK VINA RESULT: -4.360011782      7.588      8.723
REMARK  5 active torsions:
REMARK  status: ('A' for Active; 'I' for Inactive)
REMARK    1  A    between atoms: N1_7  and  C7_8 
REMARK    2  A    between atoms: C7_8  and  O1_9 
REMARK    3  A    between atoms: C7_8  and  C8_11 
REMARK    4  A    between atoms: C8_11  and  N2_12 
REMARK    5  A    between atoms: N2_12  and  N3_14 
ROOT
HETATM    1  C7  UNL     1      10.886  -8.340 -25.761  1.00  0.00     0.376 C 
ENDROOT
BRANCH   1   2
HETATM    2  N1  UNL     1      10.924  -9.761 -25.981  1.00  0.00     0.127 N 
HETATM    3  C2  UNL     1      12.215 -10.321 -25.775  1.00  0.00     0.223 C 
HETATM    4  C1  UNL     1      12.220 -11.489 -24.825  1.00  0.00     0.043 C 
HETATM    5  C3  UNL     1      12.716 -10.821 -27.114  1.00  0.00     0.037 C 
HETATM    6  C4  UNL     1      11.744 -10.245 -28.091  1.00  0.00     0.037 C 
HETATM    7  C5  UNL     1      10.479 -10.037 -27.308  1.00  0.00     0.223 C 
HETATM    8  C6  UNL     1       9.543 -11.216 -27.396  1.00  0.00     0.043 C 
ENDBRANCH   1   2
BRANCH   1   9
HETATM    9  O1  UNL     1      11.954  -7.952 -24.914  1.00  0.00    -0.366 OA
ATOM     10  H1  UNL     1      12.509  -7.322 -25.359  1.00  0.00     0.212 HD
ENDBRANCH   1   9
BRANCH   1  11
HETATM   11  C8  UNL     1       9.580  -7.894 -25.118  1.00  0.00     0.205 C 
BRANCH  11  12
HETATM   12  N2  UNL     1       9.294  -8.886 -24.085  1.00  0.00    -0.318 N 
ATOM     13  H2  UNL     1       8.585  -9.602 -24.248  1.00  0.00     0.181 HD
BRANCH  12  14
HETATM   14  N3  UNL     1       9.901  -8.859 -23.029  1.00  0.00    -0.254 N 
HETATM   15  N4  UNL     1      10.841  -8.901 -22.256  1.00  0.00    -0.331 N 
ATOM     16  H42 UNL     1      11.573  -9.062 -22.948  1.00  0.00     0.178 HD
ATOM     17  H41 UNL     1      11.350  -8.879 -21.372  1.00  0.00     0.178 HD
ATOM     18  H3  UNL     1       9.133  -8.697 -22.378  1.00  0.00     0.207 HD
ENDBRANCH  12  14
ENDBRANCH  11  12
ENDBRANCH   1  11
TORSDOF 5
ENDMDL
MODEL 5
REMARK VINA RESULT: -4.321153668      1.219      1.784
REMARK  5 active torsions:
REMARK  status: ('A' for Active; 'I' for Inactive)
REMARK    1  A    between atoms: N1_7  and  C7_8 
REMARK    2  A    between atoms: C7_8  and  O1_9 
REMARK    3  A    between atoms: C7_8  and  C8_11 
REMARK    4  A    between atoms: C8_11  and  N2_12 
REMARK    5  A    between atoms: N2_12  and  N3_14 
ROOT
HETATM    1  C7  UNL     1      18.790 -11.984 -24.666  1.00  0.00     0.376 C 
ENDROOT
BRANCH   1   2
HETATM    2  N1  UNL     1      19.657 -11.530 -25.721  1.00  0.00     0.127 N 
HETATM    3  C2  UNL     1      20.542 -10.497 -25.307  1.00  0.00     0.223 C 
HETATM    4  C1  UNL     1      21.988 -10.782 -25.619  1.00  0.00     0.043 C 
HETATM    5  C3  UNL     1      20.156  -9.238 -26.053  1.00  0.00     0.037 C 
HETATM    6  C4  UNL     1      18.843  -9.584 -26.675  1.00  0.00     0.037 C 
HETATM    7  C5  UNL     1      18.860 -11.079 -26.815  1.00  0.00     0.223 C 
HETATM    8  C6  UNL     1      19.373 -11.530 -28.160  1.00  0.00     0.043 C 
ENDBRANCH   1   2
BRANCH   1   9
HETATM    9  O1  UNL     1      19.151 -11.365 -23.443  1.00  0.00    -0.366 OA
ATOM     10  H1  UNL     1      18.400 -10.915 -23.073  1.00  0.00     0.212 HD
ENDBRANCH   1   9
BRANCH   1  11
HETATM   11  C8  UNL     1      18.859 -13.493 -24.476  1.00  0.00     0.205 C 
BRANCH  11  12
HETATM   12  N2  UNL     1      17.580 -13.871 -23.882  1.00  0.00    -0.318 N 
ATOM     13  H2  UNL     1      17.528 -14.664 -23.243  1.00  0.00     0.181 HD
BRANCH  12  14
HETATM   14  N3  UNL     1      16.573 -13.238 -24.151  1.00  0.00    -0.254 N 
HETATM   15  N4  UNL     1      15.431 -13.015 -24.511  1.00  0.00    -0.331 N 
ATOM     16  H42 UNL     1      15.167 -13.980 -24.709  1.00  0.00     0.178 HD
ATOM     17  H41 UNL     1      14.589 -12.486 -24.736  1.00  0.00     0.178 HD
ATOM     18  H3  UNL     1      16.888 -12.291 -23.938  1.00  0.00     0.207 HD
ENDBRANCH  12  14
ENDBRANCH  11  12
ENDBRANCH   1  11
TORSDOF 5
ENDMDL
