MODEL 1
REMARK VINA RESULT: -5.015128786      0.000      0.000
REMARK  4 active torsions:
REMARK  status: ('A' for Active; 'I' for Inactive)
REMARK    1  A    between atoms: C2_2  and  C4_4 
REMARK    2  A    between atoms: C4_4  and  N1_5 
REMARK    3  A    between atoms: N1_5  and  C5_7 
REMARK    4  A    between atoms: C6_10  and  C7_11 
ROOT
HETATM    1  C5  UNL     1      10.368  -6.209 -25.001  1.00  0.00     0.244 A 
HETATM    2  N2  UNL     1       9.278  -6.787 -25.530  1.00  0.00    -0.309 N 
ATOM      3  H2  UNL     1       9.206  -7.772 -25.787  1.00  0.00     0.170 HD
HETATM    4  C6  UNL     1       8.296  -5.882 -25.674  1.00  0.00     0.109 A 
HETATM    5  N3  UNL     1       8.834  -4.723 -25.207  1.00  0.00    -0.245 N 
ATOM      6  H3  UNL     1       8.354  -3.824 -25.170  1.00  0.00     0.196 HD
HETATM    7  O1  UNL     1      10.040  -4.935 -24.821  1.00  0.00    -0.200 OA
ENDROOT
BRANCH   1   8
HETATM    8  N1  UNL     1      11.487  -6.781 -24.732  1.00  0.00    -0.354 N 
ATOM      9  H1  UNL     1      12.286  -6.231 -24.415  1.00  0.00     0.163 HD
BRANCH   8  10
HETATM   10  C4  UNL     1      11.593  -8.192 -24.880  1.00  0.00     0.127 C 
BRANCH  10  11
HETATM   11  C2  UNL     1      12.416  -8.861 -23.817  1.00  0.00    -0.005 C 
HETATM   12  C1  UNL     1      11.910  -8.373 -22.471  1.00  0.00     0.011 C 
HETATM   13  C3  UNL     1      12.446 -10.346 -23.917  1.00  0.00     0.011 C 
ENDBRANCH  10  11
ENDBRANCH   8  10
ENDBRANCH   1   8
BRANCH   4  14
HETATM   14  C7  UNL     1       6.920  -6.047 -26.208  1.00  0.00     0.055 A 
HETATM   15  C8  UNL     1       5.880  -5.030 -25.855  1.00  0.00     0.013 A 
HETATM   16  C9  UNL     1       5.869  -6.406 -25.220  1.00  0.00     0.013 A 
ENDBRANCH   4  14
TORSDOF 4
ENDMDL
MODEL 2
REMARK VINA RESULT: -4.877091133      4.492      6.420
REMARK  4 active torsions:
REMARK  status: ('A' for Active; 'I' for Inactive)
REMARK    1  A    between atoms: C2_2  and  C4_4 
REMARK    2  A    between atoms: C4_4  and  N1_5 
REMARK    3  A    between atoms: N1_5  and  C5_7 
REMARK    4  A    between atoms: C6_10  and  C7_11 
ROOT
HETATM    1  C5  UNL     1      13.576 -11.803 -24.331  1.00  0.00     0.244 A 
HETATM    2  N2  UNL     1      13.329 -10.663 -24.997  1.00  0.00    -0.309 N 
ATOM      3  H2  UNL     1      13.823 -10.358 -25.836  1.00  0.00     0.170 HD
HETATM    4  C6  UNL     1      12.337  -9.982 -24.399  1.00  0.00     0.109 A 
HETATM    5  N3  UNL     1      11.988 -10.757 -23.337  1.00  0.00    -0.245 N 
ATOM      6  H3  UNL     1      11.257 -10.535 -22.662  1.00  0.00     0.196 HD
HETATM    7  O1  UNL     1      12.720 -11.811 -23.316  1.00  0.00    -0.200 OA
ENDROOT
BRANCH   1   8
HETATM    8  N1  UNL     1      14.458 -12.689 -24.626  1.00  0.00    -0.354 N 
ATOM      9  H1  UNL     1      14.265 -13.680 -24.481  1.00  0.00     0.163 HD
BRANCH   8  10
HETATM   10  C4  UNL     1      15.709 -12.267 -25.159  1.00  0.00     0.127 C 
BRANCH  10  11
HETATM   11  C2  UNL     1      16.557 -13.384 -25.693  1.00  0.00    -0.005 C 
HETATM   12  C1  UNL     1      17.560 -13.755 -24.614  1.00  0.00     0.011 C 
HETATM   13  C3  UNL     1      15.780 -14.555 -26.183  1.00  0.00     0.011 C 
ENDBRANCH  10  11
ENDBRANCH   8  10
ENDBRANCH   1   8
BRANCH   4  14
HETATM   14  C7  UNL     1      11.721  -8.681 -24.765  1.00  0.00     0.055 A 
HETATM   15  C8  UNL     1      11.700  -7.580 -23.751  1.00  0.00     0.013 A 
HETATM   16  C9  UNL     1      10.438  -8.348 -24.091  1.00  0.00     0.013 A 
ENDBRANCH   4  14
TORSDOF 4
ENDMDL
MODEL 3
REMARK VINA RESULT: -4.858861397      4.324      6.242
REMARK  4 active torsions:
REMARK  status: ('A' for Active; 'I' for Inactive)
REMARK    1  A    between atoms: C2_2  and  C4_4 
REMARK    2  A    between atoms: C4_4  and  N1_5 
REMARK    3  A    between atoms: N1_5  and  C5_7 
REMARK    4  A    between atoms: C6_10  and  C7_11 
ROOT
HETATM    1  C5  UNL     1      13.550 -11.287 -24.748  1.00  0.00     0.244 A 
HETATM    2  N2  UNL     1      13.154 -10.006 -24.685  1.00  0.00    -0.309 N 
ATOM      3  H2  UNL     1      13.472  -9.265 -25.311  1.00  0.00     0.170 HD
HETATM    4  C6  UNL     1      12.279  -9.839 -23.679  1.00  0.00     0.109 A 
HETATM    5  N3  UNL     1      12.157 -11.078 -23.130  1.00  0.00    -0.245 N 
ATOM      6  H3  UNL     1      11.563 -11.313 -22.335  1.00  0.00     0.196 HD
HETATM    7  O1  UNL     1      12.904 -11.906 -23.766  1.00  0.00    -0.200 OA
ENDROOT
BRANCH   1   8
HETATM    8  N1  UNL     1      14.380 -11.795 -25.588  1.00  0.00    -0.354 N 
ATOM      9  H1  UNL     1      14.356 -11.521 -26.570  1.00  0.00     0.163 HD
BRANCH   8  10
HETATM   10  C4  UNL     1      15.335 -12.744 -25.125  1.00  0.00     0.127 C 
BRANCH  10  11
HETATM   11  C2  UNL     1      16.728 -12.200 -24.996  1.00  0.00    -0.005 C 
HETATM   12  C1  UNL     1      17.469 -13.070 -23.995  1.00  0.00     0.011 C 
HETATM   13  C3  UNL     1      17.451 -12.069 -26.290  1.00  0.00     0.011 C 
ENDBRANCH  10  11
ENDBRANCH   8  10
ENDBRANCH   1   8
BRANCH   4  14
HETATM   14  C7  UNL     1      11.574  -8.615 -23.224  1.00  0.00     0.055 A 
HETATM   15  C8  UNL     1      10.337  -8.181 -23.947  1.00  0.00     0.013 A 
HETATM   16  C9  UNL     1      11.645  -7.438 -24.131  1.00  0.00     0.013 A 
ENDBRANCH   4  14
TORSDOF 4
ENDMDL
MODEL 4
REMARK VINA RESULT: -4.835079451      4.210      7.834
REMARK  4 active torsions:
REMARK  status: ('A' for Active; 'I' for Inactive)
REMARK    1  A    between atoms: C2_2  and  C4_4 
REMARK    2  A    between atoms: C4_4  and  N1_5 
REMARK    3  A    between atoms: N1_5  and  C5_7 
REMARK    4  A    between atoms: C6_10  and  C7_11 
ROOT
HETATM    1  C5  UNL     1      12.608 -11.143 -24.504  1.00  0.00     0.244 A 
HETATM    2  N2  UNL     1      13.547 -11.259 -25.457  1.00  0.00    -0.309 N 
ATOM      3  H2  UNL     1      13.552 -10.744 -26.337  1.00  0.00     0.170 HD
HETATM    4  C6  UNL     1      14.479 -12.152 -25.084  1.00  0.00     0.109 A 
HETATM    5  N3  UNL     1      14.068 -12.577 -23.858  1.00  0.00    -0.245 N 
ATOM      6  H3  UNL     1      14.551 -13.266 -23.281  1.00  0.00     0.196 HD
HETATM    7  O1  UNL     1      12.978 -11.978 -23.539  1.00  0.00    -0.200 OA
ENDROOT
BRANCH   1   8
HETATM    8  N1  UNL     1      11.574 -10.380 -24.532  1.00  0.00    -0.354 N 
ATOM      9  H1  UNL     1      10.666 -10.728 -24.226  1.00  0.00     0.163 HD
BRANCH   8  10
HETATM   10  C4  UNL     1      11.718  -9.042 -24.997  1.00  0.00     0.127 C 
BRANCH  10  11
HETATM   11  C2  UNL     1      11.179  -8.004 -24.054  1.00  0.00    -0.005 C 
HETATM   12  C1  UNL     1      11.924  -8.150 -22.739  1.00  0.00     0.011 C 
HETATM   13  C3  UNL     1      11.225  -6.617 -24.590  1.00  0.00     0.011 C 
ENDBRANCH  10  11
ENDBRANCH   8  10
ENDBRANCH   1   8
BRANCH   4  14
HETATM   14  C7  UNL     1      15.698 -12.611 -25.797  1.00  0.00     0.055 A 
HETATM   15  C8  UNL     1      15.992 -14.077 -25.857  1.00  0.00     0.013 A 
HETATM   16  C9  UNL     1      16.789 -13.161 -24.950  1.00  0.00     0.013 A 
ENDBRANCH   4  14
TORSDOF 4
ENDMDL
MODEL 5
REMARK VINA RESULT: -4.758599440      4.278      7.839
REMARK  4 active torsions:
REMARK  status: ('A' for Active; 'I' for Inactive)
REMARK    1  A    between atoms: C2_2  and  C4_4 
REMARK    2  A    between atoms: C4_4  and  N1_5 
REMARK    3  A    between atoms: N1_5  and  C5_7 
REMARK    4  A    between atoms: C6_10  and  C7_11 
ROOT
HETATM    1  C5  UNL     1      12.630 -11.189 -24.442  1.00  0.00     0.244 A 
HETATM    2  N2  UNL     1      13.528 -11.314 -25.432  1.00  0.00    -0.309 N 
ATOM      3  H2  UNL     1      13.492 -10.815 -26.320  1.00  0.00     0.170 HD
HETATM    4  C6  UNL     1      14.482 -12.194 -25.083  1.00  0.00     0.109 A 
HETATM    5  N3  UNL     1      14.127 -12.600 -23.834  1.00  0.00    -0.245 N 
ATOM      6  H3  UNL     1      14.640 -13.274 -23.266  1.00  0.00     0.196 HD
HETATM    7  O1  UNL     1      13.047 -12.003 -23.480  1.00  0.00    -0.200 OA
ENDROOT
BRANCH   1   8
HETATM    8  N1  UNL     1      11.589 -10.434 -24.440  1.00  0.00    -0.354 N 
ATOM      9  H1  UNL     1      10.715 -10.759 -24.026  1.00  0.00     0.163 HD
BRANCH   8  10
HETATM   10  C4  UNL     1      11.676  -9.139 -25.023  1.00  0.00     0.127 C 
BRANCH  10  11
HETATM   11  C2  UNL     1      12.006  -8.047 -24.046  1.00  0.00    -0.005 C 
HETATM   12  C1  UNL     1      11.319  -6.780 -24.526  1.00  0.00     0.011 C 
HETATM   13  C3  UNL     1      11.678  -8.379 -22.633  1.00  0.00     0.011 C 
ENDBRANCH  10  11
ENDBRANCH   8  10
ENDBRANCH   1   8
BRANCH   4  14
HETATM   14  C7  UNL     1      15.674 -12.655 -25.840  1.00  0.00     0.055 A 
HETATM   15  C8  UNL     1      15.961 -14.123 -25.911  1.00  0.00     0.013 A 
HETATM   16  C9  UNL     1      16.792 -13.210 -25.033  1.00  0.00     0.013 A 
ENDBRANCH   4  14
TORSDOF 4
ENDMDL
