MODEL 1
REMARK VINA RESULT: -4.386740004      0.000      0.000
REMARK  4 active torsions:
REMARK  status: ('A' for Active; 'I' for Inactive)
REMARK    1  A    between atoms: C2_2  and  C3_3 
REMARK    2  A    between atoms: C3_3  and  N1_4 
REMARK    3  A    between atoms: N1_4  and  C4_5 
REMARK    4  A    between atoms: N1_4  and  C7_12 
ROOT
HETATM    1  N1  UNL     1       9.553  -8.690 -25.563  1.00  0.00    -0.345 N 
ENDROOT
BRANCH   1   2
HETATM    2  C3  UNL     1       9.798  -9.373 -26.811  1.00  0.00     0.153 C 
BRANCH   2   3
HETATM    3  C2  UNL     1      10.405  -8.501 -27.850  1.00  0.00    -0.017 C 
HETATM    4  C1  UNL     1      11.086  -9.013 -28.851  1.00  0.00     0.008 C 
ENDBRANCH   2   3
ENDBRANCH   1   2
BRANCH   1   5
HETATM    5  C4  UNL     1       8.366  -7.924 -25.440  1.00  0.00     0.173 C 
HETATM    6  N2  UNL     1       7.229  -8.295 -24.971  1.00  0.00    -0.361 N 
HETATM    7  C5  UNL     1       6.235  -7.267 -24.991  1.00  0.00     0.142 C 
ATOM      8  H2  UNL     1       7.051  -9.235 -24.617  1.00  0.00     0.162 HD
HETATM    9  C6  UNL     1       6.837  -6.174 -25.836  1.00  0.00     0.142 C 
HETATM   10  N3  UNL     1       8.244  -6.573 -25.835  1.00  0.00    -0.361 N 
ATOM     11  H3  UNL     1       9.024  -5.964 -26.084  1.00  0.00     0.162 HD
ENDBRANCH   1   5
BRANCH   1  12
HETATM   12  C7  UNL     1      10.450  -8.778 -24.477  1.00  0.00     0.087 C 
HETATM   13  C8  UNL     1      11.156  -7.520 -24.073  1.00  0.00     0.025 C 
HETATM   14  C9  UNL     1      12.052  -8.068 -22.955  1.00  0.00     0.002 C 
HETATM   15  C10 UNL     1      12.470  -9.420 -23.489  1.00  0.00     0.002 C 
HETATM   16  C11 UNL     1      11.618  -9.717 -24.704  1.00  0.00     0.025 C 
ENDBRANCH   1  12
TORSDOF 4
ENDMDL
MODEL 2
REMARK VINA RESULT: -4.382906025      3.446      5.759
REMARK  4 active torsions:
REMARK  status: ('A' for Active; 'I' for Inactive)
REMARK    1  A    between atoms: C2_2  and  C3_3 
REMARK    2  A    between atoms: C3_3  and  N1_4 
REMARK    3  A    between atoms: N1_4  and  C4_5 
REMARK    4  A    between atoms: N1_4  and  C7_12 
ROOT
HETATM    1  N1  UNL     1      12.268 -10.680 -25.480  1.00  0.00    -0.345 N 
ENDROOT
BRANCH   1   2
HETATM    2  C3  UNL     1      11.060 -11.134 -26.126  1.00  0.00     0.153 C 
BRANCH   2   3
HETATM    3  C2  UNL     1      10.763 -12.569 -25.880  1.00  0.00    -0.017 C 
HETATM    4  C1  UNL     1       9.608 -13.091 -26.223  1.00  0.00     0.008 C 
ENDBRANCH   2   3
ENDBRANCH   1   2
BRANCH   1   5
HETATM    5  C4  UNL     1      13.439 -11.466 -25.618  1.00  0.00     0.173 C 
HETATM    6  N2  UNL     1      14.060 -12.130 -24.708  1.00  0.00    -0.361 N 
HETATM    7  C5  UNL     1      15.216 -12.820 -25.189  1.00  0.00     0.142 C 
ATOM      8  H2  UNL     1      13.755 -12.161 -23.736  1.00  0.00     0.162 HD
HETATM    9  C6  UNL     1      15.436 -12.272 -26.575  1.00  0.00     0.142 C 
HETATM   10  N3  UNL     1      14.138 -11.649 -26.832  1.00  0.00    -0.361 N 
ATOM     11  H3  UNL     1      13.789 -11.385 -27.753  1.00  0.00     0.162 HD
ENDBRANCH   1   5
BRANCH   1  12
HETATM   12  C7  UNL     1      12.309  -9.480 -24.736  1.00  0.00     0.087 C 
HETATM   13  C8  UNL     1      11.917  -9.562 -23.292  1.00  0.00     0.025 C 
HETATM   14  C9  UNL     1      12.024  -8.081 -22.905  1.00  0.00     0.002 C 
HETATM   15  C10 UNL     1      11.494  -7.372 -24.133  1.00  0.00     0.002 C 
HETATM   16  C11 UNL     1      11.373  -8.399 -25.238  1.00  0.00     0.025 C 
ENDBRANCH   1  12
TORSDOF 4
ENDMDL
MODEL 3
REMARK VINA RESULT: -4.327453618      0.105      1.006
REMARK  4 active torsions:
REMARK  status: ('A' for Active; 'I' for Inactive)
REMARK    1  A    between atoms: C2_2  and  C3_3 
REMARK    2  A    between atoms: C3_3  and  N1_4 
REMARK    3  A    between atoms: N1_4  and  C4_5 
REMARK    4  A    between atoms: N1_4  and  C7_12 
ROOT
HETATM    1  N1  UNL     1       9.547  -8.656 -25.647  1.00  0.00    -0.345 N 
ENDROOT
BRANCH   1   2
HETATM    2  C3  UNL     1       9.820  -9.375 -26.869  1.00  0.00     0.153 C 
BRANCH   2   3
HETATM    3  C2  UNL     1      10.440  -8.531 -27.923  1.00  0.00    -0.017 C 
HETATM    4  C1  UNL     1      11.140  -9.067 -28.897  1.00  0.00     0.008 C 
ENDBRANCH   2   3
ENDBRANCH   1   2
BRANCH   1   5
HETATM    5  C4  UNL     1       8.368  -7.873 -25.579  1.00  0.00     0.173 C 
HETATM    6  N2  UNL     1       8.204  -6.653 -25.948  1.00  0.00    -0.361 N 
HETATM    7  C5  UNL     1       6.878  -6.162 -25.738  1.00  0.00     0.142 C 
ATOM      8  H2  UNL     1       8.951  -6.088 -26.352  1.00  0.00     0.162 HD
HETATM    9  C6  UNL     1       6.216  -7.210 -24.882  1.00  0.00     0.142 C 
HETATM   10  N3  UNL     1       7.133  -8.333 -25.069  1.00  0.00    -0.361 N 
ATOM     11  H3  UNL     1       6.913  -9.308 -24.860  1.00  0.00     0.162 HD
ENDBRANCH   1   5
BRANCH   1  12
HETATM   12  C7  UNL     1      10.411  -8.728 -24.532  1.00  0.00     0.087 C 
HETATM   13  C8  UNL     1      11.126  -7.469 -24.145  1.00  0.00     0.025 C 
HETATM   14  C9  UNL     1      11.981  -7.999 -22.985  1.00  0.00     0.002 C 
HETATM   15  C10 UNL     1      12.391  -9.373 -23.467  1.00  0.00     0.002 C 
HETATM   16  C11 UNL     1      11.569  -9.691 -24.698  1.00  0.00     0.025 C 
ENDBRANCH   1  12
TORSDOF 4
ENDMDL
MODEL 4
REMARK VINA RESULT: -4.324614719      2.183      5.383
REMARK  4 active torsions:
REMARK  status: ('A' for Active; 'I' for Inactive)
REMARK    1  A    between atoms: C2_2  and  C3_3 
REMARK    2  A    between atoms: C3_3  and  N1_4 
REMARK    3  A    between atoms: N1_4  and  C4_5 
REMARK    4  A    between atoms: N1_4  and  C7_12 
ROOT
HETATM    1  N1  UNL     1      10.860  -9.427 -25.274  1.00  0.00    -0.345 N 
ENDROOT
BRANCH   1   2
HETATM    2  C3  UNL     1      10.472  -8.543 -24.200  1.00  0.00     0.153 C 
BRANCH   2   3
HETATM    3  C2  UNL     1      11.275  -7.293 -24.147  1.00  0.00    -0.017 C 
HETATM    4  C1  UNL     1      10.888  -6.211 -24.784  1.00  0.00     0.008 C 
ENDBRANCH   2   3
ENDBRANCH   1   2
BRANCH   1   5
HETATM    5  C4  UNL     1      11.942 -10.315 -25.053  1.00  0.00     0.173 C 
HETATM    6  N2  UNL     1      12.797 -10.751 -25.908  1.00  0.00    -0.361 N 
HETATM    7  C5  UNL     1      13.766 -11.641 -25.348  1.00  0.00     0.142 C 
ATOM      8  H2  UNL     1      12.784 -10.488 -26.893  1.00  0.00     0.162 HD
HETATM    9  C6  UNL     1      13.242 -11.958 -23.973  1.00  0.00     0.142 C 
HETATM   10  N3  UNL     1      12.262 -10.887 -23.800  1.00  0.00    -0.361 N 
ATOM     11  H3  UNL     1      11.866 -10.595 -22.906  1.00  0.00     0.162 HD
ENDBRANCH   1   5
BRANCH   1  12
HETATM   12  C7  UNL     1      10.185  -9.433 -26.514  1.00  0.00     0.087 C 
HETATM   13  C8  UNL     1      10.742  -8.557 -27.595  1.00  0.00     0.025 C 
HETATM   14  C9  UNL     1       9.699  -8.801 -28.694  1.00  0.00     0.002 C 
HETATM   15  C10 UNL     1       8.402  -8.874 -27.920  1.00  0.00     0.002 C 
HETATM   16  C11 UNL     1       8.749  -8.952 -26.449  1.00  0.00     0.025 C 
ENDBRANCH   1  12
TORSDOF 4
ENDMDL
MODEL 5
REMARK VINA RESULT: -4.271072085      3.121      5.349
REMARK  4 active torsions:
REMARK  status: ('A' for Active; 'I' for Inactive)
REMARK    1  A    between atoms: C2_2  and  C3_3 
REMARK    2  A    between atoms: C3_3  and  N1_4 
REMARK    3  A    between atoms: N1_4  and  C4_5 
REMARK    4  A    between atoms: N1_4  and  C7_12 
ROOT
HETATM    1  N1  UNL     1      12.148 -10.378 -25.822  1.00  0.00    -0.345 N 
ENDROOT
BRANCH   1   2
HETATM    2  C3  UNL     1      11.101 -10.448 -26.813  1.00  0.00     0.153 C 
BRANCH   2   3
HETATM    3  C2  UNL     1      11.552 -10.062 -28.175  1.00  0.00    -0.017 C 
HETATM    4  C1  UNL     1      11.055  -9.007 -28.781  1.00  0.00     0.008 C 
ENDBRANCH   2   3
ENDBRANCH   1   2
BRANCH   1   5
HETATM    5  C4  UNL     1      13.117 -11.413 -25.797  1.00  0.00     0.173 C 
HETATM    6  N2  UNL     1      14.289 -11.388 -25.271  1.00  0.00    -0.361 N 
HETATM    7  C5  UNL     1      15.014 -12.611 -25.426  1.00  0.00     0.142 C 
ATOM      8  H2  UNL     1      14.666 -10.573 -24.788  1.00  0.00     0.162 HD
HETATM    9  C6  UNL     1      14.209 -13.407 -26.419  1.00  0.00     0.142 C 
HETATM   10  N3  UNL     1      12.935 -12.690 -26.375  1.00  0.00    -0.361 N 
ATOM     11  H3  UNL     1      12.045 -13.057 -26.713  1.00  0.00     0.162 HD
ENDBRANCH   1   5
BRANCH   1  12
HETATM   12  C7  UNL     1      12.232  -9.311 -24.901  1.00  0.00     0.087 C 
HETATM   13  C8  UNL     1      11.830  -9.600 -23.487  1.00  0.00     0.025 C 
HETATM   14  C9  UNL     1      11.994  -8.202 -22.876  1.00  0.00     0.002 C 
HETATM   15  C10 UNL     1      11.499  -7.291 -23.978  1.00  0.00     0.002 C 
HETATM   16  C11 UNL     1      11.343  -8.129 -25.229  1.00  0.00     0.025 C 
ENDBRANCH   1  12
TORSDOF 4
ENDMDL
