MODEL 1
REMARK VINA RESULT: -8.751629494      0.000      0.000
REMARK  16 active torsions:
REMARK  status: ('A' for Active; 'I' for Inactive)
REMARK    1  A    between atoms: O1_2  and  C2_3 
REMARK    2  A    between atoms: C2_3  and  C3_5 
REMARK    3  A    between atoms: C4_6  and  O3_7 
REMARK    4  A    between atoms: C6_9  and  O4_10 
REMARK    5  A    between atoms: C7_12  and  O5_13 
REMARK    6  A    between atoms: O5_13  and  C8_14 
REMARK    7  A    between atoms: C8_14  and  C9_16 
REMARK    8  A    between atoms: C10_17  and  O7_18 
REMARK    9  A    between atoms: O7_18  and  C11_19 
REMARK   10  A    between atoms: C11_19  and  C12_21 
REMARK   11  A    between atoms: C12_21  and  O9_22 
REMARK   12  A    between atoms: C16_30  and  C17_31 
REMARK   13  A    between atoms: C19_34  and  O12_35 
REMARK   14  A    between atoms: C23_42  and  O15_43 
REMARK   15  A    between atoms: C23_42  and  C24_45 
REMARK   16  A    between atoms: C24_45  and  O16_46 
ROOT
HETATM    1  C9  UNL     1      14.783   7.181   9.387  1.00  0.00     0.107 C 
HETATM    2  C10 UNL     1      16.011   6.850   9.047  1.00  0.00     0.152 C 
ENDROOT
BRANCH   2   3
HETATM    3  O7  UNL     1      16.925   6.493  10.021  1.00  0.00    -0.287 OA
BRANCH   3   4
HETATM    4  C11 UNL     1      17.392   5.174  10.143  1.00  0.00     0.327 C 
HETATM    5  O8  UNL     1      17.637   4.581   9.068  1.00  0.00    -0.259 OA
BRANCH   4   6
HETATM    6  C12 UNL     1      17.574   4.553  11.474  1.00  0.00     0.265 C 
HETATM    7  C13 UNL     1      17.939   3.118  11.290  1.00  0.00     0.165 C 
HETATM    8  C14 UNL     1      17.358   2.211  12.304  1.00  0.00     0.184 C 
HETATM    9  O10 UNL     1      17.571   0.984  12.171  1.00  0.00    -0.290 OA
HETATM   10  C15 UNL     1      16.574   2.733  13.407  1.00  0.00     0.114 A 
HETATM   11  N1  UNL     1      16.311   1.996  14.477  1.00  0.00    -0.346 N 
HETATM   12  C22 UNL     1      16.086   4.017  13.352  1.00  0.00     0.112 A 
HETATM   13  C16 UNL     1      15.574   2.480  15.515  1.00  0.00     0.113 A 
ATOM     14  H1  UNL     1      16.670   1.042  14.524  1.00  0.00     0.166 HD
HETATM   15  C19 UNL     1      15.078   3.771  15.473  1.00  0.00     0.104 A 
HETATM   16  C20 UNL     1      15.346   4.548  14.362  1.00  0.00     0.009 A 
HETATM   17  C21 UNL     1      14.819   5.934  14.306  1.00  0.00     0.054 C 
HETATM   18  O13 UNL     1      16.386   4.750  12.214  1.00  0.00    -0.301 OA
BRANCH   6  19
HETATM   19  O9  UNL     1      18.607   5.275  12.115  1.00  0.00    -0.357 OA
ATOM     20  H9  UNL     1      18.468   6.190  11.901  1.00  0.00     0.213 HD
ENDBRANCH   6  19
BRANCH  13  21
HETATM   21  C17 UNL     1      15.312   1.635  16.669  1.00  0.00     0.174 C 
HETATM   22  C18 UNL     1      13.909   1.280  17.022  1.00  0.00     0.098 C 
HETATM   23  O11 UNL     1      16.269   1.208  17.360  1.00  0.00    -0.291 OA
ENDBRANCH  13  21
BRANCH  15  24
HETATM   24  O12 UNL     1      14.334   4.221  16.552  1.00  0.00    -0.358 OA
ATOM     25  H12 UNL     1      13.913   5.070  16.484  1.00  0.00     0.217 HD
ENDBRANCH  15  24
ENDBRANCH   4   6
ENDBRANCH   3   4
ENDBRANCH   2   3
BRANCH   1  26
HETATM   26  C8  UNL     1      13.786   7.568   8.368  1.00  0.00     0.287 C 
HETATM   27  O6  UNL     1      13.022   6.718   7.850  1.00  0.00    -0.260 OA
BRANCH  26  28
HETATM   28  O5  UNL     1      13.672   8.883   7.958  1.00  0.00    -0.283 OA
BRANCH  28  29
HETATM   29  C7  UNL     1      12.656   9.354   7.106  1.00  0.00     0.308 C 
HETATM   30  C6  UNL     1      13.269  10.524   6.320  1.00  0.00     0.231 C 
HETATM   31  C4  UNL     1      12.244  10.858   5.321  1.00  0.00     0.097 C 
HETATM   32  C3  UNL     1      11.002  10.898   5.744  1.00  0.00     0.113 C 
HETATM   33  C23 UNL     1      10.689  10.615   7.191  1.00  0.00     0.223 C 
HETATM   34  O14 UNL     1      11.534   9.725   7.778  1.00  0.00    -0.315 OA
BRANCH  30  35
HETATM   35  O4  UNL     1      14.475  10.134   5.744  1.00  0.00    -0.384 OA
ATOM     36  H4  UNL     1      14.591   9.192   5.738  1.00  0.00     0.210 HD
ENDBRANCH  30  35
BRANCH  31  37
HETATM   37  O3  UNL     1      12.573  11.111   4.025  1.00  0.00    -0.356 OA
HETATM   38  C5  UNL     1      13.121  12.314   3.540  1.00  0.00     0.209 C 
ENDBRANCH  31  37
BRANCH  32  39
HETATM   39  C2  UNL     1       9.928  11.220   4.813  1.00  0.00     0.297 C 
HETATM   40  O2  UNL     1       9.312  10.331   4.180  1.00  0.00    -0.259 OA
BRANCH  39  41
HETATM   41  O1  UNL     1       9.586  12.543   4.627  1.00  0.00    -0.323 OA
HETATM   42  C1  UNL     1       9.511  13.174   3.370  1.00  0.00     0.213 C 
ENDBRANCH  39  41
ENDBRANCH  32  39
BRANCH  33  43
HETATM   43  O15 UNL     1       9.400  10.057   7.191  1.00  0.00    -0.360 OA
ATOM     44  H15 UNL     1       9.434   9.344   6.564  1.00  0.00     0.213 HD
ENDBRANCH  33  43
BRANCH  33  45
HETATM   45  C24 UNL     1      10.595  11.908   7.987  1.00  0.00     0.238 C 
BRANCH  45  46
HETATM   46  O16 UNL     1       9.514  12.697   7.609  1.00  0.00    -0.395 OA
ATOM     47  H16 UNL     1       9.155  13.200   8.330  1.00  0.00     0.209 HD
ENDBRANCH  45  46
ENDBRANCH  33  45
ENDBRANCH  28  29
ENDBRANCH  26  28
ENDBRANCH   1  26
TORSDOF 16
ENDMDL
MODEL 2
REMARK VINA RESULT: -8.442451220      6.564     10.672
REMARK  16 active torsions:
REMARK  status: ('A' for Active; 'I' for Inactive)
REMARK    1  A    between atoms: O1_2  and  C2_3 
REMARK    2  A    between atoms: C2_3  and  C3_5 
REMARK    3  A    between atoms: C4_6  and  O3_7 
REMARK    4  A    between atoms: C6_9  and  O4_10 
REMARK    5  A    between atoms: C7_12  and  O5_13 
REMARK    6  A    between atoms: O5_13  and  C8_14 
REMARK    7  A    between atoms: C8_14  and  C9_16 
REMARK    8  A    between atoms: C10_17  and  O7_18 
REMARK    9  A    between atoms: O7_18  and  C11_19 
REMARK   10  A    between atoms: C11_19  and  C12_21 
REMARK   11  A    between atoms: C12_21  and  O9_22 
REMARK   12  A    between atoms: C16_30  and  C17_31 
REMARK   13  A    between atoms: C19_34  and  O12_35 
REMARK   14  A    between atoms: C23_42  and  O15_43 
REMARK   15  A    between atoms: C23_42  and  C24_45 
REMARK   16  A    between atoms: C24_45  and  O16_46 
ROOT
HETATM    1  C9  UNL     1      21.375   4.861  10.706  1.00  0.00     0.107 C 
HETATM    2  C10 UNL     1      20.844   5.877  10.060  1.00  0.00     0.152 C 
ENDROOT
BRANCH   2   3
HETATM    3  O7  UNL     1      19.513   6.198  10.253  1.00  0.00    -0.287 OA
BRANCH   3   4
HETATM    4  C11 UNL     1      18.487   5.283   9.965  1.00  0.00     0.327 C 
HETATM    5  O8  UNL     1      18.483   4.816   8.803  1.00  0.00    -0.259 OA
BRANCH   4   6
HETATM    6  C12 UNL     1      17.490   4.912  10.995  1.00  0.00     0.265 C 
HETATM    7  C13 UNL     1      17.449   5.983  12.032  1.00  0.00     0.165 C 
HETATM    8  C14 UNL     1      17.245   5.484  13.409  1.00  0.00     0.184 C 
HETATM    9  O10 UNL     1      17.266   6.325  14.337  1.00  0.00    -0.290 OA
HETATM   10  C15 UNL     1      17.030   4.073  13.665  1.00  0.00     0.114 A 
HETATM   11  N1  UNL     1      16.543   3.647  14.823  1.00  0.00    -0.346 N 
HETATM   12  C22 UNL     1      17.333   3.148  12.695  1.00  0.00     0.112 A 
HETATM   13  C16 UNL     1      16.340   2.323  15.068  1.00  0.00     0.113 A 
ATOM     14  H1  UNL     1      16.315   4.328  15.547  1.00  0.00     0.166 HD
HETATM   15  C19 UNL     1      16.641   1.382  14.101  1.00  0.00     0.104 A 
HETATM   16  C20 UNL     1      17.148   1.814  12.891  1.00  0.00     0.009 A 
HETATM   17  C21 UNL     1      17.475   0.814  11.844  1.00  0.00     0.054 C 
HETATM   18  O13 UNL     1      17.840   3.639  11.501  1.00  0.00    -0.301 OA
BRANCH   6  19
HETATM   19  O9  UNL     1      16.251   4.786  10.326  1.00  0.00    -0.357 OA
ATOM     20  H9  UNL     1      16.249   5.441   9.638  1.00  0.00     0.213 HD
ENDBRANCH   6  19
BRANCH  13  21
HETATM   21  C17 UNL     1      15.804   1.903  16.354  1.00  0.00     0.174 C 
HETATM   22  C18 UNL     1      14.456   2.371  16.782  1.00  0.00     0.098 C 
HETATM   23  O11 UNL     1      16.480   1.148  17.094  1.00  0.00    -0.291 OA
ENDBRANCH  13  21
BRANCH  15  24
HETATM   24  O12 UNL     1      16.416   0.045  14.395  1.00  0.00    -0.358 OA
ATOM     25  H12 UNL     1      17.150  -0.555  14.340  1.00  0.00     0.217 HD
ENDBRANCH  15  24
ENDBRANCH   4   6
ENDBRANCH   3   4
ENDBRANCH   2   3
BRANCH   1  26
HETATM   26  C8  UNL     1      22.795   4.494  10.519  1.00  0.00     0.287 C 
HETATM   27  O6  UNL     1      23.675   4.870  11.331  1.00  0.00    -0.260 OA
BRANCH  26  28
HETATM   28  O5  UNL     1      23.188   3.728   9.439  1.00  0.00    -0.283 OA
BRANCH  28  29
HETATM   29  C7  UNL     1      23.976   4.212   8.379  1.00  0.00     0.308 C 
HETATM   30  C6  UNL     1      23.240   3.819   7.088  1.00  0.00     0.231 C 
HETATM   31  C4  UNL     1      23.993   4.501   6.026  1.00  0.00     0.097 C 
HETATM   32  C3  UNL     1      25.301   4.449   6.107  1.00  0.00     0.113 C 
HETATM   33  C23 UNL     1      25.958   3.709   7.245  1.00  0.00     0.223 C 
HETATM   34  O14 UNL     1      25.248   3.734   8.405  1.00  0.00    -0.315 OA
BRANCH  30  35
HETATM   35  O4  UNL     1      21.910   4.225   7.152  1.00  0.00    -0.384 OA
ATOM     36  H4  UNL     1      21.715   4.937   6.554  1.00  0.00     0.210 HD
ENDBRANCH  30  35
BRANCH  31  37
HETATM   37  O3  UNL     1      23.358   5.153   5.015  1.00  0.00    -0.356 OA
HETATM   38  C5  UNL     1      22.733   4.540   3.911  1.00  0.00     0.209 C 
ENDBRANCH  31  37
BRANCH  32  39
HETATM   39  C2  UNL     1      26.118   5.103   5.093  1.00  0.00     0.297 C 
HETATM   40  O2  UNL     1      26.523   6.282   5.228  1.00  0.00    -0.259 OA
BRANCH  39  41
HETATM   41  O1  UNL     1      26.449   4.400   3.952  1.00  0.00    -0.323 OA
HETATM   42  C1  UNL     1      26.629   4.986   2.684  1.00  0.00     0.213 C 
ENDBRANCH  39  41
ENDBRANCH  32  39
BRANCH  33  43
HETATM   43  O15 UNL     1      27.177   4.372   7.465  1.00  0.00    -0.360 OA
ATOM     44  H15 UNL     1      27.828   3.683   7.538  1.00  0.00     0.213 HD
ENDBRANCH  33  43
BRANCH  33  45
HETATM   45  C24 UNL     1      26.313   2.288   6.833  1.00  0.00     0.238 C 
BRANCH  45  46
HETATM   46  O16 UNL     1      27.060   1.619   7.795  1.00  0.00    -0.395 OA
ATOM     47  H16 UNL     1      27.800   1.151   7.426  1.00  0.00     0.209 HD
ENDBRANCH  45  46
ENDBRANCH  33  45
ENDBRANCH  28  29
ENDBRANCH  26  28
ENDBRANCH   1  26
TORSDOF 16
ENDMDL
MODEL 3
REMARK VINA RESULT: -8.391387246      6.462     10.209
REMARK  16 active torsions:
REMARK  status: ('A' for Active; 'I' for Inactive)
REMARK    1  A    between atoms: O1_2  and  C2_3 
REMARK    2  A    between atoms: C2_3  and  C3_5 
REMARK    3  A    between atoms: C4_6  and  O3_7 
REMARK    4  A    between atoms: C6_9  and  O4_10 
REMARK    5  A    between atoms: C7_12  and  O5_13 
REMARK    6  A    between atoms: O5_13  and  C8_14 
REMARK    7  A    between atoms: C8_14  and  C9_16 
REMARK    8  A    between atoms: C10_17  and  O7_18 
REMARK    9  A    between atoms: O7_18  and  C11_19 
REMARK   10  A    between atoms: C11_19  and  C12_21 
REMARK   11  A    between atoms: C12_21  and  O9_22 
REMARK   12  A    between atoms: C16_30  and  C17_31 
REMARK   13  A    between atoms: C19_34  and  O12_35 
REMARK   14  A    between atoms: C23_42  and  O15_43 
REMARK   15  A    between atoms: C23_42  and  C24_45 
REMARK   16  A    between atoms: C24_45  and  O16_46 
ROOT
HETATM    1  C9  UNL     1      21.017   5.647  11.191  1.00  0.00     0.107 C 
HETATM    2  C10 UNL     1      20.526   6.462  10.280  1.00  0.00     0.152 C 
ENDROOT
BRANCH   2   3
HETATM    3  O7  UNL     1      19.158   6.561  10.109  1.00  0.00    -0.287 OA
BRANCH   3   4
HETATM    4  C11 UNL     1      18.353   5.422   9.940  1.00  0.00     0.327 C 
HETATM    5  O8  UNL     1      18.521   4.789   8.873  1.00  0.00    -0.259 OA
BRANCH   4   6
HETATM    6  C12 UNL     1      17.378   5.021  10.980  1.00  0.00     0.265 C 
HETATM    7  C13 UNL     1      17.335   6.078  12.032  1.00  0.00     0.165 C 
HETATM    8  C14 UNL     1      17.160   5.557  13.405  1.00  0.00     0.184 C 
HETATM    9  O10 UNL     1      17.181   6.386  14.344  1.00  0.00    -0.290 OA
HETATM   10  C15 UNL     1      16.973   4.139  13.646  1.00  0.00     0.114 A 
HETATM   11  N1  UNL     1      16.512   3.690  14.805  1.00  0.00    -0.346 N 
HETATM   12  C22 UNL     1      17.277   3.232  12.659  1.00  0.00     0.112 A 
HETATM   13  C16 UNL     1      16.335   2.360  15.035  1.00  0.00     0.113 A 
ATOM     14  H1  UNL     1      16.283   4.357  15.541  1.00  0.00     0.166 HD
HETATM   15  C19 UNL     1      16.637   1.436  14.051  1.00  0.00     0.104 A 
HETATM   16  C20 UNL     1      17.118   1.893  12.839  1.00  0.00     0.009 A 
HETATM   17  C21 UNL     1      17.446   0.912  11.775  1.00  0.00     0.054 C 
HETATM   18  O13 UNL     1      17.757   3.747  11.464  1.00  0.00    -0.301 OA
BRANCH   6  19
HETATM   19  O9  UNL     1      16.132   4.882  10.328  1.00  0.00    -0.357 OA
ATOM     20  H9  UNL     1      15.681   4.166  10.760  1.00  0.00     0.213 HD
ENDBRANCH   6  19
BRANCH  13  21
HETATM   21  C17 UNL     1      15.826   1.913  16.323  1.00  0.00     0.174 C 
HETATM   22  C18 UNL     1      14.475   2.350  16.776  1.00  0.00     0.098 C 
HETATM   23  O11 UNL     1      16.527   1.162  17.044  1.00  0.00    -0.291 OA
ENDBRANCH  13  21
BRANCH  15  24
HETATM   24  O12 UNL     1      16.440   0.093  14.331  1.00  0.00    -0.358 OA
ATOM     25  H12 UNL     1      15.691  -0.342  13.941  1.00  0.00     0.217 HD
ENDBRANCH  15  24
ENDBRANCH   4   6
ENDBRANCH   3   4
ENDBRANCH   2   3
BRANCH   1  26
HETATM   26  C8  UNL     1      22.475   5.520  11.396  1.00  0.00     0.287 C 
HETATM   27  O6  UNL     1      23.145   6.457  11.893  1.00  0.00    -0.260 OA
BRANCH  26  28
HETATM   28  O5  UNL     1      23.137   4.361  11.041  1.00  0.00    -0.283 OA
BRANCH  28  29
HETATM   29  C7  UNL     1      23.627   4.102   9.747  1.00  0.00     0.308 C 
HETATM   30  C6  UNL     1      24.662   5.201   9.457  1.00  0.00     0.231 C 
HETATM   31  C4  UNL     1      25.277   4.786   8.188  1.00  0.00     0.097 C 
HETATM   32  C3  UNL     1      24.462   4.353   7.254  1.00  0.00     0.113 C 
HETATM   33  C23 UNL     1      22.977   4.307   7.511  1.00  0.00     0.223 C 
HETATM   34  O14 UNL     1      22.645   4.066   8.808  1.00  0.00    -0.315 OA
BRANCH  30  35
HETATM   35  O4  UNL     1      25.581   5.281  10.499  1.00  0.00    -0.384 OA
ATOM     36  H4  UNL     1      25.820   6.176  10.710  1.00  0.00     0.210 HD
ENDBRANCH  30  35
BRANCH  31  37
HETATM   37  O3  UNL     1      26.623   4.849   7.999  1.00  0.00    -0.356 OA
HETATM   38  C5  UNL     1      27.355   6.018   7.713  1.00  0.00     0.209 C 
ENDBRANCH  31  37
BRANCH  32  39
HETATM   39  C2  UNL     1      24.996   3.922   5.969  1.00  0.00     0.297 C 
HETATM   40  O2  UNL     1      25.219   4.732   5.039  1.00  0.00    -0.259 OA
BRANCH  39  41
HETATM   41  O1  UNL     1      25.259   2.581   5.777  1.00  0.00    -0.323 OA
HETATM   42  C1  UNL     1      26.385   1.912   6.294  1.00  0.00     0.213 C 
ENDBRANCH  39  41
ENDBRANCH  32  39
BRANCH  33  43
HETATM   43  O15 UNL     1      22.498   3.241   6.733  1.00  0.00    -0.360 OA
ATOM     44  H15 UNL     1      21.991   2.701   7.329  1.00  0.00     0.213 HD
ENDBRANCH  33  43
BRANCH  33  45
HETATM   45  C24 UNL     1      22.298   5.562   6.981  1.00  0.00     0.238 C 
BRANCH  45  46
HETATM   46  O16 UNL     1      20.911   5.468   6.991  1.00  0.00    -0.395 OA
ATOM     47  H16 UNL     1      20.485   6.313   6.908  1.00  0.00     0.209 HD
ENDBRANCH  45  46
ENDBRANCH  33  45
ENDBRANCH  28  29
ENDBRANCH  26  28
ENDBRANCH   1  26
TORSDOF 16
ENDMDL
MODEL 4
REMARK VINA RESULT: -8.387380805      2.975     11.130
REMARK  16 active torsions:
REMARK  status: ('A' for Active; 'I' for Inactive)
REMARK    1  A    between atoms: O1_2  and  C2_3 
REMARK    2  A    between atoms: C2_3  and  C3_5 
REMARK    3  A    between atoms: C4_6  and  O3_7 
REMARK    4  A    between atoms: C6_9  and  O4_10 
REMARK    5  A    between atoms: C7_12  and  O5_13 
REMARK    6  A    between atoms: O5_13  and  C8_14 
REMARK    7  A    between atoms: C8_14  and  C9_16 
REMARK    8  A    between atoms: C10_17  and  O7_18 
REMARK    9  A    between atoms: O7_18  and  C11_19 
REMARK   10  A    between atoms: C11_19  and  C12_21 
REMARK   11  A    between atoms: C12_21  and  O9_22 
REMARK   12  A    between atoms: C16_30  and  C17_31 
REMARK   13  A    between atoms: C19_34  and  O12_35 
REMARK   14  A    between atoms: C23_42  and  O15_43 
REMARK   15  A    between atoms: C23_42  and  C24_45 
REMARK   16  A    between atoms: C24_45  and  O16_46 
ROOT
HETATM    1  C9  UNL     1      17.729   5.767   7.481  1.00  0.00     0.107 C 
HETATM    2  C10 UNL     1      16.806   6.619   7.875  1.00  0.00     0.152 C 
ENDROOT
BRANCH   2   3
HETATM    3  O7  UNL     1      15.767   6.952   7.025  1.00  0.00    -0.287 OA
BRANCH   3   4
HETATM    4  C11 UNL     1      14.599   7.571   7.499  1.00  0.00     0.327 C 
HETATM    5  O8  UNL     1      13.823   6.840   8.155  1.00  0.00    -0.259 OA
BRANCH   4   6
HETATM    6  C12 UNL     1      14.333   9.002   7.226  1.00  0.00     0.265 C 
HETATM    7  C13 UNL     1      15.359   9.825   7.931  1.00  0.00     0.165 C 
HETATM    8  C14 UNL     1      14.841  11.097   8.479  1.00  0.00     0.184 C 
HETATM    9  O10 UNL     1      15.633  11.806   9.140  1.00  0.00    -0.290 OA
HETATM   10  C15 UNL     1      13.465  11.499   8.256  1.00  0.00     0.114 A 
HETATM   11  N1  UNL     1      13.068  12.747   8.461  1.00  0.00    -0.346 N 
HETATM   12  C22 UNL     1      12.545  10.575   7.822  1.00  0.00     0.112 A 
HETATM   13  C16 UNL     1      11.777  13.129   8.253  1.00  0.00     0.113 A 
ATOM     14  H1  UNL     1      13.746  13.438   8.782  1.00  0.00     0.166 HD
HETATM   15  C19 UNL     1      10.841  12.209   7.817  1.00  0.00     0.104 A 
HETATM   16  C20 UNL     1      11.244  10.905   7.599  1.00  0.00     0.009 A 
HETATM   17  C21 UNL     1      10.249   9.909   7.131  1.00  0.00     0.054 C 
HETATM   18  O13 UNL     1      13.005   9.282   7.621  1.00  0.00    -0.301 OA
BRANCH   6  19
HETATM   19  O9  UNL     1      14.409   9.162   5.823  1.00  0.00    -0.357 OA
ATOM     20  H9  UNL     1      14.323  10.093   5.654  1.00  0.00     0.213 HD
ENDBRANCH   6  19
BRANCH  13  21
HETATM   21  C17 UNL     1      11.388  14.510   8.492  1.00  0.00     0.174 C 
HETATM   22  C18 UNL     1      11.609  15.119   9.833  1.00  0.00     0.098 C 
HETATM   23  O11 UNL     1      10.868  15.180   7.566  1.00  0.00    -0.291 OA
ENDBRANCH  13  21
BRANCH  15  24
HETATM   24  O12 UNL     1       9.540  12.644   7.618  1.00  0.00    -0.358 OA
ATOM     25  H12 UNL     1       8.866  11.990   7.472  1.00  0.00     0.217 HD
ENDBRANCH  15  24
ENDBRANCH   4   6
ENDBRANCH   3   4
ENDBRANCH   2   3
BRANCH   1  26
HETATM   26  C8  UNL     1      18.851   5.392   8.366  1.00  0.00     0.287 C 
HETATM   27  O6  UNL     1      19.856   6.132   8.490  1.00  0.00    -0.260 OA
BRANCH  26  28
HETATM   28  O5  UNL     1      18.820   4.210   9.081  1.00  0.00    -0.283 OA
BRANCH  28  29
HETATM   29  C7  UNL     1      18.028   4.006  10.226  1.00  0.00     0.308 C 
HETATM   30  C6  UNL     1      19.010   3.787  11.389  1.00  0.00     0.231 C 
HETATM   31  C4  UNL     1      18.153   3.768  12.582  1.00  0.00     0.097 C 
HETATM   32  C3  UNL     1      17.038   3.080  12.493  1.00  0.00     0.113 C 
HETATM   33  C23 UNL     1      16.698   2.357  11.215  1.00  0.00     0.223 C 
HETATM   34  O14 UNL     1      17.161   2.969  10.091  1.00  0.00    -0.315 OA
BRANCH  30  35
HETATM   35  O4  UNL     1      19.952   4.812  11.419  1.00  0.00    -0.384 OA
ATOM     36  H4  UNL     1      20.760   4.556  11.848  1.00  0.00     0.210 HD
ENDBRANCH  30  35
BRANCH  31  37
HETATM   37  O3  UNL     1      18.502   4.432  13.716  1.00  0.00    -0.356 OA
HETATM   38  C5  UNL     1      18.156   5.762  14.025  1.00  0.00     0.209 C 
ENDBRANCH  31  37
BRANCH  32  39
HETATM   39  C2  UNL     1      16.134   3.014  13.633  1.00  0.00     0.297 C 
HETATM   40  O2  UNL     1      15.182   3.819  13.771  1.00  0.00    -0.259 OA
BRANCH  39  41
HETATM   41  O1  UNL     1      16.336   2.037  14.585  1.00  0.00    -0.323 OA
HETATM   42  C1  UNL     1      16.707   2.294  15.919  1.00  0.00     0.213 C 
ENDBRANCH  39  41
ENDBRANCH  32  39
BRANCH  33  43
HETATM   43  O15 UNL     1      15.295   2.343  11.157  1.00  0.00    -0.360 OA
ATOM     44  H15 UNL     1      15.081   1.939  10.324  1.00  0.00     0.213 HD
ENDBRANCH  33  43
BRANCH  33  45
HETATM   45  C24 UNL     1      17.137   0.902  11.283  1.00  0.00     0.238 C 
BRANCH  45  46
HETATM   46  O16 UNL     1      16.568   0.217  12.351  1.00  0.00    -0.395 OA
ATOM     47  H16 UNL     1      16.402  -0.698  12.154  1.00  0.00     0.209 HD
ENDBRANCH  45  46
ENDBRANCH  33  45
ENDBRANCH  28  29
ENDBRANCH  26  28
ENDBRANCH   1  26
TORSDOF 16
ENDMDL
MODEL 5
REMARK VINA RESULT: -8.328753367      2.938     11.719
REMARK  16 active torsions:
REMARK  status: ('A' for Active; 'I' for Inactive)
REMARK    1  A    between atoms: O1_2  and  C2_3 
REMARK    2  A    between atoms: C2_3  and  C3_5 
REMARK    3  A    between atoms: C4_6  and  O3_7 
REMARK    4  A    between atoms: C6_9  and  O4_10 
REMARK    5  A    between atoms: C7_12  and  O5_13 
REMARK    6  A    between atoms: O5_13  and  C8_14 
REMARK    7  A    between atoms: C8_14  and  C9_16 
REMARK    8  A    between atoms: C10_17  and  O7_18 
REMARK    9  A    between atoms: O7_18  and  C11_19 
REMARK   10  A    between atoms: C11_19  and  C12_21 
REMARK   11  A    between atoms: C12_21  and  O9_22 
REMARK   12  A    between atoms: C16_30  and  C17_31 
REMARK   13  A    between atoms: C19_34  and  O12_35 
REMARK   14  A    between atoms: C23_42  and  O15_43 
REMARK   15  A    between atoms: C23_42  and  C24_45 
REMARK   16  A    between atoms: C24_45  and  O16_46 
ROOT
HETATM    1  C9  UNL     1      16.916   6.902   8.309  1.00  0.00     0.107 C 
HETATM    2  C10 UNL     1      17.166   7.977   7.591  1.00  0.00     0.152 C 
ENDROOT
BRANCH   2   3
HETATM    3  O7  UNL     1      16.564   9.179   7.916  1.00  0.00    -0.287 OA
BRANCH   3   4
HETATM    4  C11 UNL     1      15.171   9.288   8.063  1.00  0.00     0.327 C 
HETATM    5  O8  UNL     1      14.758   9.451   9.233  1.00  0.00    -0.259 OA
BRANCH   4   6
HETATM    6  C12 UNL     1      14.276   9.213   6.886  1.00  0.00     0.265 C 
HETATM    7  C13 UNL     1      15.058   9.559   5.664  1.00  0.00     0.165 C 
HETATM    8  C14 UNL     1      14.298  10.332   4.658  1.00  0.00     0.184 C 
HETATM    9  O10 UNL     1      14.914  10.712   3.636  1.00  0.00    -0.290 OA
HETATM   10  C15 UNL     1      12.893  10.633   4.857  1.00  0.00     0.114 A 
HETATM   11  N1  UNL     1      12.126  11.041   3.855  1.00  0.00    -0.346 N 
HETATM   12  C22 UNL     1      12.335  10.498   6.105  1.00  0.00     0.112 A 
HETATM   13  C16 UNL     1      10.807  11.326   4.037  1.00  0.00     0.113 A 
ATOM     14  H1  UNL     1      12.534  11.144   2.926  1.00  0.00     0.166 HD
HETATM   15  C19 UNL     1      10.232  11.193   5.288  1.00  0.00     0.104 A 
HETATM   16  C20 UNL     1      11.022  10.769   6.338  1.00  0.00     0.009 A 
HETATM   17  C21 UNL     1      10.417  10.623   7.686  1.00  0.00     0.054 C 
HETATM   18  O13 UNL     1      13.175  10.069   7.122  1.00  0.00    -0.301 OA
BRANCH   6  19
HETATM   19  O9  UNL     1      13.790   7.887   6.836  1.00  0.00    -0.357 OA
ATOM     20  H9  UNL     1      13.697   7.669   5.917  1.00  0.00     0.213 HD
ENDBRANCH   6  19
BRANCH  13  21
HETATM   21  C17 UNL     1      10.004  11.770   2.908  1.00  0.00     0.174 C 
HETATM   22  C18 UNL     1       9.790  10.860   1.748  1.00  0.00     0.098 C 
HETATM   23  O11 UNL     1       9.495  12.918   2.918  1.00  0.00    -0.291 OA
ENDBRANCH  13  21
BRANCH  15  24
HETATM   24  O12 UNL     1       8.885  11.494   5.425  1.00  0.00    -0.358 OA
ATOM     25  H12 UNL     1       8.491  12.084   4.794  1.00  0.00     0.217 HD
ENDBRANCH  15  24
ENDBRANCH   4   6
ENDBRANCH   3   4
ENDBRANCH   2   3
BRANCH   1  26
HETATM   26  C8  UNL     1      17.544   5.605   7.985  1.00  0.00     0.287 C 
HETATM   27  O6  UNL     1      17.446   5.103   6.839  1.00  0.00    -0.260 OA
BRANCH  26  28
HETATM   28  O5  UNL     1      18.257   4.908   8.943  1.00  0.00    -0.283 OA
BRANCH  28  29
HETATM   29  C7  UNL     1      17.698   4.431  10.143  1.00  0.00     0.308 C 
HETATM   30  C6  UNL     1      18.881   4.182  11.092  1.00  0.00     0.231 C 
HETATM   31  C4  UNL     1      18.245   3.869  12.380  1.00  0.00     0.097 C 
HETATM   32  C3  UNL     1      17.217   3.054  12.344  1.00  0.00     0.113 C 
HETATM   33  C23 UNL     1      16.749   2.487  11.028  1.00  0.00     0.223 C 
HETATM   34  O14 UNL     1      16.943   3.315   9.966  1.00  0.00    -0.315 OA
BRANCH  30  35
HETATM   35  O4  UNL     1      19.693   5.311  11.153  1.00  0.00    -0.384 OA
ATOM     36  H4  UNL     1      19.297   6.070  10.742  1.00  0.00     0.210 HD
ENDBRANCH  30  35
BRANCH  31  37
HETATM   37  O3  UNL     1      18.704   4.401  13.545  1.00  0.00    -0.356 OA
HETATM   38  C5  UNL     1      18.327   5.648  14.079  1.00  0.00     0.209 C 
ENDBRANCH  31  37
BRANCH  32  39
HETATM   39  C2  UNL     1      16.531   2.698  13.579  1.00  0.00     0.297 C 
HETATM   40  O2  UNL     1      15.585   3.383  14.033  1.00  0.00    -0.259 OA
BRANCH  39  41
HETATM   41  O1  UNL     1      16.941   1.572  14.265  1.00  0.00    -0.323 OA
HETATM   42  C1  UNL     1      16.560   1.265  15.585  1.00  0.00     0.213 C 
ENDBRANCH  39  41
ENDBRANCH  32  39
BRANCH  33  43
HETATM   43  O15 UNL     1      15.367   2.288  11.179  1.00  0.00    -0.360 OA
ATOM     44  H15 UNL     1      15.232   1.353  11.066  1.00  0.00     0.213 HD
ENDBRANCH  33  43
BRANCH  33  45
HETATM   45  C24 UNL     1      17.355   1.112  10.787  1.00  0.00     0.238 C 
BRANCH  45  46
HETATM   46  O16 UNL     1      16.735   0.112  11.527  1.00  0.00    -0.395 OA
ATOM     47  H16 UNL     1      15.863  -0.094  11.210  1.00  0.00     0.209 HD
ENDBRANCH  45  46
ENDBRANCH  33  45
ENDBRANCH  28  29
ENDBRANCH  26  28
ENDBRANCH   1  26
TORSDOF 16
ENDMDL
