MODEL 1
REMARK VINA RESULT: -8.410172374      0.000      0.000
REMARK  14 active torsions:
REMARK  status: ('A' for Active; 'I' for Inactive)
REMARK    1  A    between atoms: C2_2  and  O2_4 
REMARK    2  A    between atoms: O2_4  and  C3_5 
REMARK    3  A    between atoms: C3_5  and  C4_6 
REMARK    4  A    between atoms: C4_6  and  C5_7 
REMARK    5  A    between atoms: C5_7  and  O3_8 
REMARK    6  A    between atoms: O3_8  and  C6_9 
REMARK    7  A    between atoms: C7_10  and  O4_11 
REMARK    8  A    between atoms: O4_11  and  C8_12 
REMARK    9  A    between atoms: C15_21  and  O7_22 
REMARK   10  A    between atoms: C17_26  and  O9_27 
REMARK   11  A    between atoms: C18_29  and  O10_30 
REMARK   12  A    between atoms: C19_36  and  O13_37 
REMARK   13  A    between atoms: O13_37  and  C20_38 
REMARK   14  A    between atoms: C23_42  and  N2_43 
ROOT
HETATM    1  O3  UNL     1      16.287   3.100  11.589  1.00  0.00    -0.373 OA
ENDROOT
BRANCH   1   2
HETATM    2  C5  UNL     1      16.234   2.703  12.830  1.00  0.00     0.233 C 
BRANCH   2   3
HETATM    3  C4  UNL     1      16.031   3.647  13.993  1.00  0.00     0.203 C 
HETATM    4  N1  UNL     1      14.690   4.075  14.209  1.00  0.00    -0.231 N 
HETATM    5  O11 UNL     1      14.346   5.281  13.814  1.00  0.00    -0.110 OA
ATOM      6  H1  UNL     1      14.012   3.460  14.660  1.00  0.00     0.194 HD
HETATM    7  O12 UNL     1      15.219   6.226  13.830  1.00  0.00    -0.156 OA
HETATM    8  C19 UNL     1      16.334   5.882  14.566  1.00  0.00     0.453 C 
HETATM    9  O15 UNL     1      16.871   4.750  13.982  1.00  0.00    -0.300 OA
BRANCH   3  10
HETATM   10  C3  UNL     1      16.520   2.851  15.258  1.00  0.00     0.244 C 
BRANCH  10  11
HETATM   11  O2  UNL     1      15.827   1.680  15.450  1.00  0.00    -0.317 OA
BRANCH  11  12
HETATM   12  C2  UNL     1      15.304   1.328  16.664  1.00  0.00     0.254 C 
HETATM   13  C1  UNL     1      14.674   2.332  17.590  1.00  0.00     0.126 C 
HETATM   14  O1  UNL     1      15.358   0.118  17.009  1.00  0.00    -0.266 OA
ENDBRANCH  11  12
ENDBRANCH  10  11
ENDBRANCH   3  10
BRANCH   8  15
HETATM   15  O13 UNL     1      17.306   6.852  14.660  1.00  0.00    -0.304 OA
BRANCH  15  16
HETATM   16  C20 UNL     1      18.188   6.845  13.605  1.00  0.00     0.295 C 
HETATM   17  O14 UNL     1      18.041   7.982  12.776  1.00  0.00    -0.359 OA
HETATM   18  C21 UNL     1      19.190   7.941  11.973  1.00  0.00     0.173 C 
HETATM   19  C22 UNL     1      20.311   7.394  12.817  1.00  0.00     0.064 C 
HETATM   20  C23 UNL     1      19.586   7.091  14.125  1.00  0.00     0.240 C 
BRANCH  20  21
HETATM   21  N2  UNL     1      19.546   8.347  14.887  1.00  0.00    -0.070 N 
ATOM     22  H23 UNL     1      20.045   9.109  14.428  1.00  0.00     0.274 HD
ATOM     23  H22 UNL     1      18.624   8.781  14.895  1.00  0.00     0.274 HD
ATOM     24  H21 UNL     1      19.900   8.140  15.821  1.00  0.00     0.274 HD
ENDBRANCH  20  21
ENDBRANCH  15  16
ENDBRANCH   8  15
ENDBRANCH   2   3
ENDBRANCH   1   2
BRANCH   1  25
HETATM   25  C6  UNL     1      17.347   3.479  10.885  1.00  0.00     0.208 C 
HETATM   26  C7  UNL     1      17.355   4.853  10.270  1.00  0.00     0.294 C 
HETATM   27  O8  UNL     1      18.212   4.767   9.146  1.00  0.00    -0.356 OA
HETATM   28  C16 UNL     1      19.360   4.049   9.422  1.00  0.00     0.205 C 
HETATM   29  C17 UNL     1      19.729   4.160  10.884  1.00  0.00     0.173 C 
HETATM   30  C18 UNL     1      18.666   3.457  11.693  1.00  0.00     0.182 C 
BRANCH  26  31
HETATM   31  O4  UNL     1      16.136   5.401   9.992  1.00  0.00    -0.328 OA
BRANCH  31  32
HETATM   32  C8  UNL     1      15.980   6.704  10.350  1.00  0.00     0.271 C 
HETATM   33  C9  UNL     1      16.537   7.647   9.379  1.00  0.00     0.102 C 
HETATM   34  C10 UNL     1      16.001   7.949   8.040  1.00  0.00     0.092 C 
HETATM   35  C11 UNL     1      16.804   7.325   6.954  1.00  0.00     0.049 C 
HETATM   36  O5  UNL     1      15.641   9.270   7.704  1.00  0.00    -0.373 OA
HETATM   37  C15 UNL     1      14.612   7.262   8.082  1.00  0.00     0.185 C 
HETATM   38  C12 UNL     1      14.157   9.402   8.050  1.00  0.00     0.208 C 
HETATM   39  C13 UNL     1      14.284   8.483   9.081  1.00  0.00    -0.003 C 
HETATM   40  C14 UNL     1      14.117   8.225  10.296  1.00  0.00     0.145 C 
HETATM   41  O6  UNL     1      14.581   6.902  10.819  1.00  0.00    -0.332 OA
BRANCH  37  42
HETATM   42  O7  UNL     1      13.880   7.439   6.958  1.00  0.00    -0.388 OA
ATOM     43  H7  UNL     1      13.117   7.992   7.078  1.00  0.00     0.210 HD
ENDBRANCH  37  42
ENDBRANCH  31  32
ENDBRANCH  26  31
BRANCH  29  44
HETATM   44  O9  UNL     1      20.948   3.526  11.148  1.00  0.00    -0.391 OA
ATOM     45  H9  UNL     1      20.812   2.654  11.501  1.00  0.00     0.210 HD
ENDBRANCH  29  44
BRANCH  30  46
HETATM   46  O10 UNL     1      19.059   2.122  11.777  1.00  0.00    -0.390 OA
ATOM     47  H10 UNL     1      19.563   2.037  12.578  1.00  0.00     0.210 HD
ENDBRANCH  30  46
ENDBRANCH   1  25
TORSDOF 14
ENDMDL
MODEL 2
REMARK VINA RESULT: -8.402693126      2.035      4.175
REMARK  14 active torsions:
REMARK  status: ('A' for Active; 'I' for Inactive)
REMARK    1  A    between atoms: C2_2  and  O2_4 
REMARK    2  A    between atoms: O2_4  and  C3_5 
REMARK    3  A    between atoms: C3_5  and  C4_6 
REMARK    4  A    between atoms: C4_6  and  C5_7 
REMARK    5  A    between atoms: C5_7  and  O3_8 
REMARK    6  A    between atoms: O3_8  and  C6_9 
REMARK    7  A    between atoms: C7_10  and  O4_11 
REMARK    8  A    between atoms: O4_11  and  C8_12 
REMARK    9  A    between atoms: C15_21  and  O7_22 
REMARK   10  A    between atoms: C17_26  and  O9_27 
REMARK   11  A    between atoms: C18_29  and  O10_30 
REMARK   12  A    between atoms: C19_36  and  O13_37 
REMARK   13  A    between atoms: O13_37  and  C20_38 
REMARK   14  A    between atoms: C23_42  and  N2_43 
ROOT
HETATM    1  O3  UNL     1      15.438   6.344  12.734  1.00  0.00    -0.373 OA
ENDROOT
BRANCH   1   2
HETATM    2  C5  UNL     1      15.220   5.834  13.914  1.00  0.00     0.233 C 
BRANCH   2   3
HETATM    3  C4  UNL     1      15.756   4.487  14.346  1.00  0.00     0.203 C 
HETATM    4  N1  UNL     1      17.107   4.480  14.794  1.00  0.00    -0.231 N 
HETATM    5  O11 UNL     1      18.036   4.032  13.978  1.00  0.00    -0.110 OA
ATOM      6  H1  UNL     1      17.349   4.814  15.727  1.00  0.00     0.194 HD
HETATM    7  O12 UNL     1      17.746   3.102  13.137  1.00  0.00    -0.156 OA
HETATM    8  C19 UNL     1      16.544   2.494  13.438  1.00  0.00     0.453 C 
HETATM    9  O15 UNL     1      15.574   3.478  13.411  1.00  0.00    -0.300 OA
BRANCH   3  10
HETATM   10  C3  UNL     1      14.824   4.035  15.529  1.00  0.00     0.244 C 
BRANCH  10  11
HETATM   11  O2  UNL     1      14.715   2.669  15.626  1.00  0.00    -0.317 OA
BRANCH  11  12
HETATM   12  C2  UNL     1      14.477   2.034  16.814  1.00  0.00     0.254 C 
HETATM   13  C1  UNL     1      14.795   2.667  18.142  1.00  0.00     0.126 C 
HETATM   14  O1  UNL     1      13.974   0.880  16.785  1.00  0.00    -0.266 OA
ENDBRANCH  11  12
ENDBRANCH  10  11
ENDBRANCH   3  10
BRANCH   8  15
HETATM   15  O13 UNL     1      16.174   1.465  12.603  1.00  0.00    -0.304 OA
BRANCH  15  16
HETATM   16  C20 UNL     1      17.242   0.781  12.072  1.00  0.00     0.295 C 
HETATM   17  O14 UNL     1      17.047  -0.619  12.094  1.00  0.00    -0.359 OA
HETATM   18  C21 UNL     1      18.068  -1.097  11.261  1.00  0.00     0.173 C 
HETATM   19  C22 UNL     1      18.272  -0.080  10.168  1.00  0.00     0.064 C 
HETATM   20  C23 UNL     1      17.284   1.008  10.579  1.00  0.00     0.240 C 
BRANCH  20  21
HETATM   21  N2  UNL     1      15.973   0.610  10.047  1.00  0.00    -0.070 N 
ATOM     22  H23 UNL     1      15.667  -0.304  10.379  1.00  0.00     0.274 HD
ATOM     23  H22 UNL     1      15.202   1.154  10.435  1.00  0.00     0.274 HD
ATOM     24  H21 UNL     1      16.032   0.670   9.031  1.00  0.00     0.274 HD
ENDBRANCH  20  21
ENDBRANCH  15  16
ENDBRANCH   8  15
ENDBRANCH   2   3
ENDBRANCH   1   2
BRANCH   1  25
HETATM   25  C6  UNL     1      16.590   6.483  12.091  1.00  0.00     0.208 C 
HETATM   26  C7  UNL     1      16.565   6.813  10.622  1.00  0.00     0.294 C 
HETATM   27  O8  UNL     1      17.776   6.306  10.093  1.00  0.00    -0.356 OA
HETATM   28  C16 UNL     1      18.855   6.572  10.915  1.00  0.00     0.205 C 
HETATM   29  C17 UNL     1      18.629   7.838  11.710  1.00  0.00     0.173 C 
HETATM   30  C18 UNL     1      17.496   7.592  12.677  1.00  0.00     0.182 C 
BRANCH  26  31
HETATM   31  O4  UNL     1      15.456   6.422   9.931  1.00  0.00    -0.328 OA
BRANCH  31  32
HETATM   32  C8  UNL     1      14.482   7.363   9.796  1.00  0.00     0.271 C 
HETATM   33  C9  UNL     1      14.989   8.672   9.381  1.00  0.00     0.102 C 
HETATM   34  C10 UNL     1      15.519   9.027   8.053  1.00  0.00     0.092 C 
HETATM   35  C11 UNL     1      17.002   9.150   8.048  1.00  0.00     0.049 C 
HETATM   36  O5  UNL     1      14.926  10.070   7.312  1.00  0.00    -0.373 OA
HETATM   37  C15 UNL     1      15.125   7.794   7.203  1.00  0.00     0.185 C 
HETATM   38  C12 UNL     1      13.866   9.408   6.431  1.00  0.00     0.208 C 
HETATM   39  C13 UNL     1      13.650   8.419   7.379  1.00  0.00    -0.003 C 
HETATM   40  C14 UNL     1      12.831   7.808   8.105  1.00  0.00     0.145 C 
HETATM   41  O6  UNL     1      13.346   6.764   9.045  1.00  0.00    -0.332 OA
BRANCH  37  42
HETATM   42  O7  UNL     1      15.465   7.897   5.897  1.00  0.00    -0.388 OA
ATOM     43  H7  UNL     1      14.825   7.525   5.302  1.00  0.00     0.210 HD
ENDBRANCH  37  42
ENDBRANCH  31  32
ENDBRANCH  26  31
BRANCH  29  44
HETATM   44  O9  UNL     1      19.761   8.171  12.463  1.00  0.00    -0.391 OA
ATOM     45  H9  UNL     1      19.652   7.922  13.374  1.00  0.00     0.210 HD
ENDBRANCH  29  44
BRANCH  30  46
HETATM   46  O10 UNL     1      18.074   7.065  13.831  1.00  0.00    -0.390 OA
ATOM     47  H10 UNL     1      18.128   7.778  14.457  1.00  0.00     0.210 HD
ENDBRANCH  30  46
ENDBRANCH   1  25
TORSDOF 14
ENDMDL
MODEL 3
REMARK VINA RESULT: -8.331880184      2.124      5.939
REMARK  14 active torsions:
REMARK  status: ('A' for Active; 'I' for Inactive)
REMARK    1  A    between atoms: C2_2  and  O2_4 
REMARK    2  A    between atoms: O2_4  and  C3_5 
REMARK    3  A    between atoms: C3_5  and  C4_6 
REMARK    4  A    between atoms: C4_6  and  C5_7 
REMARK    5  A    between atoms: C5_7  and  O3_8 
REMARK    6  A    between atoms: O3_8  and  C6_9 
REMARK    7  A    between atoms: C7_10  and  O4_11 
REMARK    8  A    between atoms: O4_11  and  C8_12 
REMARK    9  A    between atoms: C15_21  and  O7_22 
REMARK   10  A    between atoms: C17_26  and  O9_27 
REMARK   11  A    between atoms: C18_29  and  O10_30 
REMARK   12  A    between atoms: C19_36  and  O13_37 
REMARK   13  A    between atoms: O13_37  and  C20_38 
REMARK   14  A    between atoms: C23_42  and  N2_43 
ROOT
HETATM    1  O3  UNL     1      16.354   6.631  12.734  1.00  0.00    -0.373 OA
ENDROOT
BRANCH   1   2
HETATM    2  C5  UNL     1      15.556   6.009  13.557  1.00  0.00     0.233 C 
BRANCH   2   3
HETATM    3  C4  UNL     1      15.823   4.614  14.075  1.00  0.00     0.203 C 
HETATM    4  N1  UNL     1      17.057   4.442  14.763  1.00  0.00    -0.231 N 
HETATM    5  O11 UNL     1      18.052   3.860  14.130  1.00  0.00    -0.110 OA
ATOM      6  H1  UNL     1      17.167   4.761  15.725  1.00  0.00     0.194 HD
HETATM    7  O12 UNL     1      17.801   2.958  13.247  1.00  0.00    -0.156 OA
HETATM    8  C19 UNL     1      16.495   2.517  13.321  1.00  0.00     0.453 C 
HETATM    9  O15 UNL     1      15.684   3.618  13.120  1.00  0.00    -0.300 OA
BRANCH   3  10
HETATM   10  C3  UNL     1      14.640   4.311  15.067  1.00  0.00     0.244 C 
BRANCH  10  11
HETATM   11  O2  UNL     1      15.076   3.895  16.301  1.00  0.00    -0.317 OA
BRANCH  11  12
HETATM   12  C2  UNL     1      15.119   2.575  16.657  1.00  0.00     0.254 C 
HETATM   13  C1  UNL     1      13.876   1.778  16.942  1.00  0.00     0.126 C 
HETATM   14  O1  UNL     1      16.244   2.017  16.748  1.00  0.00    -0.266 OA
ENDBRANCH  11  12
ENDBRANCH  10  11
ENDBRANCH   3  10
BRANCH   8  15
HETATM   15  O13 UNL     1      16.151   1.527  12.429  1.00  0.00    -0.304 OA
BRANCH  15  16
HETATM   16  C20 UNL     1      17.221   0.767  12.018  1.00  0.00     0.295 C 
HETATM   17  O14 UNL     1      16.946  -0.619  12.072  1.00  0.00    -0.359 OA
HETATM   18  C21 UNL     1      18.006  -1.182  11.348  1.00  0.00     0.173 C 
HETATM   19  C22 UNL     1      18.358  -0.222  10.241  1.00  0.00     0.064 C 
HETATM   20  C23 UNL     1      17.401   0.931  10.526  1.00  0.00     0.240 C 
BRANCH  20  21
HETATM   21  N2  UNL     1      16.120   0.583   9.897  1.00  0.00    -0.070 N 
ATOM     22  H23 UNL     1      15.317   1.010  10.361  1.00  0.00     0.274 HD
ATOM     23  H22 UNL     1      15.990   1.019   8.985  1.00  0.00     0.274 HD
ATOM     24  H21 UNL     1      16.070  -0.435   9.865  1.00  0.00     0.274 HD
ENDBRANCH  20  21
ENDBRANCH  15  16
ENDBRANCH   8  15
ENDBRANCH   2   3
ENDBRANCH   1   2
BRANCH   1  25
HETATM   25  C6  UNL     1      16.115   7.033  11.492  1.00  0.00     0.208 C 
HETATM   26  C7  UNL     1      16.492   6.127  10.351  1.00  0.00     0.294 C 
HETATM   27  O8  UNL     1      16.717   6.977   9.242  1.00  0.00    -0.356 OA
HETATM   28  C16 UNL     1      15.758   7.968   9.143  1.00  0.00     0.205 C 
HETATM   29  C17 UNL     1      14.442   7.505   9.727  1.00  0.00     0.173 C 
HETATM   30  C18 UNL     1      14.622   7.330  11.216  1.00  0.00     0.182 C 
BRANCH  26  31
HETATM   31  O4  UNL     1      17.509   5.247  10.585  1.00  0.00    -0.328 OA
BRANCH  31  32
HETATM   32  C8  UNL     1      18.594   5.370   9.773  1.00  0.00     0.271 C 
HETATM   33  C9  UNL     1      19.702   6.106  10.386  1.00  0.00     0.102 C 
HETATM   34  C10 UNL     1      20.570   5.636  11.480  1.00  0.00     0.092 C 
HETATM   35  C11 UNL     1      20.246   6.282  12.780  1.00  0.00     0.049 C 
HETATM   36  O5  UNL     1      21.965   5.558  11.290  1.00  0.00    -0.373 OA
HETATM   37  C15 UNL     1      20.198   4.134  11.571  1.00  0.00     0.185 C 
HETATM   38  C12 UNL     1      22.244   4.138  10.798  1.00  0.00     0.208 C 
HETATM   39  C13 UNL     1      21.006   4.076  10.178  1.00  0.00    -0.003 C 
HETATM   40  C14 UNL     1      20.357   3.867   9.126  1.00  0.00     0.145 C 
HETATM   41  O6  UNL     1      18.872   4.048   9.151  1.00  0.00    -0.332 OA
BRANCH  37  42
HETATM   42  O7  UNL     1      20.912   3.447  12.493  1.00  0.00    -0.388 OA
ATOM     43  H7  UNL     1      20.822   2.504  12.424  1.00  0.00     0.210 HD
ENDBRANCH  37  42
ENDBRANCH  31  32
ENDBRANCH  26  31
BRANCH  29  44
HETATM   44  O9  UNL     1      13.439   8.461   9.533  1.00  0.00    -0.391 OA
ATOM     45  H9  UNL     1      13.263   8.591   8.608  1.00  0.00     0.210 HD
ENDBRANCH  29  44
BRANCH  30  46
HETATM   46  O10 UNL     1      14.350   8.571  11.790  1.00  0.00    -0.390 OA
ATOM     47  H10 UNL     1      13.516   8.857  11.436  1.00  0.00     0.210 HD
ENDBRANCH  30  46
ENDBRANCH   1  25
TORSDOF 14
ENDMDL
MODEL 4
REMARK VINA RESULT: -8.271500997      3.131      6.516
REMARK  14 active torsions:
REMARK  status: ('A' for Active; 'I' for Inactive)
REMARK    1  A    between atoms: C2_2  and  O2_4 
REMARK    2  A    between atoms: O2_4  and  C3_5 
REMARK    3  A    between atoms: C3_5  and  C4_6 
REMARK    4  A    between atoms: C4_6  and  C5_7 
REMARK    5  A    between atoms: C5_7  and  O3_8 
REMARK    6  A    between atoms: O3_8  and  C6_9 
REMARK    7  A    between atoms: C7_10  and  O4_11 
REMARK    8  A    between atoms: O4_11  and  C8_12 
REMARK    9  A    between atoms: C15_21  and  O7_22 
REMARK   10  A    between atoms: C17_26  and  O9_27 
REMARK   11  A    between atoms: C18_29  and  O10_30 
REMARK   12  A    between atoms: C19_36  and  O13_37 
REMARK   13  A    between atoms: O13_37  and  C20_38 
REMARK   14  A    between atoms: C23_42  and  N2_43 
ROOT
HETATM    1  O3  UNL     1      18.154   4.769  10.783  1.00  0.00    -0.373 OA
ENDROOT
BRANCH   1   2
HETATM    2  C5  UNL     1      18.255   3.541  10.357  1.00  0.00     0.233 C 
BRANCH   2   3
HETATM    3  C4  UNL     1      17.710   2.353  11.118  1.00  0.00     0.203 C 
HETATM    4  N1  UNL     1      16.364   1.999  10.819  1.00  0.00    -0.231 N 
HETATM    5  O11 UNL     1      15.422   2.344  11.668  1.00  0.00    -0.110 OA
ATOM      6  H1  UNL     1      16.136   1.488   9.966  1.00  0.00     0.194 HD
HETATM    7  O12 UNL     1      15.693   2.407  12.925  1.00  0.00    -0.156 OA
HETATM    8  C19 UNL     1      16.891   1.792  13.223  1.00  0.00     0.453 C 
HETATM    9  O15 UNL     1      17.871   2.438  12.493  1.00  0.00    -0.300 OA
BRANCH   3  10
HETATM   10  C3  UNL     1      18.650   1.153  10.732  1.00  0.00     0.244 C 
BRANCH  10  11
HETATM   11  O2  UNL     1      17.952   0.044  10.318  1.00  0.00    -0.317 OA
BRANCH  11  12
HETATM   12  C2  UNL     1      17.635  -0.982  11.166  1.00  0.00     0.254 C 
HETATM   13  C1  UNL     1      18.529  -2.177  11.354  1.00  0.00     0.126 C 
HETATM   14  O1  UNL     1      16.553  -0.913  11.807  1.00  0.00    -0.266 OA
ENDBRANCH  11  12
ENDBRANCH  10  11
ENDBRANCH   3  10
BRANCH   8  15
HETATM   15  O13 UNL     1      17.242   1.787  14.554  1.00  0.00    -0.304 OA
BRANCH  15  16
HETATM   16  C20 UNL     1      16.209   1.433  15.389  1.00  0.00     0.295 C 
HETATM   17  O14 UNL     1      16.620   1.333  16.738  1.00  0.00    -0.359 OA
HETATM   18  C21 UNL     1      15.407   1.272  17.438  1.00  0.00     0.173 C 
HETATM   19  C22 UNL     1      14.417   2.138  16.702  1.00  0.00     0.064 C 
HETATM   20  C23 UNL     1      15.245   2.592  15.504  1.00  0.00     0.240 C 
BRANCH  20  21
HETATM   21  N2  UNL     1      16.025   3.757  15.946  1.00  0.00    -0.070 N 
ATOM     22  H23 UNL     1      16.613   3.560  16.756  1.00  0.00     0.274 HD
ATOM     23  H22 UNL     1      16.773   4.007  15.300  1.00  0.00     0.274 HD
ATOM     24  H21 UNL     1      15.363   4.516  16.105  1.00  0.00     0.274 HD
ENDBRANCH  20  21
ENDBRANCH  15  16
ENDBRANCH   8  15
ENDBRANCH   2   3
ENDBRANCH   1   2
BRANCH   1  25
HETATM   25  C6  UNL     1      18.413   5.251  11.992  1.00  0.00     0.208 C 
HETATM   26  C7  UNL     1      19.542   6.234  12.154  1.00  0.00     0.294 C 
HETATM   27  O8  UNL     1      19.983   6.096  13.492  1.00  0.00    -0.356 OA
HETATM   28  C16 UNL     1      18.929   5.994  14.380  1.00  0.00     0.205 C 
HETATM   29  C17 UNL     1      17.711   6.722  13.858  1.00  0.00     0.173 C 
HETATM   30  C18 UNL     1      17.216   5.994  12.631  1.00  0.00     0.182 C 
BRANCH  26  31
HETATM   31  O4  UNL     1      20.546   6.162  11.233  1.00  0.00    -0.328 OA
BRANCH  31  32
HETATM   32  C8  UNL     1      21.649   5.462  11.615  1.00  0.00     0.271 C 
HETATM   33  C9  UNL     1      21.940   4.316  10.753  1.00  0.00     0.102 C 
HETATM   34  C10 UNL     1      22.447   4.363   9.370  1.00  0.00     0.092 C 
HETATM   35  C11 UNL     1      21.392   4.051   8.368  1.00  0.00     0.049 C 
HETATM   36  O5  UNL     1      23.659   3.723   9.040  1.00  0.00    -0.373 OA
HETATM   37  C15 UNL     1      22.844   5.853   9.218  1.00  0.00     0.185 C 
HETATM   38  C12 UNL     1      24.751   4.780   9.207  1.00  0.00     0.208 C 
HETATM   39  C13 UNL     1      24.032   5.409  10.212  1.00  0.00    -0.003 C 
HETATM   40  C14 UNL     1      24.013   5.842  11.389  1.00  0.00     0.145 C 
HETATM   41  O6  UNL     1      22.741   6.427  11.917  1.00  0.00    -0.332 OA
BRANCH  37  42
HETATM   42  O7  UNL     1      23.398   6.153   8.020  1.00  0.00    -0.388 OA
ATOM     43  H7  UNL     1      24.120   6.768   8.073  1.00  0.00     0.210 HD
ENDBRANCH  37  42
ENDBRANCH  31  32
ENDBRANCH  26  31
BRANCH  29  44
HETATM   44  O9  UNL     1      16.675   6.714  14.799  1.00  0.00    -0.391 OA
ATOM     45  H9  UNL     1      16.280   7.574  14.881  1.00  0.00     0.210 HD
ENDBRANCH  29  44
BRANCH  30  46
HETATM   46  O10 UNL     1      16.336   5.013  13.087  1.00  0.00    -0.390 OA
ATOM     47  H10 UNL     1      16.541   4.871  14.004  1.00  0.00     0.210 HD
ENDBRANCH  30  46
ENDBRANCH   1  25
TORSDOF 14
ENDMDL
MODEL 5
REMARK VINA RESULT: -8.150729537      2.670      5.674
REMARK  14 active torsions:
REMARK  status: ('A' for Active; 'I' for Inactive)
REMARK    1  A    between atoms: C2_2  and  O2_4 
REMARK    2  A    between atoms: O2_4  and  C3_5 
REMARK    3  A    between atoms: C3_5  and  C4_6 
REMARK    4  A    between atoms: C4_6  and  C5_7 
REMARK    5  A    between atoms: C5_7  and  O3_8 
REMARK    6  A    between atoms: O3_8  and  C6_9 
REMARK    7  A    between atoms: C7_10  and  O4_11 
REMARK    8  A    between atoms: O4_11  and  C8_12 
REMARK    9  A    between atoms: C15_21  and  O7_22 
REMARK   10  A    between atoms: C17_26  and  O9_27 
REMARK   11  A    between atoms: C18_29  and  O10_30 
REMARK   12  A    between atoms: C19_36  and  O13_37 
REMARK   13  A    between atoms: O13_37  and  C20_38 
REMARK   14  A    between atoms: C23_42  and  N2_43 
ROOT
HETATM    1  O3  UNL     1      17.392   2.531  13.722  1.00  0.00    -0.373 OA
ENDROOT
BRANCH   1   2
HETATM    2  C5  UNL     1      17.303   1.675  12.742  1.00  0.00     0.233 C 
BRANCH   2   3
HETATM    3  C4  UNL     1      18.141   1.764  11.486  1.00  0.00     0.203 C 
HETATM    4  N1  UNL     1      19.546   1.636  11.676  1.00  0.00    -0.231 N 
HETATM    5  O11 UNL     1      20.283   2.725  11.648  1.00  0.00    -0.110 OA
ATOM      6  H1  UNL     1      19.971   0.722  11.829  1.00  0.00     0.194 HD
HETATM    7  O12 UNL     1      19.931   3.711  10.899  1.00  0.00    -0.156 OA
HETATM    8  C19 UNL     1      18.965   3.341   9.986  1.00  0.00     0.453 C 
HETATM    9  O15 UNL     1      17.879   2.882  10.708  1.00  0.00    -0.300 OA
BRANCH   3  10
HETATM   10  C3  UNL     1      17.641   0.583  10.575  1.00  0.00     0.244 C 
BRANCH  10  11
HETATM   11  O2  UNL     1      17.376  -0.562  11.287  1.00  0.00    -0.317 OA
BRANCH  11  12
HETATM   12  C2  UNL     1      18.242  -1.621  11.322  1.00  0.00     0.254 C 
HETATM   13  C1  UNL     1      17.771  -3.047  11.234  1.00  0.00     0.126 C 
HETATM   14  O1  UNL     1      19.473  -1.382  11.433  1.00  0.00    -0.266 OA
ENDBRANCH  11  12
ENDBRANCH  10  11
ENDBRANCH   3  10
BRANCH   8  15
HETATM   15  O13 UNL     1      18.554   4.331   9.123  1.00  0.00    -0.304 OA
BRANCH  15  16
HETATM   16  C20 UNL     1      19.513   4.689   8.206  1.00  0.00     0.295 C 
HETATM   17  O14 UNL     1      18.951   5.121   6.982  1.00  0.00    -0.359 OA
HETATM   18  C21 UNL     1      20.038   5.711   6.322  1.00  0.00     0.173 C 
HETATM   19  C22 UNL     1      20.904   6.362   7.370  1.00  0.00     0.064 C 
HETATM   20  C23 UNL     1      20.170   5.975   8.651  1.00  0.00     0.240 C 
BRANCH  20  21
HETATM   21  N2  UNL     1      19.098   6.963   8.838  1.00  0.00    -0.070 N 
ATOM     22  H23 UNL     1      18.944   7.547   8.016  1.00  0.00     0.274 HD
ATOM     23  H22 UNL     1      18.169   6.543   8.876  1.00  0.00     0.274 HD
ATOM     24  H21 UNL     1      19.329   7.499   9.674  1.00  0.00     0.274 HD
ENDBRANCH  20  21
ENDBRANCH  15  16
ENDBRANCH   8  15
ENDBRANCH   2   3
ENDBRANCH   1   2
BRANCH   1  25
HETATM   25  C6  UNL     1      16.634   2.630  14.806  1.00  0.00     0.208 C 
HETATM   26  C7  UNL     1      15.251   3.210  14.673  1.00  0.00     0.294 C 
HETATM   27  O8  UNL     1      14.939   3.757  15.941  1.00  0.00    -0.356 OA
HETATM   28  C16 UNL     1      15.319   2.923  16.975  1.00  0.00     0.205 C 
HETATM   29  C17 UNL     1      15.291   1.476  16.539  1.00  0.00     0.173 C 
HETATM   30  C18 UNL     1      16.372   1.274  15.504  1.00  0.00     0.182 C 
BRANCH  26  31
HETATM   31  O4  UNL     1      15.053   4.075  13.636  1.00  0.00    -0.328 OA
BRANCH  31  32
HETATM   32  C8  UNL     1      14.972   5.391  13.973  1.00  0.00     0.271 C 
HETATM   33  C9  UNL     1      16.277   6.039  14.114  1.00  0.00     0.102 C 
HETATM   34  C10 UNL     1      17.214   6.373  13.027  1.00  0.00     0.092 C 
HETATM   35  C11 UNL     1      18.379   5.448  12.978  1.00  0.00     0.049 C 
HETATM   36  O5  UNL     1      17.623   7.708  12.832  1.00  0.00    -0.373 OA
HETATM   37  C15 UNL     1      16.347   6.139  11.764  1.00  0.00     0.185 C 
HETATM   38  C12 UNL     1      16.641   8.306  11.826  1.00  0.00     0.208 C 
HETATM   39  C13 UNL     1      15.623   7.482  12.282  1.00  0.00    -0.003 C 
HETATM   40  C14 UNL     1      14.458   7.389  12.736  1.00  0.00     0.145 C 
HETATM   41  O6  UNL     1      13.942   6.037  13.115  1.00  0.00    -0.332 OA
BRANCH  37  42
HETATM   42  O7  UNL     1      16.979   6.430  10.604  1.00  0.00    -0.388 OA
ATOM     43  H7  UNL     1      17.296   5.667  10.136  1.00  0.00     0.210 HD
ENDBRANCH  37  42
ENDBRANCH  31  32
ENDBRANCH  26  31
BRANCH  29  44
HETATM   44  O9  UNL     1      15.569   0.619  17.610  1.00  0.00    -0.391 OA
ATOM     45  H9  UNL     1      15.355  -0.281  17.394  1.00  0.00     0.210 HD
ENDBRANCH  29  44
BRANCH  30  46
HETATM   46  O10 UNL     1      17.533   0.958  16.208  1.00  0.00    -0.390 OA
ATOM     47  H10 UNL     1      17.494   0.026  16.390  1.00  0.00     0.210 HD
ENDBRANCH  30  46
ENDBRANCH   1  25
TORSDOF 14
ENDMDL
