MODEL 1
REMARK VINA RESULT: -7.791264768      0.000      0.000
REMARK  15 active torsions:
REMARK  status: ('A' for Active; 'I' for Inactive)
REMARK    1  A    between atoms: C3_4  and  S1_5 
REMARK    2  A    between atoms: S1_5  and  C4_6 
REMARK    3  A    between atoms: C6_16  and  C7_17 
REMARK    4  A    between atoms: C7_17  and  O1_18 
REMARK    5  A    between atoms: C7_17  and  C12_26 
REMARK    6  A    between atoms: O1_18  and  C8_19 
REMARK    7  A    between atoms: C8_19  and  C9_20 
REMARK    8  A    between atoms: C9_20  and  O3_22 
REMARK    9  A    between atoms: O3_22  and  C10_23 
REMARK   10  A    between atoms: C12_26  and  O6_28 
REMARK   11  A    between atoms: C14_30  and  C15_31 
REMARK   12  A    between atoms: C15_31  and  O7_32 
REMARK   13  A    between atoms: C15_31  and  O8_34 
REMARK   14  A    between atoms: C17_38  and  O10_39 
REMARK   15  A    between atoms: C19_42  and  O12_44 
ROOT
HETATM    1  C1  UNL     1      21.402   6.446  11.171  1.00  0.00     0.222 C 
HETATM    2  N1  UNL     1      20.348   6.219  10.788  1.00  0.00    -0.446 NA
HETATM    3  C2  UNL     1      19.093   5.926  10.303  1.00  0.00     0.211 C 
HETATM    4  C3  UNL     1      18.095   5.455  11.267  1.00  0.00     0.043 C 
HETATM    5  C6  UNL     1      17.904   4.106  11.370  1.00  0.00     0.009 C 
HETATM    6  C14 UNL     1      18.686   3.153  10.489  1.00  0.00     0.210 C 
HETATM    7  O9  UNL     1      19.109   3.674   9.322  1.00  0.00    -0.362 OA
HETATM    8  C16 UNL     1      19.131   4.968   9.120  1.00  0.00     0.230 C 
HETATM    9  C17 UNL     1      17.875   5.386   8.380  1.00  0.00     0.295 C 
HETATM   10  O11 UNL     1      17.447   6.587   8.949  1.00  0.00    -0.319 OA
HETATM   11  C19 UNL     1      18.639   7.092   9.431  1.00  0.00     0.207 C 
HETATM   12  C20 UNL     1      18.657   8.437   9.935  1.00  0.00     0.083 C 
ENDROOT
BRANCH   4  13
HETATM   13  S1  UNL     1      17.152   6.412  12.353  1.00  0.00    -0.064 SA
BRANCH  13  14
HETATM   14  C4  UNL     1      17.888   7.351  13.630  1.00  0.00     0.134 A 
HETATM   15  N2  UNL     1      17.770   7.447  14.941  1.00  0.00    -0.286 N 
HETATM   16  N3  UNL     1      18.463   8.248  15.622  1.00  0.00    -0.279 N 
ATOM     17  H2  UNL     1      17.093   6.852  15.419  1.00  0.00     0.188 HD
HETATM   18  C5  UNL     1      19.349   9.026  14.996  1.00  0.00     0.159 A 
ATOM     19  H3  UNL     1      18.349   8.301  16.634  1.00  0.00     0.189 HD
HETATM   20  N4  UNL     1      20.162   9.920  15.513  1.00  0.00    -0.379 N 
HETATM   21  S2  UNL     1      19.137   8.550  13.371  1.00  0.00    -0.026 SA
ATOM     22  H42 UNL     1      20.288  10.205  16.485  1.00  0.00     0.158 HD
ATOM     23  H41 UNL     1      20.839  10.515  15.035  1.00  0.00     0.158 HD
ENDBRANCH  13  14
ENDBRANCH   4  13
BRANCH  11  24
HETATM   24  O12 UNL     1      19.518   7.072   8.309  1.00  0.00    -0.362 OA
ATOM     25  H12 UNL     1      19.933   7.926   8.311  1.00  0.00     0.213 HD
ENDBRANCH  11  24
BRANCH   5  26
HETATM   26  C7  UNL     1      16.972   3.432  12.251  1.00  0.00     0.254 C 
BRANCH  26  27
HETATM   27  O1  UNL     1      17.740   3.069  13.418  1.00  0.00    -0.362 OA
BRANCH  27  28
HETATM   28  C8  UNL     1      16.997   3.396  14.532  1.00  0.00     0.280 C 
BRANCH  28  29
HETATM   29  C9  UNL     1      16.928   2.273  15.506  1.00  0.00     0.290 C 
HETATM   30  O2  UNL     1      17.899   2.113  16.278  1.00  0.00    -0.262 OA
BRANCH  29  31
HETATM   31  O3  UNL     1      15.836   1.438  15.560  1.00  0.00    -0.244 OA
BRANCH  31  32
HETATM   32  C10 UNL     1      15.161   1.216  16.758  1.00  0.00     0.262 C 
HETATM   33  C11 UNL     1      14.473   2.371  17.408  1.00  0.00     0.126 C 
HETATM   34  O4  UNL     1      15.128   0.074  17.286  1.00  0.00    -0.265 OA
ENDBRANCH  31  32
ENDBRANCH  29  31
ENDBRANCH  28  29
ENDBRANCH  27  28
ENDBRANCH  26  27
BRANCH  26  35
HETATM   35  C12 UNL     1      16.296   2.187  11.891  1.00  0.00     0.292 C 
HETATM   36  O5  UNL     1      15.303   2.230  11.128  1.00  0.00    -0.262 OA
BRANCH  35  37
HETATM   37  O6  UNL     1      16.667   0.944  12.334  1.00  0.00    -0.324 OA
HETATM   38  C13 UNL     1      16.678  -0.251  11.577  1.00  0.00     0.213 C 
ENDBRANCH  35  37
ENDBRANCH  26  35
ENDBRANCH   5  26
BRANCH   9  39
HETATM   39  O10 UNL     1      18.006   5.434   7.023  1.00  0.00    -0.363 OA
HETATM   40  C18 UNL     1      16.948   6.074   6.381  1.00  0.00     0.204 C 
ENDBRANCH   9  39
BRANCH   6  41
HETATM   41  C15 UNL     1      19.884   2.555  11.177  1.00  0.00     0.287 C 
BRANCH  41  42
HETATM   42  O7  UNL     1      20.410   3.248  12.221  1.00  0.00    -0.369 OA
ATOM     43  H7  UNL     1      20.606   2.758  13.011  1.00  0.00     0.212 HD
ENDBRANCH  41  42
BRANCH  41  44
HETATM   44  O8  UNL     1      19.529   1.278  11.688  1.00  0.00    -0.369 OA
ATOM     45  H8  UNL     1      20.294   0.714  11.661  1.00  0.00     0.212 HD
ENDBRANCH  41  44
ENDBRANCH   6  41
TORSDOF 15
ENDMDL
MODEL 2
REMARK VINA RESULT: -7.756748904      1.764      2.923
REMARK  15 active torsions:
REMARK  status: ('A' for Active; 'I' for Inactive)
REMARK    1  A    between atoms: C3_4  and  S1_5 
REMARK    2  A    between atoms: S1_5  and  C4_6 
REMARK    3  A    between atoms: C6_16  and  C7_17 
REMARK    4  A    between atoms: C7_17  and  O1_18 
REMARK    5  A    between atoms: C7_17  and  C12_26 
REMARK    6  A    between atoms: O1_18  and  C8_19 
REMARK    7  A    between atoms: C8_19  and  C9_20 
REMARK    8  A    between atoms: C9_20  and  O3_22 
REMARK    9  A    between atoms: O3_22  and  C10_23 
REMARK   10  A    between atoms: C12_26  and  O6_28 
REMARK   11  A    between atoms: C14_30  and  C15_31 
REMARK   12  A    between atoms: C15_31  and  O7_32 
REMARK   13  A    between atoms: C15_31  and  O8_34 
REMARK   14  A    between atoms: C17_38  and  O10_39 
REMARK   15  A    between atoms: C19_42  and  O12_44 
ROOT
HETATM    1  C1  UNL     1      20.049   1.950  10.305  1.00  0.00     0.222 C 
HETATM    2  N1  UNL     1      19.465   2.905  10.543  1.00  0.00    -0.446 NA
HETATM    3  C2  UNL     1      18.738   4.043  10.808  1.00  0.00     0.211 C 
HETATM    4  C3  UNL     1      18.463   4.350  12.215  1.00  0.00     0.043 C 
HETATM    5  C6  UNL     1      17.251   3.972  12.719  1.00  0.00     0.009 C 
HETATM    6  C14 UNL     1      16.233   3.287  11.831  1.00  0.00     0.210 C 
HETATM    7  O9  UNL     1      16.346   3.562  10.519  1.00  0.00    -0.362 OA
HETATM    8  C16 UNL     1      17.433   4.101  10.025  1.00  0.00     0.230 C 
HETATM    9  C17 UNL     1      17.244   5.600   9.904  1.00  0.00     0.295 C 
HETATM   10  O11 UNL     1      18.444   6.196  10.299  1.00  0.00    -0.319 OA
HETATM   11  C19 UNL     1      19.347   5.190  10.011  1.00  0.00     0.207 C 
HETATM   12  C20 UNL     1      20.749   5.485  10.101  1.00  0.00     0.083 C 
ENDROOT
BRANCH   4  13
HETATM   13  S1  UNL     1      19.527   5.096  13.353  1.00  0.00    -0.064 SA
BRANCH  13  14
HETATM   14  C4  UNL     1      19.381   6.785  13.780  1.00  0.00     0.134 A 
HETATM   15  N2  UNL     1      18.653   7.504  14.615  1.00  0.00    -0.286 N 
HETATM   16  N3  UNL     1      18.773   8.754  14.705  1.00  0.00    -0.279 N 
ATOM     17  H2  UNL     1      17.971   7.031  15.206  1.00  0.00     0.188 HD
HETATM   18  C5  UNL     1      19.667   9.374  13.931  1.00  0.00     0.159 A 
ATOM     19  H3  UNL     1      18.196   9.284  15.359  1.00  0.00     0.189 HD
HETATM   20  N4  UNL     1      19.947  10.656  13.870  1.00  0.00    -0.379 N 
HETATM   21  S2  UNL     1      20.332   8.066  13.060  1.00  0.00    -0.026 SA
ATOM     22  H42 UNL     1      19.549  11.438  14.391  1.00  0.00     0.158 HD
ATOM     23  H41 UNL     1      20.630  11.130  13.278  1.00  0.00     0.158 HD
ENDBRANCH  13  14
ENDBRANCH   4  13
BRANCH  11  24
HETATM   24  O12 UNL     1      19.094   4.861   8.647  1.00  0.00    -0.362 OA
ATOM     25  H12 UNL     1      19.551   5.527   8.148  1.00  0.00     0.213 HD
ENDBRANCH  11  24
BRANCH   5  26
HETATM   26  C7  UNL     1      16.777   4.179  14.074  1.00  0.00     0.254 C 
BRANCH  26  27
HETATM   27  O1  UNL     1      16.181   2.926  14.468  1.00  0.00    -0.362 OA
BRANCH  27  28
HETATM   28  C8  UNL     1      16.985   2.360  15.434  1.00  0.00     0.280 C 
BRANCH  28  29
HETATM   29  C9  UNL     1      16.485   1.026  15.864  1.00  0.00     0.290 C 
HETATM   30  O2  UNL     1      16.584   0.079  15.054  1.00  0.00    -0.262 OA
BRANCH  29  31
HETATM   31  O3  UNL     1      15.934   0.836  17.111  1.00  0.00    -0.244 OA
BRANCH  31  32
HETATM   32  C10 UNL     1      14.751   1.473  17.477  1.00  0.00     0.262 C 
HETATM   33  C11 UNL     1      14.822   2.576  18.481  1.00  0.00     0.126 C 
HETATM   34  O4  UNL     1      13.646   1.134  16.979  1.00  0.00    -0.265 OA
ENDBRANCH  31  32
ENDBRANCH  29  31
ENDBRANCH  28  29
ENDBRANCH  27  28
ENDBRANCH  26  27
BRANCH  26  35
HETATM   35  C12 UNL     1      15.753   5.164  14.415  1.00  0.00     0.292 C 
HETATM   36  O5  UNL     1      14.788   4.817  15.134  1.00  0.00    -0.262 OA
BRANCH  35  37
HETATM   37  O6  UNL     1      15.760   6.470  13.997  1.00  0.00    -0.324 OA
HETATM   38  C13 UNL     1      15.372   6.949  12.724  1.00  0.00     0.213 C 
ENDBRANCH  35  37
ENDBRANCH  26  35
ENDBRANCH   5  26
BRANCH   9  39
HETATM   39  O10 UNL     1      16.796   6.020   8.686  1.00  0.00    -0.363 OA
HETATM   40  C18 UNL     1      16.093   7.221   8.731  1.00  0.00     0.204 C 
ENDBRANCH   9  39
BRANCH   6  41
HETATM   41  C15 UNL     1      16.227   1.788  11.979  1.00  0.00     0.287 C 
BRANCH  41  42
HETATM   42  O7  UNL     1      15.943   1.057  10.870  1.00  0.00    -0.369 OA
ATOM     43  H7  UNL     1      16.217   1.414  10.033  1.00  0.00     0.212 HD
ENDBRANCH  41  42
BRANCH  41  44
HETATM   44  O8  UNL     1      17.512   1.366  12.413  1.00  0.00    -0.369 OA
ATOM     45  H8  UNL     1      18.060   1.222  11.651  1.00  0.00     0.212 HD
ENDBRANCH  41  44
ENDBRANCH   6  41
TORSDOF 15
ENDMDL
MODEL 3
REMARK VINA RESULT: -7.233623002      1.889      2.670
REMARK  15 active torsions:
REMARK  status: ('A' for Active; 'I' for Inactive)
REMARK    1  A    between atoms: C3_4  and  S1_5 
REMARK    2  A    between atoms: S1_5  and  C4_6 
REMARK    3  A    between atoms: C6_16  and  C7_17 
REMARK    4  A    between atoms: C7_17  and  O1_18 
REMARK    5  A    between atoms: C7_17  and  C12_26 
REMARK    6  A    between atoms: O1_18  and  C8_19 
REMARK    7  A    between atoms: C8_19  and  C9_20 
REMARK    8  A    between atoms: C9_20  and  O3_22 
REMARK    9  A    between atoms: O3_22  and  C10_23 
REMARK   10  A    between atoms: C12_26  and  O6_28 
REMARK   11  A    between atoms: C14_30  and  C15_31 
REMARK   12  A    between atoms: C15_31  and  O7_32 
REMARK   13  A    between atoms: C15_31  and  O8_34 
REMARK   14  A    between atoms: C17_38  and  O10_39 
REMARK   15  A    between atoms: C19_42  and  O12_44 
ROOT
HETATM    1  C1  UNL     1      20.897   3.060  10.484  1.00  0.00     0.222 C 
HETATM    2  N1  UNL     1      20.186   3.955  10.545  1.00  0.00    -0.446 NA
HETATM    3  C2  UNL     1      19.312   5.017  10.592  1.00  0.00     0.211 C 
HETATM    4  C3  UNL     1      18.718   5.339  11.893  1.00  0.00     0.043 C 
HETATM    5  C6  UNL     1      17.470   4.850  12.155  1.00  0.00     0.009 C 
HETATM    6  C14 UNL     1      16.733   4.033  11.114  1.00  0.00     0.210 C 
HETATM    7  O9  UNL     1      17.094   4.276   9.841  1.00  0.00    -0.362 OA
HETATM    8  C16 UNL     1      18.203   4.911   9.554  1.00  0.00     0.230 C 
HETATM    9  C17 UNL     1      17.900   6.377   9.316  1.00  0.00     0.295 C 
HETATM   10  O11 UNL     1      18.926   7.109   9.918  1.00  0.00    -0.319 OA
HETATM   11  C19 UNL     1      19.962   6.196   9.877  1.00  0.00     0.207 C 
HETATM   12  C20 UNL     1      21.278   6.641  10.240  1.00  0.00     0.083 C 
ENDROOT
BRANCH   4  13
HETATM   13  S1  UNL     1      19.441   6.230  13.184  1.00  0.00    -0.064 SA
BRANCH  13  14
HETATM   14  C4  UNL     1      19.415   7.978  13.224  1.00  0.00     0.134 A 
HETATM   15  N2  UNL     1      19.087   8.952  12.396  1.00  0.00    -0.286 N 
HETATM   16  N3  UNL     1      19.178  10.166  12.715  1.00  0.00    -0.279 N 
ATOM     17  H2  UNL     1      18.747   8.712  11.464  1.00  0.00     0.188 HD
HETATM   18  C5  UNL     1      19.623  10.479  13.935  1.00  0.00     0.159 A 
ATOM     19  H3  UNL     1      18.918  10.897  12.054  1.00  0.00     0.189 HD
HETATM   20  N4  UNL     1      19.792  11.671  14.463  1.00  0.00    -0.379 N 
HETATM   21  S2  UNL     1      19.905   8.935  14.605  1.00  0.00    -0.026 SA
ATOM     22  H42 UNL     1      19.623  12.594  14.062  1.00  0.00     0.158 HD
ATOM     23  H41 UNL     1      20.131  11.911  15.395  1.00  0.00     0.158 HD
ENDBRANCH  13  14
ENDBRANCH   4  13
BRANCH  11  24
HETATM   24  O12 UNL     1      20.035   5.798   8.510  1.00  0.00    -0.362 OA
ATOM     25  H12 UNL     1      19.440   6.381   8.055  1.00  0.00     0.213 HD
ENDBRANCH  11  24
BRANCH   5  26
HETATM   26  C7  UNL     1      16.703   5.050  13.369  1.00  0.00     0.254 C 
BRANCH  26  27
HETATM   27  O1  UNL     1      16.463   3.727  13.894  1.00  0.00    -0.362 OA
BRANCH  27  28
HETATM   28  C8  UNL     1      17.170   3.604  15.070  1.00  0.00     0.280 C 
BRANCH  28  29
HETATM   29  C9  UNL     1      16.923   2.295  15.734  1.00  0.00     0.290 C 
HETATM   30  O2  UNL     1      17.881   1.757  16.331  1.00  0.00    -0.262 OA
BRANCH  29  31
HETATM   31  O3  UNL     1      15.686   1.694  15.696  1.00  0.00    -0.244 OA
BRANCH  31  32
HETATM   32  C10 UNL     1      15.070   1.247  16.862  1.00  0.00     0.262 C 
HETATM   33  C11 UNL     1      14.381   2.249  17.729  1.00  0.00     0.126 C 
HETATM   34  O4  UNL     1      15.088   0.030  17.185  1.00  0.00    -0.265 OA
ENDBRANCH  31  32
ENDBRANCH  29  31
ENDBRANCH  28  29
ENDBRANCH  27  28
ENDBRANCH  26  27
BRANCH  26  35
HETATM   35  C12 UNL     1      15.377   5.664  13.379  1.00  0.00     0.292 C 
HETATM   36  O5  UNL     1      14.391   4.984  13.748  1.00  0.00    -0.262 OA
BRANCH  35  37
HETATM   37  O6  UNL     1      15.116   6.957  13.005  1.00  0.00    -0.324 OA
HETATM   38  C13 UNL     1      15.079   7.460  11.683  1.00  0.00     0.213 C 
ENDBRANCH  35  37
ENDBRANCH  26  35
ENDBRANCH   5  26
BRANCH   9  39
HETATM   39  O10 UNL     1      17.680   6.707   8.011  1.00  0.00    -0.363 OA
HETATM   40  C18 UNL     1      16.380   7.135   7.753  1.00  0.00     0.204 C 
ENDBRANCH   9  39
BRANCH   6  41
HETATM   41  C15 UNL     1      16.842   2.548  11.338  1.00  0.00     0.287 C 
BRANCH  41  42
HETATM   42  O7  UNL     1      17.843   2.115  12.148  1.00  0.00    -0.369 OA
ATOM     43  H7  UNL     1      18.732   2.200  11.823  1.00  0.00     0.212 HD
ENDBRANCH  41  42
BRANCH  41  44
HETATM   44  O8  UNL     1      15.633   2.083  11.921  1.00  0.00    -0.369 OA
ATOM     45  H8  UNL     1      14.910   2.593  11.575  1.00  0.00     0.212 HD
ENDBRANCH  41  44
ENDBRANCH   6  41
TORSDOF 15
ENDMDL
MODEL 4
REMARK VINA RESULT: -7.168518380      2.557      4.829
REMARK  15 active torsions:
REMARK  status: ('A' for Active; 'I' for Inactive)
REMARK    1  A    between atoms: C3_4  and  S1_5 
REMARK    2  A    between atoms: S1_5  and  C4_6 
REMARK    3  A    between atoms: C6_16  and  C7_17 
REMARK    4  A    between atoms: C7_17  and  O1_18 
REMARK    5  A    between atoms: C7_17  and  C12_26 
REMARK    6  A    between atoms: O1_18  and  C8_19 
REMARK    7  A    between atoms: C8_19  and  C9_20 
REMARK    8  A    between atoms: C9_20  and  O3_22 
REMARK    9  A    between atoms: O3_22  and  C10_23 
REMARK   10  A    between atoms: C12_26  and  O6_28 
REMARK   11  A    between atoms: C14_30  and  C15_31 
REMARK   12  A    between atoms: C15_31  and  O7_32 
REMARK   13  A    between atoms: C15_31  and  O8_34 
REMARK   14  A    between atoms: C17_38  and  O10_39 
REMARK   15  A    between atoms: C19_42  and  O12_44 
ROOT
HETATM    1  C1  UNL     1      14.772   8.293  11.617  1.00  0.00     0.222 C 
HETATM    2  N1  UNL     1      15.769   7.745  11.747  1.00  0.00    -0.446 NA
HETATM    3  C2  UNL     1      16.970   7.100  11.935  1.00  0.00     0.211 C 
HETATM    4  C3  UNL     1      17.001   5.656  11.683  1.00  0.00     0.043 C 
HETATM    5  C6  UNL     1      16.872   4.825  12.758  1.00  0.00     0.009 C 
HETATM    6  C14 UNL     1      16.732   5.395  14.155  1.00  0.00     0.210 C 
HETATM    7  O9  UNL     1      17.266   6.619  14.326  1.00  0.00    -0.362 OA
HETATM    8  C16 UNL     1      17.576   7.377  13.303  1.00  0.00     0.230 C 
HETATM    9  C17 UNL     1      19.052   7.226  12.992  1.00  0.00     0.295 C 
HETATM   10  O11 UNL     1      19.174   7.188  11.602  1.00  0.00    -0.319 OA
HETATM   11  C19 UNL     1      18.053   7.898  11.218  1.00  0.00     0.207 C 
HETATM   12  C20 UNL     1      17.910   8.252   9.833  1.00  0.00     0.083 C 
ENDROOT
BRANCH   4  13
HETATM   13  S1  UNL     1      17.127   4.861  10.154  1.00  0.00    -0.064 SA
BRANCH  13  14
HETATM   14  C4  UNL     1      18.649   4.734   9.305  1.00  0.00     0.134 A 
HETATM   15  N2  UNL     1      19.837   4.207   9.537  1.00  0.00    -0.286 N 
HETATM   16  N3  UNL     1      20.778   4.277   8.705  1.00  0.00    -0.279 N 
ATOM     17  H2  UNL     1      19.998   3.727  10.423  1.00  0.00     0.188 HD
HETATM   18  C5  UNL     1      20.568   4.905   7.545  1.00  0.00     0.159 A 
ATOM     19  H3  UNL     1      21.686   3.861   8.913  1.00  0.00     0.189 HD
HETATM   20  N4  UNL     1      21.406   5.089   6.550  1.00  0.00    -0.379 N 
HETATM   21  S2  UNL     1      18.941   5.394   7.710  1.00  0.00    -0.026 SA
ATOM     22  H42 UNL     1      22.379   4.797   6.451  1.00  0.00     0.158 HD
ATOM     23  H41 UNL     1      21.245   5.569   5.664  1.00  0.00     0.158 HD
ENDBRANCH  13  14
ENDBRANCH   4  13
BRANCH  11  24
HETATM   24  O12 UNL     1      18.140   9.124  11.939  1.00  0.00    -0.362 OA
ATOM     25  H12 UNL     1      18.304   9.784  11.276  1.00  0.00     0.213 HD
ENDBRANCH  11  24
BRANCH   5  26
HETATM   26  C7  UNL     1      16.880   3.375  12.734  1.00  0.00     0.254 C 
BRANCH  26  27
HETATM   27  O1  UNL     1      17.114   2.969  14.099  1.00  0.00    -0.362 OA
BRANCH  27  28
HETATM   28  C8  UNL     1      16.662   1.675  14.239  1.00  0.00     0.280 C 
BRANCH  28  29
HETATM   29  C9  UNL     1      16.746   1.205  15.648  1.00  0.00     0.290 C 
HETATM   30  O2  UNL     1      17.794   1.455  16.283  1.00  0.00    -0.262 OA
BRANCH  29  31
HETATM   31  O3  UNL     1      15.709   0.519  16.238  1.00  0.00    -0.244 OA
BRANCH  31  32
HETATM   32  C10 UNL     1      14.728   1.188  16.966  1.00  0.00     0.262 C 
HETATM   33  C11 UNL     1      15.155   2.026  18.126  1.00  0.00     0.126 C 
HETATM   34  O4  UNL     1      13.511   1.094  16.661  1.00  0.00    -0.265 OA
ENDBRANCH  31  32
ENDBRANCH  29  31
ENDBRANCH  28  29
ENDBRANCH  27  28
ENDBRANCH  26  27
BRANCH  26  35
HETATM   35  C12 UNL     1      17.858   2.598  11.976  1.00  0.00     0.292 C 
HETATM   36  O5  UNL     1      19.080   2.811  12.157  1.00  0.00    -0.262 OA
BRANCH  35  37
HETATM   37  O6  UNL     1      17.541   1.632  11.057  1.00  0.00    -0.324 OA
HETATM   38  C13 UNL     1      18.346   0.532  10.678  1.00  0.00     0.213 C 
ENDBRANCH  35  37
ENDBRANCH  26  35
ENDBRANCH   5  26
BRANCH   9  39
HETATM   39  O10 UNL     1      19.856   8.152  13.591  1.00  0.00    -0.363 OA
HETATM   40  C18 UNL     1      21.156   8.172  13.091  1.00  0.00     0.204 C 
ENDBRANCH   9  39
BRANCH   6  41
HETATM   41  C15 UNL     1      15.305   5.454  14.633  1.00  0.00     0.287 C 
BRANCH  41  42
HETATM   42  O7  UNL     1      14.336   5.524  13.683  1.00  0.00    -0.369 OA
ATOM     43  H7  UNL     1      13.669   6.192  13.792  1.00  0.00     0.212 HD
ENDBRANCH  41  42
BRANCH  41  44
HETATM   44  O8  UNL     1      15.029   4.288  15.395  1.00  0.00    -0.369 OA
ATOM     45  H8  UNL     1      14.140   4.007  15.213  1.00  0.00     0.212 HD
ENDBRANCH  41  44
ENDBRANCH   6  41
TORSDOF 15
ENDMDL
MODEL 5
REMARK VINA RESULT: -7.108745101      2.693      3.706
REMARK  15 active torsions:
REMARK  status: ('A' for Active; 'I' for Inactive)
REMARK    1  A    between atoms: C3_4  and  S1_5 
REMARK    2  A    between atoms: S1_5  and  C4_6 
REMARK    3  A    between atoms: C6_16  and  C7_17 
REMARK    4  A    between atoms: C7_17  and  O1_18 
REMARK    5  A    between atoms: C7_17  and  C12_26 
REMARK    6  A    between atoms: O1_18  and  C8_19 
REMARK    7  A    between atoms: C8_19  and  C9_20 
REMARK    8  A    between atoms: C9_20  and  O3_22 
REMARK    9  A    between atoms: O3_22  and  C10_23 
REMARK   10  A    between atoms: C12_26  and  O6_28 
REMARK   11  A    between atoms: C14_30  and  C15_31 
REMARK   12  A    between atoms: C15_31  and  O7_32 
REMARK   13  A    between atoms: C15_31  and  O8_34 
REMARK   14  A    between atoms: C17_38  and  O10_39 
REMARK   15  A    between atoms: C19_42  and  O12_44 
ROOT
HETATM    1  C1  UNL     1      19.094   9.065  12.033  1.00  0.00     0.222 C 
HETATM    2  N1  UNL     1      19.157   8.056  11.496  1.00  0.00    -0.446 NA
HETATM    3  C2  UNL     1      19.264   6.839  10.864  1.00  0.00     0.211 C 
HETATM    4  C3  UNL     1      18.178   5.876  11.076  1.00  0.00     0.043 C 
HETATM    5  C6  UNL     1      18.363   4.917  12.030  1.00  0.00     0.009 C 
HETATM    6  C14 UNL     1      19.660   4.851  12.810  1.00  0.00     0.210 C 
HETATM    7  O9  UNL     1      20.730   5.369  12.178  1.00  0.00    -0.362 OA
HETATM    8  C16 UNL     1      20.595   6.151  11.136  1.00  0.00     0.230 C 
HETATM    9  C17 UNL     1      20.754   5.336   9.867  1.00  0.00     0.295 C 
HETATM   10  O11 UNL     1      19.794   5.795   8.964  1.00  0.00    -0.319 OA
HETATM   11  C19 UNL     1      19.616   7.093   9.403  1.00  0.00     0.207 C 
HETATM   12  C20 UNL     1      18.824   7.983   8.601  1.00  0.00     0.083 C 
ENDROOT
BRANCH   4  13
HETATM   13  S1  UNL     1      16.640   5.840  10.290  1.00  0.00    -0.064 SA
BRANCH  13  14
HETATM   14  C4  UNL     1      15.748   7.304   9.944  1.00  0.00     0.134 A 
HETATM   15  N2  UNL     1      15.608   8.495  10.495  1.00  0.00    -0.286 N 
HETATM   16  N3  UNL     1      14.865   9.381  10.000  1.00  0.00    -0.279 N 
ATOM     17  H2  UNL     1      16.121   8.704  11.352  1.00  0.00     0.188 HD
HETATM   18  C5  UNL     1      14.195   9.107   8.878  1.00  0.00     0.159 A 
ATOM     19  H3  UNL     1      14.776  10.293  10.448  1.00  0.00     0.189 HD
HETATM   20  N4  UNL     1      13.375   9.883   8.204  1.00  0.00    -0.379 N 
HETATM   21  S2  UNL     1      14.688   7.503   8.566  1.00  0.00    -0.026 SA
ATOM     22  H42 UNL     1      13.080  10.841   8.390  1.00  0.00     0.158 HD
ATOM     23  H41 UNL     1      12.863   9.673   7.347  1.00  0.00     0.158 HD
ENDBRANCH  13  14
ENDBRANCH   4  13
BRANCH  11  24
HETATM   24  O12 UNL     1      20.930   7.645   9.435  1.00  0.00    -0.362 OA
ATOM     25  H12 UNL     1      21.355   7.304   8.657  1.00  0.00     0.213 HD
ENDBRANCH  11  24
BRANCH   5  26
HETATM   26  C7  UNL     1      17.425   3.873  12.397  1.00  0.00     0.254 C 
BRANCH  26  27
HETATM   27  O1  UNL     1      17.726   3.552  13.771  1.00  0.00    -0.362 OA
BRANCH  27  28
HETATM   28  C8  UNL     1      16.547   3.199  14.390  1.00  0.00     0.280 C 
BRANCH  28  29
HETATM   29  C9  UNL     1      16.755   2.158  15.434  1.00  0.00     0.290 C 
HETATM   30  O2  UNL     1      17.791   2.232  16.130  1.00  0.00    -0.262 OA
BRANCH  29  31
HETATM   31  O3  UNL     1      15.841   1.148  15.631  1.00  0.00    -0.244 OA
BRANCH  31  32
HETATM   32  C10 UNL     1      15.173   1.012  16.845  1.00  0.00     0.262 C 
HETATM   33  C11 UNL     1      14.424   2.190  17.378  1.00  0.00     0.126 C 
HETATM   34  O4  UNL     1      15.195  -0.072  17.484  1.00  0.00    -0.265 OA
ENDBRANCH  31  32
ENDBRANCH  29  31
ENDBRANCH  28  29
ENDBRANCH  27  28
ENDBRANCH  26  27
BRANCH  26  35
HETATM   35  C12 UNL     1      17.396   2.567  11.743  1.00  0.00     0.292 C 
HETATM   36  O5  UNL     1      16.407   2.258  11.037  1.00  0.00    -0.262 OA
BRANCH  35  37
HETATM   37  O6  UNL     1      18.386   1.624  11.843  1.00  0.00    -0.324 OA
HETATM   38  C13 UNL     1      19.524   1.505  11.011  1.00  0.00     0.213 C 
ENDBRANCH  35  37
ENDBRANCH  26  35
ENDBRANCH   5  26
BRANCH   9  39
HETATM   39  O10 UNL     1      22.021   5.315   9.362  1.00  0.00    -0.363 OA
HETATM   40  C18 UNL     1      22.687   4.110   9.571  1.00  0.00     0.204 C 
ENDBRANCH   9  39
BRANCH   6  41
HETATM   41  C15 UNL     1      19.575   5.506  14.163  1.00  0.00     0.287 C 
BRANCH  41  42
HETATM   42  O7  UNL     1      18.396   6.094  14.494  1.00  0.00    -0.369 OA
ATOM     43  H7  UNL     1      18.397   6.674  15.246  1.00  0.00     0.212 HD
ENDBRANCH  41  42
BRANCH  41  44
HETATM   44  O8  UNL     1      19.823   4.526  15.162  1.00  0.00    -0.369 OA
ATOM     45  H8  UNL     1      19.388   4.791  15.964  1.00  0.00     0.212 HD
ENDBRANCH  41  44
ENDBRANCH   6  41
TORSDOF 15
ENDMDL
