MODEL 1
REMARK VINA RESULT: -8.768709380      0.000      0.000
REMARK  2 active torsions:
REMARK  status: ('A' for Active; 'I' for Inactive)
REMARK    1  A    between atoms: C8_8  and  C9_9 
REMARK    2  A    between atoms: C8_8  and  C10_13 
ROOT
HETATM    1  C1  UNL     1      51.065  80.343  80.421  1.00  0.00     0.021 C 
HETATM    2  C2  UNL     1      49.922  79.780  79.618  1.00  0.00    -0.005 C 
HETATM    3  C3  UNL     1      48.662  80.597  79.700  1.00  0.00     0.021 C 
HETATM    4  C4  UNL     1      49.600  78.354  80.046  1.00  0.00     0.015 C 
HETATM    5  C5  UNL     1      48.710  77.665  79.080  1.00  0.00     0.006 C 
HETATM    6  C6  UNL     1      49.465  77.498  77.745  1.00  0.00     0.041 C 
HETATM    7  C7  UNL     1      49.644  78.886  77.220  1.00  0.00    -0.015 C 
HETATM    8  C8  UNL     1      49.318  79.294  76.023  1.00  0.00     0.139 C 
HETATM    9  C11 UNL     1      50.351  79.767  78.183  1.00  0.00     0.018 C 
HETATM   10  N1  UNL     1      51.341  80.502  77.864  1.00  0.00    -0.401 N 
ATOM     11  H11 UNL     1      51.634  80.493  76.887  1.00  0.00     0.156 HD
ATOM     12  H12 UNL     1      51.827  81.108  78.526  1.00  0.00     0.156 HD
ENDROOT
BRANCH   8  13
HETATM   13  C9  UNL     1      48.734  78.242  75.107  1.00  0.00     0.422 C 
HETATM   14  F1  UNL     1      49.495  77.133  75.021  1.00  0.00    -0.166 F 
HETATM   15  F2  UNL     1      47.473  77.889  75.666  1.00  0.00    -0.166 F 
HETATM   16  F3  UNL     1      48.405  78.728  73.866  1.00  0.00    -0.166 F 
ENDBRANCH   8  13
BRANCH   8  17
HETATM   17  C10 UNL     1      49.329  80.644  75.464  1.00  0.00     0.422 C 
HETATM   18  F4  UNL     1      50.716  80.953  75.177  1.00  0.00    -0.166 F 
HETATM   19  F5  UNL     1      48.927  81.574  76.386  1.00  0.00    -0.166 F 
HETATM   20  F6  UNL     1      48.749  80.844  74.251  1.00  0.00    -0.166 F 
ENDBRANCH   8  17
TORSDOF 2
ENDMDL
MODEL 2
REMARK VINA RESULT: -8.668916790      0.150      1.307
REMARK  2 active torsions:
REMARK  status: ('A' for Active; 'I' for Inactive)
REMARK    1  A    between atoms: C8_8  and  C9_9 
REMARK    2  A    between atoms: C8_8  and  C10_13 
ROOT
HETATM    1  C1  UNL     1      51.171  80.237  80.476  1.00  0.00     0.021 C 
HETATM    2  C2  UNL     1      49.990  79.751  79.678  1.00  0.00    -0.005 C 
HETATM    3  C3  UNL     1      48.795  80.661  79.745  1.00  0.00     0.021 C 
HETATM    4  C4  UNL     1      49.561  78.358  80.123  1.00  0.00     0.015 C 
HETATM    5  C5  UNL     1      48.625  77.725  79.165  1.00  0.00     0.006 C 
HETATM    6  C6  UNL     1      49.366  77.484  77.834  1.00  0.00     0.041 C 
HETATM    7  C7  UNL     1      49.650  78.848  77.291  1.00  0.00    -0.015 C 
HETATM    8  C8  UNL     1      49.357  79.262  76.088  1.00  0.00     0.139 C 
HETATM    9  C11 UNL     1      50.420  79.686  78.244  1.00  0.00     0.018 C 
HETATM   10  N1  UNL     1      51.462  80.341  77.918  1.00  0.00    -0.401 N 
ATOM     11  H11 UNL     1      51.755  80.297  76.942  1.00  0.00     0.156 HD
ATOM     12  H12 UNL     1      51.991  80.917  78.573  1.00  0.00     0.156 HD
ENDROOT
BRANCH   8  13
HETATM   13  C9  UNL     1      48.697  78.245  75.184  1.00  0.00     0.422 C 
HETATM   14  F1  UNL     1      47.436  77.948  75.554  1.00  0.00    -0.166 F 
HETATM   15  F2  UNL     1      48.668  78.831  73.887  1.00  0.00    -0.166 F 
HETATM   16  F3  UNL     1      49.452  77.113  75.003  1.00  0.00    -0.166 F 
ENDBRANCH   8  13
BRANCH   8  17
HETATM   17  C10 UNL     1      49.471  80.600  75.511  1.00  0.00     0.422 C 
HETATM   18  F4  UNL     1      48.950  81.516  76.506  1.00  0.00    -0.166 F 
HETATM   19  F5  UNL     1      48.662  80.747  74.416  1.00  0.00    -0.166 F 
HETATM   20  F6  UNL     1      50.714  81.108  75.299  1.00  0.00    -0.166 F 
ENDBRANCH   8  17
TORSDOF 2
ENDMDL
MODEL 3
REMARK VINA RESULT: -8.652722931      2.755      4.729
REMARK  2 active torsions:
REMARK  status: ('A' for Active; 'I' for Inactive)
REMARK    1  A    between atoms: C8_8  and  C9_9 
REMARK    2  A    between atoms: C8_8  and  C10_13 
ROOT
HETATM    1  C1  UNL     1      47.996  78.472  77.704  1.00  0.00     0.021 C 
HETATM    2  C2  UNL     1      49.350  78.879  78.223  1.00  0.00    -0.005 C 
HETATM    3  C3  UNL     1      50.498  78.304  77.441  1.00  0.00     0.021 C 
HETATM    4  C4  UNL     1      49.519  78.486  79.686  1.00  0.00     0.015 C 
HETATM    5  C5  UNL     1      50.691  79.142  80.312  1.00  0.00     0.006 C 
HETATM    6  C6  UNL     1      50.442  80.664  80.356  1.00  0.00     0.041 C 
HETATM    7  C7  UNL     1      50.441  81.102  78.927  1.00  0.00    -0.015 C 
HETATM    8  C8  UNL     1      51.154  82.077  78.431  1.00  0.00     0.139 C 
HETATM    9  C11 UNL     1      49.439  80.370  78.113  1.00  0.00     0.018 C 
HETATM   10  N1  UNL     1      48.612  80.947  77.334  1.00  0.00    -0.401 N 
ATOM     11  H11 UNL     1      48.672  81.963  77.259  1.00  0.00     0.156 HD
ATOM     12  H12 UNL     1      47.923  80.444  76.774  1.00  0.00     0.156 HD
ENDROOT
BRANCH   8  13
HETATM   13  C9  UNL     1      52.026  82.821  79.417  1.00  0.00     0.422 C 
HETATM   14  F1  UNL     1      53.261  82.296  79.533  1.00  0.00    -0.166 F 
HETATM   15  F2  UNL     1      52.140  84.150  78.919  1.00  0.00    -0.166 F 
HETATM   16  F3  UNL     1      51.432  82.993  80.643  1.00  0.00    -0.166 F 
ENDBRANCH   8  13
BRANCH   8  17
HETATM   17  C10 UNL     1      51.323  82.493  77.040  1.00  0.00     0.422 C 
HETATM   18  F4  UNL     1      50.148  83.271  76.703  1.00  0.00    -0.166 F 
HETATM   19  F5  UNL     1      51.312  81.420  76.189  1.00  0.00    -0.166 F 
HETATM   20  F6  UNL     1      52.322  83.367  76.745  1.00  0.00    -0.166 F 
ENDBRANCH   8  17
TORSDOF 2
ENDMDL
MODEL 4
REMARK VINA RESULT: -8.615879920      2.733      4.613
REMARK  2 active torsions:
REMARK  status: ('A' for Active; 'I' for Inactive)
REMARK    1  A    between atoms: C8_8  and  C9_9 
REMARK    2  A    between atoms: C8_8  and  C10_13 
ROOT
HETATM    1  C1  UNL     1      47.929  78.446  77.861  1.00  0.00     0.021 C 
HETATM    2  C2  UNL     1      49.313  78.870  78.279  1.00  0.00    -0.005 C 
HETATM    3  C3  UNL     1      50.407  78.310  77.413  1.00  0.00     0.021 C 
HETATM    4  C4  UNL     1      49.594  78.479  79.724  1.00  0.00     0.015 C 
HETATM    5  C5  UNL     1      50.801  79.150  80.263  1.00  0.00     0.006 C 
HETATM    6  C6  UNL     1      50.536  80.669  80.326  1.00  0.00     0.041 C 
HETATM    7  C7  UNL     1      50.424  81.107  78.902  1.00  0.00    -0.015 C 
HETATM    8  C8  UNL     1      51.085  82.091  78.356  1.00  0.00     0.139 C 
HETATM    9  C11 UNL     1      49.374  80.362  78.163  1.00  0.00     0.018 C 
HETATM   10  N1  UNL     1      48.484  80.928  77.448  1.00  0.00    -0.401 N 
ATOM     11  H11 UNL     1      48.526  81.945  77.370  1.00  0.00     0.156 HD
ATOM     12  H12 UNL     1      47.762  80.417  76.941  1.00  0.00     0.156 HD
ENDROOT
BRANCH   8  13
HETATM   13  C9  UNL     1      52.019  82.846  79.276  1.00  0.00     0.422 C 
HETATM   14  F1  UNL     1      52.163  84.142  78.935  1.00  0.00    -0.166 F 
HETATM   15  F2  UNL     1      51.435  82.777  80.572  1.00  0.00    -0.166 F 
HETATM   16  F3  UNL     1      53.232  82.227  79.442  1.00  0.00    -0.166 F 
ENDBRANCH   8  13
BRANCH   8  17
HETATM   17  C10 UNL     1      51.146  82.509  76.957  1.00  0.00     0.422 C 
HETATM   18  F4  UNL     1      52.366  83.277  76.815  1.00  0.00    -0.166 F 
HETATM   19  F5  UNL     1      50.129  83.370  76.644  1.00  0.00    -0.166 F 
HETATM   20  F6  UNL     1      51.316  81.552  76.005  1.00  0.00    -0.166 F 
ENDBRANCH   8  17
TORSDOF 2
ENDMDL
MODEL 5
REMARK VINA RESULT: -8.605747472      3.202      4.888
REMARK  2 active torsions:
REMARK  status: ('A' for Active; 'I' for Inactive)
REMARK    1  A    between atoms: C8_8  and  C9_9 
REMARK    2  A    between atoms: C8_8  and  C10_13 
ROOT
HETATM    1  C1  UNL     1      49.542  77.286  77.271  1.00  0.00     0.021 C 
HETATM    2  C2  UNL     1      49.333  78.776  77.207  1.00  0.00    -0.005 C 
HETATM    3  C3  UNL     1      48.205  79.268  78.071  1.00  0.00     0.021 C 
HETATM    4  C4  UNL     1      49.081  79.235  75.777  1.00  0.00     0.015 C 
HETATM    5  C5  UNL     1      49.188  80.706  75.632  1.00  0.00     0.006 C 
HETATM    6  C6  UNL     1      50.646  81.127  75.912  1.00  0.00     0.041 C 
HETATM    7  C7  UNL     1      50.864  80.840  77.363  1.00  0.00    -0.015 C 
HETATM    8  C8  UNL     1      51.333  81.684  78.242  1.00  0.00     0.139 C 
HETATM    9  C11 UNL     1      50.590  79.422  77.706  1.00  0.00     0.018 C 
HETATM   10  N1  UNL     1      51.388  78.698  78.384  1.00  0.00    -0.401 N 
ATOM     11  H11 UNL     1      52.243  79.138  78.723  1.00  0.00     0.156 HD
ATOM     12  H12 UNL     1      51.200  77.723  78.620  1.00  0.00     0.156 HD
ENDROOT
BRANCH   8  13
HETATM   13  C9  UNL     1      51.698  83.052  77.709  1.00  0.00     0.422 C 
HETATM   14  F1  UNL     1      52.541  83.003  76.660  1.00  0.00    -0.166 F 
HETATM   15  F2  UNL     1      50.477  83.650  77.288  1.00  0.00    -0.166 F 
HETATM   16  F3  UNL     1      52.150  83.908  78.683  1.00  0.00    -0.166 F 
ENDBRANCH   8  13
BRANCH   8  17
HETATM   17  C10 UNL     1      51.457  81.546  79.691  1.00  0.00     0.422 C 
HETATM   18  F4  UNL     1      50.190  81.020  80.159  1.00  0.00    -0.166 F 
HETATM   19  F5  UNL     1      51.599  82.763  80.303  1.00  0.00    -0.166 F 
HETATM   20  F6  UNL     1      52.330  80.625  80.179  1.00  0.00    -0.166 F 
ENDBRANCH   8  17
TORSDOF 2
ENDMDL
