MODEL 1
REMARK VINA RESULT: -5.752981154      0.000      0.000
REMARK  1 active torsions:
REMARK  status: ('A' for Active; 'I' for Inactive)
REMARK    1  A    between atoms: C6_6  and  C7_8 
ROOT
HETATM    1  C1  UNL     1     -32.093 -16.146  20.657  1.00  0.00     0.037 C 
HETATM    2  C2  UNL     1     -31.668 -15.007  19.731  1.00  0.00     0.019 C 
HETATM    3  C3  UNL     1     -31.976 -15.488  18.307  1.00  0.00     0.037 C 
HETATM    4  C4  UNL     1     -30.164 -14.925  19.826  1.00  0.00     0.033 C 
HETATM    5  C5  UNL     1     -29.711 -13.691  19.131  1.00  0.00     0.054 C 
HETATM    6  C6  UNL     1     -30.412 -12.444  19.591  1.00  0.00     0.185 C 
HETATM    7  F1  UNL     1     -30.184 -11.492  18.584  1.00  0.00    -0.234 F 
HETATM    8  C8  UNL     1     -31.873 -12.586  19.766  1.00  0.00     0.060 C 
HETATM    9  C9  UNL     1     -32.407 -11.623  20.842  1.00  0.00     0.041 C 
HETATM   10  C10 UNL     1     -32.586 -12.111  18.488  1.00  0.00     0.041 C 
HETATM   11  N1  UNL     1     -32.370 -13.861  20.073  1.00  0.00    -0.402 N 
ATOM     12  H1  UNL     1     -33.264 -13.946  20.556  1.00  0.00     0.154 HD
ENDROOT
BRANCH   6  13
HETATM   13  C7  UNL     1     -29.684 -11.912  20.800  1.00  0.00     0.395 C 
HETATM   14  F2  UNL     1     -28.564 -12.619  21.120  1.00  0.00    -0.211 F 
HETATM   15  F3  UNL     1     -29.244 -10.628  20.444  1.00  0.00    -0.211 F 
ENDBRANCH   6  13
TORSDOF 1
ENDMDL
MODEL 2
REMARK VINA RESULT: -5.670240025      1.330      3.395
REMARK  1 active torsions:
REMARK  status: ('A' for Active; 'I' for Inactive)
REMARK    1  A    between atoms: C6_6  and  C7_8 
ROOT
HETATM    1  C1  UNL     1     -33.545 -10.863  18.980  1.00  0.00     0.037 C 
HETATM    2  C2  UNL     1     -32.911 -11.925  19.878  1.00  0.00     0.019 C 
HETATM    3  C3  UNL     1     -33.835 -12.049  21.096  1.00  0.00     0.037 C 
HETATM    4  C4  UNL     1     -31.622 -11.329  20.392  1.00  0.00     0.033 C 
HETATM    5  C5  UNL     1     -30.848 -12.394  21.081  1.00  0.00     0.054 C 
HETATM    6  C6  UNL     1     -30.650 -13.633  20.252  1.00  0.00     0.185 C 
HETATM    7  F1  UNL     1     -30.293 -14.641  21.163  1.00  0.00    -0.234 F 
HETATM    8  C8  UNL     1     -31.851 -14.081  19.517  1.00  0.00     0.060 C 
HETATM    9  C9  UNL     1     -31.473 -14.829  18.225  1.00  0.00     0.041 C 
HETATM   10  C10 UNL     1     -32.579 -15.157  20.342  1.00  0.00     0.041 C 
HETATM   11  N1  UNL     1     -32.800 -13.111  19.167  1.00  0.00    -0.402 N 
ATOM     12  H1  UNL     1     -33.420 -13.279  18.375  1.00  0.00     0.154 HD
ENDROOT
BRANCH   6  13
HETATM   13  C7  UNL     1     -29.426 -13.435  19.393  1.00  0.00     0.395 C 
HETATM   14  F2  UNL     1     -29.477 -12.317  18.615  1.00  0.00    -0.211 F 
HETATM   15  F3  UNL     1     -28.363 -13.237  20.287  1.00  0.00    -0.211 F 
ENDBRANCH   6  13
TORSDOF 1
ENDMDL
MODEL 3
REMARK VINA RESULT: -5.555189170      1.872      3.005
REMARK  1 active torsions:
REMARK  status: ('A' for Active; 'I' for Inactive)
REMARK    1  A    between atoms: C6_6  and  C7_8 
ROOT
HETATM    1  C1  UNL     1     -33.413 -11.505  21.143  1.00  0.00     0.037 C 
HETATM    2  C2  UNL     1     -32.410 -12.036  20.120  1.00  0.00     0.019 C 
HETATM    3  C3  UNL     1     -33.095 -11.900  18.754  1.00  0.00     0.037 C 
HETATM    4  C4  UNL     1     -32.287 -13.518  20.379  1.00  0.00     0.033 C 
HETATM    5  C5  UNL     1     -31.157 -14.048  19.572  1.00  0.00     0.054 C 
HETATM    6  C6  UNL     1     -29.870 -13.295  19.761  1.00  0.00     0.185 C 
HETATM    7  F1  UNL     1     -29.067 -13.640  18.662  1.00  0.00    -0.234 F 
HETATM    8  C8  UNL     1     -30.013 -11.824  19.783  1.00  0.00     0.060 C 
HETATM    9  C9  UNL     1     -28.917 -11.164  20.638  1.00  0.00     0.041 C 
HETATM   10  C10 UNL     1     -29.739 -11.268  18.374  1.00  0.00     0.041 C 
HETATM   11  N1  UNL     1     -31.240 -11.296  20.208  1.00  0.00    -0.402 N 
ATOM     12  H1  UNL     1     -31.273 -10.351  20.590  1.00  0.00     0.154 HD
ENDROOT
BRANCH   6  13
HETATM   13  C7  UNL     1     -29.157 -13.873  20.959  1.00  0.00     0.395 C 
HETATM   14  F2  UNL     1     -29.983 -14.150  22.007  1.00  0.00    -0.211 F 
HETATM   15  F3  UNL     1     -28.642 -15.107  20.535  1.00  0.00    -0.211 F 
ENDBRANCH   6  13
TORSDOF 1
ENDMDL
MODEL 4
REMARK VINA RESULT: -5.310121641      1.989      3.452
REMARK  1 active torsions:
REMARK  status: ('A' for Active; 'I' for Inactive)
REMARK    1  A    between atoms: C6_6  and  C7_8 
ROOT
HETATM    1  C1  UNL     1     -32.921 -11.007  21.450  1.00  0.00     0.037 C 
HETATM    2  C2  UNL     1     -32.500 -11.840  20.239  1.00  0.00     0.019 C 
HETATM    3  C3  UNL     1     -33.350 -11.333  19.067  1.00  0.00     0.037 C 
HETATM    4  C4  UNL     1     -32.967 -13.249  20.513  1.00  0.00     0.033 C 
HETATM    5  C5  UNL     1     -32.386 -14.150  19.483  1.00  0.00     0.054 C 
HETATM    6  C6  UNL     1     -30.894 -14.026  19.341  1.00  0.00     0.185 C 
HETATM    7  F1  UNL     1     -30.587 -14.601  18.097  1.00  0.00    -0.234 F 
HETATM    8  C8  UNL     1     -30.387 -12.638  19.344  1.00  0.00     0.060 C 
HETATM    9  C9  UNL     1     -28.952 -12.564  19.897  1.00  0.00     0.041 C 
HETATM   10  C10 UNL     1     -30.227 -12.152  17.892  1.00  0.00     0.041 C 
HETATM   11  N1  UNL     1     -31.140 -11.672  20.026  1.00  0.00    -0.402 N 
ATOM     12  H1  UNL     1     -30.679 -10.831  20.373  1.00  0.00     0.154 HD
ENDROOT
BRANCH   6  13
HETATM   13  C7  UNL     1     -30.247 -14.933  20.358  1.00  0.00     0.395 C 
HETATM   14  F2  UNL     1     -30.190 -14.399  21.610  1.00  0.00    -0.211 F 
HETATM   15  F3  UNL     1     -31.083 -16.055  20.452  1.00  0.00    -0.211 F 
ENDBRANCH   6  13
TORSDOF 1
ENDMDL
MODEL 5
REMARK VINA RESULT: -5.078754662      2.015      3.614
REMARK  1 active torsions:
REMARK  status: ('A' for Active; 'I' for Inactive)
REMARK    1  A    between atoms: C6_6  and  C7_8 
ROOT
HETATM    1  C1  UNL     1     -33.757 -11.759  21.601  1.00  0.00     0.037 C 
HETATM    2  C2  UNL     1     -32.575 -11.814  20.633  1.00  0.00     0.019 C 
HETATM    3  C3  UNL     1     -32.471 -10.412  20.019  1.00  0.00     0.037 C 
HETATM    4  C4  UNL     1     -32.991 -12.732  19.510  1.00  0.00     0.033 C 
HETATM    5  C5  UNL     1     -31.804 -13.009  18.659  1.00  0.00     0.054 C 
HETATM    6  C6  UNL     1     -30.609 -13.501  19.427  1.00  0.00     0.185 C 
HETATM    7  F1  UNL     1     -29.510 -13.311  18.574  1.00  0.00    -0.234 F 
HETATM    8  C8  UNL     1     -30.345 -12.776  20.688  1.00  0.00     0.060 C 
HETATM    9  C9  UNL     1     -29.648 -13.680  21.721  1.00  0.00     0.041 C 
HETATM   10  C10 UNL     1     -29.302 -11.674  20.429  1.00  0.00     0.041 C 
HETATM   11  N1  UNL     1     -31.434 -12.177  21.334  1.00  0.00    -0.402 N 
ATOM     12  H1  UNL     1     -31.388 -12.005  22.339  1.00  0.00     0.154 HD
ENDROOT
BRANCH   6  13
HETATM   13  C7  UNL     1     -30.729 -14.998  19.578  1.00  0.00     0.395 C 
HETATM   14  F2  UNL     1     -31.486 -15.383  20.643  1.00  0.00    -0.211 F 
HETATM   15  F3  UNL     1     -31.413 -15.441  18.436  1.00  0.00    -0.211 F 
ENDBRANCH   6  13
TORSDOF 1
ENDMDL
