MODEL 1
REMARK VINA RESULT: -7.530175366      0.000      0.000
REMARK  2 active torsions:
REMARK  status: ('A' for Active; 'I' for Inactive)
REMARK    1  A    between atoms: C6_6  and  C7_7 
REMARK    2  A    between atoms: C8_11  and  N1_12 
ROOT
HETATM    1  C1  UNL     1     -33.594 -11.306  18.964  1.00  0.00     0.010 C 
HETATM    2  C2  UNL     1     -32.876 -11.975  20.144  1.00  0.00    -0.016 C 
HETATM    3  C3  UNL     1     -32.708 -13.403  19.823  1.00  0.00     0.009 C 
HETATM    4  C4  UNL     1     -31.319 -13.859  19.523  1.00  0.00    -0.004 C 
HETATM    5  C5  UNL     1     -31.271 -15.352  19.521  1.00  0.00     0.011 C 
HETATM    6  C6  UNL     1     -30.393 -13.203  20.487  1.00  0.00     0.127 C 
HETATM    7  C8  UNL     1     -30.370 -11.764  20.089  1.00  0.00     0.196 C 
HETATM    8  C9  UNL     1     -31.696 -11.175  20.479  1.00  0.00     0.037 C 
ENDROOT
BRANCH   6   9
HETATM    9  C7  UNL     1     -29.055 -13.847  20.614  1.00  0.00     0.393 C 
HETATM   10  F1  UNL     1     -28.812 -14.075  21.958  1.00  0.00    -0.171 F 
HETATM   11  F2  UNL     1     -29.168 -15.133  20.062  1.00  0.00    -0.171 F 
HETATM   12  F3  UNL     1     -28.046 -13.135  20.038  1.00  0.00    -0.171 F 
ENDBRANCH   6   9
BRANCH   7  13
HETATM   13  N1  UNL     1     -29.286 -11.007  20.623  1.00  0.00    -0.074 N 
ATOM     14  H13 UNL     1     -29.474 -10.761  21.595  1.00  0.00     0.274 HD
ATOM     15  H12 UNL     1     -28.467 -11.603  20.744  1.00  0.00     0.274 HD
ATOM     16  H11 UNL     1     -29.039 -10.173  20.090  1.00  0.00     0.274 HD
ENDBRANCH   7  13
TORSDOF 2
ENDMDL
MODEL 2
REMARK VINA RESULT: -7.473378735      0.074      1.077
REMARK  2 active torsions:
REMARK  status: ('A' for Active; 'I' for Inactive)
REMARK    1  A    between atoms: C6_6  and  C7_7 
REMARK    2  A    between atoms: C8_11  and  N1_12 
ROOT
HETATM    1  C1  UNL     1     -33.588 -11.331  18.909  1.00  0.00     0.010 C 
HETATM    2  C2  UNL     1     -32.899 -11.985  20.115  1.00  0.00    -0.016 C 
HETATM    3  C3  UNL     1     -32.733 -13.419  19.821  1.00  0.00     0.009 C 
HETATM    4  C4  UNL     1     -31.340 -13.887  19.557  1.00  0.00    -0.004 C 
HETATM    5  C5  UNL     1     -31.300 -15.380  19.581  1.00  0.00     0.011 C 
HETATM    6  C6  UNL     1     -30.431 -13.220  20.530  1.00  0.00     0.127 C 
HETATM    7  C8  UNL     1     -30.392 -11.788  20.109  1.00  0.00     0.196 C 
HETATM    8  C9  UNL     1     -31.722 -11.185  20.462  1.00  0.00     0.037 C 
ENDROOT
BRANCH   6   9
HETATM    9  C7  UNL     1     -29.099 -13.869  20.696  1.00  0.00     0.393 C 
HETATM   10  F1  UNL     1     -29.125 -15.082  20.028  1.00  0.00    -0.171 F 
HETATM   11  F2  UNL     1     -28.177 -13.097  19.971  1.00  0.00    -0.171 F 
HETATM   12  F3  UNL     1     -28.721 -14.022  21.996  1.00  0.00    -0.171 F 
ENDBRANCH   6   9
BRANCH   7  13
HETATM   13  N1  UNL     1     -29.315 -11.028  20.653  1.00  0.00    -0.074 N 
ATOM     14  H13 UNL     1     -29.545 -10.717  21.597  1.00  0.00     0.274 HD
ATOM     15  H12 UNL     1     -28.521 -11.637  20.855  1.00  0.00     0.274 HD
ATOM     16  H11 UNL     1     -29.015 -10.236  20.084  1.00  0.00     0.274 HD
ENDBRANCH   7  13
TORSDOF 2
ENDMDL
MODEL 3
REMARK VINA RESULT: -6.946084064      2.694      3.714
REMARK  2 active torsions:
REMARK  status: ('A' for Active; 'I' for Inactive)
REMARK    1  A    between atoms: C6_6  and  C7_7 
REMARK    2  A    between atoms: C8_11  and  N1_12 
ROOT
HETATM    1  C1  UNL     1     -28.248 -11.686  20.882  1.00  0.00     0.010 C 
HETATM    2  C2  UNL     1     -28.740 -12.639  19.784  1.00  0.00    -0.016 C 
HETATM    3  C3  UNL     1     -28.938 -13.967  20.391  1.00  0.00     0.009 C 
HETATM    4  C4  UNL     1     -30.352 -14.420  20.553  1.00  0.00    -0.004 C 
HETATM    5  C5  UNL     1     -30.376 -15.876  20.889  1.00  0.00     0.011 C 
HETATM    6  C6  UNL     1     -31.106 -14.047  19.325  1.00  0.00     0.127 C 
HETATM    7  C8  UNL     1     -31.220 -12.559  19.374  1.00  0.00     0.196 C 
HETATM    8  C9  UNL     1     -29.856 -12.000  19.084  1.00  0.00     0.037 C 
ENDROOT
BRANCH   6   9
HETATM    9  C7  UNL     1     -32.392 -14.775  19.129  1.00  0.00     0.393 C 
HETATM   10  F1  UNL     1     -32.112 -16.128  19.044  1.00  0.00    -0.171 F 
HETATM   11  F2  UNL     1     -33.118 -14.648  20.323  1.00  0.00    -0.171 F 
HETATM   12  F3  UNL     1     -33.108 -14.345  18.053  1.00  0.00    -0.171 F 
ENDBRANCH   6   9
BRANCH   7  13
HETATM   13  N1  UNL     1     -32.207 -12.000  18.509  1.00  0.00    -0.074 N 
ATOM     14  H13 UNL     1     -33.011 -11.684  19.051  1.00  0.00     0.274 HD
ATOM     15  H12 UNL     1     -31.882 -11.109  18.135  1.00  0.00     0.274 HD
ATOM     16  H11 UNL     1     -32.511 -12.610  17.750  1.00  0.00     0.274 HD
ENDBRANCH   7  13
TORSDOF 2
ENDMDL
MODEL 4
REMARK VINA RESULT: -6.909946880      2.628      3.651
REMARK  2 active torsions:
REMARK  status: ('A' for Active; 'I' for Inactive)
REMARK    1  A    between atoms: C6_6  and  C7_7 
REMARK    2  A    between atoms: C8_11  and  N1_12 
ROOT
HETATM    1  C1  UNL     1     -28.583 -11.113  20.683  1.00  0.00     0.010 C 
HETATM    2  C2  UNL     1     -28.970 -12.189  19.659  1.00  0.00    -0.016 C 
HETATM    3  C3  UNL     1     -28.968 -13.492  20.347  1.00  0.00     0.009 C 
HETATM    4  C4  UNL     1     -30.301 -14.121  20.586  1.00  0.00    -0.004 C 
HETATM    5  C5  UNL     1     -30.116 -15.543  21.004  1.00  0.00     0.011 C 
HETATM    6  C6  UNL     1     -31.133 -13.929  19.366  1.00  0.00     0.127 C 
HETATM    7  C8  UNL     1     -31.448 -12.470  19.334  1.00  0.00     0.196 C 
HETATM    8  C9  UNL     1     -30.182 -11.750  18.964  1.00  0.00     0.037 C 
ENDROOT
BRANCH   6   9
HETATM    9  C7  UNL     1     -32.312 -14.835  19.258  1.00  0.00     0.393 C 
HETATM   10  F1  UNL     1     -32.998 -14.514  18.100  1.00  0.00    -0.171 F 
HETATM   11  F2  UNL     1     -31.813 -16.125  19.016  1.00  0.00    -0.171 F 
HETATM   12  F3  UNL     1     -33.129 -14.805  20.348  1.00  0.00    -0.171 F 
ENDBRANCH   6   9
BRANCH   7  13
HETATM   13  N1  UNL     1     -32.526 -12.104  18.475  1.00  0.00    -0.074 N 
ATOM     14  H13 UNL     1     -32.244 -11.337  17.864  1.00  0.00     0.274 HD
ATOM     15  H12 UNL     1     -32.688 -12.835  17.782  1.00  0.00     0.274 HD
ATOM     16  H11 UNL     1     -33.398 -11.872  18.951  1.00  0.00     0.274 HD
ENDBRANCH   7  13
TORSDOF 2
ENDMDL
MODEL 5
REMARK VINA RESULT: -6.862404858      2.631      3.595
REMARK  2 active torsions:
REMARK  status: ('A' for Active; 'I' for Inactive)
REMARK    1  A    between atoms: C6_6  and  C7_7 
REMARK    2  A    between atoms: C8_11  and  N1_12 
ROOT
HETATM    1  C1  UNL     1     -28.564 -11.097  20.699  1.00  0.00     0.010 C 
HETATM    2  C2  UNL     1     -28.950 -12.160  19.662  1.00  0.00    -0.016 C 
HETATM    3  C3  UNL     1     -28.919 -13.475  20.326  1.00  0.00     0.009 C 
HETATM    4  C4  UNL     1     -30.240 -14.127  20.572  1.00  0.00    -0.004 C 
HETATM    5  C5  UNL     1     -30.028 -15.554  20.962  1.00  0.00     0.011 C 
HETATM    6  C6  UNL     1     -31.093 -13.925  19.369  1.00  0.00     0.127 C 
HETATM    7  C8  UNL     1     -31.429 -12.471  19.369  1.00  0.00     0.196 C 
HETATM    8  C9  UNL     1     -30.179 -11.726  18.993  1.00  0.00     0.037 C 
ENDROOT
BRANCH   6   9
HETATM    9  C7  UNL     1     -32.260 -14.846  19.262  1.00  0.00     0.393 C 
HETATM   10  F1  UNL     1     -33.081 -14.630  20.355  1.00  0.00    -0.171 F 
HETATM   11  F2  UNL     1     -33.023 -14.410  18.167  1.00  0.00    -0.171 F 
HETATM   12  F3  UNL     1     -31.915 -16.159  19.148  1.00  0.00    -0.171 F 
ENDBRANCH   6   9
BRANCH   7  13
HETATM   13  N1  UNL     1     -32.525 -12.104  18.533  1.00  0.00    -0.074 N 
ATOM     14  H13 UNL     1     -33.039 -12.936  18.242  1.00  0.00     0.274 HD
ATOM     15  H12 UNL     1     -33.244 -11.632  19.082  1.00  0.00     0.274 HD
ATOM     16  H11 UNL     1     -32.277 -11.540  17.719  1.00  0.00     0.274 HD
ENDBRANCH   7  13
TORSDOF 2
ENDMDL
