MODEL 1
REMARK VINA RESULT: -5.741013425      0.000      0.000
REMARK  2 active torsions:
REMARK  status: ('A' for Active; 'I' for Inactive)
REMARK    1  A    between atoms: C2_2  and  N1_4 
REMARK    2  A    between atoms: C2_2  and  C10_11 
ROOT
HETATM    1  N1  UNL     1     -31.016 -13.092  19.501  1.00  0.00    -0.388 N 
HETATM    2  C4  UNL     1     -31.815 -13.069  18.350  1.00  0.00     0.080 C 
HETATM    3  C5  UNL     1     -32.908 -12.085  18.740  1.00  0.00     0.027 C 
HETATM    4  C6  UNL     1     -33.022 -12.332  20.242  1.00  0.00     0.027 C 
HETATM    5  C7  UNL     1     -31.928 -13.368  20.522  1.00  0.00     0.080 C 
HETATM    6  C8  UNL     1     -32.516 -14.690  19.995  1.00  0.00     0.027 C 
HETATM    7  C9  UNL     1     -32.492 -14.436  18.477  1.00  0.00     0.027 C 
ENDROOT
BRANCH   1   8
HETATM    8  C2  UNL     1     -29.824 -12.491  19.643  1.00  0.00     0.119 C 
HETATM    9  C1  UNL     1     -29.903 -11.380  20.706  1.00  0.00     0.047 C 
HETATM   10  C3  UNL     1     -29.136 -11.905  18.443  1.00  0.00     0.047 C 
BRANCH   8  11
HETATM   11  C10 UNL     1     -28.816 -13.488  20.248  1.00  0.00     0.411 C 
HETATM   12  F1  UNL     1     -27.521 -13.148  19.930  1.00  0.00    -0.168 F 
HETATM   13  F2  UNL     1     -29.056 -14.768  19.785  1.00  0.00    -0.168 F 
HETATM   14  F3  UNL     1     -28.932 -13.514  21.618  1.00  0.00    -0.168 F 
ENDBRANCH   8  11
ENDBRANCH   1   8
TORSDOF 2
ENDMDL
MODEL 2
REMARK VINA RESULT: -5.569439212      0.717      2.113
REMARK  2 active torsions:
REMARK  status: ('A' for Active; 'I' for Inactive)
REMARK    1  A    between atoms: C2_2  and  N1_4 
REMARK    2  A    between atoms: C2_2  and  C10_11 
ROOT
HETATM    1  N1  UNL     1     -31.181 -12.199  19.727  1.00  0.00    -0.388 N 
HETATM    2  C4  UNL     1     -31.881 -12.808  20.777  1.00  0.00     0.080 C 
HETATM    3  C5  UNL     1     -32.444 -14.052  20.106  1.00  0.00     0.027 C 
HETATM    4  C6  UNL     1     -32.666 -13.558  18.679  1.00  0.00     0.027 C 
HETATM    5  C7  UNL     1     -32.132 -12.121  18.707  1.00  0.00     0.080 C 
HETATM    6  C8  UNL     1     -33.230 -11.324  19.434  1.00  0.00     0.027 C 
HETATM    7  C9  UNL     1     -33.085 -11.866  20.867  1.00  0.00     0.027 C 
ENDROOT
BRANCH   1   8
HETATM    8  C2  UNL     1     -29.848 -12.190  19.571  1.00  0.00     0.119 C 
HETATM    9  C1  UNL     1     -29.218 -11.033  20.367  1.00  0.00     0.047 C 
HETATM   10  C3  UNL     1     -29.259 -12.147  18.189  1.00  0.00     0.047 C 
BRANCH   8  11
HETATM   11  C10 UNL     1     -29.245 -13.445  20.234  1.00  0.00     0.411 C 
HETATM   12  F1  UNL     1     -29.642 -14.593  19.590  1.00  0.00    -0.168 F 
HETATM   13  F2  UNL     1     -29.633 -13.531  21.558  1.00  0.00    -0.168 F 
HETATM   14  F3  UNL     1     -27.871 -13.386  20.208  1.00  0.00    -0.168 F 
ENDBRANCH   8  11
ENDBRANCH   1   8
TORSDOF 2
ENDMDL
MODEL 3
REMARK VINA RESULT: -5.428498153      2.183      3.089
REMARK  2 active torsions:
REMARK  status: ('A' for Active; 'I' for Inactive)
REMARK    1  A    between atoms: C2_2  and  N1_4 
REMARK    2  A    between atoms: C2_2  and  C10_11 
ROOT
HETATM    1  N1  UNL     1     -31.067 -13.279  19.952  1.00  0.00    -0.388 N 
HETATM    2  C4  UNL     1     -31.300 -12.878  18.629  1.00  0.00     0.080 C 
HETATM    3  C5  UNL     1     -30.157 -11.903  18.386  1.00  0.00     0.027 C 
HETATM    4  C6  UNL     1     -29.962 -11.304  19.776  1.00  0.00     0.027 C 
HETATM    5  C7  UNL     1     -30.968 -12.069  20.643  1.00  0.00     0.080 C 
HETATM    6  C8  UNL     1     -32.329 -11.449  20.279  1.00  0.00     0.027 C 
HETATM    7  C9  UNL     1     -32.514 -11.971  18.843  1.00  0.00     0.027 C 
ENDROOT
BRANCH   1   8
HETATM    8  C2  UNL     1     -30.553 -14.457  20.338  1.00  0.00     0.119 C 
HETATM    9  C1  UNL     1     -30.407 -14.507  21.869  1.00  0.00     0.047 C 
HETATM   10  C3  UNL     1     -29.252 -14.931  19.755  1.00  0.00     0.047 C 
BRANCH   8  11
HETATM   11  C10 UNL     1     -31.567 -15.581  20.044  1.00  0.00     0.411 C 
HETATM   12  F1  UNL     1     -31.293 -16.710  20.779  1.00  0.00    -0.168 F 
HETATM   13  F2  UNL     1     -31.546 -15.919  18.703  1.00  0.00    -0.168 F 
HETATM   14  F3  UNL     1     -32.843 -15.166  20.347  1.00  0.00    -0.168 F 
ENDBRANCH   8  11
ENDBRANCH   1   8
TORSDOF 2
ENDMDL
MODEL 4
REMARK VINA RESULT: -5.413704114      1.009      1.898
REMARK  2 active torsions:
REMARK  status: ('A' for Active; 'I' for Inactive)
REMARK    1  A    between atoms: C2_2  and  N1_4 
REMARK    2  A    between atoms: C2_2  and  C10_11 
ROOT
HETATM    1  N1  UNL     1     -31.417 -12.271  20.054  1.00  0.00    -0.388 N 
HETATM    2  C4  UNL     1     -32.347 -13.297  19.840  1.00  0.00     0.080 C 
HETATM    3  C5  UNL     1     -33.108 -12.788  18.624  1.00  0.00     0.027 C 
HETATM    4  C6  UNL     1     -33.055 -11.277  18.839  1.00  0.00     0.027 C 
HETATM    5  C7  UNL     1     -32.208 -11.122  20.107  1.00  0.00     0.080 C 
HETATM    6  C8  UNL     1     -33.162 -11.515  21.249  1.00  0.00     0.027 C 
HETATM    7  C9  UNL     1     -33.302 -13.028  21.007  1.00  0.00     0.027 C 
ENDROOT
BRANCH   1   8
HETATM    8  C2  UNL     1     -30.109 -12.321  19.754  1.00  0.00     0.119 C 
HETATM    9  C1  UNL     1     -29.355 -11.164  20.434  1.00  0.00     0.047 C 
HETATM   10  C3  UNL     1     -29.674 -12.346  18.316  1.00  0.00     0.047 C 
BRANCH   8  11
HETATM   11  C10 UNL     1     -29.482 -13.575  20.395  1.00  0.00     0.411 C 
HETATM   12  F1  UNL     1     -29.794 -14.711  19.685  1.00  0.00    -0.168 F 
HETATM   13  F2  UNL     1     -29.931 -13.736  21.693  1.00  0.00    -0.168 F 
HETATM   14  F3  UNL     1     -28.113 -13.456  20.442  1.00  0.00    -0.168 F 
ENDBRANCH   8  11
ENDBRANCH   1   8
TORSDOF 2
ENDMDL
MODEL 5
REMARK VINA RESULT: -5.399625648      2.176      3.802
REMARK  2 active torsions:
REMARK  status: ('A' for Active; 'I' for Inactive)
REMARK    1  A    between atoms: C2_2  and  N1_4 
REMARK    2  A    between atoms: C2_2  and  C10_11 
ROOT
HETATM    1  N1  UNL     1     -30.641 -13.085  19.795  1.00  0.00    -0.388 N 
HETATM    2  C4  UNL     1     -30.445 -12.583  21.088  1.00  0.00     0.080 C 
HETATM    3  C5  UNL     1     -29.366 -11.534  20.863  1.00  0.00     0.027 C 
HETATM    4  C6  UNL     1     -28.575 -12.150  19.711  1.00  0.00     0.027 C 
HETATM    5  C7  UNL     1     -29.351 -13.430  19.384  1.00  0.00     0.080 C 
HETATM    6  C8  UNL     1     -28.969 -14.403  20.513  1.00  0.00     0.027 C 
HETATM    7  C9  UNL     1     -29.687 -13.758  21.712  1.00  0.00     0.027 C 
ENDROOT
BRANCH   1   8
HETATM    8  C2  UNL     1     -31.683 -12.811  18.994  1.00  0.00     0.119 C 
HETATM    9  C1  UNL     1     -31.193 -12.374  17.602  1.00  0.00     0.047 C 
HETATM   10  C3  UNL     1     -32.718 -11.814  19.432  1.00  0.00     0.047 C 
BRANCH   8  11
HETATM   11  C10 UNL     1     -32.461 -14.110  18.702  1.00  0.00     0.411 C 
HETATM   12  F1  UNL     1     -31.693 -15.010  18.001  1.00  0.00    -0.168 F 
HETATM   13  F2  UNL     1     -33.599 -13.841  17.964  1.00  0.00    -0.168 F 
HETATM   14  F3  UNL     1     -32.860 -14.703  19.877  1.00  0.00    -0.168 F 
ENDBRANCH   8  11
ENDBRANCH   1   8
TORSDOF 2
ENDMDL
