MODEL 1
REMARK VINA RESULT: -7.918505263      0.000      0.000
REMARK  2 active torsions:
REMARK  status: ('A' for Active; 'I' for Inactive)
REMARK    1  A    between atoms: C5_8  and  C6_9 
REMARK    2  A    between atoms: C11_17  and  C12_18 
ROOT
HETATM    1 CL1  UNL     1     -13.808  20.466  -9.269  1.00  0.00    -0.082 Cl
HETATM    2  C1  UNL     1     -12.895  19.063  -8.735  1.00  0.00     0.060 A 
HETATM    3  C2  UNL     1     -12.320  19.160  -7.474  1.00  0.00     0.030 A 
HETATM    4  C3  UNL     1     -11.583  18.102  -7.017  1.00  0.00     0.052 A 
HETATM    5  C4  UNL     1     -11.447  16.997  -7.825  1.00  0.00     0.128 A 
HETATM    6  N1  UNL     1     -10.785  15.823  -7.641  1.00  0.00    -0.329 N 
ATOM      7  H1  UNL     1     -10.251  15.566  -6.812  1.00  0.00     0.168 HD
HETATM    8  C5  UNL     1     -10.952  15.063  -8.728  1.00  0.00     0.102 A 
HETATM    9  N2  UNL     1     -11.704  15.775  -9.551  1.00  0.00    -0.280 N 
ATOM     10  H2  UNL     1     -11.999  15.447 -10.470  1.00  0.00     0.189 HD
HETATM   11  N3  UNL     1     -12.029  16.938  -9.062  1.00  0.00    -0.239 N 
HETATM   12  C11 UNL     1     -12.757  17.954  -9.542  1.00  0.00     0.088 A 
ENDROOT
BRANCH  12  13
HETATM   13  C12 UNL     1     -13.395  17.923 -10.840  1.00  0.00     0.240 C 
HETATM   14  C13 UNL     1     -14.843  17.508 -10.870  1.00  0.00     0.042 C 
HETATM   15  C14 UNL     1     -15.096  17.670 -12.388  1.00  0.00     0.041 C 
HETATM   16  C15 UNL     1     -14.321  18.965 -12.676  1.00  0.00     0.127 C 
HETATM   17  C16 UNL     1     -15.230  20.144 -12.824  1.00  0.00     0.041 C 
HETATM   18  C21 UNL     1     -13.467  18.723 -13.877  1.00  0.00     0.047 C 
HETATM   19  N5  UNL     1     -13.476  19.202 -11.520  1.00  0.00    -0.057 N 
HETATM   20  C17 UNL     1     -14.986  20.973 -14.034  1.00  0.00     0.036 C 
HETATM   21  C18 UNL     1     -13.555  21.148 -14.419  1.00  0.00     0.191 C 
HETATM   22  N4  UNL     1     -13.397  20.972 -15.851  1.00  0.00    -0.070 N 
HETATM   23  C20 UNL     1     -12.679  19.967 -14.179  1.00  0.00     0.044 C 
HETATM   24  C19 UNL     1     -12.289  20.096 -15.628  1.00  0.00     0.239 C 
ATOM     25  H42 UNL     1     -14.188  20.658 -16.415  1.00  0.00     0.277 HD
ATOM     26  H41 UNL     1     -13.288  21.787 -16.455  1.00  0.00     0.277 HD
ATOM     27  H52 UNL     1     -13.798  19.965 -10.924  1.00  0.00     0.279 HD
ATOM     28  H51 UNL     1     -12.567  19.605 -11.749  1.00  0.00     0.279 HD
ENDBRANCH  12  13
BRANCH   8  29
HETATM   29  C6  UNL     1     -10.369  13.704  -8.885  1.00  0.00     0.055 C 
HETATM   30  C7  UNL     1     -11.395  12.666  -9.187  1.00  0.00     0.012 C 
HETATM   31  C8  UNL     1     -10.578  11.539  -9.779  1.00  0.00     0.001 C 
HETATM   32  C9  UNL     1      -9.266  12.145 -10.236  1.00  0.00     0.001 C 
HETATM   33  C10 UNL     1      -9.459  13.646 -10.108  1.00  0.00     0.012 C 
ENDBRANCH   8  29
TORSDOF 2
ENDMDL
MODEL 2
REMARK VINA RESULT: -7.619585942      1.916      7.679
REMARK  2 active torsions:
REMARK  status: ('A' for Active; 'I' for Inactive)
REMARK    1  A    between atoms: C5_8  and  C6_9 
REMARK    2  A    between atoms: C11_17  and  C12_18 
ROOT
HETATM    1 CL1  UNL     1     -15.194  16.479 -10.354  1.00  0.00    -0.082 Cl
HETATM    2  C1  UNL     1     -14.551  17.427 -11.686  1.00  0.00     0.060 A 
HETATM    3  C2  UNL     1     -15.455  17.756 -12.687  1.00  0.00     0.030 A 
HETATM    4  C3  UNL     1     -15.002  18.479 -13.757  1.00  0.00     0.052 A 
HETATM    5  C4  UNL     1     -13.676  18.843 -13.789  1.00  0.00     0.128 A 
HETATM    6  N1  UNL     1     -12.958  19.545 -14.705  1.00  0.00    -0.329 N 
ATOM      7  H1  UNL     1     -13.323  19.939 -15.572  1.00  0.00     0.168 HD
HETATM    8  C5  UNL     1     -11.693  19.634 -14.281  1.00  0.00     0.102 A 
HETATM    9  N2  UNL     1     -11.658  18.993 -13.125  1.00  0.00    -0.280 N 
ATOM     10  H2  UNL     1     -10.814  18.895 -12.561  1.00  0.00     0.189 HD
HETATM   11  N3  UNL     1     -12.814  18.501 -12.783  1.00  0.00    -0.239 N 
HETATM   12  C11 UNL     1     -13.222  17.794 -11.721  1.00  0.00     0.088 A 
ENDROOT
BRANCH  12  13
HETATM   13  C12 UNL     1     -12.343  17.423 -10.634  1.00  0.00     0.240 C 
HETATM   14  C13 UNL     1     -12.348  18.321  -9.425  1.00  0.00     0.042 C 
HETATM   15  C14 UNL     1     -11.345  17.533  -8.550  1.00  0.00     0.041 C 
HETATM   16  C15 UNL     1     -11.775  16.088  -8.844  1.00  0.00     0.127 C 
HETATM   17  C16 UNL     1     -12.571  15.498  -7.724  1.00  0.00     0.041 C 
HETATM   18  C21 UNL     1     -10.544  15.307  -9.168  1.00  0.00     0.047 C 
HETATM   19  N5  UNL     1     -12.634  16.145 -10.012  1.00  0.00    -0.057 N 
HETATM   20  C17 UNL     1     -12.117  14.157  -7.271  1.00  0.00     0.036 C 
HETATM   21  C18 UNL     1     -11.650  13.236  -8.349  1.00  0.00     0.191 C 
HETATM   22  N4  UNL     1     -10.421  12.577  -7.946  1.00  0.00    -0.070 N 
HETATM   23  C20 UNL     1     -10.929  13.887  -9.478  1.00  0.00     0.044 C 
HETATM   24  C19 UNL     1      -9.830  12.893  -9.209  1.00  0.00     0.239 C 
ATOM     25  H42 UNL     1      -9.955  12.855  -7.082  1.00  0.00     0.277 HD
ATOM     26  H41 UNL     1     -10.445  11.609  -7.624  1.00  0.00     0.277 HD
ATOM     27  H52 UNL     1     -13.622  16.004  -9.804  1.00  0.00     0.279 HD
ATOM     28  H51 UNL     1     -12.530  15.348 -10.641  1.00  0.00     0.279 HD
ENDBRANCH  12  13
BRANCH   8  29
HETATM   29  C6  UNL     1     -10.617  20.335 -15.030  1.00  0.00     0.055 C 
HETATM   30  C7  UNL     1     -11.013  20.686 -16.423  1.00  0.00     0.012 C 
HETATM   31  C8  UNL     1     -10.030  21.774 -16.796  1.00  0.00     0.001 C 
HETATM   32  C9  UNL     1      -9.474  22.323 -15.498  1.00  0.00     0.001 C 
HETATM   33  C10 UNL     1     -10.327  21.697 -14.407  1.00  0.00     0.012 C 
ENDBRANCH   8  29
TORSDOF 2
ENDMDL
MODEL 3
REMARK VINA RESULT: -7.575073565      1.570      2.611
REMARK  2 active torsions:
REMARK  status: ('A' for Active; 'I' for Inactive)
REMARK    1  A    between atoms: C5_8  and  C6_9 
REMARK    2  A    between atoms: C11_17  and  C12_18 
ROOT
HETATM    1 CL1  UNL     1     -12.497  20.613  -6.484  1.00  0.00    -0.082 Cl
HETATM    2  C1  UNL     1     -12.037  18.932  -6.708  1.00  0.00     0.060 A 
HETATM    3  C2  UNL     1     -11.622  18.261  -5.566  1.00  0.00     0.030 A 
HETATM    4  C3  UNL     1     -11.236  16.954  -5.687  1.00  0.00     0.052 A 
HETATM    5  C4  UNL     1     -11.276  16.370  -6.932  1.00  0.00     0.128 A 
HETATM    6  N1  UNL     1     -10.956  15.116  -7.349  1.00  0.00    -0.329 N 
ATOM      7  H1  UNL     1     -10.613  14.361  -6.755  1.00  0.00     0.168 HD
HETATM    8  C5  UNL     1     -11.166  15.036  -8.667  1.00  0.00     0.102 A 
HETATM    9  N2  UNL     1     -11.606  16.228  -9.032  1.00  0.00    -0.280 N 
ATOM     10  H2  UNL     1     -11.854  16.468  -9.992  1.00  0.00     0.189 HD
HETATM   11  N3  UNL     1     -11.692  17.064  -8.037  1.00  0.00    -0.239 N 
HETATM   12  C11 UNL     1     -12.077  18.344  -7.954  1.00  0.00     0.088 A 
ENDROOT
BRANCH  12  13
HETATM   13  C12 UNL     1     -12.532  19.106  -9.097  1.00  0.00     0.240 C 
HETATM   14  C13 UNL     1     -11.687  20.286  -9.501  1.00  0.00     0.042 C 
HETATM   15  C14 UNL     1     -12.498  20.735 -10.740  1.00  0.00     0.041 C 
HETATM   16  C15 UNL     1     -12.852  19.376 -11.363  1.00  0.00     0.127 C 
HETATM   17  C16 UNL     1     -12.002  19.065 -12.553  1.00  0.00     0.041 C 
HETATM   18  C21 UNL     1     -14.314  19.387 -11.668  1.00  0.00     0.047 C 
HETATM   19  N5  UNL     1     -12.575  18.375 -10.349  1.00  0.00    -0.057 N 
HETATM   20  C17 UNL     1     -12.753  18.629 -13.761  1.00  0.00     0.036 C 
HETATM   21  C18 UNL     1     -13.935  17.756 -13.505  1.00  0.00     0.191 C 
HETATM   22  N4  UNL     1     -15.062  18.193 -14.309  1.00  0.00    -0.070 N 
HETATM   23  C20 UNL     1     -14.701  18.063 -12.266  1.00  0.00     0.044 C 
HETATM   24  C19 UNL     1     -15.912  18.137 -13.160  1.00  0.00     0.239 C 
ATOM     25  H42 UNL     1     -14.996  19.055 -14.851  1.00  0.00     0.277 HD
ATOM     26  H41 UNL     1     -15.315  17.680 -15.154  1.00  0.00     0.277 HD
ATOM     27  H52 UNL     1     -11.737  17.823 -10.534  1.00  0.00     0.279 HD
ATOM     28  H51 UNL     1     -13.233  17.595 -10.349  1.00  0.00     0.279 HD
ENDBRANCH  12  13
BRANCH   8  29
HETATM   29  C6  UNL     1     -10.924  13.809  -9.470  1.00  0.00     0.055 C 
HETATM   30  C7  UNL     1      -9.526  13.715  -9.978  1.00  0.00     0.012 C 
HETATM   31  C8  UNL     1      -9.376  12.245 -10.301  1.00  0.00     0.001 C 
HETATM   32  C9  UNL     1     -10.458  11.517  -9.530  1.00  0.00     0.001 C 
HETATM   33  C10 UNL     1     -11.052  12.562  -8.601  1.00  0.00     0.012 C 
ENDBRANCH   8  29
TORSDOF 2
ENDMDL
MODEL 4
REMARK VINA RESULT: -7.394412711      1.730      2.743
REMARK  2 active torsions:
REMARK  status: ('A' for Active; 'I' for Inactive)
REMARK    1  A    between atoms: C5_8  and  C6_9 
REMARK    2  A    between atoms: C11_17  and  C12_18 
ROOT
HETATM    1 CL1  UNL     1     -12.051  20.628  -6.494  1.00  0.00    -0.082 Cl
HETATM    2  C1  UNL     1     -11.777  18.908  -6.725  1.00  0.00     0.060 A 
HETATM    3  C2  UNL     1     -11.602  18.163  -5.566  1.00  0.00     0.030 A 
HETATM    4  C3  UNL     1     -11.367  16.820  -5.690  1.00  0.00     0.052 A 
HETATM    5  C4  UNL     1     -11.316  16.276  -6.952  1.00  0.00     0.128 A 
HETATM    6  N1  UNL     1     -11.102  15.001  -7.374  1.00  0.00    -0.329 N 
ATOM      7  H1  UNL     1     -10.936  14.195  -6.772  1.00  0.00     0.168 HD
HETATM    8  C5  UNL     1     -11.145  14.980  -8.710  1.00  0.00     0.102 A 
HETATM    9  N2  UNL     1     -11.383  16.227  -9.080  1.00  0.00    -0.280 N 
ATOM     10  H2  UNL     1     -11.470  16.519 -10.054  1.00  0.00     0.189 HD
HETATM   11  N3  UNL     1     -11.494  17.043  -8.072  1.00  0.00    -0.239 N 
HETATM   12  C11 UNL     1     -11.725  18.359  -7.988  1.00  0.00     0.088 A 
ENDROOT
BRANCH  12  13
HETATM   13  C12 UNL     1     -11.928  19.199  -9.148  1.00  0.00     0.240 C 
HETATM   14  C13 UNL     1     -10.767  19.331 -10.098  1.00  0.00     0.042 C 
HETATM   15  C14 UNL     1     -11.439  20.236 -11.158  1.00  0.00     0.041 C 
HETATM   16  C15 UNL     1     -12.843  19.615 -11.222  1.00  0.00     0.127 C 
HETATM   17  C16 UNL     1     -13.028  18.767 -12.440  1.00  0.00     0.041 C 
HETATM   18  C21 UNL     1     -13.833  20.728 -11.123  1.00  0.00     0.047 C 
HETATM   19  N5  UNL     1     -12.963  18.753 -10.061  1.00  0.00    -0.057 N 
HETATM   20  C17 UNL     1     -14.263  19.048 -13.217  1.00  0.00     0.036 C 
HETATM   21  C18 UNL     1     -15.475  19.373 -12.407  1.00  0.00     0.191 C 
HETATM   22  N4  UNL     1     -16.169  20.511 -12.982  1.00  0.00    -0.070 N 
HETATM   23  C20 UNL     1     -15.223  20.156 -11.166  1.00  0.00     0.044 C 
HETATM   24  C19 UNL     1     -16.255  21.119 -11.691  1.00  0.00     0.239 C 
ATOM     25  H42 UNL     1     -15.749  21.023 -13.759  1.00  0.00     0.277 HD
ATOM     26  H41 UNL     1     -17.015  20.365 -13.533  1.00  0.00     0.277 HD
ATOM     27  H52 UNL     1     -12.918  17.758 -10.281  1.00  0.00     0.279 HD
ATOM     28  H51 UNL     1     -13.898  18.742  -9.651  1.00  0.00     0.279 HD
ENDBRANCH  12  13
BRANCH   8  29
HETATM   29  C6  UNL     1     -10.953  13.751  -9.525  1.00  0.00     0.055 C 
HETATM   30  C7  UNL     1      -9.555  13.594 -10.018  1.00  0.00     0.012 C 
HETATM   31  C8  UNL     1      -9.473  12.122 -10.355  1.00  0.00     0.001 C 
HETATM   32  C9  UNL     1     -10.598  11.440  -9.605  1.00  0.00     0.001 C 
HETATM   33  C10 UNL     1     -11.152  12.503  -8.671  1.00  0.00     0.012 C 
ENDBRANCH   8  29
TORSDOF 2
ENDMDL
MODEL 5
REMARK VINA RESULT: -7.338280757      1.781      2.675
REMARK  2 active torsions:
REMARK  status: ('A' for Active; 'I' for Inactive)
REMARK    1  A    between atoms: C5_8  and  C6_9 
REMARK    2  A    between atoms: C11_17  and  C12_18 
ROOT
HETATM    1 CL1  UNL     1     -12.823  21.285  -6.917  1.00  0.00    -0.082 Cl
HETATM    2  C1  UNL     1     -12.271  19.624  -6.755  1.00  0.00     0.060 A 
HETATM    3  C2  UNL     1     -12.054  19.183  -5.456  1.00  0.00     0.030 A 
HETATM    4  C3  UNL     1     -11.607  17.903  -5.273  1.00  0.00     0.052 A 
HETATM    5  C4  UNL     1     -11.394  17.117  -6.382  1.00  0.00     0.128 A 
HETATM    6  N1  UNL     1     -10.959  15.835  -6.506  1.00  0.00    -0.329 N 
ATOM      7  H1  UNL     1     -10.707  15.215  -5.737  1.00  0.00     0.168 HD
HETATM    8  C5  UNL     1     -10.916  15.521  -7.805  1.00  0.00     0.102 A 
HETATM    9  N2  UNL     1     -11.321  16.604  -8.448  1.00  0.00    -0.280 N 
ATOM     10  H2  UNL     1     -11.393  16.662  -9.464  1.00  0.00     0.189 HD
HETATM   11  N3  UNL     1     -11.620  17.587  -7.648  1.00  0.00    -0.239 N 
HETATM   12  C11 UNL     1     -12.057  18.834  -7.864  1.00  0.00     0.088 A 
ENDROOT
BRANCH  12  13
HETATM   13  C12 UNL     1     -12.316  19.361  -9.186  1.00  0.00     0.240 C 
HETATM   14  C13 UNL     1     -11.177  20.080  -9.861  1.00  0.00     0.042 C 
HETATM   15  C14 UNL     1     -11.874  20.402 -11.204  1.00  0.00     0.041 C 
HETATM   16  C15 UNL     1     -12.647  19.097 -11.451  1.00  0.00     0.127 C 
HETATM   17  C16 UNL     1     -11.987  18.237 -12.481  1.00  0.00     0.041 C 
HETATM   18  C21 UNL     1     -14.052  19.464 -11.801  1.00  0.00     0.047 C 
HETATM   19  N5  UNL     1     -12.635  18.370 -10.195  1.00  0.00    -0.057 N 
HETATM   20  C17 UNL     1     -12.889  17.740 -13.553  1.00  0.00     0.036 C 
HETATM   21  C18 UNL     1     -14.265  17.364 -13.115  1.00  0.00     0.191 C 
HETATM   22  N4  UNL     1     -15.246  17.888 -14.049  1.00  0.00    -0.070 N 
HETATM   23  C20 UNL     1     -14.845  18.208 -12.035  1.00  0.00     0.044 C 
HETATM   24  C19 UNL     1     -16.018  18.400 -12.959  1.00  0.00     0.239 C 
ATOM     25  H42 UNL     1     -14.951  18.512 -14.800  1.00  0.00     0.277 HD
ATOM     26  H41 UNL     1     -15.680  17.267 -14.732  1.00  0.00     0.277 HD
ATOM     27  H52 UNL     1     -12.011  17.564 -10.192  1.00  0.00     0.279 HD
ATOM     28  H51 UNL     1     -13.496  17.854 -10.009  1.00  0.00     0.279 HD
ENDBRANCH  12  13
BRANCH   8  29
HETATM   29  C6  UNL     1     -10.486  14.195  -8.323  1.00  0.00     0.055 C 
HETATM   30  C7  UNL     1     -11.633  13.316  -8.688  1.00  0.00     0.012 C 
HETATM   31  C8  UNL     1     -11.004  12.296  -9.611  1.00  0.00     0.001 C 
HETATM   32  C9  UNL     1      -9.709  12.903 -10.111  1.00  0.00     0.001 C 
HETATM   33  C10 UNL     1      -9.744  14.349  -9.646  1.00  0.00     0.012 C 
ENDBRANCH   8  29
TORSDOF 2
ENDMDL
