MODEL 1
REMARK VINA RESULT: -7.121604869      0.000      0.000
REMARK  1 active torsions:
REMARK  status: ('A' for Active; 'I' for Inactive)
REMARK    1  A    between atoms: C4_4  and  C5_5 
ROOT
HETATM    1  C1  UNL     1      32.140  66.587  41.747  1.00  0.00     0.000 A 
HETATM    2  C2  UNL     1      31.054  67.278  42.247  1.00  0.00     0.001 A 
HETATM    3  C3  UNL     1      30.353  66.685  43.276  1.00  0.00     0.012 A 
HETATM    4  C4  UNL     1      30.702  65.457  43.797  1.00  0.00    -0.025 A 
HETATM    5  C9  UNL     1      31.788  64.759  43.303  1.00  0.00     0.012 A 
HETATM    6  C10 UNL     1      32.496  65.355  42.266  1.00  0.00     0.001 A 
ENDROOT
BRANCH   4   7
HETATM    7  C5  UNL     1      29.906  64.856  44.888  1.00  0.00    -0.009 A 
HETATM    8  C6  UNL     1      28.769  64.073  44.689  1.00  0.00     0.030 A 
HETATM    9  C7  UNL     1      28.294  63.690  45.928  1.00  0.00     0.088 A 
HETATM   10  N1  UNL     1      29.132  64.231  46.833  1.00  0.00    -0.374 N 
HETATM   11  C8  UNL     1      30.109  64.937  46.232  1.00  0.00     0.100 A 
ATOM     12  H1  UNL     1      29.039  64.121  47.844  1.00  0.00     0.164 HD
ENDBRANCH   4   7
TORSDOF 1
ENDMDL
MODEL 2
REMARK VINA RESULT: -7.082382569      0.074      1.451
REMARK  1 active torsions:
REMARK  status: ('A' for Active; 'I' for Inactive)
REMARK    1  A    between atoms: C4_4  and  C5_5 
ROOT
HETATM    1  C1  UNL     1      32.147  66.634  41.791  1.00  0.00     0.000 A 
HETATM    2  C2  UNL     1      32.529  65.400  42.282  1.00  0.00     0.001 A 
HETATM    3  C3  UNL     1      31.752  64.855  43.282  1.00  0.00     0.012 A 
HETATM    4  C4  UNL     1      30.640  65.496  43.786  1.00  0.00    -0.025 A 
HETATM    5  C9  UNL     1      30.250  66.731  43.300  1.00  0.00     0.012 A 
HETATM    6  C10 UNL     1      31.033  67.281  42.291  1.00  0.00     0.001 A 
ENDROOT
BRANCH   4   7
HETATM    7  C5  UNL     1      29.851  64.878  44.873  1.00  0.00    -0.009 A 
HETATM    8  C6  UNL     1      28.697  64.121  44.670  1.00  0.00     0.030 A 
HETATM    9  C7  UNL     1      28.235  63.712  45.906  1.00  0.00     0.088 A 
HETATM   10  N1  UNL     1      29.096  64.212  46.812  1.00  0.00    -0.374 N 
HETATM   11  C8  UNL     1      30.076  64.918  46.215  1.00  0.00     0.100 A 
ATOM     12  H1  UNL     1      29.018  64.075  47.820  1.00  0.00     0.164 HD
ENDBRANCH   4   7
TORSDOF 1
ENDMDL
MODEL 3
REMARK VINA RESULT: -7.069054500      1.276      2.082
REMARK  1 active torsions:
REMARK  status: ('A' for Active; 'I' for Inactive)
REMARK    1  A    between atoms: C4_4  and  C5_5 
ROOT
HETATM    1  C1  UNL     1      34.059  65.145  43.022  1.00  0.00     0.000 A 
HETATM    2  C2  UNL     1      33.864  64.350  44.134  1.00  0.00     0.001 A 
HETATM    3  C3  UNL     1      32.584  64.290  44.647  1.00  0.00     0.012 A 
HETATM    4  C4  UNL     1      31.533  64.987  44.090  1.00  0.00    -0.025 A 
HETATM    5  C9  UNL     1      31.719  65.784  42.976  1.00  0.00     0.012 A 
HETATM    6  C10 UNL     1      33.007  65.845  42.458  1.00  0.00     0.001 A 
ENDROOT
BRANCH   4   7
HETATM    7  C5  UNL     1      30.184  64.905  44.689  1.00  0.00    -0.009 A 
HETATM    8  C6  UNL     1      29.212  63.979  44.307  1.00  0.00     0.030 A 
HETATM    9  C7  UNL     1      28.087  64.202  45.078  1.00  0.00     0.088 A 
HETATM   10  N1  UNL     1      28.390  65.230  45.894  1.00  0.00    -0.374 N 
HETATM   11  C8  UNL     1      29.645  65.670  45.678  1.00  0.00     0.100 A 
ATOM     12  H1  UNL     1      27.753  65.625  46.586  1.00  0.00     0.164 HD
ENDBRANCH   4   7
TORSDOF 1
ENDMDL
MODEL 4
REMARK VINA RESULT: -7.046029188      1.260      1.657
REMARK  1 active torsions:
REMARK  status: ('A' for Active; 'I' for Inactive)
REMARK    1  A    between atoms: C4_4  and  C5_5 
ROOT
HETATM    1  C1  UNL     1      34.026  65.180  42.986  1.00  0.00     0.000 A 
HETATM    2  C2  UNL     1      32.987  65.888  42.415  1.00  0.00     0.001 A 
HETATM    3  C3  UNL     1      31.749  65.777  43.013  1.00  0.00     0.012 A 
HETATM    4  C4  UNL     1      31.535  64.997  44.130  1.00  0.00    -0.025 A 
HETATM    5  C9  UNL     1      32.570  64.285  44.708  1.00  0.00     0.012 A 
HETATM    6  C10 UNL     1      33.818  64.397  44.107  1.00  0.00     0.001 A 
ENDROOT
BRANCH   4   7
HETATM    7  C5  UNL     1      30.184  64.896  44.722  1.00  0.00    -0.009 A 
HETATM    8  C6  UNL     1      29.222  63.968  44.324  1.00  0.00     0.030 A 
HETATM    9  C7  UNL     1      28.092  64.171  45.093  1.00  0.00     0.088 A 
HETATM   10  N1  UNL     1      28.384  65.191  45.924  1.00  0.00    -0.374 N 
HETATM   11  C8  UNL     1      29.635  65.644  45.719  1.00  0.00     0.100 A 
ATOM     12  H1  UNL     1      27.740  65.571  46.618  1.00  0.00     0.164 HD
ENDBRANCH   4   7
TORSDOF 1
ENDMDL
MODEL 5
REMARK VINA RESULT: -6.812618443      2.202      4.608
REMARK  1 active torsions:
REMARK  status: ('A' for Active; 'I' for Inactive)
REMARK    1  A    between atoms: C4_4  and  C5_5 
ROOT
HETATM    1  C1  UNL     1      28.422  64.060  46.147  1.00  0.00     0.000 A 
HETATM    2  C2  UNL     1      28.469  63.829  44.786  1.00  0.00     0.001 A 
HETATM    3  C3  UNL     1      29.649  64.130  44.139  1.00  0.00     0.012 A 
HETATM    4  C4  UNL     1      30.745  64.642  44.800  1.00  0.00    -0.025 A 
HETATM    5  C9  UNL     1      30.707  64.876  46.163  1.00  0.00     0.012 A 
HETATM    6  C10 UNL     1      29.518  64.572  46.816  1.00  0.00     0.001 A 
ENDROOT
BRANCH   4   7
HETATM    7  C5  UNL     1      31.981  64.966  44.057  1.00  0.00    -0.009 A 
HETATM    8  C6  UNL     1      33.194  64.296  44.223  1.00  0.00     0.030 A 
HETATM    9  C7  UNL     1      34.116  64.870  43.369  1.00  0.00     0.088 A 
HETATM   10  N1  UNL     1      33.462  65.849  42.716  1.00  0.00    -0.374 N 
HETATM   11  C8  UNL     1      32.177  65.927  43.113  1.00  0.00     0.100 A 
ATOM     12  H1  UNL     1      33.885  66.455  42.011  1.00  0.00     0.164 HD
ENDBRANCH   4   7
TORSDOF 1
ENDMDL
