MODEL 1
REMARK VINA RESULT: -7.548108030      0.000      0.000
REMARK  1 active torsions:
REMARK  status: ('A' for Active; 'I' for Inactive)
REMARK    1  A    between atoms: C4_4  and  C5_5 
ROOT
HETATM    1  C5  UNL     1      29.123  65.753  45.017  1.00  0.00    -0.036 A 
HETATM    2  C6  UNL     1      28.440  64.598  44.791  1.00  0.00     0.011 A 
HETATM    3  C7  UNL     1      28.333  63.685  45.837  1.00  0.00     0.001 A 
HETATM    4  C8  UNL     1      28.895  63.919  47.083  1.00  0.00     0.000 A 
HETATM    5  C9  UNL     1      29.575  65.099  47.265  1.00  0.00     0.001 A 
HETATM    6  C10 UNL     1      29.699  66.022  46.249  1.00  0.00     0.011 A 
ENDROOT
BRANCH   1   7
HETATM    7  C4  UNL     1      29.278  66.749  43.958  1.00  0.00     0.019 C 
HETATM    8  C3  UNL     1      30.307  66.767  43.147  1.00  0.00    -0.054 A 
HETATM    9  C2  UNL     1      31.526  65.992  42.937  1.00  0.00     0.004 A 
HETATM   10  C11 UNL     1      30.708  67.647  41.997  1.00  0.00     0.065 A 
HETATM   11  C1  UNL     1      31.891  66.759  41.923  1.00  0.00    -0.022 A 
ENDBRANCH   1   7
TORSDOF 1
ENDMDL
MODEL 2
REMARK VINA RESULT: -7.514982733      0.052      1.436
REMARK  1 active torsions:
REMARK  status: ('A' for Active; 'I' for Inactive)
REMARK    1  A    between atoms: C4_4  and  C5_5 
ROOT
HETATM    1  C5  UNL     1      29.178  65.799  45.059  1.00  0.00    -0.036 A 
HETATM    2  C6  UNL     1      29.736  66.034  46.278  1.00  0.00     0.011 A 
HETATM    3  C7  UNL     1      29.585  65.064  47.265  1.00  0.00     0.001 A 
HETATM    4  C8  UNL     1      28.891  63.884  47.041  1.00  0.00     0.000 A 
HETATM    5  C9  UNL     1      28.345  63.690  45.795  1.00  0.00     0.001 A 
HETATM    6  C10 UNL     1      28.477  64.632  44.798  1.00  0.00     0.011 A 
ENDROOT
BRANCH   1   7
HETATM    7  C4  UNL     1      29.295  66.781  43.982  1.00  0.00     0.019 C 
HETATM    8  C3  UNL     1      30.309  66.805  43.151  1.00  0.00    -0.054 A 
HETATM    9  C2  UNL     1      31.539  66.049  42.932  1.00  0.00     0.004 A 
HETATM   10  C11 UNL     1      30.673  67.673  41.980  1.00  0.00     0.065 A 
HETATM   11  C1  UNL     1      31.871  66.806  41.900  1.00  0.00    -0.022 A 
ENDBRANCH   1   7
TORSDOF 1
ENDMDL
MODEL 3
REMARK VINA RESULT: -7.431652275      2.100      4.458
REMARK  1 active torsions:
REMARK  status: ('A' for Active; 'I' for Inactive)
REMARK    1  A    between atoms: C4_4  and  C5_5 
ROOT
HETATM    1  C5  UNL     1      30.466  66.446  43.969  1.00  0.00    -0.036 A 
HETATM    2  C6  UNL     1      30.787  67.251  42.919  1.00  0.00     0.011 A 
HETATM    3  C7  UNL     1      31.731  66.790  42.006  1.00  0.00     0.001 A 
HETATM    4  C8  UNL     1      32.343  65.552  42.136  1.00  0.00     0.000 A 
HETATM    5  C9  UNL     1      31.987  64.774  43.210  1.00  0.00     0.001 A 
HETATM    6  C10 UNL     1      31.057  65.202  44.132  1.00  0.00     0.011 A 
ENDROOT
BRANCH   1   7
HETATM    7  C4  UNL     1      29.487  66.874  44.967  1.00  0.00     0.019 C 
HETATM    8  C3  UNL     1      29.779  67.713  45.931  1.00  0.00    -0.054 A 
HETATM    9  C2  UNL     1      30.944  68.464  46.389  1.00  0.00     0.004 A 
HETATM   10  C11 UNL     1      28.989  68.314  47.059  1.00  0.00     0.065 A 
HETATM   11  C1  UNL     1      30.260  69.000  47.386  1.00  0.00    -0.022 A 
ENDBRANCH   1   7
TORSDOF 1
ENDMDL
MODEL 4
REMARK VINA RESULT: -7.423986785      2.531      4.787
REMARK  1 active torsions:
REMARK  status: ('A' for Active; 'I' for Inactive)
REMARK    1  A    between atoms: C4_4  and  C5_5 
ROOT
HETATM    1  C5  UNL     1      31.988  67.343  44.440  1.00  0.00    -0.036 A 
HETATM    2  C6  UNL     1      31.358  67.560  43.254  1.00  0.00     0.011 A 
HETATM    3  C7  UNL     1      31.561  66.640  42.227  1.00  0.00     0.001 A 
HETATM    4  C8  UNL     1      32.374  65.527  42.382  1.00  0.00     0.000 A 
HETATM    5  C9  UNL     1      32.989  65.350  43.598  1.00  0.00     0.001 A 
HETATM    6  C10 UNL     1      32.809  66.243  44.632  1.00  0.00     0.011 A 
ENDROOT
BRANCH   1   7
HETATM    7  C4  UNL     1      31.823  68.275  45.555  1.00  0.00     0.019 C 
HETATM    8  C3  UNL     1      30.730  68.330  46.277  1.00  0.00    -0.054 A 
HETATM    9  C2  UNL     1      29.436  67.655  46.324  1.00  0.00     0.004 A 
HETATM   10  C11 UNL     1      30.302  69.161  47.453  1.00  0.00     0.065 A 
HETATM   11  C1  UNL     1      29.048  68.380  47.359  1.00  0.00    -0.022 A 
ENDBRANCH   1   7
TORSDOF 1
ENDMDL
MODEL 5
REMARK VINA RESULT: -7.419661394      2.099      4.412
REMARK  1 active torsions:
REMARK  status: ('A' for Active; 'I' for Inactive)
REMARK    1  A    between atoms: C4_4  and  C5_5 
ROOT
HETATM    1  C5  UNL     1      30.468  66.399  44.022  1.00  0.00    -0.036 A 
HETATM    2  C6  UNL     1      31.032  65.168  44.158  1.00  0.00     0.011 A 
HETATM    3  C7  UNL     1      31.958  64.763  43.200  1.00  0.00     0.001 A 
HETATM    4  C8  UNL     1      32.314  65.569  42.129  1.00  0.00     0.000 A 
HETATM    5  C9  UNL     1      31.719  66.804  42.033  1.00  0.00     0.001 A 
HETATM    6  C10 UNL     1      30.799  67.233  42.965  1.00  0.00     0.011 A 
ENDROOT
BRANCH   1   7
HETATM    7  C4  UNL     1      29.483  66.881  44.990  1.00  0.00     0.019 C 
HETATM    8  C3  UNL     1      29.781  67.736  45.938  1.00  0.00    -0.054 A 
HETATM    9  C2  UNL     1      30.959  68.464  46.400  1.00  0.00     0.004 A 
HETATM   10  C11 UNL     1      28.988  68.389  47.034  1.00  0.00     0.065 A 
HETATM   11  C1  UNL     1      30.273  69.046  47.369  1.00  0.00    -0.022 A 
ENDBRANCH   1   7
TORSDOF 1
ENDMDL
