MODEL 1
REMARK VINA RESULT: -7.088657443      0.000      0.000
REMARK  1 active torsions:
REMARK  status: ('A' for Active; 'I' for Inactive)
REMARK    1  A    between atoms: C4_4  and  C5_5 
ROOT
HETATM    1  C1  UNL     1      32.143  66.614  41.749  1.00  0.00     0.000 A 
HETATM    2  C2  UNL     1      32.473  65.382  42.275  1.00  0.00     0.001 A 
HETATM    3  C3  UNL     1      31.754  64.784  43.295  1.00  0.00     0.012 A 
HETATM    4  C4  UNL     1      30.653  65.422  43.831  1.00  0.00    -0.025 A 
HETATM    5  C9  UNL     1      30.320  66.654  43.309  1.00  0.00     0.012 A 
HETATM    6  C10 UNL     1      31.044  67.247  42.289  1.00  0.00     0.001 A 
ENDROOT
BRANCH   4   7
HETATM    7  C5  UNL     1      29.876  64.817  44.906  1.00  0.00    -0.009 A 
HETATM    8  C6  UNL     1      28.747  64.020  44.840  1.00  0.00     0.030 A 
HETATM    9  C7  UNL     1      28.337  63.664  46.099  1.00  0.00     0.088 A 
HETATM   10  N1  UNL     1      29.205  64.235  46.954  1.00  0.00    -0.374 N 
HETATM   11  C8  UNL     1      30.139  64.933  46.259  1.00  0.00     0.100 A 
ATOM     12  H1  UNL     1      29.167  64.155  47.970  1.00  0.00     0.164 HD
ENDBRANCH   4   7
TORSDOF 1
ENDMDL
MODEL 2
REMARK VINA RESULT: -7.084435700      1.281      2.066
REMARK  1 active torsions:
REMARK  status: ('A' for Active; 'I' for Inactive)
REMARK    1  A    between atoms: C4_4  and  C5_5 
ROOT
HETATM    1  C1  UNL     1      34.079  65.192  42.983  1.00  0.00     0.000 A 
HETATM    2  C2  UNL     1      32.994  65.863  42.461  1.00  0.00     0.001 A 
HETATM    3  C3  UNL     1      31.719  65.757  42.989  1.00  0.00     0.012 A 
HETATM    4  C4  UNL     1      31.490  64.952  44.087  1.00  0.00    -0.025 A 
HETATM    5  C9  UNL     1      32.573  64.278  44.613  1.00  0.00     0.012 A 
HETATM    6  C10 UNL     1      33.845  64.389  44.080  1.00  0.00     0.001 A 
ENDROOT
BRANCH   4   7
HETATM    7  C5  UNL     1      30.158  64.821  44.665  1.00  0.00    -0.009 A 
HETATM    8  C6  UNL     1      29.150  63.922  44.365  1.00  0.00     0.030 A 
HETATM    9  C7  UNL     1      28.052  64.153  45.154  1.00  0.00     0.088 A 
HETATM   10  N1  UNL     1      28.369  65.192  45.946  1.00  0.00    -0.374 N 
HETATM   11  C8  UNL     1      29.631  65.611  45.669  1.00  0.00     0.100 A 
ATOM     12  H1  UNL     1      27.755  65.604  46.649  1.00  0.00     0.164 HD
ENDBRANCH   4   7
TORSDOF 1
ENDMDL
MODEL 3
REMARK VINA RESULT: -7.083249804      1.278      1.685
REMARK  1 active torsions:
REMARK  status: ('A' for Active; 'I' for Inactive)
REMARK    1  A    between atoms: C4_4  and  C5_5 
ROOT
HETATM    1  C1  UNL     1      34.076  65.189  42.979  1.00  0.00     0.000 A 
HETATM    2  C2  UNL     1      33.832  64.396  44.080  1.00  0.00     0.001 A 
HETATM    3  C3  UNL     1      32.575  64.260  44.644  1.00  0.00     0.012 A 
HETATM    4  C4  UNL     1      31.498  64.934  44.104  1.00  0.00    -0.025 A 
HETATM    5  C9  UNL     1      31.738  65.728  43.002  1.00  0.00     0.012 A 
HETATM    6  C10 UNL     1      32.997  65.860  42.444  1.00  0.00     0.001 A 
ENDROOT
BRANCH   4   7
HETATM    7  C5  UNL     1      30.163  64.809  44.676  1.00  0.00    -0.009 A 
HETATM    8  C6  UNL     1      29.150  63.917  44.370  1.00  0.00     0.030 A 
HETATM    9  C7  UNL     1      28.051  64.153  45.155  1.00  0.00     0.088 A 
HETATM   10  N1  UNL     1      28.372  65.188  45.952  1.00  0.00    -0.374 N 
HETATM   11  C8  UNL     1      29.637  65.599  45.681  1.00  0.00     0.100 A 
ATOM     12  H1  UNL     1      27.757  65.601  46.654  1.00  0.00     0.164 HD
ENDBRANCH   4   7
TORSDOF 1
ENDMDL
MODEL 4
REMARK VINA RESULT: -7.076167212      0.049      1.419
REMARK  1 active torsions:
REMARK  status: ('A' for Active; 'I' for Inactive)
REMARK    1  A    between atoms: C4_4  and  C5_5 
ROOT
HETATM    1  C1  UNL     1      32.128  66.656  41.756  1.00  0.00     0.000 A 
HETATM    2  C2  UNL     1      31.029  67.274  42.314  1.00  0.00     0.001 A 
HETATM    3  C3  UNL     1      30.278  66.703  43.327  1.00  0.00     0.012 A 
HETATM    4  C4  UNL     1      30.620  65.461  43.824  1.00  0.00    -0.025 A 
HETATM    5  C9  UNL     1      31.718  64.839  43.269  1.00  0.00     0.012 A 
HETATM    6  C10 UNL     1      32.463  65.415  42.256  1.00  0.00     0.001 A 
ENDROOT
BRANCH   4   7
HETATM    7  C5  UNL     1      29.848  64.835  44.891  1.00  0.00    -0.009 A 
HETATM    8  C6  UNL     1      28.709  64.054  44.816  1.00  0.00     0.030 A 
HETATM    9  C7  UNL     1      28.309  63.668  46.070  1.00  0.00     0.088 A 
HETATM   10  N1  UNL     1      29.194  64.205  46.929  1.00  0.00    -0.374 N 
HETATM   11  C8  UNL     1      30.128  64.911  46.243  1.00  0.00     0.100 A 
ATOM     12  H1  UNL     1      29.167  64.097  47.944  1.00  0.00     0.164 HD
ENDBRANCH   4   7
TORSDOF 1
ENDMDL
MODEL 5
REMARK VINA RESULT: -6.791123606      2.227      4.634
REMARK  1 active torsions:
REMARK  status: ('A' for Active; 'I' for Inactive)
REMARK    1  A    between atoms: C4_4  and  C5_5 
ROOT
HETATM    1  C1  UNL     1      28.384  64.089  46.151  1.00  0.00     0.000 A 
HETATM    2  C2  UNL     1      29.493  64.593  46.797  1.00  0.00     0.001 A 
HETATM    3  C3  UNL     1      30.682  64.871  46.145  1.00  0.00     0.012 A 
HETATM    4  C4  UNL     1      30.794  64.646  44.787  1.00  0.00    -0.025 A 
HETATM    5  C9  UNL     1      29.688  64.143  44.136  1.00  0.00     0.012 A 
HETATM    6  C10 UNL     1      28.503  63.866  44.795  1.00  0.00     0.001 A 
ENDROOT
BRANCH   4   7
HETATM    7  C5  UNL     1      32.034  64.930  44.073  1.00  0.00    -0.009 A 
HETATM    8  C6  UNL     1      33.265  64.306  44.159  1.00  0.00     0.030 A 
HETATM    9  C7  UNL     1      34.162  64.895  43.305  1.00  0.00     0.088 A 
HETATM   10  N1  UNL     1      33.496  65.886  42.685  1.00  0.00    -0.374 N 
HETATM   11  C8  UNL     1      32.214  65.926  43.131  1.00  0.00     0.100 A 
ATOM     12  H1  UNL     1      33.894  66.513  41.985  1.00  0.00     0.164 HD
ENDBRANCH   4   7
TORSDOF 1
ENDMDL
