MODEL 1
REMARK VINA RESULT: -7.675716213      0.000      0.000
REMARK  1 active torsions:
REMARK  status: ('A' for Active; 'I' for Inactive)
REMARK    1  A    between atoms: C4_4  and  C5_5 
ROOT
HETATM    1  C5  UNL     1      30.734  64.605  44.825  1.00  0.00    -0.030 A 
HETATM    2  C6  UNL     1      30.606  64.793  46.183  1.00  0.00     0.012 A 
HETATM    3  C7  UNL     1      29.413  64.519  46.847  1.00  0.00     0.001 A 
HETATM    4  C8  UNL     1      28.317  64.047  46.157  1.00  0.00     0.000 A 
HETATM    5  C9  UNL     1      28.454  63.862  44.798  1.00  0.00     0.001 A 
HETATM    6  C10 UNL     1      29.636  64.133  44.142  1.00  0.00     0.012 A 
ENDROOT
BRANCH   1   7
HETATM    7  C4  UNL     1      32.004  64.896  44.113  1.00  0.00    -0.044 A 
HETATM    8  C3  UNL     1      33.300  64.223  44.330  1.00  0.00     0.066 A 
HETATM    9  C2  UNL     1      34.222  64.870  43.389  1.00  0.00    -0.022 A 
HETATM   10  C1  UNL     1      33.555  65.783  42.725  1.00  0.00    -0.003 A 
HETATM   11  C11 UNL     1      32.174  65.805  43.171  1.00  0.00     0.008 A 
ENDBRANCH   1   7
TORSDOF 1
ENDMDL
MODEL 2
REMARK VINA RESULT: -7.666787940      1.209      4.640
REMARK  1 active torsions:
REMARK  status: ('A' for Active; 'I' for Inactive)
REMARK    1  A    between atoms: C4_4  and  C5_5 
ROOT
HETATM    1  C5  UNL     1      30.681  65.424  43.781  1.00  0.00    -0.030 A 
HETATM    2  C6  UNL     1      30.358  66.652  43.249  1.00  0.00     0.012 A 
HETATM    3  C7  UNL     1      31.117  67.230  42.235  1.00  0.00     0.001 A 
HETATM    4  C8  UNL     1      32.225  66.583  41.730  1.00  0.00     0.000 A 
HETATM    5  C9  UNL     1      32.542  65.353  42.269  1.00  0.00     0.001 A 
HETATM    6  C10 UNL     1      31.787  64.782  43.272  1.00  0.00     0.012 A 
ENDROOT
BRANCH   1   7
HETATM    7  C4  UNL     1      29.873  64.804  44.862  1.00  0.00    -0.044 A 
HETATM    8  C3  UNL     1      30.141  64.894  46.311  1.00  0.00     0.066 A 
HETATM    9  C2  UNL     1      29.065  64.119  46.940  1.00  0.00    -0.022 A 
HETATM   10  C1  UNL     1      28.289  63.651  45.993  1.00  0.00    -0.003 A 
HETATM   11  C11 UNL     1      28.787  64.074  44.696  1.00  0.00     0.008 A 
ENDBRANCH   1   7
TORSDOF 1
ENDMDL
MODEL 3
REMARK VINA RESULT: -7.660520364      0.020      1.420
REMARK  1 active torsions:
REMARK  status: ('A' for Active; 'I' for Inactive)
REMARK    1  A    between atoms: C4_4  and  C5_5 
ROOT
HETATM    1  C5  UNL     1      30.725  64.609  44.810  1.00  0.00    -0.030 A 
HETATM    2  C6  UNL     1      29.621  64.138  44.136  1.00  0.00     0.012 A 
HETATM    3  C7  UNL     1      28.425  63.867  44.796  1.00  0.00     0.001 A 
HETATM    4  C8  UNL     1      28.312  64.064  46.156  1.00  0.00     0.000 A 
HETATM    5  C9  UNL     1      29.423  64.536  46.823  1.00  0.00     0.001 A 
HETATM    6  C10 UNL     1      30.606  64.804  46.168  1.00  0.00     0.012 A 
ENDROOT
BRANCH   1   7
HETATM    7  C4  UNL     1      32.002  64.900  44.111  1.00  0.00    -0.044 A 
HETATM    8  C3  UNL     1      33.292  64.215  44.330  1.00  0.00     0.066 A 
HETATM    9  C2  UNL     1      34.225  64.867  43.403  1.00  0.00    -0.022 A 
HETATM   10  C1  UNL     1      33.569  65.792  42.744  1.00  0.00    -0.003 A 
HETATM   11  C11 UNL     1      32.184  65.817  43.180  1.00  0.00     0.008 A 
ENDBRANCH   1   7
TORSDOF 1
ENDMDL
MODEL 4
REMARK VINA RESULT: -7.650959295      1.225      4.630
REMARK  1 active torsions:
REMARK  status: ('A' for Active; 'I' for Inactive)
REMARK    1  A    between atoms: C4_4  and  C5_5 
ROOT
HETATM    1  C5  UNL     1      30.675  65.442  43.775  1.00  0.00    -0.030 A 
HETATM    2  C6  UNL     1      31.788  64.821  43.253  1.00  0.00     0.012 A 
HETATM    3  C7  UNL     1      32.533  65.401  42.229  1.00  0.00     0.001 A 
HETATM    4  C8  UNL     1      32.175  66.624  41.705  1.00  0.00     0.000 A 
HETATM    5  C9  UNL     1      31.059  67.239  42.233  1.00  0.00     0.001 A 
HETATM    6  C10 UNL     1      30.323  66.663  43.247  1.00  0.00     0.012 A 
ENDROOT
BRANCH   1   7
HETATM    7  C4  UNL     1      29.878  64.827  44.866  1.00  0.00    -0.044 A 
HETATM    8  C3  UNL     1      30.179  64.895  46.310  1.00  0.00     0.066 A 
HETATM    9  C2  UNL     1      29.099  64.137  46.954  1.00  0.00    -0.022 A 
HETATM   10  C1  UNL     1      28.292  63.698  46.019  1.00  0.00    -0.003 A 
HETATM   11  C11 UNL     1      28.772  64.124  44.716  1.00  0.00     0.008 A 
ENDBRANCH   1   7
TORSDOF 1
ENDMDL
MODEL 5
REMARK VINA RESULT: -7.606663655      0.582      4.769
REMARK  1 active torsions:
REMARK  status: ('A' for Active; 'I' for Inactive)
REMARK    1  A    between atoms: C4_4  and  C5_5 
ROOT
HETATM    1  C5  UNL     1      31.661  64.776  44.256  1.00  0.00    -0.030 A 
HETATM    2  C6  UNL     1      31.766  65.526  43.106  1.00  0.00     0.012 A 
HETATM    3  C7  UNL     1      32.991  65.722  42.473  1.00  0.00     0.001 A 
HETATM    4  C8  UNL     1      34.144  65.165  42.984  1.00  0.00     0.000 A 
HETATM    5  C9  UNL     1      34.030  64.416  44.137  1.00  0.00     0.001 A 
HETATM    6  C10 UNL     1      32.816  64.223  44.761  1.00  0.00     0.012 A 
ENDROOT
BRANCH   1   7
HETATM    7  C4  UNL     1      30.358  64.564  44.934  1.00  0.00    -0.044 A 
HETATM    8  C3  UNL     1      29.121  64.057  44.306  1.00  0.00     0.066 A 
HETATM    9  C2  UNL     1      28.132  64.034  45.392  1.00  0.00    -0.022 A 
HETATM   10  C1  UNL     1      28.714  64.464  46.485  1.00  0.00    -0.003 A 
HETATM   11  C11 UNL     1      30.100  64.796  46.207  1.00  0.00     0.008 A 
ENDBRANCH   1   7
TORSDOF 1
ENDMDL
