MODEL 1
REMARK VINA RESULT: -8.053071798      0.000      0.000
REMARK  1 active torsions:
REMARK  status: ('A' for Active; 'I' for Inactive)
REMARK    1  A    between atoms: C4_4  and  C5_5 
ROOT
HETATM    1  C1  UNL     1      28.429  63.684  46.879  1.00  0.00     0.000 A 
HETATM    2  C2  UNL     1      28.114  63.546  45.559  1.00  0.00     0.001 A 
HETATM    3  C3  UNL     1      28.889  64.103  44.539  1.00  0.00     0.012 A 
HETATM    4  C4  UNL     1      30.035  64.833  44.837  1.00  0.00    -0.026 A 
HETATM    5  C11 UNL     1      30.339  64.959  46.178  1.00  0.00     0.012 A 
HETATM    6  C12 UNL     1      29.556  64.400  47.190  1.00  0.00     0.001 A 
ENDROOT
BRANCH   4   7
HETATM    7  C5  UNL     1      30.816  65.477  43.790  1.00  0.00    -0.026 A 
HETATM    8  C6  UNL     1      30.412  66.681  43.270  1.00  0.00     0.012 A 
HETATM    9  C7  UNL     1      31.087  67.268  42.199  1.00  0.00     0.001 A 
HETATM   10  C8  UNL     1      32.197  66.622  41.647  1.00  0.00     0.000 A 
HETATM   11  C9  UNL     1      32.616  65.412  42.160  1.00  0.00     0.001 A 
HETATM   12  C10 UNL     1      31.914  64.855  43.232  1.00  0.00     0.012 A 
ENDBRANCH   4   7
TORSDOF 1
ENDMDL
MODEL 2
REMARK VINA RESULT: -8.038397444      0.086      4.901
REMARK  1 active torsions:
REMARK  status: ('A' for Active; 'I' for Inactive)
REMARK    1  A    between atoms: C4_4  and  C5_5 
ROOT
HETATM    1  C1  UNL     1      32.122  66.704  41.652  1.00  0.00     0.000 A 
HETATM    2  C2  UNL     1      31.034  67.279  42.242  1.00  0.00     0.001 A 
HETATM    3  C3  UNL     1      30.355  66.684  43.307  1.00  0.00     0.012 A 
HETATM    4  C4  UNL     1      30.770  65.459  43.819  1.00  0.00    -0.026 A 
HETATM    5  C11 UNL     1      31.873  64.894  43.212  1.00  0.00     0.012 A 
HETATM    6  C12 UNL     1      32.545  65.496  42.145  1.00  0.00     0.001 A 
ENDROOT
BRANCH   4   7
HETATM    7  C5  UNL     1      30.032  64.794  44.884  1.00  0.00    -0.026 A 
HETATM    8  C6  UNL     1      28.944  64.012  44.584  1.00  0.00     0.012 A 
HETATM    9  C7  UNL     1      28.162  63.447  45.592  1.00  0.00     0.001 A 
HETATM   10  C8  UNL     1      28.493  63.676  46.931  1.00  0.00     0.000 A 
HETATM   11  C9  UNL     1      29.584  64.458  47.247  1.00  0.00     0.001 A 
HETATM   12  C10 UNL     1      30.342  65.008  46.211  1.00  0.00     0.012 A 
ENDBRANCH   4   7
TORSDOF 1
ENDMDL
MODEL 3
REMARK VINA RESULT: -8.020803347      1.228      4.824
REMARK  1 active torsions:
REMARK  status: ('A' for Active; 'I' for Inactive)
REMARK    1  A    between atoms: C4_4  and  C5_5 
ROOT
HETATM    1  C1  UNL     1      34.306  65.197  42.972  1.00  0.00     0.000 A 
HETATM    2  C2  UNL     1      33.180  65.852  42.563  1.00  0.00     0.001 A 
HETATM    3  C3  UNL     1      31.948  65.701  43.202  1.00  0.00     0.012 A 
HETATM    4  C4  UNL     1      31.818  64.861  44.303  1.00  0.00    -0.026 A 
HETATM    5  C11 UNL     1      32.967  64.210  44.704  1.00  0.00     0.012 A 
HETATM    6  C12 UNL     1      34.195  64.366  44.057  1.00  0.00     0.001 A 
ENDROOT
BRANCH   4   7
HETATM    7  C5  UNL     1      30.527  64.640  44.939  1.00  0.00    -0.026 A 
HETATM    8  C6  UNL     1      30.391  64.794  46.296  1.00  0.00     0.012 A 
HETATM    9  C7  UNL     1      29.190  64.491  46.940  1.00  0.00     0.001 A 
HETATM   10  C8  UNL     1      28.106  64.025  46.192  1.00  0.00     0.000 A 
HETATM   11  C9  UNL     1      28.227  63.867  44.827  1.00  0.00     0.001 A 
HETATM   12  C10 UNL     1      29.444  64.180  44.218  1.00  0.00     0.012 A 
ENDBRANCH   4   7
TORSDOF 1
ENDMDL
MODEL 4
REMARK VINA RESULT: -8.011915388      0.175      4.916
REMARK  1 active torsions:
REMARK  status: ('A' for Active; 'I' for Inactive)
REMARK    1  A    between atoms: C4_4  and  C5_5 
ROOT
HETATM    1  C1  UNL     1      32.103  66.743  41.717  1.00  0.00     0.000 A 
HETATM    2  C2  UNL     1      32.497  65.528  42.198  1.00  0.00     0.001 A 
HETATM    3  C3  UNL     1      31.820  64.872  43.228  1.00  0.00     0.012 A 
HETATM    4  C4  UNL     1      30.695  65.442  43.814  1.00  0.00    -0.026 A 
HETATM    5  C11 UNL     1      30.310  66.670  43.313  1.00  0.00     0.012 A 
HETATM    6  C12 UNL     1      30.996  67.319  42.284  1.00  0.00     0.001 A 
ENDROOT
BRANCH   4   7
HETATM    7  C5  UNL     1      30.018  64.804  44.934  1.00  0.00    -0.026 A 
HETATM    8  C6  UNL     1      28.908  64.026  44.717  1.00  0.00     0.012 A 
HETATM    9  C7  UNL     1      28.185  63.486  45.781  1.00  0.00     0.001 A 
HETATM   10  C8  UNL     1      28.599  63.738  47.092  1.00  0.00     0.000 A 
HETATM   11  C9  UNL     1      29.713  64.517  47.327  1.00  0.00     0.001 A 
HETATM   12  C10 UNL     1      30.411  65.040  46.235  1.00  0.00     0.012 A 
ENDBRANCH   4   7
TORSDOF 1
ENDMDL
MODEL 5
REMARK VINA RESULT: -8.009474856      0.284      1.406
REMARK  1 active torsions:
REMARK  status: ('A' for Active; 'I' for Inactive)
REMARK    1  A    between atoms: C4_4  and  C5_5 
ROOT
HETATM    1  C1  UNL     1      28.753  63.825  47.261  1.00  0.00     0.000 A 
HETATM    2  C2  UNL     1      28.328  63.561  45.992  1.00  0.00     0.001 A 
HETATM    3  C3  UNL     1      28.993  64.042  44.862  1.00  0.00     0.012 A 
HETATM    4  C4  UNL     1      30.137  64.822  44.989  1.00  0.00    -0.026 A 
HETATM    5  C11 UNL     1      30.554  65.076  46.281  1.00  0.00     0.012 A 
HETATM    6  C12 UNL     1      29.881  64.592  47.405  1.00  0.00     0.001 A 
ENDROOT
BRANCH   4   7
HETATM    7  C5  UNL     1      30.803  65.387  43.824  1.00  0.00    -0.026 A 
HETATM    8  C6  UNL     1      31.896  64.759  43.282  1.00  0.00     0.012 A 
HETATM    9  C7  UNL     1      32.610  65.333  42.229  1.00  0.00     0.001 A 
HETATM   10  C8  UNL     1      32.204  66.567  41.714  1.00  0.00     0.000 A 
HETATM   11  C9  UNL     1      31.106  67.210  42.247  1.00  0.00     0.001 A 
HETATM   12  C10 UNL     1      30.418  66.605  43.301  1.00  0.00     0.012 A 
ENDBRANCH   4   7
TORSDOF 1
ENDMDL
