MODEL 1
REMARK VINA RESULT: -8.652942765      0.000      0.000
REMARK  13 active torsions:
REMARK  status: ('A' for Active; 'I' for Inactive)
REMARK    1  A    between atoms: O1_2  and  S1_3 
REMARK    2  A    between atoms: S1_3  and  C2_6 
REMARK    3  A    between atoms: C2_6  and  C3_7 
REMARK    4  A    between atoms: C3_7  and  C4_13 
REMARK    5  A    between atoms: N1_8  and  N2_10 
REMARK    6  A    between atoms: C5_15  and  N3_16 
REMARK       I    between atoms: N3_16  and  C6_18 
REMARK    7  A    between atoms: C6_18  and  C7_20 
REMARK    8  A    between atoms: C8_23  and  N5_24 
REMARK    9  A    between atoms: C9_28  and  C10_29 
REMARK   10  A    between atoms: C10_29  and  O7_30 
REMARK   11  A    between atoms: O7_30  and  N6_31 
REMARK   12  A    between atoms: C12_35  and  N7_36 
REMARK   13  A    between atoms: C14_41  and  C15_42 
ROOT
HETATM    1  C4  UNL     1     -33.007  59.295 -24.023  1.00  0.00     0.338 C 
HETATM    2  S2  UNL     1     -32.147  60.009 -22.560  1.00  0.00    -0.100 SA
HETATM    3  C5  UNL     1     -30.538  60.085 -23.462  1.00  0.00     0.187 C 
HETATM    4  C11 UNL     1     -30.708  58.948 -24.406  1.00  0.00     0.313 A 
HETATM    5  C12 UNL     1     -31.240  57.641 -23.975  1.00  0.00     0.375 A 
HETATM    6  N11 UNL     1     -32.013  58.598 -24.701  1.00  0.00     0.145 N 
ENDROOT
BRANCH   3   7
HETATM    7  N3  UNL     1     -30.575  61.328 -24.192  1.00  0.00    -0.340 N 
HETATM    8  C6  UNL     1     -30.408  62.593 -23.587  1.00  0.00     0.270 C 
HETATM    9  O6  UNL     1     -30.217  62.612 -22.354  1.00  0.00    -0.266 OA
ATOM     10  H3  UNL     1     -30.731  61.292 -25.200  1.00  0.00     0.164 HD
BRANCH   8  11
HETATM   11  C7  UNL     1     -30.449  63.868 -24.351  1.00  0.00     0.118 A 
HETATM   12  N4  UNL     1     -29.503  64.764 -24.257  1.00  0.00    -0.332 N 
HETATM   13  C8  UNL     1     -29.606  65.882 -24.974  1.00  0.00     0.143 A 
ATOM     14  H4  UNL     1     -28.700  64.611 -23.645  1.00  0.00     0.168 HD
HETATM   15  S3  UNL     1     -31.073  65.675 -25.811  1.00  0.00    -0.054 SA
HETATM   16  C9  UNL     1     -31.496  64.141 -25.193  1.00  0.00     0.044 A 
BRANCH  13  17
HETATM   17  N5  UNL     1     -28.760  66.888 -25.005  1.00  0.00    -0.380 N 
ATOM     18  H52 UNL     1     -27.904  67.000 -25.548  1.00  0.00     0.158 HD
ATOM     19  H51 UNL     1     -28.817  67.758 -24.475  1.00  0.00     0.158 HD
ENDBRANCH  13  17
BRANCH  16  20
HETATM   20  C10 UNL     1     -32.705  63.288 -25.484  1.00  0.00     0.256 C 
BRANCH  20  21
HETATM   21  O7  UNL     1     -32.292  62.397 -26.512  1.00  0.00    -0.216 OA
BRANCH  21  22
HETATM   22  N6  UNL     1     -33.235  62.024 -27.454  1.00  0.00     0.005 N 
HETATM   23  O8  UNL     1     -33.078  61.039 -28.203  1.00  0.00    -0.511 OA
HETATM   24  O9  UNL     1     -34.383  62.753 -27.576  1.00  0.00    -0.511 OA
ENDBRANCH  21  22
ENDBRANCH  20  21
ENDBRANCH  16  20
ENDBRANCH   8  11
ENDBRANCH   3   7
BRANCH   1  25
HETATM   25  C3  UNL     1     -34.156  58.515 -23.558  1.00  0.00     0.069 C 
HETATM   26  N1  UNL     1     -35.223  58.444 -24.322  1.00  0.00    -0.245 N 
ATOM     27  H1  UNL     1     -36.031  57.904 -24.012  1.00  0.00     0.192 HD
BRANCH  25  28
HETATM   28  C2  UNL     1     -34.204  57.790 -22.270  1.00  0.00     0.228 C 
BRANCH  28  29
HETATM   29  S1  UNL     1     -34.488  56.072 -22.589  1.00  0.00     0.270 S 
HETATM   30  O2  UNL     1     -33.939  55.758 -23.950  1.00  0.00    -0.198 OA
HETATM   31  O3  UNL     1     -33.734  55.296 -21.534  1.00  0.00    -0.198 OA
BRANCH  29  32
HETATM   32  O1  UNL     1     -36.106  55.678 -22.523  1.00  0.00    -0.281 OA
HETATM   33  C1  UNL     1     -36.683  56.372 -21.447  1.00  0.00     0.225 C 
ENDBRANCH  29  32
ENDBRANCH  28  29
ENDBRANCH  25  28
BRANCH  26  34
HETATM   34  N2  UNL     1     -35.262  59.102 -25.558  1.00  0.00    -0.039 N 
HETATM   35  O4  UNL     1     -34.914  58.569 -26.626  1.00  0.00    -0.516 OA
HETATM   36  O5  UNL     1     -35.707  60.401 -25.604  1.00  0.00    -0.516 OA
ENDBRANCH  26  34
ENDBRANCH   1  25
BRANCH   5  37
HETATM   37  N7  UNL     1     -30.684  56.468 -24.494  1.00  0.00    -0.191 N 
HETATM   38  C13 UNL     1     -30.625  55.273 -24.129  1.00  0.00     0.681 A 
HETATM   39  N8  UNL     1     -29.956  54.427 -24.974  1.00  0.00    -0.185 N 
HETATM   40  N10 UNL     1     -31.125  54.698 -23.027  1.00  0.00    -0.179 N 
HETATM   41  C14 UNL     1     -29.804  53.126 -24.730  1.00  0.00     0.128 A 
ATOM     42  H8  UNL     1     -29.556  54.811 -25.830  1.00  0.00     0.184 HD
HETATM   43  C16 UNL     1     -30.332  52.577 -23.588  1.00  0.00     0.082 A 
HETATM   44  C17 UNL     1     -31.005  53.388 -22.724  1.00  0.00     0.134 A 
HETATM   45  N9  UNL     1     -31.546  52.821 -21.548  1.00  0.00    -0.082 NA
ATOM     46  H10 UNL     1     -31.632  55.292 -22.371  1.00  0.00     0.185 HD
ATOM     47  H7  UNL     1     -30.212  56.624 -25.385  1.00  0.00     0.180 HD
BRANCH  41  48
HETATM   48  C15 UNL     1     -29.074  52.259 -25.672  1.00  0.00     0.227 C 
HETATM   49  O10 UNL     1     -27.831  52.406 -25.795  1.00  0.00    -0.643 OA
HETATM   50  O11 UNL     1     -29.725  51.298 -26.415  1.00  0.00    -0.643 OA
ENDBRANCH  41  48
ENDBRANCH   5  37
TORSDOF 13
ENDMDL
MODEL 2
REMARK VINA RESULT: -8.597963653      3.036      8.994
REMARK  13 active torsions:
REMARK  status: ('A' for Active; 'I' for Inactive)
REMARK    1  A    between atoms: O1_2  and  S1_3 
REMARK    2  A    between atoms: S1_3  and  C2_6 
REMARK    3  A    between atoms: C2_6  and  C3_7 
REMARK    4  A    between atoms: C3_7  and  C4_13 
REMARK    5  A    between atoms: N1_8  and  N2_10 
REMARK    6  A    between atoms: C5_15  and  N3_16 
REMARK       I    between atoms: N3_16  and  C6_18 
REMARK    7  A    between atoms: C6_18  and  C7_20 
REMARK    8  A    between atoms: C8_23  and  N5_24 
REMARK    9  A    between atoms: C9_28  and  C10_29 
REMARK   10  A    between atoms: C10_29  and  O7_30 
REMARK   11  A    between atoms: O7_30  and  N6_31 
REMARK   12  A    between atoms: C12_35  and  N7_36 
REMARK   13  A    between atoms: C14_41  and  C15_42 
ROOT
HETATM    1  C4  UNL     1     -32.798  58.134 -22.078  1.00  0.00     0.338 C 
HETATM    2  S2  UNL     1     -33.158  57.573 -23.794  1.00  0.00    -0.100 SA
HETATM    3  C5  UNL     1     -31.362  57.492 -24.214  1.00  0.00     0.187 C 
HETATM    4  C11 UNL     1     -30.829  58.543 -23.307  1.00  0.00     0.313 A 
HETATM    5  C12 UNL     1     -31.484  59.857 -23.156  1.00  0.00     0.375 A 
HETATM    6  N11 UNL     1     -31.591  58.815 -22.185  1.00  0.00     0.145 N 
ENDROOT
BRANCH   3   7
HETATM    7  N3  UNL     1     -30.927  56.195 -23.757  1.00  0.00    -0.340 N 
HETATM    8  C6  UNL     1     -31.152  55.000 -24.475  1.00  0.00     0.270 C 
HETATM    9  O6  UNL     1     -31.760  55.096 -25.561  1.00  0.00    -0.266 OA
ATOM     10  H3  UNL     1     -30.431  56.138 -22.868  1.00  0.00     0.164 HD
BRANCH   8  11
HETATM   11  C7  UNL     1     -30.699  53.668 -23.993  1.00  0.00     0.118 A 
HETATM   12  N4  UNL     1     -31.168  53.131 -22.898  1.00  0.00    -0.332 N 
HETATM   13  C8  UNL     1     -30.717  51.933 -22.530  1.00  0.00     0.143 A 
ATOM     14  H4  UNL     1     -31.866  53.619 -22.337  1.00  0.00     0.168 HD
HETATM   15  S3  UNL     1     -29.601  51.542 -23.752  1.00  0.00    -0.054 SA
HETATM   16  C9  UNL     1     -29.764  52.954 -24.697  1.00  0.00     0.044 A 
BRANCH  13  17
HETATM   17  N5  UNL     1     -31.069  51.243 -21.466  1.00  0.00    -0.380 N 
ATOM     18  H52 UNL     1     -30.563  50.508 -20.973  1.00  0.00     0.158 HD
ATOM     19  H51 UNL     1     -31.934  51.331 -20.933  1.00  0.00     0.158 HD
ENDBRANCH  13  17
BRANCH  16  20
HETATM   20  C10 UNL     1     -29.068  53.339 -25.978  1.00  0.00     0.256 C 
BRANCH  20  21
HETATM   21  O7  UNL     1     -27.799  53.839 -25.575  1.00  0.00    -0.216 OA
BRANCH  21  22
HETATM   22  N6  UNL     1     -27.623  55.212 -25.572  1.00  0.00     0.005 N 
HETATM   23  O8  UNL     1     -28.562  56.007 -25.773  1.00  0.00    -0.511 OA
HETATM   24  O9  UNL     1     -26.379  55.724 -25.339  1.00  0.00    -0.511 OA
ENDBRANCH  21  22
ENDBRANCH  20  21
ENDBRANCH  16  20
ENDBRANCH   8  11
ENDBRANCH   3   7
BRANCH   1  25
HETATM   25  C3  UNL     1     -33.944  58.900 -21.585  1.00  0.00     0.069 C 
HETATM   26  N1  UNL     1     -34.597  58.454 -20.534  1.00  0.00    -0.245 N 
ATOM     27  H1  UNL     1     -35.397  58.978 -20.178  1.00  0.00     0.192 HD
BRANCH  25  28
HETATM   28  C2  UNL     1     -34.429  60.158 -22.191  1.00  0.00     0.228 C 
BRANCH  28  29
HETATM   29  S1  UNL     1     -34.312  61.456 -20.992  1.00  0.00     0.270 S 
HETATM   30  O2  UNL     1     -32.958  61.369 -20.349  1.00  0.00    -0.198 OA
HETATM   31  O3  UNL     1     -34.449  62.762 -21.740  1.00  0.00    -0.198 OA
BRANCH  29  32
HETATM   32  O1  UNL     1     -35.502  61.348 -19.831  1.00  0.00    -0.281 OA
HETATM   33  C1  UNL     1     -34.908  61.549 -18.574  1.00  0.00     0.225 C 
ENDBRANCH  29  32
ENDBRANCH  28  29
ENDBRANCH  25  28
BRANCH  26  34
HETATM   34  N2  UNL     1     -34.206  57.269 -19.899  1.00  0.00    -0.039 N 
HETATM   35  O4  UNL     1     -33.209  57.188 -19.160  1.00  0.00    -0.516 OA
HETATM   36  O5  UNL     1     -34.953  56.133 -20.095  1.00  0.00    -0.516 OA
ENDBRANCH  26  34
ENDBRANCH   1  25
BRANCH   5  37
HETATM   37  N7  UNL     1     -30.697  61.008 -23.046  1.00  0.00    -0.191 N 
HETATM   38  C13 UNL     1     -30.686  62.135 -23.590  1.00  0.00     0.681 A 
HETATM   39  N8  UNL     1     -29.702  62.989 -23.164  1.00  0.00    -0.185 N 
HETATM   40  N10 UNL     1     -31.500  62.629 -24.531  1.00  0.00    -0.179 N 
HETATM   41  C14 UNL     1     -29.553  64.222 -23.644  1.00  0.00     0.128 A 
ATOM     42  H8  UNL     1     -29.054  62.665 -22.446  1.00  0.00     0.184 HD
HETATM   43  C16 UNL     1     -30.409  64.690 -24.609  1.00  0.00     0.082 A 
HETATM   44  C17 UNL     1     -31.401  63.869 -25.056  1.00  0.00     0.134 A 
HETATM   45  N9  UNL     1     -32.281  64.352 -26.052  1.00  0.00    -0.082 NA
ATOM     46  H10 UNL     1     -32.248  62.027 -24.875  1.00  0.00     0.185 HD
ATOM     47  H7  UNL     1     -29.954  60.904 -22.355  1.00  0.00     0.180 HD
BRANCH  41  48
HETATM   48  C15 UNL     1     -28.477  65.101 -23.153  1.00  0.00     0.227 C 
HETATM   49  O10 UNL     1     -28.555  65.562 -21.985  1.00  0.00    -0.643 OA
HETATM   50  O11 UNL     1     -27.397  65.426 -23.944  1.00  0.00    -0.643 OA
ENDBRANCH  41  48
ENDBRANCH   5  37
TORSDOF 13
ENDMDL
MODEL 3
REMARK VINA RESULT: -8.442018235      3.906      6.675
REMARK  13 active torsions:
REMARK  status: ('A' for Active; 'I' for Inactive)
REMARK    1  A    between atoms: O1_2  and  S1_3 
REMARK    2  A    between atoms: S1_3  and  C2_6 
REMARK    3  A    between atoms: C2_6  and  C3_7 
REMARK    4  A    between atoms: C3_7  and  C4_13 
REMARK    5  A    between atoms: N1_8  and  N2_10 
REMARK    6  A    between atoms: C5_15  and  N3_16 
REMARK       I    between atoms: N3_16  and  C6_18 
REMARK    7  A    between atoms: C6_18  and  C7_20 
REMARK    8  A    between atoms: C8_23  and  N5_24 
REMARK    9  A    between atoms: C9_28  and  C10_29 
REMARK   10  A    between atoms: C10_29  and  O7_30 
REMARK   11  A    between atoms: O7_30  and  N6_31 
REMARK   12  A    between atoms: C12_35  and  N7_36 
REMARK   13  A    between atoms: C14_41  and  C15_42 
ROOT
HETATM    1  C4  UNL     1     -30.831  55.581 -24.474  1.00  0.00     0.338 C 
HETATM    2  S2  UNL     1     -29.613  56.950 -24.291  1.00  0.00    -0.100 SA
HETATM    3  C5  UNL     1     -30.636  58.085 -25.328  1.00  0.00     0.187 C 
HETATM    4  C11 UNL     1     -31.317  57.099 -26.210  1.00  0.00     0.313 A 
HETATM    5  C12 UNL     1     -30.591  55.983 -26.849  1.00  0.00     0.375 A 
HETATM    6  N11 UNL     1     -31.431  55.817 -25.706  1.00  0.00     0.145 N 
ENDROOT
BRANCH   3   7
HETATM    7  N3  UNL     1     -31.596  58.662 -24.420  1.00  0.00    -0.340 N 
HETATM    8  C6  UNL     1     -31.324  59.786 -23.610  1.00  0.00     0.270 C 
HETATM    9  O6  UNL     1     -30.187  60.292 -23.703  1.00  0.00    -0.266 OA
ATOM     10  H3  UNL     1     -32.520  58.235 -24.358  1.00  0.00     0.164 HD
BRANCH   8  11
HETATM   11  C7  UNL     1     -32.323  60.372 -22.676  1.00  0.00     0.118 A 
HETATM   12  N4  UNL     1     -33.068  61.391 -23.008  1.00  0.00    -0.332 N 
HETATM   13  C8  UNL     1     -33.944  61.860 -22.120  1.00  0.00     0.143 A 
ATOM     14  H4  UNL     1     -32.982  61.820 -23.930  1.00  0.00     0.168 HD
HETATM   15  S3  UNL     1     -33.719  60.843 -20.775  1.00  0.00    -0.054 SA
HETATM   16  C9  UNL     1     -32.493  59.846 -21.421  1.00  0.00     0.044 A 
BRANCH  13  17
HETATM   17  N5  UNL     1     -34.769  62.873 -22.275  1.00  0.00    -0.380 N 
ATOM     18  H52 UNL     1     -35.071  63.338 -23.130  1.00  0.00     0.158 HD
ATOM     19  H51 UNL     1     -35.266  63.380 -21.543  1.00  0.00     0.158 HD
ENDBRANCH  13  17
BRANCH  16  20
HETATM   20  C10 UNL     1     -31.769  58.682 -20.791  1.00  0.00     0.256 C 
BRANCH  20  21
HETATM   21  O7  UNL     1     -31.971  57.594 -21.683  1.00  0.00    -0.216 OA
BRANCH  21  22
HETATM   22  N6  UNL     1     -33.241  57.049 -21.754  1.00  0.00     0.005 N 
HETATM   23  O8  UNL     1     -33.934  57.100 -22.789  1.00  0.00    -0.511 OA
HETATM   24  O9  UNL     1     -33.763  56.428 -20.655  1.00  0.00    -0.511 OA
ENDBRANCH  21  22
ENDBRANCH  20  21
ENDBRANCH  16  20
ENDBRANCH   8  11
ENDBRANCH   3   7
BRANCH   1  25
HETATM   25  C3  UNL     1     -30.130  54.306 -24.317  1.00  0.00     0.069 C 
HETATM   26  N1  UNL     1     -30.659  53.384 -23.542  1.00  0.00    -0.245 N 
ATOM     27  H1  UNL     1     -30.182  52.490 -23.424  1.00  0.00     0.192 HD
BRANCH  25  28
HETATM   28  C2  UNL     1     -28.849  53.972 -24.976  1.00  0.00     0.228 C 
BRANCH  28  29
HETATM   29  S1  UNL     1     -29.101  52.593 -26.057  1.00  0.00     0.270 S 
HETATM   30  O2  UNL     1     -28.076  51.550 -25.722  1.00  0.00    -0.198 OA
HETATM   31  O3  UNL     1     -30.490  52.064 -25.782  1.00  0.00    -0.198 OA
BRANCH  29  32
HETATM   32  O1  UNL     1     -28.975  53.021 -27.663  1.00  0.00    -0.281 OA
HETATM   33  C1  UNL     1     -29.306  51.901 -28.443  1.00  0.00     0.225 C 
ENDBRANCH  29  32
ENDBRANCH  28  29
ENDBRANCH  25  28
BRANCH  26  34
HETATM   34  N2  UNL     1     -31.870  53.618 -22.879  1.00  0.00    -0.039 N 
HETATM   35  O4  UNL     1     -32.904  53.995 -23.458  1.00  0.00    -0.516 OA
HETATM   36  O5  UNL     1     -31.930  53.423 -21.520  1.00  0.00    -0.516 OA
ENDBRANCH  26  34
ENDBRANCH   1  25
BRANCH   5  37
HETATM   37  N7  UNL     1     -30.906  55.621 -28.162  1.00  0.00    -0.191 N 
HETATM   38  C13 UNL     1     -30.252  55.359 -29.195  1.00  0.00     0.681 A 
HETATM   39  N8  UNL     1     -30.994  55.042 -30.303  1.00  0.00    -0.185 N 
HETATM   40  N10 UNL     1     -28.925  55.342 -29.375  1.00  0.00    -0.179 N 
HETATM   41  C14 UNL     1     -30.449  54.739 -31.480  1.00  0.00     0.128 A 
ATOM     42  H8  UNL     1     -32.010  55.037 -30.222  1.00  0.00     0.184 HD
HETATM   43  C16 UNL     1     -29.084  54.733 -31.622  1.00  0.00     0.082 A 
HETATM   44  C17 UNL     1     -28.314  55.043 -30.541  1.00  0.00     0.134 A 
HETATM   45  N9  UNL     1     -26.907  55.038 -30.690  1.00  0.00    -0.082 NA
ATOM     46  H10 UNL     1     -28.335  55.570 -28.575  1.00  0.00     0.185 HD
ATOM     47  H7  UNL     1     -31.913  55.555 -28.315  1.00  0.00     0.180 HD
BRANCH  41  48
HETATM   48  C15 UNL     1     -31.292  54.406 -32.642  1.00  0.00     0.227 C 
HETATM   49  O10 UNL     1     -30.867  53.572 -33.482  1.00  0.00    -0.643 OA
HETATM   50  O11 UNL     1     -32.528  54.988 -32.822  1.00  0.00    -0.643 OA
ENDBRANCH  41  48
ENDBRANCH   5  37
TORSDOF 13
ENDMDL
MODEL 4
REMARK VINA RESULT: -8.328300275      3.182      9.242
REMARK  13 active torsions:
REMARK  status: ('A' for Active; 'I' for Inactive)
REMARK    1  A    between atoms: O1_2  and  S1_3 
REMARK    2  A    between atoms: S1_3  and  C2_6 
REMARK    3  A    between atoms: C2_6  and  C3_7 
REMARK    4  A    between atoms: C3_7  and  C4_13 
REMARK    5  A    between atoms: N1_8  and  N2_10 
REMARK    6  A    between atoms: C5_15  and  N3_16 
REMARK       I    between atoms: N3_16  and  C6_18 
REMARK    7  A    between atoms: C6_18  and  C7_20 
REMARK    8  A    between atoms: C8_23  and  N5_24 
REMARK    9  A    between atoms: C9_28  and  C10_29 
REMARK   10  A    between atoms: C10_29  and  O7_30 
REMARK   11  A    between atoms: O7_30  and  N6_31 
REMARK   12  A    between atoms: C12_35  and  N7_36 
REMARK   13  A    between atoms: C14_41  and  C15_42 
ROOT
HETATM    1  C4  UNL     1     -32.924  58.582 -21.727  1.00  0.00     0.338 C 
HETATM    2  S2  UNL     1     -33.338  57.989 -23.420  1.00  0.00    -0.100 SA
HETATM    3  C5  UNL     1     -31.555  57.879 -23.887  1.00  0.00     0.187 C 
HETATM    4  C11 UNL     1     -30.986  58.943 -23.018  1.00  0.00     0.313 A 
HETATM    5  C12 UNL     1     -31.622  60.267 -22.877  1.00  0.00     0.375 A 
HETATM    6  N11 UNL     1     -31.713  59.247 -21.882  1.00  0.00     0.145 N 
ENDROOT
BRANCH   3   7
HETATM    7  N3  UNL     1     -31.122  56.587 -23.415  1.00  0.00    -0.340 N 
HETATM    8  C6  UNL     1     -31.527  55.367 -24.000  1.00  0.00     0.270 C 
HETATM    9  O6  UNL     1     -32.301  55.436 -24.977  1.00  0.00    -0.266 OA
ATOM     10  H3  UNL     1     -30.489  56.552 -22.616  1.00  0.00     0.164 HD
BRANCH   8  11
HETATM   11  C7  UNL     1     -31.074  54.041 -23.503  1.00  0.00     0.118 A 
HETATM   12  N4  UNL     1     -31.671  53.430 -22.515  1.00  0.00    -0.332 N 
HETATM   13  C8  UNL     1     -31.211  52.241 -22.127  1.00  0.00     0.143 A 
ATOM     14  H4  UNL     1     -32.475  53.854 -22.051  1.00  0.00     0.168 HD
HETATM   15  S3  UNL     1     -29.900  51.968 -23.176  1.00  0.00    -0.054 SA
HETATM   16  C9  UNL     1     -30.002  53.412 -24.081  1.00  0.00     0.044 A 
BRANCH  13  17
HETATM   17  N5  UNL     1     -31.678  51.486 -21.157  1.00  0.00    -0.380 N 
ATOM     18  H52 UNL     1     -31.430  51.472 -20.168  1.00  0.00     0.158 HD
ATOM     19  H51 UNL     1     -32.395  50.764 -21.229  1.00  0.00     0.158 HD
ENDBRANCH  13  17
BRANCH  16  20
HETATM   20  C10 UNL     1     -29.142  53.892 -25.223  1.00  0.00     0.256 C 
BRANCH  20  21
HETATM   21  O7  UNL     1     -29.570  53.138 -26.351  1.00  0.00    -0.216 OA
BRANCH  21  22
HETATM   22  N6  UNL     1     -29.080  51.851 -26.485  1.00  0.00     0.005 N 
HETATM   23  O8  UNL     1     -29.735  50.940 -27.030  1.00  0.00    -0.511 OA
HETATM   24  O9  UNL     1     -27.835  51.557 -26.008  1.00  0.00    -0.511 OA
ENDBRANCH  21  22
ENDBRANCH  20  21
ENDBRANCH  16  20
ENDBRANCH   8  11
ENDBRANCH   3   7
BRANCH   1  25
HETATM   25  C3  UNL     1     -34.048  59.371 -21.219  1.00  0.00     0.069 C 
HETATM   26  N1  UNL     1     -34.824  58.845 -20.297  1.00  0.00    -0.245 N 
ATOM     27  H1  UNL     1     -35.611  59.383 -19.932  1.00  0.00     0.192 HD
BRANCH  25  28
HETATM   28  C2  UNL     1     -34.380  60.738 -21.673  1.00  0.00     0.228 C 
BRANCH  28  29
HETATM   29  S1  UNL     1     -35.051  61.649 -20.312  1.00  0.00     0.270 S 
HETATM   30  O2  UNL     1     -35.168  63.086 -20.730  1.00  0.00    -0.198 OA
HETATM   31  O3  UNL     1     -36.421  61.077 -20.031  1.00  0.00    -0.198 OA
BRANCH  29  32
HETATM   32  O1  UNL     1     -34.104  61.529 -18.946  1.00  0.00    -0.281 OA
HETATM   33  C1  UNL     1     -34.937  61.656 -17.822  1.00  0.00     0.225 C 
ENDBRANCH  29  32
ENDBRANCH  28  29
ENDBRANCH  25  28
BRANCH  26  34
HETATM   34  N2  UNL     1     -34.582  57.554 -19.810  1.00  0.00    -0.039 N 
HETATM   35  O4  UNL     1     -35.365  56.602 -19.982  1.00  0.00    -0.516 OA
HETATM   36  O5  UNL     1     -33.427  57.316 -19.107  1.00  0.00    -0.516 OA
ENDBRANCH  26  34
ENDBRANCH   1  25
BRANCH   5  37
HETATM   37  N7  UNL     1     -30.820  61.411 -22.812  1.00  0.00    -0.191 N 
HETATM   38  C13 UNL     1     -30.716  62.465 -23.478  1.00  0.00     0.681 A 
HETATM   39  N8  UNL     1     -29.762  63.348 -23.046  1.00  0.00    -0.185 N 
HETATM   40  N10 UNL     1     -31.406  62.856 -24.558  1.00  0.00    -0.179 N 
HETATM   41  C14 UNL     1     -29.526  64.514 -23.646  1.00  0.00     0.128 A 
ATOM     42  H8  UNL     1     -29.208  63.102 -22.226  1.00  0.00     0.184 HD
HETATM   43  C16 UNL     1     -30.256  64.876 -24.750  1.00  0.00     0.082 A 
HETATM   44  C17 UNL     1     -31.214  64.022 -25.209  1.00  0.00     0.134 A 
HETATM   45  N9  UNL     1     -31.963  64.397 -26.348  1.00  0.00    -0.082 NA
ATOM     46  H10 UNL     1     -32.128  62.228 -24.913  1.00  0.00     0.185 HD
ATOM     47  H7  UNL     1     -30.162  61.379 -22.034  1.00  0.00     0.180 HD
BRANCH  41  48
HETATM   48  C15 UNL     1     -28.487  65.428 -23.141  1.00  0.00     0.227 C 
HETATM   49  O10 UNL     1     -28.194  65.400 -21.918  1.00  0.00    -0.643 OA
HETATM   50  O11 UNL     1     -27.836  66.309 -23.978  1.00  0.00    -0.643 OA
ENDBRANCH  41  48
ENDBRANCH   5  37
TORSDOF 13
ENDMDL
MODEL 5
REMARK VINA RESULT: -8.318252946      3.278      8.491
REMARK  13 active torsions:
REMARK  status: ('A' for Active; 'I' for Inactive)
REMARK    1  A    between atoms: O1_2  and  S1_3 
REMARK    2  A    between atoms: S1_3  and  C2_6 
REMARK    3  A    between atoms: C2_6  and  C3_7 
REMARK    4  A    between atoms: C3_7  and  C4_13 
REMARK    5  A    between atoms: N1_8  and  N2_10 
REMARK    6  A    between atoms: C5_15  and  N3_16 
REMARK       I    between atoms: N3_16  and  C6_18 
REMARK    7  A    between atoms: C6_18  and  C7_20 
REMARK    8  A    between atoms: C8_23  and  N5_24 
REMARK    9  A    between atoms: C9_28  and  C10_29 
REMARK   10  A    between atoms: C10_29  and  O7_30 
REMARK   11  A    between atoms: O7_30  and  N6_31 
REMARK   12  A    between atoms: C12_35  and  N7_36 
REMARK   13  A    between atoms: C14_41  and  C15_42 
ROOT
HETATM    1  C4  UNL     1     -31.154  58.694 -24.664  1.00  0.00     0.338 C 
HETATM    2  S2  UNL     1     -29.425  58.153 -24.335  1.00  0.00    -0.100 SA
HETATM    3  C5  UNL     1     -29.970  56.435 -23.933  1.00  0.00     0.187 C 
HETATM    4  C11 UNL     1     -31.337  56.705 -23.413  1.00  0.00     0.313 A 
HETATM    5  C12 UNL     1     -31.616  57.799 -22.463  1.00  0.00     0.375 A 
HETATM    6  N11 UNL     1     -31.931  57.873 -23.854  1.00  0.00     0.145 N 
ENDROOT
BRANCH   3   7
HETATM    7  N3  UNL     1     -30.061  55.763 -25.206  1.00  0.00    -0.340 N 
HETATM    8  C6  UNL     1     -28.943  55.247 -25.896  1.00  0.00     0.270 C 
HETATM    9  O6  UNL     1     -27.826  55.391 -25.357  1.00  0.00    -0.266 OA
ATOM     10  H3  UNL     1     -30.982  55.655 -25.629  1.00  0.00     0.164 HD
BRANCH   8  11
HETATM   11  C7  UNL     1     -29.050  54.556 -27.209  1.00  0.00     0.118 A 
HETATM   12  N4  UNL     1     -29.068  55.212 -28.338  1.00  0.00    -0.332 N 
HETATM   13  C8  UNL     1     -29.163  54.525 -29.476  1.00  0.00     0.143 A 
ATOM     14  H4  UNL     1     -29.010  56.231 -28.349  1.00  0.00     0.168 HD
HETATM   15  S3  UNL     1     -29.229  52.908 -28.951  1.00  0.00    -0.054 SA
HETATM   16  C9  UNL     1     -29.130  53.189 -27.271  1.00  0.00     0.044 A 
BRANCH  13  17
HETATM   17  N5  UNL     1     -29.198  55.011 -30.698  1.00  0.00    -0.380 N 
ATOM     18  H52 UNL     1     -28.434  55.338 -31.288  1.00  0.00     0.158 HD
ATOM     19  H51 UNL     1     -30.022  55.145 -31.284  1.00  0.00     0.158 HD
ENDBRANCH  13  17
BRANCH  16  20
HETATM   20  C10 UNL     1     -29.132  52.202 -26.130  1.00  0.00     0.256 C 
BRANCH  20  21
HETATM   21  O7  UNL     1     -30.296  52.510 -25.375  1.00  0.00    -0.216 OA
BRANCH  21  22
HETATM   22  N6  UNL     1     -30.212  52.411 -23.997  1.00  0.00     0.005 N 
HETATM   23  O8  UNL     1     -30.876  53.140 -23.233  1.00  0.00    -0.511 OA
HETATM   24  O9  UNL     1     -29.377  51.484 -23.444  1.00  0.00    -0.511 OA
ENDBRANCH  21  22
ENDBRANCH  20  21
ENDBRANCH  16  20
ENDBRANCH   8  11
ENDBRANCH   3   7
BRANCH   1  25
HETATM   25  C3  UNL     1     -31.248  60.135 -24.423  1.00  0.00     0.069 C 
HETATM   26  N1  UNL     1     -32.234  60.805 -24.978  1.00  0.00    -0.245 N 
ATOM     27  H1  UNL     1     -32.313  61.810 -24.819  1.00  0.00     0.192 HD
BRANCH  25  28
HETATM   28  C2  UNL     1     -30.301  60.905 -23.589  1.00  0.00     0.228 C 
BRANCH  28  29
HETATM   29  S1  UNL     1     -30.909  62.557 -23.405  1.00  0.00     0.270 S 
HETATM   30  O2  UNL     1     -32.248  62.484 -22.731  1.00  0.00    -0.198 OA
HETATM   31  O3  UNL     1     -29.926  63.295 -22.527  1.00  0.00    -0.198 OA
BRANCH  29  32
HETATM   32  O1  UNL     1     -31.050  63.342 -24.869  1.00  0.00    -0.281 OA
HETATM   33  C1  UNL     1     -30.001  64.270 -24.972  1.00  0.00     0.225 C 
ENDBRANCH  29  32
ENDBRANCH  28  29
ENDBRANCH  25  28
BRANCH  26  34
HETATM   34  N2  UNL     1     -33.176  60.154 -25.784  1.00  0.00    -0.039 N 
HETATM   35  O4  UNL     1     -32.992  59.916 -26.991  1.00  0.00    -0.516 OA
HETATM   36  O5  UNL     1     -34.365  59.754 -25.225  1.00  0.00    -0.516 OA
ENDBRANCH  26  34
ENDBRANCH   1  25
BRANCH   5  37
HETATM   37  N7  UNL     1     -32.527  57.589 -21.422  1.00  0.00    -0.191 N 
HETATM   38  C13 UNL     1     -33.251  58.321 -20.712  1.00  0.00     0.681 A 
HETATM   39  N8  UNL     1     -34.015  57.671 -19.777  1.00  0.00    -0.185 N 
HETATM   40  N10 UNL     1     -33.390  59.653 -20.734  1.00  0.00    -0.179 N 
HETATM   41  C14 UNL     1     -34.837  58.306 -18.944  1.00  0.00     0.128 A 
ATOM     42  H8  UNL     1     -33.950  56.656 -19.718  1.00  0.00     0.184 HD
HETATM   43  C16 UNL     1     -34.949  59.673 -18.999  1.00  0.00     0.082 A 
HETATM   44  C17 UNL     1     -34.205  60.352 -19.917  1.00  0.00     0.134 A 
HETATM   45  N9  UNL     1     -34.321  61.760 -19.971  1.00  0.00    -0.082 NA
ATOM     46  H10 UNL     1     -32.840  60.176 -21.416  1.00  0.00     0.185 HD
ATOM     47  H7  UNL     1     -32.624  56.602 -21.185  1.00  0.00     0.180 HD
BRANCH  41  48
HETATM   48  C15 UNL     1     -35.636  57.560 -17.955  1.00  0.00     0.227 C 
HETATM   49  O10 UNL     1     -36.575  56.828 -18.361  1.00  0.00    -0.643 OA
HETATM   50  O11 UNL     1     -35.376  57.651 -16.606  1.00  0.00    -0.643 OA
ENDBRANCH  41  48
ENDBRANCH   5  37
TORSDOF 13
ENDMDL
