MODEL 1
REMARK VINA RESULT: -9.539857368      0.000      0.000
REMARK  17 active torsions:
REMARK  status: ('A' for Active; 'I' for Inactive)
REMARK       I    between atoms: C2_2  and  N1_4 
REMARK    1  A    between atoms: N1_4  and  C3_5 
REMARK    2  A    between atoms: N1_4  and  C7_13 
REMARK    3  A    between atoms: C3_5  and  C4_6 
REMARK    4  A    between atoms: C4_6  and  C5_7 
REMARK    5  A    between atoms: C5_7  and  C6_8 
REMARK    6  A    between atoms: C6_8  and  N2_9 
REMARK    7  A    between atoms: C9_17  and  C10_18 
REMARK    8  A    between atoms: C11_21  and  O4_22 
REMARK    9  A    between atoms: O4_22  and  C12_23 
REMARK   10  A    between atoms: C14_26  and  C15_27 
REMARK   11  A    between atoms: C15_27  and  C16_28 
REMARK   12  A    between atoms: C17_29  and  O5_30 
REMARK   13  A    between atoms: C22_40  and  N6_41 
REMARK   14  A    between atoms: N6_41  and  C23_43 
REMARK   15  A    between atoms: C23_43  and  C24_44 
REMARK   16  A    between atoms: C24_44  and  O8_45 
REMARK   17  A    between atoms: C26_51  and  N9_52 
ROOT
HETATM    1  C12 UNL     1     -32.437  55.356 -24.219  1.00  0.00     0.137 A 
HETATM    2  C13 UNL     1     -31.715  55.572 -25.411  1.00  0.00     0.074 A 
HETATM    3  S1  UNL     1     -31.583  56.547 -26.792  1.00  0.00    -0.083 SA
HETATM    4  C14 UNL     1     -30.242  55.793 -27.542  1.00  0.00     0.035 A 
HETATM    5  C22 UNL     1     -29.936  54.785 -26.672  1.00  0.00     0.076 A 
HETATM    6  C25 UNL     1     -30.707  54.673 -25.561  1.00  0.00     0.106 A 
HETATM    7  N7  UNL     1     -30.775  53.862 -24.451  1.00  0.00    -0.219 N 
HETATM    8  N8  UNL     1     -30.222  52.817 -23.856  1.00  0.00    -0.122 N 
ATOM      9  H8  UNL     1     -29.425  52.296 -24.220  1.00  0.00     0.206 HD
HETATM   10  C26 UNL     1     -30.850  52.544 -22.721  1.00  0.00     0.713 A 
HETATM   11  N11 UNL     1     -31.826  53.446 -22.604  1.00  0.00    -0.169 N 
ATOM     12  H11 UNL     1     -32.491  53.503 -21.833  1.00  0.00     0.186 HD
HETATM   13  C27 UNL     1     -31.791  54.261 -23.661  1.00  0.00     0.178 A 
ENDROOT
BRANCH   1  14
HETATM   14  O4  UNL     1     -33.481  56.121 -23.868  1.00  0.00    -0.315 OA
BRANCH  14  15
HETATM   15  C11 UNL     1     -33.865  56.672 -22.616  1.00  0.00     0.287 C 
HETATM   16  C9  UNL     1     -35.306  57.017 -22.623  1.00  0.00     0.083 C 
HETATM   17  C8  UNL     1     -35.656  58.272 -22.839  1.00  0.00     0.124 C 
HETATM   18  N3  UNL     1     -34.741  59.336 -22.937  1.00  0.00    -0.201 N 
HETATM   19  C7  UNL     1     -33.475  59.190 -22.809  1.00  0.00     0.685 C 
ATOM     20  H3  UNL     1     -35.104  60.272 -23.119  1.00  0.00     0.183 HD
HETATM   21  N12 UNL     1     -33.017  57.882 -22.511  1.00  0.00    -0.194 N 
ATOM     22  H12 UNL     1     -32.050  57.767 -22.209  1.00  0.00     0.180 HD
BRANCH  16  23
HETATM   23  C10 UNL     1     -36.357  56.025 -22.525  1.00  0.00     0.211 C 
HETATM   24  O2  UNL     1     -37.214  56.027 -21.600  1.00  0.00    -0.644 OA
HETATM   25  O3  UNL     1     -36.442  55.028 -23.465  1.00  0.00    -0.644 OA
ENDBRANCH  16  23
BRANCH  19  26
HETATM   26  N1  UNL     1     -32.622  60.310 -22.933  1.00  0.00    -0.151 N 
HETATM   27  C2  UNL     1     -32.456  61.215 -21.874  1.00  0.00     0.234 C 
HETATM   28  C1  UNL     1     -33.089  61.138 -20.555  1.00  0.00     0.118 C 
HETATM   29  O1  UNL     1     -31.675  62.210 -22.082  1.00  0.00    -0.273 OA
BRANCH  26  30
HETATM   30  C3  UNL     1     -31.937  60.509 -24.207  1.00  0.00     0.151 C 
BRANCH  30  31
HETATM   31  C4  UNL     1     -30.986  59.439 -24.576  1.00  0.00     0.022 C 
BRANCH  31  32
HETATM   32  C5  UNL     1     -29.807  59.200 -23.714  1.00  0.00     0.029 C 
BRANCH  32  33
HETATM   33  C6  UNL     1     -29.278  57.781 -23.839  1.00  0.00     0.229 C 
BRANCH  33  34
HETATM   34  N2  UNL     1     -28.445  57.606 -24.983  1.00  0.00    -0.079 N 
ATOM     35  H23 UNL     1     -27.852  58.422 -25.133  1.00  0.00     0.274 HD
ATOM     36  H22 UNL     1     -27.722  56.909 -24.807  1.00  0.00     0.274 HD
ATOM     37  H21 UNL     1     -28.976  57.379 -25.824  1.00  0.00     0.274 HD
ENDBRANCH  33  34
ENDBRANCH  32  33
ENDBRANCH  31  32
ENDBRANCH  30  31
ENDBRANCH  26  30
ENDBRANCH  19  26
ENDBRANCH  14  15
ENDBRANCH   1  14
BRANCH   4  38
HETATM   38  C15 UNL     1     -29.632  56.135 -28.701  1.00  0.00     0.042 C 
BRANCH  38  39
HETATM   39  C16 UNL     1     -30.021  55.482 -29.922  1.00  0.00     0.085 A 
HETATM   40  C17 UNL     1     -31.276  55.558 -30.479  1.00  0.00     0.162 A 
HETATM   41  N4  UNL     1     -31.589  54.919 -31.632  1.00  0.00    -0.283 N 
HETATM   42  C18 UNL     1     -32.907  55.002 -32.219  1.00  0.00     0.163 C 
HETATM   43  C19 UNL     1     -30.627  54.194 -32.234  1.00  0.00     0.332 A 
HETATM   44  O6  UNL     1     -30.926  53.600 -33.308  1.00  0.00    -0.246 OA
HETATM   45  N5  UNL     1     -29.373  54.072 -31.746  1.00  0.00    -0.270 N 
HETATM   46  C20 UNL     1     -28.406  53.272 -32.463  1.00  0.00     0.164 C 
HETATM   47  C21 UNL     1     -29.081  54.720 -30.592  1.00  0.00     0.265 A 
HETATM   48  O7  UNL     1     -27.905  54.603 -30.144  1.00  0.00    -0.267 OA
BRANCH  40  49
HETATM   49  O5  UNL     1     -32.228  56.310 -29.831  1.00  0.00    -0.345 OA
ATOM     50  H5  UNL     1     -33.117  56.290 -30.164  1.00  0.00     0.219 HD
ENDBRANCH  40  49
ENDBRANCH  38  39
ENDBRANCH   4  38
BRANCH   5  51
HETATM   51  N6  UNL     1     -28.815  53.908 -27.009  1.00  0.00    -0.385 N 
ATOM     52  H6  UNL     1     -27.867  54.192 -26.761  1.00  0.00     0.159 HD
BRANCH  51  53
HETATM   53  C23 UNL     1     -29.024  52.654 -27.683  1.00  0.00     0.146 C 
BRANCH  53  54
HETATM   54  C24 UNL     1     -29.153  51.550 -26.660  1.00  0.00     0.183 C 
BRANCH  54  55
HETATM   55  O8  UNL     1     -28.108  51.586 -25.768  1.00  0.00    -0.399 OA
ATOM     56  H8  UNL     1     -27.323  51.210 -26.151  1.00  0.00     0.209 HD
ENDBRANCH  54  55
ENDBRANCH  53  54
ENDBRANCH  51  53
ENDBRANCH   5  51
BRANCH  10  57
HETATM   57  N9  UNL     1     -30.496  51.476 -21.846  1.00  0.00    -0.137 N 
HETATM   58  N10 UNL     1     -31.353  50.660 -21.386  1.00  0.00    -0.331 N 
ATOM     59 2H10 UNL     1     -32.326  50.787 -21.663  1.00  0.00     0.177 HD
ATOM     60 1H10 UNL     1     -31.100  49.896 -20.760  1.00  0.00     0.177 HD
ATOM     61  H9  UNL     1     -29.518  51.363 -21.579  1.00  0.00     0.205 HD
ENDBRANCH  10  57
TORSDOF 17
ENDMDL
MODEL 2
REMARK VINA RESULT: -9.508385912      1.679      3.470
REMARK  17 active torsions:
REMARK  status: ('A' for Active; 'I' for Inactive)
REMARK       I    between atoms: C2_2  and  N1_4 
REMARK    1  A    between atoms: N1_4  and  C3_5 
REMARK    2  A    between atoms: N1_4  and  C7_13 
REMARK    3  A    between atoms: C3_5  and  C4_6 
REMARK    4  A    between atoms: C4_6  and  C5_7 
REMARK    5  A    between atoms: C5_7  and  C6_8 
REMARK    6  A    between atoms: C6_8  and  N2_9 
REMARK    7  A    between atoms: C9_17  and  C10_18 
REMARK    8  A    between atoms: C11_21  and  O4_22 
REMARK    9  A    between atoms: O4_22  and  C12_23 
REMARK   10  A    between atoms: C14_26  and  C15_27 
REMARK   11  A    between atoms: C15_27  and  C16_28 
REMARK   12  A    between atoms: C17_29  and  O5_30 
REMARK   13  A    between atoms: C22_40  and  N6_41 
REMARK   14  A    between atoms: N6_41  and  C23_43 
REMARK   15  A    between atoms: C23_43  and  C24_44 
REMARK   16  A    between atoms: C24_44  and  O8_45 
REMARK   17  A    between atoms: C26_51  and  N9_52 
ROOT
HETATM    1  C12 UNL     1     -31.850  55.653 -24.045  1.00  0.00     0.137 A 
HETATM    2  C13 UNL     1     -31.246  55.792 -25.312  1.00  0.00     0.074 A 
HETATM    3  S1  UNL     1     -31.114  56.782 -26.682  1.00  0.00    -0.083 SA
HETATM    4  C14 UNL     1     -30.014  55.845 -27.601  1.00  0.00     0.035 A 
HETATM    5  C22 UNL     1     -29.783  54.769 -26.792  1.00  0.00     0.076 A 
HETATM    6  C25 UNL     1     -30.427  54.745 -25.598  1.00  0.00     0.106 A 
HETATM    7  N7  UNL     1     -30.501  53.915 -24.503  1.00  0.00    -0.219 N 
HETATM    8  N8  UNL     1     -30.066  52.773 -23.996  1.00  0.00    -0.122 N 
ATOM      9  H8  UNL     1     -29.415  52.141 -24.463  1.00  0.00     0.206 HD
HETATM   10  C26 UNL     1     -30.594  52.564 -22.799  1.00  0.00     0.713 A 
HETATM   11  N11 UNL     1     -31.385  53.610 -22.549  1.00  0.00    -0.169 N 
ATOM     12  H11 UNL     1     -31.937  53.748 -21.703  1.00  0.00     0.186 HD
HETATM   13  C27 UNL     1     -31.336  54.447 -23.589  1.00  0.00     0.178 A 
ENDROOT
BRANCH   1  14
HETATM   14  O4  UNL     1     -32.703  56.566 -23.558  1.00  0.00    -0.315 OA
BRANCH  14  15
HETATM   15  C11 UNL     1     -32.568  57.966 -23.354  1.00  0.00     0.287 C 
HETATM   16  C9  UNL     1     -31.358  58.256 -22.550  1.00  0.00     0.083 C 
HETATM   17  C8  UNL     1     -31.495  58.478 -21.256  1.00  0.00     0.124 C 
HETATM   18  N3  UNL     1     -32.738  58.584 -20.606  1.00  0.00    -0.201 N 
HETATM   19  C7  UNL     1     -33.861  58.491 -21.214  1.00  0.00     0.685 C 
ATOM     20  H3  UNL     1     -32.746  58.743 -19.598  1.00  0.00     0.183 HD
HETATM   21  N12 UNL     1     -33.806  58.316 -22.620  1.00  0.00    -0.194 N 
ATOM     22  H12 UNL     1     -34.665  58.437 -23.155  1.00  0.00     0.180 HD
BRANCH  16  23
HETATM   23  C10 UNL     1     -30.015  58.190 -23.090  1.00  0.00     0.211 C 
HETATM   24  O2  UNL     1     -29.123  57.436 -22.612  1.00  0.00    -0.644 OA
HETATM   25  O3  UNL     1     -29.672  58.973 -24.164  1.00  0.00    -0.644 OA
ENDBRANCH  16  23
BRANCH  19  26
HETATM   26  N1  UNL     1     -35.067  58.598 -20.486  1.00  0.00    -0.151 N 
HETATM   27  C2  UNL     1     -35.806  59.791 -20.477  1.00  0.00     0.234 C 
HETATM   28  C1  UNL     1     -35.472  61.026 -21.190  1.00  0.00     0.118 C 
HETATM   29  O1  UNL     1     -36.878  59.801 -19.776  1.00  0.00    -0.273 OA
BRANCH  26  30
HETATM   30  C3  UNL     1     -35.508  57.435 -19.719  1.00  0.00     0.151 C 
BRANCH  30  31
HETATM   31  C4  UNL     1     -35.817  56.238 -20.529  1.00  0.00     0.022 C 
BRANCH  31  32
HETATM   32  C5  UNL     1     -36.858  56.331 -21.577  1.00  0.00     0.029 C 
BRANCH  32  33
HETATM   33  C6  UNL     1     -36.432  55.667 -22.875  1.00  0.00     0.229 C 
BRANCH  33  34
HETATM   34  N2  UNL     1     -35.175  55.003 -22.764  1.00  0.00    -0.079 N 
ATOM     35  H23 UNL     1     -34.735  55.200 -21.865  1.00  0.00     0.274 HD
ATOM     36  H22 UNL     1     -35.300  53.995 -22.668  1.00  0.00     0.274 HD
ATOM     37  H21 UNL     1     -34.546  55.222 -23.537  1.00  0.00     0.274 HD
ENDBRANCH  33  34
ENDBRANCH  32  33
ENDBRANCH  31  32
ENDBRANCH  30  31
ENDBRANCH  26  30
ENDBRANCH  19  26
ENDBRANCH  14  15
ENDBRANCH   1  14
BRANCH   4  38
HETATM   38  C15 UNL     1     -29.494  56.125 -28.820  1.00  0.00     0.042 C 
BRANCH  38  39
HETATM   39  C16 UNL     1     -30.063  55.508 -29.987  1.00  0.00     0.085 A 
HETATM   40  C17 UNL     1     -31.373  55.646 -30.380  1.00  0.00     0.162 A 
HETATM   41  N4  UNL     1     -31.858  55.039 -31.490  1.00  0.00    -0.283 N 
HETATM   42  C18 UNL     1     -33.235  55.187 -31.904  1.00  0.00     0.163 C 
HETATM   43  C19 UNL     1     -31.013  54.282 -32.216  1.00  0.00     0.332 A 
HETATM   44  O6  UNL     1     -31.471  53.718 -33.249  1.00  0.00    -0.246 OA
HETATM   45  N5  UNL     1     -29.714  54.100 -31.893  1.00  0.00    -0.270 N 
HETATM   46  C20 UNL     1     -28.882  53.270 -32.734  1.00  0.00     0.164 C 
HETATM   47  C21 UNL     1     -29.251  54.716 -30.779  1.00  0.00     0.265 A 
HETATM   48  O7  UNL     1     -28.034  54.543 -30.484  1.00  0.00    -0.267 OA
BRANCH  40  49
HETATM   49  O5  UNL     1     -32.202  56.429 -29.609  1.00  0.00    -0.345 OA
ATOM     50  H5  UNL     1     -32.539  57.232 -29.989  1.00  0.00     0.219 HD
ENDBRANCH  40  49
ENDBRANCH  38  39
ENDBRANCH   4  38
BRANCH   5  51
HETATM   51  N6  UNL     1     -28.872  53.734 -27.277  1.00  0.00    -0.385 N 
ATOM     52  H6  UNL     1     -27.866  53.893 -27.234  1.00  0.00     0.159 HD
BRANCH  51  53
HETATM   53  C23 UNL     1     -29.368  52.494 -27.813  1.00  0.00     0.146 C 
BRANCH  53  54
HETATM   54  C24 UNL     1     -29.256  51.412 -26.766  1.00  0.00     0.183 C 
BRANCH  54  55
HETATM   55  O8  UNL     1     -28.139  51.601 -25.986  1.00  0.00    -0.399 OA
ATOM     56  H8  UNL     1     -28.310  51.350 -25.085  1.00  0.00     0.209 HD
ENDBRANCH  54  55
ENDBRANCH  53  54
ENDBRANCH  51  53
ENDBRANCH   5  51
BRANCH  10  57
HETATM   57  N9  UNL     1     -30.325  51.421 -21.991  1.00  0.00    -0.137 N 
HETATM   58  N10 UNL     1     -31.249  50.726 -21.467  1.00  0.00    -0.331 N 
ATOM     59 2H10 UNL     1     -32.213  51.008 -21.640  1.00  0.00     0.177 HD
ATOM     60 1H10 UNL     1     -31.056  49.907 -20.890  1.00  0.00     0.177 HD
ATOM     61  H9  UNL     1     -29.355  51.152 -21.828  1.00  0.00     0.205 HD
ENDBRANCH  10  57
TORSDOF 17
ENDMDL
MODEL 3
REMARK VINA RESULT: -9.506719437      1.828      2.410
REMARK  17 active torsions:
REMARK  status: ('A' for Active; 'I' for Inactive)
REMARK       I    between atoms: C2_2  and  N1_4 
REMARK    1  A    between atoms: N1_4  and  C3_5 
REMARK    2  A    between atoms: N1_4  and  C7_13 
REMARK    3  A    between atoms: C3_5  and  C4_6 
REMARK    4  A    between atoms: C4_6  and  C5_7 
REMARK    5  A    between atoms: C5_7  and  C6_8 
REMARK    6  A    between atoms: C6_8  and  N2_9 
REMARK    7  A    between atoms: C9_17  and  C10_18 
REMARK    8  A    between atoms: C11_21  and  O4_22 
REMARK    9  A    between atoms: O4_22  and  C12_23 
REMARK   10  A    between atoms: C14_26  and  C15_27 
REMARK   11  A    between atoms: C15_27  and  C16_28 
REMARK   12  A    between atoms: C17_29  and  O5_30 
REMARK   13  A    between atoms: C22_40  and  N6_41 
REMARK   14  A    between atoms: N6_41  and  C23_43 
REMARK   15  A    between atoms: C23_43  and  C24_44 
REMARK   16  A    between atoms: C24_44  and  O8_45 
REMARK   17  A    between atoms: C26_51  and  N9_52 
ROOT
HETATM    1  C12 UNL     1     -31.775  55.594 -23.891  1.00  0.00     0.137 A 
HETATM    2  C13 UNL     1     -31.184  55.754 -25.161  1.00  0.00     0.074 A 
HETATM    3  S1  UNL     1     -31.040  56.782 -26.502  1.00  0.00    -0.083 SA
HETATM    4  C14 UNL     1     -29.983  55.841 -27.465  1.00  0.00     0.035 A 
HETATM    5  C22 UNL     1     -29.775  54.734 -26.694  1.00  0.00     0.076 A 
HETATM    6  C25 UNL     1     -30.403  54.692 -25.491  1.00  0.00     0.106 A 
HETATM    7  N7  UNL     1     -30.488  53.831 -24.421  1.00  0.00    -0.219 N 
HETATM    8  N8  UNL     1     -30.082  52.661 -23.957  1.00  0.00    -0.122 N 
ATOM      9  H8  UNL     1     -29.457  52.023 -24.452  1.00  0.00     0.206 HD
HETATM   10  C26 UNL     1     -30.600  52.431 -22.759  1.00  0.00     0.713 A 
HETATM   11  N11 UNL     1     -31.354  53.492 -22.466  1.00  0.00    -0.169 N 
ATOM     12  H11 UNL     1     -31.889  53.620 -21.607  1.00  0.00     0.186 HD
HETATM   13  C27 UNL     1     -31.293  54.359 -23.479  1.00  0.00     0.178 A 
ENDROOT
BRANCH   1  14
HETATM   14  O4  UNL     1     -32.593  56.517 -23.363  1.00  0.00    -0.315 OA
BRANCH  14  15
HETATM   15  C11 UNL     1     -32.337  57.618 -22.501  1.00  0.00     0.287 C 
HETATM   16  C9  UNL     1     -33.564  57.991 -21.761  1.00  0.00     0.083 C 
HETATM   17  C8  UNL     1     -34.285  59.006 -22.199  1.00  0.00     0.124 C 
HETATM   18  N3  UNL     1     -33.894  59.847 -23.258  1.00  0.00    -0.201 N 
HETATM   19  C7  UNL     1     -32.788  59.715 -23.889  1.00  0.00     0.685 C 
ATOM     20  H3  UNL     1     -34.524  60.600 -23.537  1.00  0.00     0.183 HD
HETATM   21  N12 UNL     1     -31.922  58.686 -23.440  1.00  0.00    -0.194 N 
ATOM     22  H12 UNL     1     -30.962  58.680 -23.782  1.00  0.00     0.180 HD
BRANCH  16  23
HETATM   23  C10 UNL     1     -34.082  57.220 -20.648  1.00  0.00     0.211 C 
HETATM   24  O2  UNL     1     -35.135  56.530 -20.726  1.00  0.00    -0.644 OA
HETATM   25  O3  UNL     1     -33.418  57.228 -19.446  1.00  0.00    -0.644 OA
ENDBRANCH  16  23
BRANCH  19  26
HETATM   26  N1  UNL     1     -32.474  60.595 -24.949  1.00  0.00    -0.151 N 
HETATM   27  C2  UNL     1     -31.920  61.860 -24.702  1.00  0.00     0.234 C 
HETATM   28  C1  UNL     1     -31.587  62.423 -23.391  1.00  0.00     0.118 C 
HETATM   29  O1  UNL     1     -31.683  62.597 -25.723  1.00  0.00    -0.273 OA
BRANCH  26  30
HETATM   30  C3  UNL     1     -32.768  60.156 -26.311  1.00  0.00     0.151 C 
BRANCH  30  31
HETATM   31  C4  UNL     1     -34.123  60.493 -26.793  1.00  0.00     0.022 C 
BRANCH  31  32
HETATM   32  C5  UNL     1     -34.369  60.563 -28.251  1.00  0.00     0.029 C 
BRANCH  32  33
HETATM   33  C6  UNL     1     -34.443  59.187 -28.892  1.00  0.00     0.229 C 
BRANCH  33  34
HETATM   34  N2  UNL     1     -33.611  59.074 -30.044  1.00  0.00    -0.079 N 
ATOM     35  H23 UNL     1     -33.688  58.147 -30.461  1.00  0.00     0.274 HD
ATOM     36  H22 UNL     1     -33.976  59.632 -30.816  1.00  0.00     0.274 HD
ATOM     37  H21 UNL     1     -32.638  59.310 -29.849  1.00  0.00     0.274 HD
ENDBRANCH  33  34
ENDBRANCH  32  33
ENDBRANCH  31  32
ENDBRANCH  30  31
ENDBRANCH  26  30
ENDBRANCH  19  26
ENDBRANCH  14  15
ENDBRANCH   1  14
BRANCH   4  38
HETATM   38  C15 UNL     1     -29.471  56.142 -28.682  1.00  0.00     0.042 C 
BRANCH  38  39
HETATM   39  C16 UNL     1     -30.031  55.527 -29.855  1.00  0.00     0.085 A 
HETATM   40  C17 UNL     1     -31.338  55.664 -30.257  1.00  0.00     0.162 A 
HETATM   41  N4  UNL     1     -31.814  55.058 -31.372  1.00  0.00    -0.283 N 
HETATM   42  C18 UNL     1     -33.188  55.206 -31.796  1.00  0.00     0.163 C 
HETATM   43  C19 UNL     1     -30.963  54.302 -32.092  1.00  0.00     0.332 A 
HETATM   44  O6  UNL     1     -31.413  53.739 -33.129  1.00  0.00    -0.246 OA
HETATM   45  N5  UNL     1     -29.667  54.119 -31.758  1.00  0.00    -0.270 N 
HETATM   46  C20 UNL     1     -28.828  53.290 -32.594  1.00  0.00     0.164 C 
HETATM   47  C21 UNL     1     -29.212  54.735 -30.641  1.00  0.00     0.265 A 
HETATM   48  O7  UNL     1     -27.998  54.562 -30.336  1.00  0.00    -0.267 OA
BRANCH  40  49
HETATM   49  O5  UNL     1     -32.172  56.447 -29.493  1.00  0.00    -0.345 OA
ATOM     50  H5  UNL     1     -32.034  57.387 -29.499  1.00  0.00     0.219 HD
ENDBRANCH  40  49
ENDBRANCH  38  39
ENDBRANCH   4  38
BRANCH   5  51
HETATM   51  N6  UNL     1     -28.903  53.686 -27.223  1.00  0.00    -0.385 N 
ATOM     52  H6  UNL     1     -27.892  53.818 -27.200  1.00  0.00     0.159 HD
BRANCH  51  53
HETATM   53  C23 UNL     1     -29.444  52.473 -27.776  1.00  0.00     0.146 C 
BRANCH  53  54
HETATM   54  C24 UNL     1     -29.212  51.333 -26.813  1.00  0.00     0.183 C 
BRANCH  54  55
HETATM   55  O8  UNL     1     -28.158  51.610 -25.974  1.00  0.00    -0.399 OA
ATOM     56  H8  UNL     1     -27.365  51.774 -26.472  1.00  0.00     0.209 HD
ENDBRANCH  54  55
ENDBRANCH  53  54
ENDBRANCH  51  53
ENDBRANCH   5  51
BRANCH  10  57
HETATM   57  N9  UNL     1     -30.356  51.255 -21.991  1.00  0.00    -0.137 N 
HETATM   58  N10 UNL     1     -31.278  50.646 -21.367  1.00  0.00    -0.331 N 
ATOM     59 2H10 UNL     1     -32.223  51.024 -21.428  1.00  0.00     0.177 HD
ATOM     60 1H10 UNL     1     -31.104  49.804 -20.818  1.00  0.00     0.177 HD
ATOM     61  H9  UNL     1     -29.405  50.890 -21.940  1.00  0.00     0.205 HD
ENDBRANCH  10  57
TORSDOF 17
ENDMDL
MODEL 4
REMARK VINA RESULT: -9.456038598      1.670      2.123
REMARK  17 active torsions:
REMARK  status: ('A' for Active; 'I' for Inactive)
REMARK       I    between atoms: C2_2  and  N1_4 
REMARK    1  A    between atoms: N1_4  and  C3_5 
REMARK    2  A    between atoms: N1_4  and  C7_13 
REMARK    3  A    between atoms: C3_5  and  C4_6 
REMARK    4  A    between atoms: C4_6  and  C5_7 
REMARK    5  A    between atoms: C5_7  and  C6_8 
REMARK    6  A    between atoms: C6_8  and  N2_9 
REMARK    7  A    between atoms: C9_17  and  C10_18 
REMARK    8  A    between atoms: C11_21  and  O4_22 
REMARK    9  A    between atoms: O4_22  and  C12_23 
REMARK   10  A    between atoms: C14_26  and  C15_27 
REMARK   11  A    between atoms: C15_27  and  C16_28 
REMARK   12  A    between atoms: C17_29  and  O5_30 
REMARK   13  A    between atoms: C22_40  and  N6_41 
REMARK   14  A    between atoms: N6_41  and  C23_43 
REMARK   15  A    between atoms: C23_43  and  C24_44 
REMARK   16  A    between atoms: C24_44  and  O8_45 
REMARK   17  A    between atoms: C26_51  and  N9_52 
ROOT
HETATM    1  C12 UNL     1     -31.729  55.736 -24.128  1.00  0.00     0.137 A 
HETATM    2  C13 UNL     1     -31.128  55.846 -25.399  1.00  0.00     0.074 A 
HETATM    3  S1  UNL     1     -30.975  56.820 -26.779  1.00  0.00    -0.083 SA
HETATM    4  C14 UNL     1     -29.907  55.844 -27.694  1.00  0.00     0.035 A 
HETATM    5  C22 UNL     1     -29.702  54.770 -26.877  1.00  0.00     0.076 A 
HETATM    6  C25 UNL     1     -30.340  54.774 -25.679  1.00  0.00     0.106 A 
HETATM    7  N7  UNL     1     -30.431  53.958 -24.575  1.00  0.00    -0.219 N 
HETATM    8  N8  UNL     1     -30.026  52.808 -24.061  1.00  0.00    -0.122 N 
ATOM      9  H8  UNL     1     -29.395  52.154 -24.524  1.00  0.00     0.206 HD
HETATM   10  C26 UNL     1     -30.553  52.625 -22.859  1.00  0.00     0.713 A 
HETATM   11  N11 UNL     1     -31.313  53.695 -22.615  1.00  0.00    -0.169 N 
ATOM     12  H11 UNL     1     -31.857  53.855 -21.767  1.00  0.00     0.186 HD
HETATM   13  C27 UNL     1     -31.247  54.521 -23.662  1.00  0.00     0.178 A 
ENDROOT
BRANCH   1  14
HETATM   14  O4  UNL     1     -32.554  56.677 -23.645  1.00  0.00    -0.315 OA
BRANCH  14  15
HETATM   15  C11 UNL     1     -32.465  57.506 -22.494  1.00  0.00     0.287 C 
HETATM   16  C9  UNL     1     -33.765  57.547 -21.785  1.00  0.00     0.083 C 
HETATM   17  C8  UNL     1     -34.562  58.580 -21.984  1.00  0.00     0.124 C 
HETATM   18  N3  UNL     1     -34.203  59.716 -22.732  1.00  0.00    -0.201 N 
HETATM   19  C7  UNL     1     -33.056  59.864 -23.280  1.00  0.00     0.685 C 
ATOM     20  H3  UNL     1     -34.892  60.460 -22.843  1.00  0.00     0.183 HD
HETATM   21  N12 UNL     1     -32.113  58.827 -23.063  1.00  0.00    -0.194 N 
ATOM     22  H12 UNL     1     -31.140  59.001 -23.311  1.00  0.00     0.180 HD
BRANCH  16  23
HETATM   23  C10 UNL     1     -34.260  56.451 -20.976  1.00  0.00     0.211 C 
HETATM   24  O2  UNL     1     -35.305  56.538 -20.275  1.00  0.00    -0.644 OA
HETATM   25  O3  UNL     1     -33.579  55.259 -20.953  1.00  0.00    -0.644 OA
ENDBRANCH  16  23
BRANCH  19  26
HETATM   26  N1  UNL     1     -32.777  61.032 -24.025  1.00  0.00    -0.151 N 
HETATM   27  C2  UNL     1     -32.810  61.022 -25.428  1.00  0.00     0.234 C 
HETATM   28  C1  UNL     1     -33.134  59.878 -26.283  1.00  0.00     0.118 C 
HETATM   29  O1  UNL     1     -32.527  62.123 -26.020  1.00  0.00    -0.273 OA
BRANCH  26  30
HETATM   30  C3  UNL     1     -32.427  62.244 -23.289  1.00  0.00     0.151 C 
BRANCH  30  31
HETATM   31  C4  UNL     1     -31.027  62.304 -22.820  1.00  0.00     0.022 C 
BRANCH  31  32
HETATM   32  C5  UNL     1     -30.136  63.357 -23.355  1.00  0.00     0.029 C 
BRANCH  32  33
HETATM   33  C6  UNL     1     -28.666  63.016 -23.176  1.00  0.00     0.229 C 
BRANCH  33  34
HETATM   34  N2  UNL     1     -27.807  64.106 -23.505  1.00  0.00    -0.079 N 
ATOM     35  H23 UNL     1     -27.392  63.980 -24.428  1.00  0.00     0.274 HD
ATOM     36  H22 UNL     1     -28.344  64.956 -23.682  1.00  0.00     0.274 HD
ATOM     37  H21 UNL     1     -27.089  64.267 -22.798  1.00  0.00     0.274 HD
ENDBRANCH  33  34
ENDBRANCH  32  33
ENDBRANCH  31  32
ENDBRANCH  30  31
ENDBRANCH  26  30
ENDBRANCH  19  26
ENDBRANCH  14  15
ENDBRANCH   1  14
BRANCH   4  38
HETATM   38  C15 UNL     1     -29.385  56.098 -28.918  1.00  0.00     0.042 C 
BRANCH  38  39
HETATM   39  C16 UNL     1     -29.975  55.484 -30.077  1.00  0.00     0.085 A 
HETATM   40  C17 UNL     1     -31.303  55.580 -30.417  1.00  0.00     0.162 A 
HETATM   41  N4  UNL     1     -31.807  54.977 -31.521  1.00  0.00    -0.283 N 
HETATM   42  C18 UNL     1     -33.203  55.081 -31.881  1.00  0.00     0.163 C 
HETATM   43  C19 UNL     1     -30.962  54.268 -32.294  1.00  0.00     0.332 A 
HETATM   44  O6  UNL     1     -31.438  53.708 -33.322  1.00  0.00    -0.246 OA
HETATM   45  N5  UNL     1     -29.646  54.128 -32.023  1.00  0.00    -0.270 N 
HETATM   46  C20 UNL     1     -28.816  53.348 -32.913  1.00  0.00     0.164 C 
HETATM   47  C21 UNL     1     -29.164  54.740 -30.915  1.00  0.00     0.265 A 
HETATM   48  O7  UNL     1     -27.931  54.607 -30.669  1.00  0.00    -0.267 OA
BRANCH  40  49
HETATM   49  O5  UNL     1     -32.130  56.315 -29.600  1.00  0.00    -0.345 OA
ATOM     50  H5  UNL     1     -32.398  55.931 -28.773  1.00  0.00     0.219 HD
ENDBRANCH  40  49
ENDBRANCH  38  39
ENDBRANCH   4  38
BRANCH   5  51
HETATM   51  N6  UNL     1     -28.822  53.705 -27.356  1.00  0.00    -0.385 N 
ATOM     52  H6  UNL     1     -27.811  53.832 -27.309  1.00  0.00     0.159 HD
BRANCH  51  53
HETATM   53  C23 UNL     1     -29.355  52.480 -27.892  1.00  0.00     0.146 C 
BRANCH  53  54
HETATM   54  C24 UNL     1     -29.267  51.394 -26.847  1.00  0.00     0.183 C 
BRANCH  54  55
HETATM   55  O8  UNL     1     -28.164  51.574 -26.046  1.00  0.00    -0.399 OA
ATOM     56  H8  UNL     1     -27.374  51.649 -26.570  1.00  0.00     0.209 HD
ENDBRANCH  54  55
ENDBRANCH  53  54
ENDBRANCH  51  53
ENDBRANCH   5  51
BRANCH  10  57
HETATM   57  N9  UNL     1     -30.312  51.483 -22.042  1.00  0.00    -0.137 N 
HETATM   58  N10 UNL     1     -31.248  50.851 -21.462  1.00  0.00    -0.331 N 
ATOM     59 2H10 UNL     1     -32.202  51.186 -21.596  1.00  0.00     0.177 HD
ATOM     60 1H10 UNL     1     -31.075  50.032 -20.878  1.00  0.00     0.177 HD
ATOM     61  H9  UNL     1     -29.352  51.161 -21.918  1.00  0.00     0.205 HD
ENDBRANCH  10  57
TORSDOF 17
ENDMDL
MODEL 5
REMARK VINA RESULT: -9.283097488      1.014      1.253
REMARK  17 active torsions:
REMARK  status: ('A' for Active; 'I' for Inactive)
REMARK       I    between atoms: C2_2  and  N1_4 
REMARK    1  A    between atoms: N1_4  and  C3_5 
REMARK    2  A    between atoms: N1_4  and  C7_13 
REMARK    3  A    between atoms: C3_5  and  C4_6 
REMARK    4  A    between atoms: C4_6  and  C5_7 
REMARK    5  A    between atoms: C5_7  and  C6_8 
REMARK    6  A    between atoms: C6_8  and  N2_9 
REMARK    7  A    between atoms: C9_17  and  C10_18 
REMARK    8  A    between atoms: C11_21  and  O4_22 
REMARK    9  A    between atoms: O4_22  and  C12_23 
REMARK   10  A    between atoms: C14_26  and  C15_27 
REMARK   11  A    between atoms: C15_27  and  C16_28 
REMARK   12  A    between atoms: C17_29  and  O5_30 
REMARK   13  A    between atoms: C22_40  and  N6_41 
REMARK   14  A    between atoms: N6_41  and  C23_43 
REMARK   15  A    between atoms: C23_43  and  C24_44 
REMARK   16  A    between atoms: C24_44  and  O8_45 
REMARK   17  A    between atoms: C26_51  and  N9_52 
ROOT
HETATM    1  C12 UNL     1     -32.391  55.516 -24.060  1.00  0.00     0.137 A 
HETATM    2  C13 UNL     1     -31.691  55.704 -25.270  1.00  0.00     0.074 A 
HETATM    3  S1  UNL     1     -31.546  56.682 -26.648  1.00  0.00    -0.083 SA
HETATM    4  C14 UNL     1     -30.267  55.864 -27.439  1.00  0.00     0.035 A 
HETATM    5  C22 UNL     1     -29.991  54.835 -26.586  1.00  0.00     0.076 A 
HETATM    6  C25 UNL     1     -30.736  54.754 -25.454  1.00  0.00     0.106 A 
HETATM    7  N7  UNL     1     -30.817  53.939 -24.349  1.00  0.00    -0.219 N 
HETATM    8  N8  UNL     1     -30.304  52.862 -23.776  1.00  0.00    -0.122 N 
ATOM      9  H8  UNL     1     -29.545  52.302 -24.165  1.00  0.00     0.206 HD
HETATM   10  C26 UNL     1     -30.914  52.612 -22.626  1.00  0.00     0.713 A 
HETATM   11  N11 UNL     1     -31.838  53.563 -22.476  1.00  0.00    -0.169 N 
ATOM     12  H11 UNL     1     -32.478  53.649 -21.687  1.00  0.00     0.186 HD
HETATM   13  C27 UNL     1     -31.788  54.385 -23.528  1.00  0.00     0.178 A 
ENDROOT
BRANCH   1  14
HETATM   14  O4  UNL     1     -33.383  56.332 -23.676  1.00  0.00    -0.315 OA
BRANCH  14  15
HETATM   15  C11 UNL     1     -34.223  56.317 -22.530  1.00  0.00     0.287 C 
HETATM   16  C9  UNL     1     -35.644  56.442 -22.928  1.00  0.00     0.083 C 
HETATM   17  C8  UNL     1     -36.222  57.626 -22.851  1.00  0.00     0.124 C 
HETATM   18  N3  UNL     1     -35.610  58.762 -22.290  1.00  0.00    -0.201 N 
HETATM   19  C7  UNL     1     -34.435  58.751 -21.783  1.00  0.00     0.685 C 
ATOM     20  H3  UNL     1     -36.130  59.640 -22.286  1.00  0.00     0.183 HD
HETATM   21  N12 UNL     1     -33.766  57.501 -21.767  1.00  0.00    -0.194 N 
ATOM     22  H12 UNL     1     -32.923  57.412 -21.199  1.00  0.00     0.180 HD
BRANCH  16  23
HETATM   23  C10 UNL     1     -36.400  55.354 -23.515  1.00  0.00     0.211 C 
HETATM   24  O2  UNL     1     -36.049  54.146 -23.415  1.00  0.00    -0.644 OA
HETATM   25  O3  UNL     1     -37.548  55.623 -24.219  1.00  0.00    -0.644 OA
ENDBRANCH  16  23
BRANCH  19  26
HETATM   26  N1  UNL     1     -33.887  59.939 -21.248  1.00  0.00    -0.151 N 
HETATM   27  C2  UNL     1     -34.160  60.334 -19.929  1.00  0.00     0.234 C 
HETATM   28  C1  UNL     1     -34.989  59.614 -18.959  1.00  0.00     0.118 C 
HETATM   29  O1  UNL     1     -33.634  61.433 -19.535  1.00  0.00    -0.273 OA
BRANCH  26  30
HETATM   30  C3  UNL     1     -33.048  60.757 -22.119  1.00  0.00     0.151 C 
BRANCH  30  31
HETATM   31  C4  UNL     1     -31.689  60.225 -22.352  1.00  0.00     0.022 C 
BRANCH  31  32
HETATM   32  C5  UNL     1     -31.282  59.876 -23.732  1.00  0.00     0.029 C 
BRANCH  32  33
HETATM   33  C6  UNL     1     -30.078  58.951 -23.762  1.00  0.00     0.229 C 
BRANCH  33  34
HETATM   34  N2  UNL     1     -29.941  58.191 -22.564  1.00  0.00    -0.079 N 
ATOM     35  H23 UNL     1     -29.395  57.345 -22.727  1.00  0.00     0.274 HD
ATOM     36  H22 UNL     1     -29.323  58.659 -21.900  1.00  0.00     0.274 HD
ATOM     37  H21 UNL     1     -30.840  57.970 -22.135  1.00  0.00     0.274 HD
ENDBRANCH  33  34
ENDBRANCH  32  33
ENDBRANCH  31  32
ENDBRANCH  30  31
ENDBRANCH  26  30
ENDBRANCH  19  26
ENDBRANCH  14  15
ENDBRANCH   1  14
BRANCH   4  38
HETATM   38  C15 UNL     1     -29.671  56.184 -28.613  1.00  0.00     0.042 C 
BRANCH  38  39
HETATM   39  C16 UNL     1     -30.096  55.529 -29.820  1.00  0.00     0.085 A 
HETATM   40  C17 UNL     1     -31.358  55.628 -30.357  1.00  0.00     0.162 A 
HETATM   41  N4  UNL     1     -31.706  54.987 -31.498  1.00  0.00    -0.283 N 
HETATM   42  C18 UNL     1     -33.032  55.094 -32.063  1.00  0.00     0.163 C 
HETATM   43  C19 UNL     1     -30.772  54.233 -32.109  1.00  0.00     0.332 A 
HETATM   44  O6  UNL     1     -31.102  53.636 -33.172  1.00  0.00    -0.246 OA
HETATM   45  N5  UNL     1     -29.512  54.087 -31.641  1.00  0.00    -0.270 N 
HETATM   46  C20 UNL     1     -28.577  53.257 -32.366  1.00  0.00     0.164 C 
HETATM   47  C21 UNL     1     -29.186  54.738 -30.499  1.00  0.00     0.265 A 
HETATM   48  O7  UNL     1     -28.006  54.598 -30.069  1.00  0.00    -0.267 OA
BRANCH  40  49
HETATM   49  O5  UNL     1     -32.281  56.410 -29.700  1.00  0.00    -0.345 OA
ATOM     50  H5  UNL     1     -32.660  57.143 -30.169  1.00  0.00     0.219 HD
ENDBRANCH  40  49
ENDBRANCH  38  39
ENDBRANCH   4  38
BRANCH   5  51
HETATM   51  N6  UNL     1     -28.928  53.903 -26.959  1.00  0.00    -0.385 N 
ATOM     52  H6  UNL     1     -27.958  54.144 -26.754  1.00  0.00     0.159 HD
BRANCH  51  53
HETATM   53  C23 UNL     1     -29.222  52.654 -27.610  1.00  0.00     0.146 C 
BRANCH  53  54
HETATM   54  C24 UNL     1     -29.236  51.544 -26.586  1.00  0.00     0.183 C 
BRANCH  54  55
HETATM   55  O8  UNL     1     -28.138  51.626 -25.763  1.00  0.00    -0.399 OA
ATOM     56  H8  UNL     1     -28.402  51.652 -24.850  1.00  0.00     0.209 HD
ENDBRANCH  54  55
ENDBRANCH  53  54
ENDBRANCH  51  53
ENDBRANCH   5  51
BRANCH  10  57
HETATM   57  N9  UNL     1     -30.594  51.520 -21.769  1.00  0.00    -0.137 N 
HETATM   58  N10 UNL     1     -31.464  50.683 -21.378  1.00  0.00    -0.331 N 
ATOM     59 2H10 UNL     1     -32.424  50.810 -21.699  1.00  0.00     0.177 HD
ATOM     60 1H10 UNL     1     -31.235  49.901 -20.764  1.00  0.00     0.177 HD
ATOM     61  H9  UNL     1     -29.629  51.407 -21.457  1.00  0.00     0.205 HD
ENDBRANCH  10  57
TORSDOF 17
ENDMDL
