MODEL 1
REMARK VINA RESULT: -7.159596590      0.000      0.000
REMARK  21 active torsions:
REMARK  status: ('A' for Active; 'I' for Inactive)
REMARK    1  A    between atoms: C2_2  and  O2_4 
REMARK    2  A    between atoms: O2_4  and  C3_5 
REMARK    3  A    between atoms: C4_6  and  O3_7 
REMARK    4  A    between atoms: O3_7  and  C5_8 
REMARK    5  A    between atoms: C7_11  and  O5_12 
REMARK    6  A    between atoms: O5_12  and  C8_13 
REMARK    7  A    between atoms: C10_17  and  O8_18 
REMARK    8  A    between atoms: C16_27  and  O11_28 
REMARK    9  A    between atoms: C18_31  and  C19_32 
REMARK   10  A    between atoms: C19_32  and  C20_34 
REMARK   11  A    between atoms: C20_34  and  O13_35 
REMARK   12  A    between atoms: C23_39  and  O14_40 
REMARK   13  A    between atoms: C23_39  and  O15_42 
REMARK   14  A    between atoms: O15_42  and  C24_43 
REMARK   15  A    between atoms: C24_43  and  C25_44 
REMARK   16  A    between atoms: C25_44  and  C26_45 
REMARK   17  A    between atoms: C25_44  and  C27_48 
REMARK   18  A    between atoms: C25_44  and  C28_51 
REMARK   19  A    between atoms: C26_45  and  O16_46 
REMARK   20  A    between atoms: C27_48  and  O17_49 
REMARK   21  A    between atoms: C28_51  and  O18_52 
ROOT
HETATM    1  C3  UNL     1     -33.885  57.263 -22.592  1.00  0.00     0.175 C 
HETATM    2  C4  UNL     1     -32.574  56.989 -23.239  1.00  0.00     0.225 C 
HETATM    3  C7  UNL     1     -32.178  57.717 -24.418  1.00  0.00     0.209 C 
HETATM    4  O7  UNL     1     -33.131  57.445 -25.472  1.00  0.00    -0.322 OA
HETATM    5  C10 UNL     1     -32.581  58.146 -26.538  1.00  0.00     0.261 C 
HETATM    6  C11 UNL     1     -31.961  59.390 -25.965  1.00  0.00     0.072 C 
HETATM    7  C12 UNL     1     -31.984  59.179 -24.449  1.00  0.00     0.076 C 
HETATM    8  C13 UNL     1     -32.814  60.104 -23.674  1.00  0.00     0.088 C 
HETATM    9  C14 UNL     1     -33.380  61.220 -24.610  1.00  0.00     0.198 C 
HETATM   10  O9  UNL     1     -34.184  61.894 -23.619  1.00  0.00    -0.318 OA
HETATM   11  C15 UNL     1     -34.888  60.903 -22.896  1.00  0.00     0.295 C 
HETATM   12  O10 UNL     1     -35.881  61.187 -22.199  1.00  0.00    -0.262 OA
HETATM   13  C16 UNL     1     -34.149  59.673 -23.218  1.00  0.00     0.167 C 
HETATM   14  C17 UNL     1     -34.293  58.599 -22.216  1.00  0.00     0.075 C 
HETATM   15  C18 UNL     1     -34.019  59.088 -20.835  1.00  0.00     0.068 C 
HETATM   16  C21 UNL     1     -32.665  59.748 -20.669  1.00  0.00     0.018 C 
HETATM   17  C22 UNL     1     -32.520  61.084 -21.326  1.00  0.00     0.070 C 
HETATM   18  C23 UNL     1     -31.993  60.896 -22.704  1.00  0.00     0.175 C 
ENDROOT
BRANCH  18  19
HETATM   19  O14 UNL     1     -30.850  60.112 -22.423  1.00  0.00    -0.364 OA
ATOM     20  H14 UNL     1     -31.128  59.206 -22.491  1.00  0.00     0.213 HD
ENDBRANCH  18  19
BRANCH  18  21
HETATM   21  O15 UNL     1     -31.516  62.025 -23.304  1.00  0.00    -0.353 OA
BRANCH  21  22
HETATM   22  C24 UNL     1     -30.574  62.747 -22.684  1.00  0.00     0.187 C 
BRANCH  22  23
HETATM   23  C25 UNL     1     -29.823  63.738 -23.531  1.00  0.00     0.045 C 
BRANCH  23  24
HETATM   24  C26 UNL     1     -30.560  64.112 -24.795  1.00  0.00     0.180 C 
BRANCH  24  25
HETATM   25  O16 UNL     1     -29.617  64.176 -25.820  1.00  0.00    -0.400 OA
ATOM     26  H16 UNL     1     -29.091  63.387 -25.769  1.00  0.00     0.209 HD
ENDBRANCH  24  25
ENDBRANCH  23  24
BRANCH  23  27
HETATM   27  C27 UNL     1     -29.394  64.988 -22.821  1.00  0.00     0.180 C 
BRANCH  27  28
HETATM   28  O17 UNL     1     -29.298  66.077 -23.658  1.00  0.00    -0.400 OA
ATOM     29  H17 UNL     1     -28.936  66.844 -23.230  1.00  0.00     0.209 HD
ENDBRANCH  27  28
ENDBRANCH  23  27
BRANCH  23  30
HETATM   30  C28 UNL     1     -28.498  63.092 -24.017  1.00  0.00     0.180 C 
BRANCH  30  31
HETATM   31  O18 UNL     1     -27.411  63.840 -23.639  1.00  0.00    -0.400 OA
ATOM     32  H18 UNL     1     -27.518  64.751 -23.886  1.00  0.00     0.209 HD
ENDBRANCH  30  31
ENDBRANCH  23  30
ENDBRANCH  22  23
ENDBRANCH  21  22
ENDBRANCH  18  21
BRANCH  13  33
HETATM   33  O11 UNL     1     -34.911  59.345 -24.400  1.00  0.00    -0.378 OA
ATOM     34  H11 UNL     1     -35.707  59.863 -24.367  1.00  0.00     0.211 HD
ENDBRANCH  13  33
BRANCH   3  35
HETATM   35  O5  UNL     1     -31.081  57.128 -25.070  1.00  0.00    -0.280 OA
BRANCH  35  36
HETATM   36  C8  UNL     1     -29.815  56.932 -24.705  1.00  0.00     0.257 C 
HETATM   37  C9  UNL     1     -28.915  55.882 -25.250  1.00  0.00     0.126 C 
HETATM   38  O6  UNL     1     -29.376  57.691 -23.846  1.00  0.00    -0.266 OA
ENDBRANCH  35  36
ENDBRANCH   3  35
BRANCH  15  39
HETATM   39  C19 UNL     1     -34.068  58.067 -19.752  1.00  0.00     0.154 C 
HETATM   40  O12 UNL     1     -33.008  57.517 -19.401  1.00  0.00    -0.295 OA
BRANCH  39  41
HETATM   41  C20 UNL     1     -35.273  57.627 -19.029  1.00  0.00     0.242 C 
BRANCH  41  42
HETATM   42  O13 UNL     1     -35.020  57.535 -17.657  1.00  0.00    -0.394 OA
ATOM     43  H13 UNL     1     -35.249  56.673 -17.331  1.00  0.00     0.209 HD
ENDBRANCH  41  42
ENDBRANCH  39  41
ENDBRANCH  15  39
BRANCH   2  44
HETATM   44  O3  UNL     1     -32.606  55.612 -23.612  1.00  0.00    -0.308 OA
BRANCH  44  45
HETATM   45  C5  UNL     1     -32.202  54.550 -22.871  1.00  0.00     0.255 C 
HETATM   46  C6  UNL     1     -31.098  53.646 -23.313  1.00  0.00     0.126 C 
HETATM   47  O4  UNL     1     -32.744  54.287 -21.782  1.00  0.00    -0.266 OA
ENDBRANCH  44  45
ENDBRANCH   2  44
BRANCH   5  48
HETATM   48  O8  UNL     1     -33.526  58.430 -27.522  1.00  0.00    -0.371 OA
ATOM     49  H8  UNL     1     -33.201  59.054 -28.160  1.00  0.00     0.212 HD
ENDBRANCH   5  48
BRANCH   1  50
HETATM   50  O2  UNL     1     -34.874  56.730 -23.524  1.00  0.00    -0.313 OA
BRANCH  50  51
HETATM   51  C2  UNL     1     -35.935  55.965 -23.162  1.00  0.00     0.255 C 
HETATM   52  C1  UNL     1     -37.108  56.453 -22.396  1.00  0.00     0.126 C 
HETATM   53  O1  UNL     1     -35.917  54.771 -23.499  1.00  0.00    -0.266 OA
ENDBRANCH  50  51
ENDBRANCH   1  50
TORSDOF 21
ENDMDL
MODEL 2
REMARK VINA RESULT: -7.001302599      0.952      1.250
REMARK  21 active torsions:
REMARK  status: ('A' for Active; 'I' for Inactive)
REMARK    1  A    between atoms: C2_2  and  O2_4 
REMARK    2  A    between atoms: O2_4  and  C3_5 
REMARK    3  A    between atoms: C4_6  and  O3_7 
REMARK    4  A    between atoms: O3_7  and  C5_8 
REMARK    5  A    between atoms: C7_11  and  O5_12 
REMARK    6  A    between atoms: O5_12  and  C8_13 
REMARK    7  A    between atoms: C10_17  and  O8_18 
REMARK    8  A    between atoms: C16_27  and  O11_28 
REMARK    9  A    between atoms: C18_31  and  C19_32 
REMARK   10  A    between atoms: C19_32  and  C20_34 
REMARK   11  A    between atoms: C20_34  and  O13_35 
REMARK   12  A    between atoms: C23_39  and  O14_40 
REMARK   13  A    between atoms: C23_39  and  O15_42 
REMARK   14  A    between atoms: O15_42  and  C24_43 
REMARK   15  A    between atoms: C24_43  and  C25_44 
REMARK   16  A    between atoms: C25_44  and  C26_45 
REMARK   17  A    between atoms: C25_44  and  C27_48 
REMARK   18  A    between atoms: C25_44  and  C28_51 
REMARK   19  A    between atoms: C26_45  and  O16_46 
REMARK   20  A    between atoms: C27_48  and  O17_49 
REMARK   21  A    between atoms: C28_51  and  O18_52 
ROOT
HETATM    1  C3  UNL     1     -33.945  57.545 -22.971  1.00  0.00     0.175 C 
HETATM    2  C4  UNL     1     -32.659  57.365 -23.697  1.00  0.00     0.225 C 
HETATM    3  C7  UNL     1     -32.302  58.250 -24.777  1.00  0.00     0.209 C 
HETATM    4  O7  UNL     1     -33.294  58.128 -25.823  1.00  0.00    -0.322 OA
HETATM    5  C10 UNL     1     -32.780  58.972 -26.800  1.00  0.00     0.261 C 
HETATM    6  C11 UNL     1     -32.133  60.123 -26.081  1.00  0.00     0.072 C 
HETATM    7  C12 UNL     1     -32.102  59.702 -24.610  1.00  0.00     0.076 C 
HETATM    8  C13 UNL     1     -32.899  60.510 -23.684  1.00  0.00     0.088 C 
HETATM    9  C14 UNL     1     -33.492  61.745 -24.433  1.00  0.00     0.198 C 
HETATM   10  O9  UNL     1     -34.257  62.274 -23.329  1.00  0.00    -0.318 OA
HETATM   11  C15 UNL     1     -34.939  61.191 -22.726  1.00  0.00     0.295 C 
HETATM   12  O10 UNL     1     -35.905  61.375 -21.961  1.00  0.00    -0.262 OA
HETATM   13  C16 UNL     1     -34.218  60.018 -23.244  1.00  0.00     0.167 C 
HETATM   14  C17 UNL     1     -34.332  58.815 -22.398  1.00  0.00     0.075 C 
HETATM   15  C18 UNL     1     -34.006  59.106 -20.973  1.00  0.00     0.068 C 
HETATM   16  C21 UNL     1     -32.643  59.737 -20.765  1.00  0.00     0.018 C 
HETATM   17  C22 UNL     1     -32.515  61.151 -21.233  1.00  0.00     0.070 C 
HETATM   18  C23 UNL     1     -32.039  61.158 -22.643  1.00  0.00     0.175 C 
ENDROOT
BRANCH  18  19
HETATM   19  O14 UNL     1     -30.891  60.342 -22.516  1.00  0.00    -0.364 OA
ATOM     20  H14 UNL     1     -31.054  59.769 -21.777  1.00  0.00     0.213 HD
ENDBRANCH  18  19
BRANCH  18  21
HETATM   21  O15 UNL     1     -31.579  62.360 -23.095  1.00  0.00    -0.353 OA
BRANCH  21  22
HETATM   22  C24 UNL     1     -30.296  62.686 -22.895  1.00  0.00     0.187 C 
BRANCH  22  23
HETATM   23  C25 UNL     1     -29.756  63.824 -23.719  1.00  0.00     0.045 C 
BRANCH  23  24
HETATM   24  C26 UNL     1     -28.433  63.503 -24.372  1.00  0.00     0.180 C 
BRANCH  24  25
HETATM   25  O16 UNL     1     -28.101  64.583 -25.188  1.00  0.00    -0.400 OA
ATOM     26  H16 UNL     1     -28.599  64.491 -25.992  1.00  0.00     0.209 HD
ENDBRANCH  24  25
ENDBRANCH  23  24
BRANCH  23  27
HETATM   27  C27 UNL     1     -30.698  64.367 -24.753  1.00  0.00     0.180 C 
BRANCH  27  28
HETATM   28  O17 UNL     1     -30.818  63.551 -25.854  1.00  0.00    -0.400 OA
ATOM     29  H17 UNL     1     -31.507  62.903 -25.764  1.00  0.00     0.209 HD
ENDBRANCH  27  28
ENDBRANCH  23  27
BRANCH  23  30
HETATM   30  C28 UNL     1     -29.460  65.031 -22.789  1.00  0.00     0.180 C 
BRANCH  30  31
HETATM   31  O18 UNL     1     -28.154  65.025 -22.367  1.00  0.00    -0.400 OA
ATOM     32  H18 UNL     1     -28.009  65.675 -21.691  1.00  0.00     0.209 HD
ENDBRANCH  30  31
ENDBRANCH  23  30
ENDBRANCH  22  23
ENDBRANCH  21  22
ENDBRANCH  18  21
BRANCH  13  33
HETATM   33  O11 UNL     1     -35.024  59.860 -24.431  1.00  0.00    -0.378 OA
ATOM     34  H11 UNL     1     -35.495  60.676 -24.556  1.00  0.00     0.211 HD
ENDBRANCH  13  33
BRANCH   3  35
HETATM   35  O5  UNL     1     -31.233  57.759 -25.545  1.00  0.00    -0.280 OA
BRANCH  35  36
HETATM   36  C8  UNL     1     -30.027  57.295 -25.217  1.00  0.00     0.257 C 
HETATM   37  C9  UNL     1     -29.178  57.812 -24.112  1.00  0.00     0.126 C 
HETATM   38  O6  UNL     1     -29.602  56.366 -25.897  1.00  0.00    -0.266 OA
ENDBRANCH  35  36
ENDBRANCH   3  35
BRANCH  15  39
HETATM   39  C19 UNL     1     -34.020  57.943 -20.042  1.00  0.00     0.154 C 
HETATM   40  O12 UNL     1     -32.937  57.515 -19.604  1.00  0.00    -0.295 OA
BRANCH  39  41
HETATM   41  C20 UNL     1     -35.216  57.226 -19.569  1.00  0.00     0.242 C 
BRANCH  41  42
HETATM   42  O13 UNL     1     -35.364  56.012 -20.245  1.00  0.00    -0.394 OA
ATOM     43  H13 UNL     1     -36.268  55.720 -20.217  1.00  0.00     0.209 HD
ENDBRANCH  41  42
ENDBRANCH  39  41
ENDBRANCH  15  39
BRANCH   2  44
HETATM   44  O3  UNL     1     -32.711  56.053 -24.259  1.00  0.00    -0.308 OA
BRANCH  44  45
HETATM   45  C5  UNL     1     -32.325  54.893 -23.672  1.00  0.00     0.255 C 
HETATM   46  C6  UNL     1     -31.570  53.838 -24.416  1.00  0.00     0.126 C 
HETATM   47  O4  UNL     1     -32.588  54.660 -22.478  1.00  0.00    -0.266 OA
ENDBRANCH  44  45
ENDBRANCH   2  44
BRANCH   5  48
HETATM   48  O8  UNL     1     -33.758  59.390 -27.699  1.00  0.00    -0.371 OA
ATOM     49  H8  UNL     1     -34.044  58.686 -28.269  1.00  0.00     0.212 HD
ENDBRANCH   5  48
BRANCH   1  50
HETATM   50  O2  UNL     1     -34.969  57.147 -23.931  1.00  0.00    -0.313 OA
BRANCH  50  51
HETATM   51  C2  UNL     1     -36.084  56.442 -23.616  1.00  0.00     0.255 C 
HETATM   52  C1  UNL     1     -37.466  56.978 -23.662  1.00  0.00     0.126 C 
HETATM   53  O1  UNL     1     -35.930  55.262 -23.262  1.00  0.00    -0.266 OA
ENDBRANCH  50  51
ENDBRANCH   1  50
TORSDOF 21
ENDMDL
MODEL 3
REMARK VINA RESULT: -6.893988941      2.111      6.190
REMARK  21 active torsions:
REMARK  status: ('A' for Active; 'I' for Inactive)
REMARK    1  A    between atoms: C2_2  and  O2_4 
REMARK    2  A    between atoms: O2_4  and  C3_5 
REMARK    3  A    between atoms: C4_6  and  O3_7 
REMARK    4  A    between atoms: O3_7  and  C5_8 
REMARK    5  A    between atoms: C7_11  and  O5_12 
REMARK    6  A    between atoms: O5_12  and  C8_13 
REMARK    7  A    between atoms: C10_17  and  O8_18 
REMARK    8  A    between atoms: C16_27  and  O11_28 
REMARK    9  A    between atoms: C18_31  and  C19_32 
REMARK   10  A    between atoms: C19_32  and  C20_34 
REMARK   11  A    between atoms: C20_34  and  O13_35 
REMARK   12  A    between atoms: C23_39  and  O14_40 
REMARK   13  A    between atoms: C23_39  and  O15_42 
REMARK   14  A    between atoms: O15_42  and  C24_43 
REMARK   15  A    between atoms: C24_43  and  C25_44 
REMARK   16  A    between atoms: C25_44  and  C26_45 
REMARK   17  A    between atoms: C25_44  and  C27_48 
REMARK   18  A    between atoms: C25_44  and  C28_51 
REMARK   19  A    between atoms: C26_45  and  O16_46 
REMARK   20  A    between atoms: C27_48  and  O17_49 
REMARK   21  A    between atoms: C28_51  and  O18_52 
ROOT
HETATM    1  C3  UNL     1     -34.879  60.807 -22.321  1.00  0.00     0.175 C 
HETATM    2  C4  UNL     1     -34.343  61.190 -23.654  1.00  0.00     0.225 C 
HETATM    3  C7  UNL     1     -32.920  61.255 -23.876  1.00  0.00     0.209 C 
HETATM    4  O7  UNL     1     -32.358  62.253 -22.993  1.00  0.00    -0.322 OA
HETATM    5  C10 UNL     1     -31.021  62.246 -23.372  1.00  0.00     0.261 C 
HETATM    6  C11 UNL     1     -30.678  60.824 -23.719  1.00  0.00     0.072 C 
HETATM    7  C12 UNL     1     -32.021  60.092 -23.755  1.00  0.00     0.076 C 
HETATM    8  C13 UNL     1     -32.217  59.040 -22.754  1.00  0.00     0.088 C 
HETATM    9  C14 UNL     1     -30.894  58.813 -21.957  1.00  0.00     0.198 C 
HETATM   10  O9  UNL     1     -31.406  57.826 -21.037  1.00  0.00    -0.318 OA
HETATM   11  C15 UNL     1     -32.656  58.291 -20.566  1.00  0.00     0.295 C 
HETATM   12  O10 UNL     1     -33.184  57.817 -19.542  1.00  0.00    -0.262 OA
HETATM   13  C16 UNL     1     -33.013  59.328 -21.546  1.00  0.00     0.167 C 
HETATM   14  C17 UNL     1     -34.460  59.601 -21.642  1.00  0.00     0.075 C 
HETATM   15  C18 UNL     1     -35.249  58.348 -21.818  1.00  0.00     0.068 C 
HETATM   16  C21 UNL     1     -34.819  57.507 -23.003  1.00  0.00     0.018 C 
HETATM   17  C22 UNL     1     -33.497  56.823 -22.855  1.00  0.00     0.070 C 
HETATM   18  C23 UNL     1     -32.428  57.704 -23.398  1.00  0.00     0.175 C 
ENDROOT
BRANCH  18  19
HETATM   19  O14 UNL     1     -32.956  57.965 -24.683  1.00  0.00    -0.364 OA
ATOM     20  H14 UNL     1     -33.875  57.727 -24.645  1.00  0.00     0.213 HD
ENDBRANCH  18  19
BRANCH  18  21
HETATM   21  O15 UNL     1     -31.228  57.094 -23.619  1.00  0.00    -0.353 OA
BRANCH  21  22
HETATM   22  C24 UNL     1     -31.146  56.126 -24.539  1.00  0.00     0.187 C 
BRANCH  22  23
HETATM   23  C25 UNL     1     -29.986  56.205 -25.495  1.00  0.00     0.045 C 
BRANCH  23  24
HETATM   24  C26 UNL     1     -29.052  55.023 -25.387  1.00  0.00     0.180 C 
BRANCH  24  25
HETATM   25  O16 UNL     1     -27.910  55.330 -26.126  1.00  0.00    -0.400 OA
ATOM     26  H16 UNL     1     -27.550  54.510 -26.442  1.00  0.00     0.209 HD
ENDBRANCH  24  25
ENDBRANCH  23  24
BRANCH  23  27
HETATM   27  C27 UNL     1     -30.358  56.412 -26.934  1.00  0.00     0.180 C 
BRANCH  27  28
HETATM   28  O17 UNL     1     -31.677  56.763 -27.104  1.00  0.00    -0.400 OA
ATOM     29  H17 UNL     1     -32.142  56.186 -27.699  1.00  0.00     0.209 HD
ENDBRANCH  27  28
ENDBRANCH  23  27
BRANCH  23  30
HETATM   30  C28 UNL     1     -29.114  57.437 -25.137  1.00  0.00     0.180 C 
BRANCH  30  31
HETATM   31  O18 UNL     1     -28.405  57.225 -23.981  1.00  0.00    -0.400 OA
ATOM     32  H18 UNL     1     -28.979  56.983 -23.264  1.00  0.00     0.209 HD
ENDBRANCH  30  31
ENDBRANCH  23  30
ENDBRANCH  22  23
ENDBRANCH  21  22
ENDBRANCH  18  21
BRANCH  13  33
HETATM   33  O11 UNL     1     -32.355  60.415 -20.860  1.00  0.00    -0.378 OA
ATOM     34  H11 UNL     1     -31.761  60.817 -21.484  1.00  0.00     0.211 HD
ENDBRANCH  13  33
BRANCH   3  35
HETATM   35  O5  UNL     1     -32.591  61.925 -25.067  1.00  0.00    -0.280 OA
BRANCH  35  36
HETATM   36  C8  UNL     1     -33.039  61.812 -26.317  1.00  0.00     0.257 C 
HETATM   37  C9  UNL     1     -33.080  60.552 -27.105  1.00  0.00     0.126 C 
HETATM   38  O6  UNL     1     -33.444  62.845 -26.841  1.00  0.00    -0.266 OA
ENDBRANCH  35  36
ENDBRANCH   3  35
BRANCH  15  39
HETATM   39  C19 UNL     1     -36.718  58.514 -21.998  1.00  0.00     0.154 C 
HETATM   40  O12 UNL     1     -37.406  58.853 -21.018  1.00  0.00    -0.295 OA
BRANCH  39  41
HETATM   41  C20 UNL     1     -37.467  58.316 -23.251  1.00  0.00     0.242 C 
BRANCH  41  42
HETATM   42  O13 UNL     1     -37.622  59.526 -23.931  1.00  0.00    -0.394 OA
ATOM     43  H13 UNL     1     -38.019  59.384 -24.782  1.00  0.00     0.209 HD
ENDBRANCH  41  42
ENDBRANCH  39  41
ENDBRANCH  15  39
BRANCH   2  44
HETATM   44  O3  UNL     1     -34.846  62.502 -23.913  1.00  0.00    -0.308 OA
BRANCH  44  45
HETATM   45  C5  UNL     1     -36.083  62.833 -24.358  1.00  0.00     0.255 C 
HETATM   46  C6  UNL     1     -36.816  64.033 -23.851  1.00  0.00     0.126 C 
HETATM   47  O4  UNL     1     -36.661  62.142 -25.217  1.00  0.00    -0.266 OA
ENDBRANCH  44  45
ENDBRANCH   2  44
BRANCH   5  48
HETATM   48  O8  UNL     1     -30.193  62.765 -22.379  1.00  0.00    -0.371 OA
ATOM     49  H8  UNL     1     -29.279  62.553 -22.530  1.00  0.00     0.212 HD
ENDBRANCH   5  48
BRANCH   1  50
HETATM   50  O2  UNL     1     -34.571  61.944 -21.460  1.00  0.00    -0.313 OA
BRANCH  50  51
HETATM   51  C2  UNL     1     -35.177  62.192 -20.271  1.00  0.00     0.255 C 
HETATM   52  C1  UNL     1     -36.576  62.660 -20.115  1.00  0.00     0.126 C 
HETATM   53  O1  UNL     1     -34.506  62.014 -19.241  1.00  0.00    -0.266 OA
ENDBRANCH  50  51
ENDBRANCH   1  50
TORSDOF 21
ENDMDL
MODEL 4
REMARK VINA RESULT: -6.892278464      2.092      6.178
REMARK  21 active torsions:
REMARK  status: ('A' for Active; 'I' for Inactive)
REMARK    1  A    between atoms: C2_2  and  O2_4 
REMARK    2  A    between atoms: O2_4  and  C3_5 
REMARK    3  A    between atoms: C4_6  and  O3_7 
REMARK    4  A    between atoms: O3_7  and  C5_8 
REMARK    5  A    between atoms: C7_11  and  O5_12 
REMARK    6  A    between atoms: O5_12  and  C8_13 
REMARK    7  A    between atoms: C10_17  and  O8_18 
REMARK    8  A    between atoms: C16_27  and  O11_28 
REMARK    9  A    between atoms: C18_31  and  C19_32 
REMARK   10  A    between atoms: C19_32  and  C20_34 
REMARK   11  A    between atoms: C20_34  and  O13_35 
REMARK   12  A    between atoms: C23_39  and  O14_40 
REMARK   13  A    between atoms: C23_39  and  O15_42 
REMARK   14  A    between atoms: O15_42  and  C24_43 
REMARK   15  A    between atoms: C24_43  and  C25_44 
REMARK   16  A    between atoms: C25_44  and  C26_45 
REMARK   17  A    between atoms: C25_44  and  C27_48 
REMARK   18  A    between atoms: C25_44  and  C28_51 
REMARK   19  A    between atoms: C26_45  and  O16_46 
REMARK   20  A    between atoms: C27_48  and  O17_49 
REMARK   21  A    between atoms: C28_51  and  O18_52 
ROOT
HETATM    1  C3  UNL     1     -34.897  60.855 -22.495  1.00  0.00     0.175 C 
HETATM    2  C4  UNL     1     -34.294  61.123 -23.828  1.00  0.00     0.225 C 
HETATM    3  C7  UNL     1     -32.861  61.146 -23.988  1.00  0.00     0.209 C 
HETATM    4  O7  UNL     1     -32.319  62.200 -23.159  1.00  0.00    -0.322 OA
HETATM    5  C10 UNL     1     -30.967  62.140 -23.474  1.00  0.00     0.261 C 
HETATM    6  C11 UNL     1     -30.638  60.690 -23.695  1.00  0.00     0.072 C 
HETATM    7  C12 UNL     1     -31.994  59.980 -23.737  1.00  0.00     0.076 C 
HETATM    8  C13 UNL     1     -32.257  59.013 -22.668  1.00  0.00     0.088 C 
HETATM    9  C14 UNL     1     -30.975  58.826 -21.795  1.00  0.00     0.198 C 
HETATM   10  O9  UNL     1     -31.549  57.923 -20.827  1.00  0.00    -0.318 OA
HETATM   11  C15 UNL     1     -32.808  58.444 -20.451  1.00  0.00     0.295 C 
HETATM   12  O10 UNL     1     -33.391  58.061 -19.419  1.00  0.00    -0.262 OA
HETATM   13  C16 UNL     1     -33.099  59.408 -21.524  1.00  0.00     0.167 C 
HETATM   14  C17 UNL     1     -34.534  59.697 -21.707  1.00  0.00     0.075 C 
HETATM   15  C18 UNL     1     -35.341  58.449 -21.822  1.00  0.00     0.068 C 
HETATM   16  C21 UNL     1     -34.876  57.510 -22.918  1.00  0.00     0.018 C 
HETATM   17  C22 UNL     1     -33.577  56.818 -22.657  1.00  0.00     0.070 C 
HETATM   18  C23 UNL     1     -32.466  57.634 -23.216  1.00  0.00     0.175 C 
ENDROOT
BRANCH  18  19
HETATM   19  O14 UNL     1     -32.931  57.804 -24.541  1.00  0.00    -0.364 OA
ATOM     20  H14 UNL     1     -32.430  57.199 -25.076  1.00  0.00     0.213 HD
ENDBRANCH  18  19
BRANCH  18  21
HETATM   21  O15 UNL     1     -31.270  56.989 -23.334  1.00  0.00    -0.353 OA
BRANCH  21  22
HETATM   22  C24 UNL     1     -31.129  56.038 -24.265  1.00  0.00     0.187 C 
BRANCH  22  23
HETATM   23  C25 UNL     1     -30.015  56.232 -25.259  1.00  0.00     0.045 C 
BRANCH  23  24
HETATM   24  C26 UNL     1     -29.210  57.484 -25.004  1.00  0.00     0.180 C 
BRANCH  24  25
HETATM   25  O16 UNL     1     -28.544  57.307 -23.792  1.00  0.00    -0.400 OA
ATOM     26  H16 UNL     1     -27.620  57.209 -23.990  1.00  0.00     0.209 HD
ENDBRANCH  24  25
ENDBRANCH  23  24
BRANCH  23  27
HETATM   27  C27 UNL     1     -29.083  55.066 -25.409  1.00  0.00     0.180 C 
BRANCH  27  28
HETATM   28  O17 UNL     1     -27.805  55.440 -25.754  1.00  0.00    -0.400 OA
ATOM     29  H17 UNL     1     -27.267  54.709 -26.037  1.00  0.00     0.209 HD
ENDBRANCH  27  28
ENDBRANCH  23  27
BRANCH  23  30
HETATM   30  C28 UNL     1     -30.623  56.430 -26.673  1.00  0.00     0.180 C 
BRANCH  30  31
HETATM   31  O18 UNL     1     -29.648  56.424 -27.639  1.00  0.00    -0.400 OA
ATOM     32  H18 UNL     1     -29.570  57.274 -28.054  1.00  0.00     0.209 HD
ENDBRANCH  30  31
ENDBRANCH  23  30
ENDBRANCH  22  23
ENDBRANCH  21  22
ENDBRANCH  18  21
BRANCH  13  33
HETATM   33  O11 UNL     1     -32.449  60.533 -20.894  1.00  0.00    -0.378 OA
ATOM     34  H11 UNL     1     -32.446  61.241 -21.528  1.00  0.00     0.211 HD
ENDBRANCH  13  33
BRANCH   3  35
HETATM   35  O5  UNL     1     -32.466  61.715 -25.210  1.00  0.00    -0.280 OA
BRANCH  35  36
HETATM   36  C8  UNL     1     -32.761  61.425 -26.477  1.00  0.00     0.257 C 
HETATM   37  C9  UNL     1     -33.465  60.198 -26.936  1.00  0.00     0.126 C 
HETATM   38  O6  UNL     1     -32.414  62.250 -27.316  1.00  0.00    -0.266 OA
ENDBRANCH  35  36
ENDBRANCH   3  35
BRANCH  15  39
HETATM   39  C19 UNL     1     -36.797  58.626 -22.082  1.00  0.00     0.154 C 
HETATM   40  O12 UNL     1     -37.518  59.059 -21.166  1.00  0.00    -0.295 OA
BRANCH  39  41
HETATM   41  C20 UNL     1     -37.494  58.336 -23.346  1.00  0.00     0.242 C 
BRANCH  41  42
HETATM   42  O13 UNL     1     -37.598  59.489 -24.129  1.00  0.00    -0.394 OA
ATOM     43  H13 UNL     1     -38.454  59.543 -24.536  1.00  0.00     0.209 HD
ENDBRANCH  41  42
ENDBRANCH  39  41
ENDBRANCH  15  39
BRANCH   2  44
HETATM   44  O3  UNL     1     -34.757  62.419 -24.209  1.00  0.00    -0.308 OA
BRANCH  44  45
HETATM   45  C5  UNL     1     -35.925  62.724 -24.828  1.00  0.00     0.255 C 
HETATM   46  C6  UNL     1     -36.617  64.033 -24.619  1.00  0.00     0.126 C 
HETATM   47  O4  UNL     1     -36.471  61.916 -25.601  1.00  0.00    -0.266 OA
ENDBRANCH  44  45
ENDBRANCH   2  44
BRANCH   5  48
HETATM   48  O8  UNL     1     -30.173  62.720 -22.488  1.00  0.00    -0.371 OA
ATOM     49  H8  UNL     1     -29.629  62.079 -22.045  1.00  0.00     0.212 HD
ENDBRANCH   5  48
BRANCH   1  50
HETATM   50  O2  UNL     1     -34.604  62.050 -21.710  1.00  0.00    -0.313 OA
BRANCH  50  51
HETATM   51  C2  UNL     1     -35.279  62.417 -20.592  1.00  0.00     0.255 C 
HETATM   52  C1  UNL     1     -36.640  63.008 -20.580  1.00  0.00     0.126 C 
HETATM   53  O1  UNL     1     -34.711  62.246 -19.502  1.00  0.00    -0.266 OA
ENDBRANCH  50  51
ENDBRANCH   1  50
TORSDOF 21
ENDMDL
MODEL 5
REMARK VINA RESULT: -6.873603198      2.073      6.345
REMARK  21 active torsions:
REMARK  status: ('A' for Active; 'I' for Inactive)
REMARK    1  A    between atoms: C2_2  and  O2_4 
REMARK    2  A    between atoms: O2_4  and  C3_5 
REMARK    3  A    between atoms: C4_6  and  O3_7 
REMARK    4  A    between atoms: O3_7  and  C5_8 
REMARK    5  A    between atoms: C7_11  and  O5_12 
REMARK    6  A    between atoms: O5_12  and  C8_13 
REMARK    7  A    between atoms: C10_17  and  O8_18 
REMARK    8  A    between atoms: C16_27  and  O11_28 
REMARK    9  A    between atoms: C18_31  and  C19_32 
REMARK   10  A    between atoms: C19_32  and  C20_34 
REMARK   11  A    between atoms: C20_34  and  O13_35 
REMARK   12  A    between atoms: C23_39  and  O14_40 
REMARK   13  A    between atoms: C23_39  and  O15_42 
REMARK   14  A    between atoms: O15_42  and  C24_43 
REMARK   15  A    between atoms: C24_43  and  C25_44 
REMARK   16  A    between atoms: C25_44  and  C26_45 
REMARK   17  A    between atoms: C25_44  and  C27_48 
REMARK   18  A    between atoms: C25_44  and  C28_51 
REMARK   19  A    between atoms: C26_45  and  O16_46 
REMARK   20  A    between atoms: C27_48  and  O17_49 
REMARK   21  A    between atoms: C28_51  and  O18_52 
ROOT
HETATM    1  C3  UNL     1     -34.824  61.009 -22.040  1.00  0.00     0.175 C 
HETATM    2  C4  UNL     1     -34.409  61.508 -23.378  1.00  0.00     0.225 C 
HETATM    3  C7  UNL     1     -33.012  61.569 -23.731  1.00  0.00     0.209 C 
HETATM    4  O7  UNL     1     -32.343  62.470 -22.818  1.00  0.00    -0.322 OA
HETATM    5  C10 UNL     1     -31.049  62.476 -23.324  1.00  0.00     0.261 C 
HETATM    6  C11 UNL     1     -30.777  61.088 -23.834  1.00  0.00     0.072 C 
HETATM    7  C12 UNL     1     -32.137  60.385 -23.807  1.00  0.00     0.076 C 
HETATM    8  C13 UNL     1     -32.264  59.246 -22.893  1.00  0.00     0.088 C 
HETATM    9  C14 UNL     1     -30.877  58.923 -22.253  1.00  0.00     0.198 C 
HETATM   10  O9  UNL     1     -31.324  57.862 -21.383  1.00  0.00    -0.318 OA
HETATM   11  C15 UNL     1     -32.511  58.301 -20.752  1.00  0.00     0.295 C 
HETATM   12  O10 UNL     1     -32.950  57.741 -19.729  1.00  0.00    -0.262 OA
HETATM   13  C16 UNL     1     -32.932  59.432 -21.592  1.00  0.00     0.167 C 
HETATM   14  C17 UNL     1     -34.374  59.737 -21.520  1.00  0.00     0.075 C 
HETATM   15  C18 UNL     1     -35.209  58.520 -21.734  1.00  0.00     0.068 C 
HETATM   16  C21 UNL     1     -34.916  57.787 -23.028  1.00  0.00     0.018 C 
HETATM   17  C22 UNL     1     -33.605  57.071 -23.074  1.00  0.00     0.070 C 
HETATM   18  C23 UNL     1     -32.570  57.981 -23.635  1.00  0.00     0.175 C 
ENDROOT
BRANCH  18  19
HETATM   19  O14 UNL     1     -33.211  58.371 -24.832  1.00  0.00    -0.364 OA
ATOM     20  H14 UNL     1     -34.129  58.149 -24.726  1.00  0.00     0.213 HD
ENDBRANCH  18  19
BRANCH  18  21
HETATM   21  O15 UNL     1     -31.412  57.375 -24.027  1.00  0.00    -0.353 OA
BRANCH  21  22
HETATM   22  C24 UNL     1     -31.360  56.778 -25.224  1.00  0.00     0.187 C 
BRANCH  22  23
HETATM   23  C25 UNL     1     -30.249  55.784 -25.431  1.00  0.00     0.045 C 
BRANCH  23  24
HETATM   24  C26 UNL     1     -30.183  55.260 -26.846  1.00  0.00     0.180 C 
BRANCH  24  25
HETATM   25  O16 UNL     1     -29.864  56.338 -27.671  1.00  0.00    -0.400 OA
ATOM     26  H16 UNL     1     -30.013  56.060 -28.567  1.00  0.00     0.209 HD
ENDBRANCH  24  25
ENDBRANCH  23  24
BRANCH  23  27
HETATM   27  C27 UNL     1     -28.887  56.252 -25.012  1.00  0.00     0.180 C 
BRANCH  27  28
HETATM   28  O17 UNL     1     -28.694  57.598 -25.216  1.00  0.00    -0.400 OA
ATOM     29  H17 UNL     1     -28.172  57.787 -25.988  1.00  0.00     0.209 HD
ENDBRANCH  27  28
ENDBRANCH  23  27
BRANCH  23  30
HETATM   30  C28 UNL     1     -30.518  54.531 -24.554  1.00  0.00     0.180 C 
BRANCH  30  31
HETATM   31  O18 UNL     1     -30.504  54.847 -23.219  1.00  0.00    -0.400 OA
ATOM     32  H18 UNL     1     -29.909  54.283 -22.738  1.00  0.00     0.209 HD
ENDBRANCH  30  31
ENDBRANCH  23  30
ENDBRANCH  22  23
ENDBRANCH  21  22
ENDBRANCH  18  21
BRANCH  13  33
HETATM   33  O11 UNL     1     -32.184  60.438 -20.875  1.00  0.00    -0.378 OA
ATOM     34  H11 UNL     1     -31.275  60.347 -21.141  1.00  0.00     0.211 HD
ENDBRANCH  13  33
BRANCH   3  35
HETATM   35  O5  UNL     1     -32.782  62.343 -24.881  1.00  0.00    -0.280 OA
BRANCH  35  36
HETATM   36  C8  UNL     1     -33.221  62.246 -26.135  1.00  0.00     0.257 C 
HETATM   37  C9  UNL     1     -32.928  61.123 -27.064  1.00  0.00     0.126 C 
HETATM   38  O6  UNL     1     -33.922  63.170 -26.535  1.00  0.00    -0.266 OA
ENDBRANCH  35  36
ENDBRANCH   3  35
BRANCH  15  39
HETATM   39  C19 UNL     1     -36.684  58.727 -21.753  1.00  0.00     0.154 C 
HETATM   40  O12 UNL     1     -37.264  58.988 -20.684  1.00  0.00    -0.295 OA
BRANCH  39  41
HETATM   41  C20 UNL     1     -37.555  58.656 -22.939  1.00  0.00     0.242 C 
BRANCH  41  42
HETATM   42  O13 UNL     1     -37.773  59.930 -23.469  1.00  0.00    -0.394 OA
ATOM     43  H13 UNL     1     -38.290  59.878 -24.264  1.00  0.00     0.209 HD
ENDBRANCH  41  42
ENDBRANCH  39  41
ENDBRANCH  15  39
BRANCH   2  44
HETATM   44  O3  UNL     1     -34.900  62.846 -23.463  1.00  0.00    -0.308 OA
BRANCH  44  45
HETATM   45  C5  UNL     1     -36.168  63.239 -23.739  1.00  0.00     0.255 C 
HETATM   46  C6  UNL     1     -36.789  64.433 -23.089  1.00  0.00     0.126 C 
HETATM   47  O4  UNL     1     -36.871  62.611 -24.552  1.00  0.00    -0.266 OA
ENDBRANCH  44  45
ENDBRANCH   2  44
BRANCH   5  48
HETATM   48  O8  UNL     1     -30.116  62.884 -22.374  1.00  0.00    -0.371 OA
ATOM     49  H8  UNL     1     -29.440  63.434 -22.751  1.00  0.00     0.212 HD
ENDBRANCH   5  48
BRANCH   1  50
HETATM   50  O2  UNL     1     -34.407  62.054 -21.111  1.00  0.00    -0.313 OA
BRANCH  50  51
HETATM   51  C2  UNL     1     -34.907  62.213 -19.860  1.00  0.00     0.255 C 
HETATM   52  C1  UNL     1     -36.235  62.796 -19.547  1.00  0.00     0.126 C 
HETATM   53  O1  UNL     1     -34.198  61.843 -18.911  1.00  0.00    -0.266 OA
ENDBRANCH  50  51
ENDBRANCH   1  50
TORSDOF 21
ENDMDL
