MODEL 1
REMARK VINA RESULT: -9.558802923      0.000      0.000
REMARK  18 active torsions:
REMARK  status: ('A' for Active; 'I' for Inactive)
REMARK    1  A    between atoms: C2_2  and  O2_4 
REMARK    2  A    between atoms: O2_4  and  C3_5 
REMARK    3  A    between atoms: C5_7  and  O3_8 
REMARK    4  A    between atoms: O3_8  and  C6_9 
REMARK    5  A    between atoms: C6_9  and  C7_11 
REMARK    6  A    between atoms: C7_11  and  O5_12 
REMARK    7  A    between atoms: C7_11  and  O6_14 
REMARK    8  A    between atoms: C9_19  and  C10_20 
REMARK    9  A    between atoms: C10_20  and  O9_21 
REMARK   10  A    between atoms: C10_20  and  C11_23 
REMARK   11  A    between atoms: C11_23  and  O10_24 
REMARK   12  A    between atoms: C11_23  and  C12_26 
REMARK   13  A    between atoms: C12_26  and  O11_27 
REMARK   14  A    between atoms: C12_26  and  C20_47 
REMARK   15  A    between atoms: O11_27  and  S1_28 
REMARK   16  A    between atoms: S1_28  and  O14_31 
REMARK   17  A    between atoms: O14_31  and  C13_32 
REMARK   18  A    between atoms: C17_40  and  S2_41 
ROOT
HETATM    1  C11 UNL     1     -28.576  54.308 -26.956  1.00  0.00     0.190 C 
ENDROOT
BRANCH   1   2
HETATM    2  C10 UNL     1     -29.520  55.073 -27.841  1.00  0.00     0.182 C 
BRANCH   2   3
HETATM    3  C9  UNL     1     -29.623  54.504 -29.228  1.00  0.00     0.193 C 
HETATM    4  C3  UNL     1     -29.322  55.585 -30.237  1.00  0.00     0.167 C 
HETATM    5  C4  UNL     1     -28.348  55.111 -31.312  1.00  0.00     0.078 C 
HETATM    6  C5  UNL     1     -28.956  53.804 -31.843  1.00  0.00     0.234 C 
HETATM    7  C8  UNL     1     -28.772  52.840 -30.711  1.00  0.00     0.289 C 
HETATM    8  O7  UNL     1     -28.619  51.603 -30.886  1.00  0.00    -0.262 OA
HETATM    9  O8  UNL     1     -28.781  53.413 -29.449  1.00  0.00    -0.309 OA
BRANCH   4  10
HETATM   10  O2  UNL     1     -30.499  55.999 -30.911  1.00  0.00    -0.314 OA
BRANCH  10  11
HETATM   11  C2  UNL     1     -31.777  55.597 -30.555  1.00  0.00     0.255 C 
HETATM   12  C1  UNL     1     -32.493  54.490 -31.240  1.00  0.00     0.126 C 
HETATM   13  O1  UNL     1     -32.366  56.182 -29.618  1.00  0.00    -0.266 OA
ENDBRANCH  10  11
ENDBRANCH   4  10
BRANCH   6  14
HETATM   14  O3  UNL     1     -28.277  53.403 -32.992  1.00  0.00    -0.302 OA
BRANCH  14  15
HETATM   15  C6  UNL     1     -28.715  52.453 -33.877  1.00  0.00     0.315 C 
HETATM   16  O4  UNL     1     -29.808  52.629 -34.476  1.00  0.00    -0.260 OA
BRANCH  15  17
HETATM   17  C7  UNL     1     -27.951  51.199 -34.170  1.00  0.00     0.356 C 
BRANCH  17  18
HETATM   18  O5  UNL     1     -28.777  50.089 -34.094  1.00  0.00    -0.363 OA
ATOM     19  H5  UNL     1     -28.268  49.296 -33.970  1.00  0.00     0.213 HD
ENDBRANCH  17  18
BRANCH  17  20
HETATM   20  O6  UNL     1     -26.802  51.096 -33.423  1.00  0.00    -0.363 OA
ATOM     21  H6  UNL     1     -26.248  50.377 -33.704  1.00  0.00     0.213 HD
ENDBRANCH  17  20
ENDBRANCH  15  17
ENDBRANCH  14  15
ENDBRANCH   6  14
ENDBRANCH   2   3
BRANCH   2  22
HETATM   22  O9  UNL     1     -30.798  55.052 -27.284  1.00  0.00    -0.390 OA
ATOM     23  H9  UNL     1     -30.714  55.291 -26.368  1.00  0.00     0.210 HD
ENDBRANCH   2  22
ENDBRANCH   1   2
BRANCH   1  24
HETATM   24  O10 UNL     1     -27.713  55.100 -26.245  1.00  0.00    -0.390 OA
ATOM     25  H10 UNL     1     -27.155  54.621 -25.644  1.00  0.00     0.210 HD
ENDBRANCH   1  24
BRANCH   1  26
HETATM   26  C12 UNL     1     -29.302  53.389 -26.004  1.00  0.00     0.276 C 
BRANCH  26  27
HETATM   27  O11 UNL     1     -29.059  53.729 -24.667  1.00  0.00    -0.234 OA
BRANCH  27  28
HETATM   28  S1  UNL     1     -30.486  53.876 -23.798  1.00  0.00     0.409 S 
HETATM   29  O12 UNL     1     -30.599  52.685 -22.892  1.00  0.00    -0.168 OA
HETATM   30  O13 UNL     1     -31.667  53.811 -24.745  1.00  0.00    -0.168 OA
BRANCH  28  31
HETATM   31  O14 UNL     1     -30.546  55.330 -22.963  1.00  0.00    -0.192 OA
BRANCH  31  32
HETATM   32  C13 UNL     1     -30.161  56.556 -23.462  1.00  0.00     0.176 A 
HETATM   33  N1  UNL     1     -29.175  56.772 -24.361  1.00  0.00    -0.343 N 
HETATM   34  C14 UNL     1     -29.061  58.072 -24.629  1.00  0.00     0.128 A 
ATOM     35  H1  UNL     1     -28.598  56.041 -24.778  1.00  0.00     0.167 HD
HETATM   36  C15 UNL     1     -30.002  58.753 -23.883  1.00  0.00     0.109 A 
HETATM   37  O15 UNL     1     -30.325  60.020 -23.761  1.00  0.00    -0.272 OA
HETATM   38  C19 UNL     1     -30.688  57.807 -23.156  1.00  0.00     0.053 A 
HETATM   39  C16 UNL     1     -31.292  60.396 -22.954  1.00  0.00     0.312 A 
HETATM   40  O16 UNL     1     -31.570  61.614 -22.865  1.00  0.00    -0.258 OA
HETATM   41  C17 UNL     1     -32.004  59.507 -22.210  1.00  0.00     0.157 A 
HETATM   42  C18 UNL     1     -31.717  58.169 -22.292  1.00  0.00     0.051 A 
BRANCH  41  43
HETATM   43  S2  UNL     1     -33.284  60.072 -21.152  1.00  0.00     0.143 S 
HETATM   44  O17 UNL     1     -32.802  61.171 -20.259  1.00  0.00    -0.591 OA
HETATM   45  O18 UNL     1     -33.771  58.944 -20.286  1.00  0.00    -0.591 OA
HETATM   46  O19 UNL     1     -34.598  60.641 -22.030  1.00  0.00    -0.591 OA
ENDBRANCH  41  43
ENDBRANCH  31  32
ENDBRANCH  28  31
ENDBRANCH  27  28
ENDBRANCH  26  27
BRANCH  26  47
HETATM   47  C20 UNL     1     -28.961  51.961 -26.248  1.00  0.00     0.207 C 
HETATM   48  O20 UNL     1     -27.859  51.555 -25.799  1.00  0.00    -0.646 OA
HETATM   49  O21 UNL     1     -29.847  51.170 -26.936  1.00  0.00    -0.646 OA
ENDBRANCH  26  47
ENDBRANCH   1  26
TORSDOF 18
ENDMDL
MODEL 2
REMARK VINA RESULT: -9.500114178      3.554      7.405
REMARK  18 active torsions:
REMARK  status: ('A' for Active; 'I' for Inactive)
REMARK    1  A    between atoms: C2_2  and  O2_4 
REMARK    2  A    between atoms: O2_4  and  C3_5 
REMARK    3  A    between atoms: C5_7  and  O3_8 
REMARK    4  A    between atoms: O3_8  and  C6_9 
REMARK    5  A    between atoms: C6_9  and  C7_11 
REMARK    6  A    between atoms: C7_11  and  O5_12 
REMARK    7  A    between atoms: C7_11  and  O6_14 
REMARK    8  A    between atoms: C9_19  and  C10_20 
REMARK    9  A    between atoms: C10_20  and  O9_21 
REMARK   10  A    between atoms: C10_20  and  C11_23 
REMARK   11  A    between atoms: C11_23  and  O10_24 
REMARK   12  A    between atoms: C11_23  and  C12_26 
REMARK   13  A    between atoms: C12_26  and  O11_27 
REMARK   14  A    between atoms: C12_26  and  C20_47 
REMARK   15  A    between atoms: O11_27  and  S1_28 
REMARK   16  A    between atoms: S1_28  and  O14_31 
REMARK   17  A    between atoms: O14_31  and  C13_32 
REMARK   18  A    between atoms: C17_40  and  S2_41 
ROOT
HETATM    1  C11 UNL     1     -29.392  55.373 -28.984  1.00  0.00     0.190 C 
ENDROOT
BRANCH   1   2
HETATM    2  C10 UNL     1     -30.396  55.183 -27.882  1.00  0.00     0.182 C 
BRANCH   2   3
HETATM    3  C9  UNL     1     -29.812  54.541 -26.655  1.00  0.00     0.193 C 
HETATM    4  C3  UNL     1     -30.787  54.669 -25.510  1.00  0.00     0.167 C 
HETATM    5  C4  UNL     1     -30.966  53.351 -24.760  1.00  0.00     0.078 C 
HETATM    6  C5  UNL     1     -29.539  52.896 -24.420  1.00  0.00     0.234 C 
HETATM    7  C8  UNL     1     -28.964  52.503 -25.747  1.00  0.00     0.289 C 
HETATM    8  O7  UNL     1     -28.087  51.610 -25.873  1.00  0.00    -0.262 OA
HETATM    9  O8  UNL     1     -29.475  53.198 -26.832  1.00  0.00    -0.309 OA
BRANCH   4  10
HETATM   10  O2  UNL     1     -30.338  55.618 -24.558  1.00  0.00    -0.314 OA
BRANCH  10  11
HETATM   11  C2  UNL     1     -30.990  56.812 -24.288  1.00  0.00     0.255 C 
HETATM   12  C1  UNL     1     -31.908  56.985 -23.133  1.00  0.00     0.126 C 
HETATM   13  O1  UNL     1     -30.807  57.795 -25.041  1.00  0.00    -0.266 OA
ENDBRANCH  10  11
ENDBRANCH   4  10
BRANCH   6  14
HETATM   14  O3  UNL     1     -29.586  51.825 -23.529  1.00  0.00    -0.302 OA
BRANCH  14  15
HETATM   15  C6  UNL     1     -29.954  51.909 -22.213  1.00  0.00     0.315 C 
HETATM   16  O4  UNL     1     -29.098  52.249 -21.356  1.00  0.00    -0.260 OA
BRANCH  15  17
HETATM   17  C7  UNL     1     -31.342  51.612 -21.734  1.00  0.00     0.356 C 
BRANCH  17  18
HETATM   18  O5  UNL     1     -31.784  52.593 -20.862  1.00  0.00    -0.363 OA
ATOM     19  H5  UNL     1     -32.389  52.232 -20.225  1.00  0.00     0.213 HD
ENDBRANCH  17  18
BRANCH  17  20
HETATM   20  O6  UNL     1     -31.469  50.332 -21.250  1.00  0.00    -0.363 OA
ATOM     21  H6  UNL     1     -31.098  50.233 -20.382  1.00  0.00     0.213 HD
ENDBRANCH  17  20
ENDBRANCH  15  17
ENDBRANCH  14  15
ENDBRANCH   6  14
ENDBRANCH   2   3
BRANCH   2  22
HETATM   22  O9  UNL     1     -30.908  56.422 -27.502  1.00  0.00    -0.390 OA
ATOM     23  H9  UNL     1     -30.858  56.473 -26.554  1.00  0.00     0.210 HD
ENDBRANCH   2  22
ENDBRANCH   1   2
BRANCH   1  24
HETATM   24  O10 UNL     1     -28.125  54.961 -28.662  1.00  0.00    -0.390 OA
ATOM     25  H10 UNL     1     -27.736  55.438 -27.939  1.00  0.00     0.210 HD
ENDBRANCH   1  24
BRANCH   1  26
HETATM   26  C12 UNL     1     -29.818  54.703 -30.268  1.00  0.00     0.276 C 
BRANCH  26  27
HETATM   27  O11 UNL     1     -31.119  54.193 -30.181  1.00  0.00    -0.234 OA
BRANCH  27  28
HETATM   28  S1  UNL     1     -32.219  55.161 -30.995  1.00  0.00     0.409 S 
HETATM   29  O12 UNL     1     -33.349  54.289 -31.458  1.00  0.00    -0.168 OA
HETATM   30  O13 UNL     1     -31.572  55.727 -32.244  1.00  0.00    -0.168 OA
BRANCH  28  31
HETATM   31  O14 UNL     1     -32.739  56.436 -30.036  1.00  0.00    -0.192 OA
BRANCH  31  32
HETATM   32  C13 UNL     1     -33.647  57.402 -30.413  1.00  0.00     0.176 A 
HETATM   33  N1  UNL     1     -34.127  57.595 -31.662  1.00  0.00    -0.343 N 
HETATM   34  C14 UNL     1     -34.987  58.614 -31.682  1.00  0.00     0.128 A 
ATOM     35  H1  UNL     1     -33.868  57.039 -32.477  1.00  0.00     0.167 HD
HETATM   36  C15 UNL     1     -35.087  59.122 -30.402  1.00  0.00     0.109 A 
HETATM   37  O15 UNL     1     -35.773  60.102 -29.863  1.00  0.00    -0.272 OA
HETATM   38  C19 UNL     1     -34.252  58.366 -29.612  1.00  0.00     0.053 A 
HETATM   39  C16 UNL     1     -35.672  60.372 -28.580  1.00  0.00     0.312 A 
HETATM   40  O16 UNL     1     -36.344  61.316 -28.103  1.00  0.00    -0.258 OA
HETATM   41  C17 UNL     1     -34.864  59.661 -27.749  1.00  0.00     0.157 A 
HETATM   42  C18 UNL     1     -34.120  58.623 -28.250  1.00  0.00     0.051 A 
BRANCH  41  43
HETATM   43  S2  UNL     1     -34.774  60.069 -26.046  1.00  0.00     0.143 S 
HETATM   44  O17 UNL     1     -33.932  59.086 -25.297  1.00  0.00    -0.591 OA
HETATM   45  O18 UNL     1     -36.151  60.063 -25.443  1.00  0.00    -0.591 OA
HETATM   46  O19 UNL     1     -34.127  61.603 -25.818  1.00  0.00    -0.591 OA
ENDBRANCH  41  43
ENDBRANCH  31  32
ENDBRANCH  28  31
ENDBRANCH  27  28
ENDBRANCH  26  27
BRANCH  26  47
HETATM   47  C20 UNL     1     -28.865  53.634 -30.675  1.00  0.00     0.207 C 
HETATM   48  O20 UNL     1     -28.045  53.920 -31.584  1.00  0.00    -0.646 OA
HETATM   49  O21 UNL     1     -28.924  52.412 -30.051  1.00  0.00    -0.646 OA
ENDBRANCH  26  47
ENDBRANCH   1  26
TORSDOF 18
ENDMDL
MODEL 3
REMARK VINA RESULT: -9.293878112      3.825      9.631
REMARK  18 active torsions:
REMARK  status: ('A' for Active; 'I' for Inactive)
REMARK    1  A    between atoms: C2_2  and  O2_4 
REMARK    2  A    between atoms: O2_4  and  C3_5 
REMARK    3  A    between atoms: C5_7  and  O3_8 
REMARK    4  A    between atoms: O3_8  and  C6_9 
REMARK    5  A    between atoms: C6_9  and  C7_11 
REMARK    6  A    between atoms: C7_11  and  O5_12 
REMARK    7  A    between atoms: C7_11  and  O6_14 
REMARK    8  A    between atoms: C9_19  and  C10_20 
REMARK    9  A    between atoms: C10_20  and  O9_21 
REMARK   10  A    between atoms: C10_20  and  C11_23 
REMARK   11  A    between atoms: C11_23  and  O10_24 
REMARK   12  A    between atoms: C11_23  and  C12_26 
REMARK   13  A    between atoms: C12_26  and  O11_27 
REMARK   14  A    between atoms: C12_26  and  C20_47 
REMARK   15  A    between atoms: O11_27  and  S1_28 
REMARK   16  A    between atoms: S1_28  and  O14_31 
REMARK   17  A    between atoms: O14_31  and  C13_32 
REMARK   18  A    between atoms: C17_40  and  S2_41 
ROOT
HETATM    1  C11 UNL     1     -31.488  58.223 -24.239  1.00  0.00     0.190 C 
ENDROOT
BRANCH   1   2
HETATM    2  C10 UNL     1     -31.827  59.438 -23.422  1.00  0.00     0.182 C 
BRANCH   2   3
HETATM    3  C9  UNL     1     -31.187  60.696 -23.939  1.00  0.00     0.193 C 
HETATM    4  C3  UNL     1     -32.244  61.582 -24.551  1.00  0.00     0.167 C 
HETATM    5  C4  UNL     1     -32.117  63.031 -24.086  1.00  0.00     0.078 C 
HETATM    6  C5  UNL     1     -30.650  63.401 -24.351  1.00  0.00     0.234 C 
HETATM    7  C8  UNL     1     -29.892  62.606 -23.331  1.00  0.00     0.289 C 
HETATM    8  O7  UNL     1     -28.799  62.991 -22.841  1.00  0.00    -0.262 OA
HETATM    9  O8  UNL     1     -30.488  61.409 -22.964  1.00  0.00    -0.309 OA
BRANCH   4  10
HETATM   10  O2  UNL     1     -32.141  61.601 -25.965  1.00  0.00    -0.314 OA
BRANCH  10  11
HETATM   11  C2  UNL     1     -33.024  60.951 -26.814  1.00  0.00     0.255 C 
HETATM   12  C1  UNL     1     -33.312  61.425 -28.193  1.00  0.00     0.126 C 
HETATM   13  O1  UNL     1     -33.612  59.921 -26.416  1.00  0.00    -0.266 OA
ENDBRANCH  10  11
ENDBRANCH   4  10
BRANCH   6  14
HETATM   14  O3  UNL     1     -30.474  64.773 -24.185  1.00  0.00    -0.302 OA
BRANCH  14  15
HETATM   15  C6  UNL     1     -29.920  65.616 -25.112  1.00  0.00     0.315 C 
HETATM   16  O4  UNL     1     -30.585  65.931 -26.132  1.00  0.00    -0.260 OA
BRANCH  15  17
HETATM   17  C7  UNL     1     -28.542  66.187 -24.971  1.00  0.00     0.356 C 
BRANCH  17  18
HETATM   18  O5  UNL     1     -27.688  65.274 -24.373  1.00  0.00    -0.363 OA
ATOM     19  H5  UNL     1     -26.930  65.711 -24.005  1.00  0.00     0.213 HD
ENDBRANCH  17  18
BRANCH  17  20
HETATM   20  O6  UNL     1     -28.544  67.426 -24.378  1.00  0.00    -0.363 OA
ATOM     21  H6  UNL     1     -28.224  68.108 -24.956  1.00  0.00     0.213 HD
ENDBRANCH  17  20
ENDBRANCH  15  17
ENDBRANCH  14  15
ENDBRANCH   6  14
ENDBRANCH   2   3
BRANCH   2  22
HETATM   22  O9  UNL     1     -33.207  59.636 -23.435  1.00  0.00    -0.390 OA
ATOM     23  H9  UNL     1     -33.563  59.120 -24.149  1.00  0.00     0.210 HD
ENDBRANCH   2  22
ENDBRANCH   1   2
BRANCH   1  24
HETATM   24  O10 UNL     1     -30.464  58.417 -25.128  1.00  0.00    -0.390 OA
ATOM     25  H10 UNL     1     -29.814  59.046 -24.838  1.00  0.00     0.210 HD
ENDBRANCH   1  24
BRANCH   1  26
HETATM   26  C12 UNL     1     -31.174  57.024 -23.377  1.00  0.00     0.276 C 
BRANCH  26  27
HETATM   27  O11 UNL     1     -31.866  57.062 -22.160  1.00  0.00    -0.234 OA
BRANCH  27  28
HETATM   28  S1  UNL     1     -33.248  56.115 -22.206  1.00  0.00     0.409 S 
HETATM   29  O12 UNL     1     -34.390  56.984 -22.645  1.00  0.00    -0.168 OA
HETATM   30  O13 UNL     1     -33.584  55.637 -20.807  1.00  0.00    -0.168 OA
BRANCH  28  31
HETATM   31  O14 UNL     1     -33.040  54.776 -23.196  1.00  0.00    -0.192 OA
BRANCH  31  32
HETATM   32  C13 UNL     1     -32.075  53.804 -23.034  1.00  0.00     0.176 A 
HETATM   33  N1  UNL     1     -31.906  53.029 -21.940  1.00  0.00    -0.343 N 
HETATM   34  C14 UNL     1     -30.882  52.193 -22.111  1.00  0.00     0.128 A 
ATOM     35  H1  UNL     1     -32.482  53.076 -21.099  1.00  0.00     0.167 HD
HETATM   36  C15 UNL     1     -30.345  52.416 -23.364  1.00  0.00     0.109 A 
HETATM   37  O15 UNL     1     -29.348  51.887 -24.034  1.00  0.00    -0.272 OA
HETATM   38  C19 UNL     1     -31.090  53.420 -23.939  1.00  0.00     0.053 A 
HETATM   39  C16 UNL     1     -29.051  52.304 -25.246  1.00  0.00     0.312 A 
HETATM   40  O16 UNL     1     -28.092  51.774 -25.853  1.00  0.00    -0.258 OA
HETATM   41  C17 UNL     1     -29.751  53.293 -25.865  1.00  0.00     0.157 A 
HETATM   42  C18 UNL     1     -30.804  53.887 -25.219  1.00  0.00     0.051 A 
BRANCH  41  43
HETATM   43  S2  UNL     1     -29.306  53.805 -27.482  1.00  0.00     0.143 S 
HETATM   44  O17 UNL     1     -29.206  52.637 -28.411  1.00  0.00    -0.591 OA
HETATM   45  O18 UNL     1     -27.973  54.497 -27.454  1.00  0.00    -0.591 OA
HETATM   46  O19 UNL     1     -30.426  54.887 -28.112  1.00  0.00    -0.591 OA
ENDBRANCH  41  43
ENDBRANCH  31  32
ENDBRANCH  28  31
ENDBRANCH  27  28
ENDBRANCH  26  27
BRANCH  26  47
HETATM   47  C20 UNL     1     -29.710  56.884 -23.140  1.00  0.00     0.207 C 
HETATM   48  O20 UNL     1     -29.026  56.408 -24.080  1.00  0.00    -0.646 OA
HETATM   49  O21 UNL     1     -29.189  57.274 -21.931  1.00  0.00    -0.646 OA
ENDBRANCH  26  47
ENDBRANCH   1  26
TORSDOF 18
ENDMDL
MODEL 4
REMARK VINA RESULT: -9.267716472      2.486      9.659
REMARK  18 active torsions:
REMARK  status: ('A' for Active; 'I' for Inactive)
REMARK    1  A    between atoms: C2_2  and  O2_4 
REMARK    2  A    between atoms: O2_4  and  C3_5 
REMARK    3  A    between atoms: C5_7  and  O3_8 
REMARK    4  A    between atoms: O3_8  and  C6_9 
REMARK    5  A    between atoms: C6_9  and  C7_11 
REMARK    6  A    between atoms: C7_11  and  O5_12 
REMARK    7  A    between atoms: C7_11  and  O6_14 
REMARK    8  A    between atoms: C9_19  and  C10_20 
REMARK    9  A    between atoms: C10_20  and  O9_21 
REMARK   10  A    between atoms: C10_20  and  C11_23 
REMARK   11  A    between atoms: C11_23  and  O10_24 
REMARK   12  A    between atoms: C11_23  and  C12_26 
REMARK   13  A    between atoms: C12_26  and  O11_27 
REMARK   14  A    between atoms: C12_26  and  C20_47 
REMARK   15  A    between atoms: O11_27  and  S1_28 
REMARK   16  A    between atoms: S1_28  and  O14_31 
REMARK   17  A    between atoms: O14_31  and  C13_32 
REMARK   18  A    between atoms: C17_40  and  S2_41 
ROOT
HETATM    1  C11 UNL     1     -31.129  54.696 -23.940  1.00  0.00     0.190 C 
ENDROOT
BRANCH   1   2
HETATM    2  C10 UNL     1     -30.274  55.919 -23.756  1.00  0.00     0.182 C 
BRANCH   2   3
HETATM    3  C9  UNL     1     -31.037  57.204 -23.922  1.00  0.00     0.193 C 
HETATM    4  C3  UNL     1     -30.449  58.256 -23.015  1.00  0.00     0.167 C 
HETATM    5  C4  UNL     1     -30.235  59.583 -23.740  1.00  0.00     0.078 C 
HETATM    6  C5  UNL     1     -31.589  59.896 -24.394  1.00  0.00     0.234 C 
HETATM    7  C8  UNL     1     -31.699  58.878 -25.488  1.00  0.00     0.289 C 
HETATM    8  O7  UNL     1     -32.327  59.093 -26.557  1.00  0.00    -0.262 OA
HETATM    9  O8  UNL     1     -31.055  57.677 -25.235  1.00  0.00    -0.309 OA
BRANCH   4  10
HETATM   10  O2  UNL     1     -31.308  58.527 -21.920  1.00  0.00    -0.314 OA
BRANCH  10  11
HETATM   11  C2  UNL     1     -32.575  57.982 -21.777  1.00  0.00     0.255 C 
HETATM   12  C1  UNL     1     -33.817  58.787 -21.902  1.00  0.00     0.126 C 
HETATM   13  O1  UNL     1     -32.693  56.761 -21.532  1.00  0.00    -0.266 OA
ENDBRANCH  10  11
ENDBRANCH   4  10
BRANCH   6  14
HETATM   14  O3  UNL     1     -31.583  61.200 -24.885  1.00  0.00    -0.302 OA
BRANCH  14  15
HETATM   15  C6  UNL     1     -31.597  62.333 -24.117  1.00  0.00     0.315 C 
HETATM   16  O4  UNL     1     -32.686  62.733 -23.630  1.00  0.00    -0.260 OA
BRANCH  15  17
HETATM   17  C7  UNL     1     -30.366  63.133 -23.824  1.00  0.00     0.356 C 
BRANCH  17  18
HETATM   18  O5  UNL     1     -30.059  63.091 -22.473  1.00  0.00    -0.363 OA
ATOM     19  H5  UNL     1     -29.709  63.923 -22.179  1.00  0.00     0.213 HD
ENDBRANCH  17  18
BRANCH  17  20
HETATM   20  O6  UNL     1     -30.426  64.404 -24.346  1.00  0.00    -0.363 OA
ATOM     21  H6  UNL     1     -30.222  64.426 -25.274  1.00  0.00     0.213 HD
ENDBRANCH  17  20
ENDBRANCH  15  17
ENDBRANCH  14  15
ENDBRANCH   6  14
ENDBRANCH   2   3
BRANCH   2  22
HETATM   22  O9  UNL     1     -29.732  55.918 -22.472  1.00  0.00    -0.390 OA
ATOM     23  H9  UNL     1     -29.547  56.820 -22.239  1.00  0.00     0.210 HD
ENDBRANCH   2  22
ENDBRANCH   1   2
BRANCH   1  24
HETATM   24  O10 UNL     1     -31.893  54.717 -25.078  1.00  0.00    -0.390 OA
ATOM     25  H10 UNL     1     -31.864  53.909 -25.577  1.00  0.00     0.210 HD
ENDBRANCH   1  24
BRANCH   1  26
HETATM   26  C12 UNL     1     -30.319  53.423 -23.912  1.00  0.00     0.276 C 
BRANCH  26  27
HETATM   27  O11 UNL     1     -30.648  52.575 -24.977  1.00  0.00    -0.234 OA
BRANCH  27  28
HETATM   28  S1  UNL     1     -29.341  52.332 -25.999  1.00  0.00     0.409 S 
HETATM   29  O12 UNL     1     -29.737  51.305 -27.020  1.00  0.00    -0.168 OA
HETATM   30  O13 UNL     1     -28.186  51.738 -25.217  1.00  0.00    -0.168 OA
BRANCH  28  31
HETATM   31  O14 UNL     1     -28.834  53.772 -26.696  1.00  0.00    -0.192 OA
BRANCH  31  32
HETATM   32  C13 UNL     1     -29.505  54.463 -27.682  1.00  0.00     0.176 A 
HETATM   33  N1  UNL     1     -30.400  55.457 -27.485  1.00  0.00    -0.343 N 
HETATM   34  C14 UNL     1     -30.862  55.910 -28.650  1.00  0.00     0.128 A 
ATOM     35  H1  UNL     1     -30.681  55.813 -26.571  1.00  0.00     0.167 HD
HETATM   36  C15 UNL     1     -30.258  55.194 -29.664  1.00  0.00     0.109 A 
HETATM   37  O15 UNL     1     -30.342  55.223 -30.974  1.00  0.00    -0.272 OA
HETATM   38  C19 UNL     1     -29.411  54.293 -29.060  1.00  0.00     0.053 A 
HETATM   39  C16 UNL     1     -29.629  54.403 -31.715  1.00  0.00     0.312 A 
HETATM   40  O16 UNL     1     -29.737  54.462 -32.962  1.00  0.00    -0.258 OA
HETATM   41  C17 UNL     1     -28.777  53.491 -31.175  1.00  0.00     0.157 A 
HETATM   42  C18 UNL     1     -28.643  53.410 -29.813  1.00  0.00     0.051 A 
BRANCH  41  43
HETATM   43  S2  UNL     1     -27.854  52.425 -32.217  1.00  0.00     0.143 S 
HETATM   44  O17 UNL     1     -27.267  51.287 -31.445  1.00  0.00    -0.591 OA
HETATM   45  O18 UNL     1     -26.728  53.185 -32.861  1.00  0.00    -0.591 OA
HETATM   46  O19 UNL     1     -28.808  51.794 -33.448  1.00  0.00    -0.591 OA
ENDBRANCH  41  43
ENDBRANCH  31  32
ENDBRANCH  28  31
ENDBRANCH  27  28
ENDBRANCH  26  27
BRANCH  26  47
HETATM   47  C20 UNL     1     -30.461  52.708 -22.614  1.00  0.00     0.207 C 
HETATM   48  O20 UNL     1     -29.739  51.693 -22.443  1.00  0.00    -0.646 OA
HETATM   49  O21 UNL     1     -31.353  53.181 -21.684  1.00  0.00    -0.646 OA
ENDBRANCH  26  47
ENDBRANCH   1  26
TORSDOF 18
ENDMDL
MODEL 5
REMARK VINA RESULT: -9.257671706      4.267     10.801
REMARK  18 active torsions:
REMARK  status: ('A' for Active; 'I' for Inactive)
REMARK    1  A    between atoms: C2_2  and  O2_4 
REMARK    2  A    between atoms: O2_4  and  C3_5 
REMARK    3  A    between atoms: C5_7  and  O3_8 
REMARK    4  A    between atoms: O3_8  and  C6_9 
REMARK    5  A    between atoms: C6_9  and  C7_11 
REMARK    6  A    between atoms: C7_11  and  O5_12 
REMARK    7  A    between atoms: C7_11  and  O6_14 
REMARK    8  A    between atoms: C9_19  and  C10_20 
REMARK    9  A    between atoms: C10_20  and  O9_21 
REMARK   10  A    between atoms: C10_20  and  C11_23 
REMARK   11  A    between atoms: C11_23  and  O10_24 
REMARK   12  A    between atoms: C11_23  and  C12_26 
REMARK   13  A    between atoms: C12_26  and  O11_27 
REMARK   14  A    between atoms: C12_26  and  C20_47 
REMARK   15  A    between atoms: O11_27  and  S1_28 
REMARK   16  A    between atoms: S1_28  and  O14_31 
REMARK   17  A    between atoms: O14_31  and  C13_32 
REMARK   18  A    between atoms: C17_40  and  S2_41 
ROOT
HETATM    1  C11 UNL     1     -31.269  60.706 -22.648  1.00  0.00     0.190 C 
ENDROOT
BRANCH   1   2
HETATM    2  C10 UNL     1     -30.466  61.580 -23.570  1.00  0.00     0.182 C 
BRANCH   2   3
HETATM    3  C9  UNL     1     -31.189  62.834 -23.975  1.00  0.00     0.193 C 
HETATM    4  C3  UNL     1     -30.199  63.824 -24.537  1.00  0.00     0.167 C 
HETATM    5  C4  UNL     1     -30.688  64.445 -25.843  1.00  0.00     0.078 C 
HETATM    6  C5  UNL     1     -32.099  64.964 -25.526  1.00  0.00     0.234 C 
HETATM    7  C8  UNL     1     -32.912  63.715 -25.372  1.00  0.00     0.289 C 
HETATM    8  O7  UNL     1     -34.139  63.662 -25.645  1.00  0.00    -0.262 OA
HETATM    9  O8  UNL     1     -32.209  62.616 -24.903  1.00  0.00    -0.309 OA
BRANCH   4  10
HETATM   10  O2  UNL     1     -29.980  64.896 -23.636  1.00  0.00    -0.314 OA
BRANCH  10  11
HETATM   11  C2  UNL     1     -28.747  65.502 -23.439  1.00  0.00     0.255 C 
HETATM   12  C1  UNL     1     -28.419  66.850 -23.969  1.00  0.00     0.126 C 
HETATM   13  O1  UNL     1     -27.865  64.898 -22.789  1.00  0.00    -0.266 OA
ENDBRANCH  10  11
ENDBRANCH   4  10
BRANCH   6  14
HETATM   14  O3  UNL     1     -32.553  65.762 -26.575  1.00  0.00    -0.302 OA
BRANCH  14  15
HETATM   15  C6  UNL     1     -32.993  67.053 -26.452  1.00  0.00     0.315 C 
HETATM   16  O4  UNL     1     -34.225  67.273 -26.329  1.00  0.00    -0.260 OA
BRANCH  15  17
HETATM   17  C7  UNL     1     -32.070  68.232 -26.459  1.00  0.00     0.356 C 
BRANCH  17  18
HETATM   18  O5  UNL     1     -32.746  69.387 -26.818  1.00  0.00    -0.363 OA
ATOM     19  H5  UNL     1     -32.498  70.113 -26.259  1.00  0.00     0.213 HD
ENDBRANCH  17  18
BRANCH  17  20
HETATM   20  O6  UNL     1     -30.927  68.002 -27.187  1.00  0.00    -0.363 OA
ATOM     21  H6  UNL     1     -30.833  68.602 -27.917  1.00  0.00     0.213 HD
ENDBRANCH  17  20
ENDBRANCH  15  17
ENDBRANCH  14  15
ENDBRANCH   6  14
ENDBRANCH   2   3
BRANCH   2  22
HETATM   22  O9  UNL     1     -29.286  61.964 -22.936  1.00  0.00    -0.390 OA
ATOM     23  H9  UNL     1     -28.675  61.240 -23.009  1.00  0.00     0.210 HD
ENDBRANCH   2  22
ENDBRANCH   1   2
BRANCH   1  24
HETATM   24  O10 UNL     1     -32.538  61.165 -22.408  1.00  0.00    -0.390 OA
ATOM     25  H10 UNL     1     -32.863  60.965 -21.538  1.00  0.00     0.210 HD
ENDBRANCH   1  24
BRANCH   1  26
HETATM   26  C12 UNL     1     -31.344  59.279 -23.132  1.00  0.00     0.276 C 
BRANCH  26  27
HETATM   27  O11 UNL     1     -32.600  58.980 -23.677  1.00  0.00    -0.234 OA
BRANCH  27  28
HETATM   28  S1  UNL     1     -32.467  58.333 -25.218  1.00  0.00     0.409 S 
HETATM   29  O12 UNL     1     -31.043  58.491 -25.664  1.00  0.00    -0.168 OA
HETATM   30  O13 UNL     1     -33.313  59.138 -26.184  1.00  0.00    -0.168 OA
BRANCH  28  31
HETATM   31  O14 UNL     1     -32.981  56.736 -25.257  1.00  0.00    -0.192 OA
BRANCH  31  32
HETATM   32  C13 UNL     1     -32.755  55.799 -24.272  1.00  0.00     0.176 A 
HETATM   33  N1  UNL     1     -33.357  55.757 -23.062  1.00  0.00    -0.343 N 
HETATM   34  C14 UNL     1     -32.909  54.723 -22.351  1.00  0.00     0.128 A 
ATOM     35  H1  UNL     1     -34.057  56.424 -22.739  1.00  0.00     0.167 HD
HETATM   36  C15 UNL     1     -31.974  54.047 -23.109  1.00  0.00     0.109 A 
HETATM   37  O15 UNL     1     -31.235  52.981 -22.905  1.00  0.00    -0.272 OA
HETATM   38  C19 UNL     1     -31.879  54.718 -24.307  1.00  0.00     0.053 A 
HETATM   39  C16 UNL     1     -30.406  52.547 -23.829  1.00  0.00     0.312 A 
HETATM   40  O16 UNL     1     -29.718  51.526 -23.596  1.00  0.00    -0.258 OA
HETATM   41  C17 UNL     1     -30.268  53.168 -25.031  1.00  0.00     0.157 A 
HETATM   42  C18 UNL     1     -31.011  54.287 -25.307  1.00  0.00     0.051 A 
BRANCH  41  43
HETATM   43  S2  UNL     1     -29.145  52.540 -26.222  1.00  0.00     0.143 S 
HETATM   44  O17 UNL     1     -27.770  52.403 -25.650  1.00  0.00    -0.591 OA
HETATM   45  O18 UNL     1     -29.072  53.470 -27.401  1.00  0.00    -0.591 OA
HETATM   46  O19 UNL     1     -29.634  51.037 -26.792  1.00  0.00    -0.591 OA
ENDBRANCH  41  43
ENDBRANCH  31  32
ENDBRANCH  28  31
ENDBRANCH  27  28
ENDBRANCH  26  27
BRANCH  26  47
HETATM   47  C20 UNL     1     -31.001  58.311 -22.055  1.00  0.00     0.207 C 
HETATM   48  O20 UNL     1     -31.529  58.502 -20.930  1.00  0.00    -0.646 OA
HETATM   49  O21 UNL     1     -30.144  57.275 -22.334  1.00  0.00    -0.646 OA
ENDBRANCH  26  47
ENDBRANCH   1  26
TORSDOF 18
ENDMDL
