MODEL 1
REMARK VINA RESULT: -7.080180698      0.000      0.000
REMARK  3 active torsions:
REMARK  status: ('A' for Active; 'I' for Inactive)
REMARK    1  A    between atoms: C4_5  and  C5_6 
REMARK    2  A    between atoms: C5_6  and  C6_7 
REMARK    3  A    between atoms: C7_8  and  N1_9 
ROOT
HETATM    1  C6  UNL     1     -11.345  17.442  -8.399  1.00  0.00    -0.005 A 
HETATM    2  C7  UNL     1     -10.650  16.285  -8.521  1.00  0.00     0.091 A 
HETATM    3  S1  UNL     1      -9.012  16.851  -8.717  1.00  0.00    -0.074 SA
HETATM    4  C12 UNL     1      -9.306  18.539  -8.630  1.00  0.00     0.003 A 
HETATM    5  C13 UNL     1     -10.622  18.593  -8.459  1.00  0.00     0.022 A 
HETATM    6  S2  UNL     1     -10.953  20.373  -8.366  1.00  0.00    -0.128 SA
HETATM    7  C14 UNL     1      -9.385  20.909  -9.169  1.00  0.00     0.085 C 
HETATM    8  C15 UNL     1      -8.539  19.783  -8.687  1.00  0.00     0.058 C 
ENDROOT
BRANCH   2   9
HETATM    9  N1  UNL     1     -10.992  14.883  -8.470  1.00  0.00    -0.284 N 
HETATM   10  C8  UNL     1     -11.916  14.353  -7.663  1.00  0.00     0.192 A 
HETATM   11  N2  UNL     1     -11.985  13.054  -7.921  1.00  0.00    -0.335 N 
HETATM   12  C9  UNL     1     -11.115  12.725  -8.890  1.00  0.00     0.152 A 
ATOM     13  H2  UNL     1     -12.609  12.398  -7.451  1.00  0.00     0.168 HD
HETATM   14  N3  UNL     1     -10.605  11.757  -9.666  1.00  0.00    -0.335 N 
HETATM   15  C11 UNL     1     -10.490  13.889  -9.234  1.00  0.00     0.159 A 
HETATM   16  C10 UNL     1      -9.685  12.303 -10.473  1.00  0.00     0.183 A 
ATOM     17  H3  UNL     1     -10.871  10.772  -9.645  1.00  0.00     0.168 HD
HETATM   18  N4  UNL     1      -9.601  13.613 -10.222  1.00  0.00    -0.335 N 
ATOM     19  H4  UNL     1      -8.984  14.281 -10.685  1.00  0.00     0.168 HD
ENDBRANCH   2   9
BRANCH   1  20
HETATM   20  C5  UNL     1     -12.838  17.445  -8.257  1.00  0.00     0.047 C 
BRANCH  20  21
HETATM   21  C4  UNL     1     -13.631  17.565  -9.494  1.00  0.00    -0.010 C 
HETATM   22  C3  UNL     1     -13.997  18.901  -9.992  1.00  0.00     0.006 C 
HETATM   23  C2  UNL     1     -14.562  18.849 -11.388  1.00  0.00     0.020 C 
HETATM   24  C1  UNL     1     -14.652  17.457 -11.935  1.00  0.00     0.082 C 
HETATM   25 CL1  UNL     1     -15.734  17.552 -13.372  1.00  0.00    -0.125 Cl
HETATM   26  C17 UNL     1     -15.314  16.518 -10.965  1.00  0.00     0.020 C 
HETATM   27  C16 UNL     1     -14.828  16.637  -9.552  1.00  0.00     0.006 C 
ENDBRANCH  20  21
ENDBRANCH   1  20
TORSDOF 3
ENDMDL
MODEL 2
REMARK VINA RESULT: -7.015913537      1.768      2.170
REMARK  3 active torsions:
REMARK  status: ('A' for Active; 'I' for Inactive)
REMARK    1  A    between atoms: C4_5  and  C5_6 
REMARK    2  A    between atoms: C5_6  and  C6_7 
REMARK    3  A    between atoms: C7_8  and  N1_9 
ROOT
HETATM    1  C6  UNL     1     -11.689  17.481  -9.103  1.00  0.00    -0.005 A 
HETATM    2  C7  UNL     1     -11.554  16.331  -8.399  1.00  0.00     0.091 A 
HETATM    3  S1  UNL     1     -11.957  16.834  -6.779  1.00  0.00    -0.074 SA
HETATM    4  C12 UNL     1     -12.278  18.490  -7.092  1.00  0.00     0.003 A 
HETATM    5  C13 UNL     1     -12.065  18.582  -8.400  1.00  0.00     0.022 A 
HETATM    6  S2  UNL     1     -12.399  20.330  -8.750  1.00  0.00    -0.128 SA
HETATM    7  C14 UNL     1     -12.207  20.920  -7.017  1.00  0.00     0.085 C 
HETATM    8  C15 UNL     1     -12.688  19.680  -6.347  1.00  0.00     0.058 C 
ENDROOT
BRANCH   2   9
HETATM    9  N1  UNL     1     -11.232  14.963  -8.737  1.00  0.00    -0.284 N 
HETATM   10  C8  UNL     1     -11.960  13.900  -8.384  1.00  0.00     0.192 A 
HETATM   11  N2  UNL     1     -11.384  12.823  -8.903  1.00  0.00    -0.335 N 
HETATM   12  C9  UNL     1     -10.286  13.169  -9.593  1.00  0.00     0.152 A 
ATOM     13  H2  UNL     1     -11.727  11.869  -8.793  1.00  0.00     0.168 HD
HETATM   14  N3  UNL     1      -9.251  12.762 -10.344  1.00  0.00    -0.335 N 
HETATM   15  C11 UNL     1     -10.195  14.527  -9.484  1.00  0.00     0.159 A 
HETATM   16  C10 UNL     1      -8.534  13.839 -10.694  1.00  0.00     0.183 A 
ATOM     17  H3  UNL     1      -9.044  11.797 -10.603  1.00  0.00     0.168 HD
HETATM   18  N4  UNL     1      -9.100  14.933 -10.175  1.00  0.00    -0.335 N 
ATOM     19  H4  UNL     1      -8.771  15.893 -10.279  1.00  0.00     0.168 HD
ENDBRANCH   2   9
BRANCH   1  20
HETATM   20  C5  UNL     1     -11.387  17.537 -10.572  1.00  0.00     0.047 C 
BRANCH  20  21
HETATM   21  C4  UNL     1     -12.536  17.609 -11.492  1.00  0.00    -0.010 C 
HETATM   22  C3  UNL     1     -12.515  18.575 -12.603  1.00  0.00     0.006 C 
HETATM   23  C2  UNL     1     -13.629  18.329 -13.588  1.00  0.00     0.020 C 
HETATM   24  C1  UNL     1     -14.516  17.187 -13.199  1.00  0.00     0.082 C 
HETATM   25 CL1  UNL     1     -15.996  17.333 -14.215  1.00  0.00    -0.125 Cl
HETATM   26  C17 UNL     1     -14.969  17.292 -11.770  1.00  0.00     0.020 C 
HETATM   27  C16 UNL     1     -13.883  17.639 -10.796  1.00  0.00     0.006 C 
ENDBRANCH  20  21
ENDBRANCH   1  20
TORSDOF 3
ENDMDL
MODEL 3
REMARK VINA RESULT: -6.986631241      1.914      2.467
REMARK  3 active torsions:
REMARK  status: ('A' for Active; 'I' for Inactive)
REMARK    1  A    between atoms: C4_5  and  C5_6 
REMARK    2  A    between atoms: C5_6  and  C6_7 
REMARK    3  A    between atoms: C7_8  and  N1_9 
ROOT
HETATM    1  C6  UNL     1     -13.162  17.801  -8.648  1.00  0.00    -0.005 A 
HETATM    2  C7  UNL     1     -12.162  17.054  -8.121  1.00  0.00     0.091 A 
HETATM    3  S1  UNL     1     -11.269  18.226  -7.189  1.00  0.00    -0.074 SA
HETATM    4  C12 UNL     1     -12.226  19.610  -7.523  1.00  0.00     0.003 A 
HETATM    5  C13 UNL     1     -13.170  19.122  -8.320  1.00  0.00     0.022 A 
HETATM    6  S2  UNL     1     -14.192  20.573  -8.686  1.00  0.00    -0.128 SA
HETATM    7  C14 UNL     1     -12.926  21.829  -8.231  1.00  0.00     0.085 C 
HETATM    8  C15 UNL     1     -12.248  21.030  -7.173  1.00  0.00     0.058 C 
ENDROOT
BRANCH   2   9
HETATM    9  N1  UNL     1     -11.809  15.653  -8.162  1.00  0.00    -0.284 N 
HETATM   10  C8  UNL     1     -12.398  14.697  -7.438  1.00  0.00     0.192 A 
HETATM   11  N2  UNL     1     -11.843  13.538  -7.768  1.00  0.00    -0.335 N 
HETATM   12  C9  UNL     1     -10.896  13.724  -8.701  1.00  0.00     0.152 A 
ATOM     13  H2  UNL     1     -12.100  12.635  -7.369  1.00  0.00     0.168 HD
HETATM   14  N3  UNL     1      -9.971  13.164  -9.496  1.00  0.00    -0.335 N 
HETATM   15  C11 UNL     1     -10.880  15.067  -8.947  1.00  0.00     0.159 A 
HETATM   16  C10 UNL     1      -9.393  14.133 -10.219  1.00  0.00     0.183 A 
ATOM     17  H3  UNL     1      -9.746  12.170  -9.542  1.00  0.00     0.168 HD
HETATM   18  N4  UNL     1      -9.939  15.309  -9.895  1.00  0.00    -0.335 N 
ATOM     19  H4  UNL     1      -9.696  16.219 -10.287  1.00  0.00     0.168 HD
ENDBRANCH   2   9
BRANCH   1  20
HETATM   20  C5  UNL     1     -14.173  17.206  -9.583  1.00  0.00     0.047 C 
BRANCH  20  21
HETATM   21  C4  UNL     1     -14.136  17.653 -10.987  1.00  0.00    -0.010 C 
HETATM   22  C3  UNL     1     -15.151  17.159 -11.931  1.00  0.00     0.006 C 
HETATM   23  C2  UNL     1     -15.128  17.918 -13.234  1.00  0.00     0.020 C 
HETATM   24  C1  UNL     1     -14.064  18.970 -13.283  1.00  0.00     0.082 C 
HETATM   25 CL1  UNL     1     -13.899  19.436 -15.015  1.00  0.00    -0.125 Cl
HETATM   26  C17 UNL     1     -12.726  18.433 -12.858  1.00  0.00     0.020 C 
HETATM   27  C16 UNL     1     -12.758  17.591 -11.618  1.00  0.00     0.006 C 
ENDBRANCH  20  21
ENDBRANCH   1  20
TORSDOF 3
ENDMDL
MODEL 4
REMARK VINA RESULT: -6.823864383      3.282      5.318
REMARK  3 active torsions:
REMARK  status: ('A' for Active; 'I' for Inactive)
REMARK    1  A    between atoms: C4_5  and  C5_6 
REMARK    2  A    between atoms: C5_6  and  C6_7 
REMARK    3  A    between atoms: C7_8  and  N1_9 
ROOT
HETATM    1  C6  UNL     1     -11.370  18.020  -9.152  1.00  0.00    -0.005 A 
HETATM    2  C7  UNL     1     -12.724  18.070  -9.100  1.00  0.00     0.091 A 
HETATM    3  S1  UNL     1     -13.008  19.156  -7.766  1.00  0.00    -0.074 SA
HETATM    4  C12 UNL     1     -11.377  19.489  -7.348  1.00  0.00     0.003 A 
HETATM    5  C13 UNL     1     -10.700  18.766  -8.232  1.00  0.00     0.022 A 
HETATM    6  S2  UNL     1      -8.971  19.104  -7.804  1.00  0.00    -0.128 SA
HETATM    7  C14 UNL     1      -9.303  19.708  -6.097  1.00  0.00     0.085 C 
HETATM    8  C15 UNL     1     -10.646  20.291  -6.368  1.00  0.00     0.058 C 
ENDROOT
BRANCH   2   9
HETATM    9  N1  UNL     1     -13.793  17.498  -9.885  1.00  0.00    -0.284 N 
HETATM   10  C8  UNL     1     -14.639  16.559  -9.451  1.00  0.00     0.192 A 
HETATM   11  N2  UNL     1     -15.505  16.311 -10.425  1.00  0.00    -0.335 N 
HETATM   12  C9  UNL     1     -15.236  17.078 -11.493  1.00  0.00     0.152 A 
ATOM     13  H2  UNL     1     -16.266  15.634 -10.369  1.00  0.00     0.168 HD
HETATM   14  N3  UNL     1     -15.575  17.429 -12.743  1.00  0.00    -0.335 N 
HETATM   15  C11 UNL     1     -14.151  17.828 -11.145  1.00  0.00     0.159 A 
HETATM   16  C10 UNL     1     -14.723  18.374 -13.163  1.00  0.00     0.183 A 
ATOM     17  H3  UNL     1     -16.350  17.042 -13.283  1.00  0.00     0.168 HD
HETATM   18  N4  UNL     1     -13.840  18.633 -12.193  1.00  0.00    -0.335 N 
ATOM     19  H4  UNL     1     -13.077  19.307 -12.233  1.00  0.00     0.168 HD
ENDBRANCH   2   9
BRANCH   1  20
HETATM   20  C5  UNL     1     -10.658  17.146 -10.142  1.00  0.00     0.047 C 
BRANCH  20  21
HETATM   21  C4  UNL     1     -10.569  15.709  -9.828  1.00  0.00    -0.010 C 
HETATM   22  C3  UNL     1     -11.217  15.192  -8.611  1.00  0.00     0.006 C 
HETATM   23  C2  UNL     1     -11.259  13.685  -8.589  1.00  0.00     0.020 C 
HETATM   24  C1  UNL     1     -10.608  13.061  -9.785  1.00  0.00     0.082 C 
HETATM   25 CL1  UNL     1     -10.358  11.326  -9.372  1.00  0.00    -0.125 Cl
HETATM   26  C17 UNL     1      -9.243  13.637 -10.043  1.00  0.00     0.020 C 
HETATM   27  C16 UNL     1      -9.173  15.133  -9.964  1.00  0.00     0.006 C 
ENDBRANCH  20  21
ENDBRANCH   1  20
TORSDOF 3
ENDMDL
MODEL 5
REMARK VINA RESULT: -6.813542272      1.050      1.397
REMARK  3 active torsions:
REMARK  status: ('A' for Active; 'I' for Inactive)
REMARK    1  A    between atoms: C4_5  and  C5_6 
REMARK    2  A    between atoms: C5_6  and  C6_7 
REMARK    3  A    between atoms: C7_8  and  N1_9 
ROOT
HETATM    1  C6  UNL     1     -11.412  18.341  -8.796  1.00  0.00    -0.005 A 
HETATM    2  C7  UNL     1     -10.803  17.152  -8.566  1.00  0.00     0.091 A 
HETATM    3  S1  UNL     1      -9.114  17.564  -8.698  1.00  0.00    -0.074 SA
HETATM    4  C12 UNL     1      -9.279  19.238  -9.039  1.00  0.00     0.003 A 
HETATM    5  C13 UNL     1     -10.597  19.403  -9.037  1.00  0.00     0.022 A 
HETATM    6  S2  UNL     1     -10.791  21.169  -9.398  1.00  0.00    -0.128 SA
HETATM    7  C14 UNL     1      -9.114  21.411 -10.118  1.00  0.00     0.085 C 
HETATM    8  C15 UNL     1      -8.413  20.388  -9.294  1.00  0.00     0.058 C 
ENDROOT
BRANCH   2   9
HETATM    9  N1  UNL     1     -11.261  15.823  -8.230  1.00  0.00    -0.284 N 
HETATM   10  C8  UNL     1     -12.162  15.544  -7.284  1.00  0.00     0.192 A 
HETATM   11  N2  UNL     1     -12.362  14.233  -7.288  1.00  0.00    -0.335 N 
HETATM   12  C9  UNL     1     -11.602  13.648  -8.227  1.00  0.00     0.152 A 
ATOM     13  H2  UNL     1     -13.003  13.739  -6.666  1.00  0.00     0.168 HD
HETATM   14  N3  UNL     1     -11.238  12.509  -8.836  1.00  0.00    -0.335 N 
HETATM   15  C11 UNL     1     -10.906  14.662  -8.821  1.00  0.00     0.159 A 
HETATM   16  C10 UNL     1     -10.339  12.805  -9.785  1.00  0.00     0.183 A 
ATOM     17  H3  UNL     1     -11.586  11.576  -8.614  1.00  0.00     0.168 HD
HETATM   18  N4  UNL     1     -10.123  14.124  -9.791  1.00  0.00    -0.335 N 
ATOM     19  H4  UNL     1      -9.489  14.632 -10.407  1.00  0.00     0.168 HD
ENDBRANCH   2   9
BRANCH   1  20
HETATM   20  C5  UNL     1     -12.907  18.459  -8.830  1.00  0.00     0.047 C 
BRANCH  20  21
HETATM   21  C4  UNL     1     -13.586  18.041 -10.070  1.00  0.00    -0.010 C 
HETATM   22  C3  UNL     1     -14.541  16.921 -10.031  1.00  0.00     0.006 C 
HETATM   23  C2  UNL     1     -15.333  16.808 -11.308  1.00  0.00     0.020 C 
HETATM   24  C1  UNL     1     -14.948  17.833 -12.331  1.00  0.00     0.082 C 
HETATM   25 CL1  UNL     1     -15.650  17.271 -13.892  1.00  0.00    -0.125 Cl
HETATM   26  C17 UNL     1     -13.459  17.892 -12.531  1.00  0.00     0.020 C 
HETATM   27  C16 UNL     1     -12.660  17.900 -11.263  1.00  0.00     0.006 C 
ENDBRANCH  20  21
ENDBRANCH   1  20
TORSDOF 3
ENDMDL
