MODEL 1
REMARK VINA RESULT: -7.148041385      0.000      0.000
REMARK  4 active torsions:
REMARK  status: ('A' for Active; 'I' for Inactive)
REMARK    1  A    between atoms: C4_4  and  C5_5 
REMARK    2  A    between atoms: C5_5  and  N1_6 
REMARK    3  A    between atoms: N1_6  and  C6_8 
REMARK    4  A    between atoms: C19_23  and  C20_24 
ROOT
HETATM    1  C6  UNL     1     -12.913  18.142  -9.937  1.00  0.00     0.107 C 
HETATM    2  C7  UNL     1     -12.808  19.381  -9.074  1.00  0.00     0.072 C 
HETATM    3  C8  UNL     1     -14.099  20.070  -9.254  1.00  0.00     0.098 A 
HETATM    4  C9  UNL     1     -14.642  20.684 -10.413  1.00  0.00     0.094 A 
HETATM    5  C10 UNL     1     -13.907  20.980 -11.717  1.00  0.00     0.023 C 
HETATM    6  C11 UNL     1     -14.337  20.116 -12.854  1.00  0.00     0.011 C 
HETATM    7  C12 UNL     1     -13.590  19.060 -13.458  1.00  0.00    -0.044 C 
HETATM    8  C13 UNL     1     -13.274  19.554 -14.918  1.00  0.00     0.015 C 
HETATM    9  C14 UNL     1     -14.667  17.993 -13.827  1.00  0.00     0.010 C 
HETATM   10  C15 UNL     1     -15.371  17.455 -12.651  1.00  0.00     0.017 C 
HETATM   11  C16 UNL     1     -14.685  17.332 -11.358  1.00  0.00     0.111 C 
HETATM   12  N2  UNL     1     -13.924  18.483 -10.905  1.00  0.00    -0.220 NA
HETATM   13  N3  UNL     1     -14.820  19.276 -10.198  1.00  0.00    -0.235 NA
HETATM   14  C17 UNL     1     -12.446  18.288 -13.060  1.00  0.00     0.010 C 
HETATM   15  C18 UNL     1     -11.483  18.619 -12.018  1.00  0.00     0.013 C 
HETATM   16  C19 UNL     1     -11.616  17.973 -10.665  1.00  0.00     0.058 C 
ENDROOT
BRANCH   1  17
HETATM   17  N1  UNL     1     -13.265  16.951  -9.260  1.00  0.00    -0.373 N 
ATOM     18  H1  UNL     1     -13.944  16.326  -9.696  1.00  0.00     0.161 HD
BRANCH  17  19
HETATM   19  C5  UNL     1     -12.728  16.592  -8.022  1.00  0.00     0.116 C 
BRANCH  19  20
HETATM   20  C4  UNL     1     -12.233  15.171  -8.090  1.00  0.00     0.072 A 
HETATM   21  C3  UNL     1     -11.479  14.531  -9.015  1.00  0.00     0.067 A 
HETATM   22  C2  UNL     1     -11.333  13.233  -8.561  1.00  0.00     0.074 A 
HETATM   23  C1  UNL     1     -10.604  12.127  -9.194  1.00  0.00     0.079 C 
HETATM   24  O1  UNL     1     -11.978  13.141  -7.422  1.00  0.00    -0.242 OA
HETATM   25  N4  UNL     1     -12.526  14.281  -7.114  1.00  0.00    -0.260 N 
ATOM     26  H4  UNL     1     -13.081  14.470  -6.279  1.00  0.00     0.195 HD
ENDBRANCH  19  20
ENDBRANCH  17  19
ENDBRANCH   1  17
BRANCH  16  27
HETATM   27  C20 UNL     1     -10.440  18.293  -9.803  1.00  0.00     0.056 C 
HETATM   28  C21 UNL     1      -9.461  17.547  -9.401  1.00  0.00     0.264 C 
HETATM   29  F1  UNL     1      -8.481  18.134  -8.583  1.00  0.00    -0.173 F 
HETATM   30  F2  UNL     1      -9.189  16.251  -9.621  1.00  0.00    -0.173 F 
ENDBRANCH  16  27
TORSDOF 4
ENDMDL
MODEL 2
REMARK VINA RESULT: -7.104855363      1.056      1.234
REMARK  4 active torsions:
REMARK  status: ('A' for Active; 'I' for Inactive)
REMARK    1  A    between atoms: C4_4  and  C5_5 
REMARK    2  A    between atoms: C5_5  and  N1_6 
REMARK    3  A    between atoms: N1_6  and  C6_8 
REMARK    4  A    between atoms: C19_23  and  C20_24 
ROOT
HETATM    1  C6  UNL     1     -12.524  18.124  -8.688  1.00  0.00     0.107 C 
HETATM    2  C7  UNL     1     -12.388  19.493  -8.056  1.00  0.00     0.072 C 
HETATM    3  C8  UNL     1     -13.748  20.059  -8.101  1.00  0.00     0.098 A 
HETATM    4  C9  UNL     1     -14.533  20.439  -9.221  1.00  0.00     0.094 A 
HETATM    5  C10 UNL     1     -14.059  20.561 -10.667  1.00  0.00     0.023 C 
HETATM    6  C11 UNL     1     -14.595  19.495 -11.562  1.00  0.00     0.011 C 
HETATM    7  C12 UNL     1     -13.868  18.404 -12.124  1.00  0.00    -0.044 C 
HETATM    8  C13 UNL     1     -13.850  18.668 -13.676  1.00  0.00     0.015 C 
HETATM    9  C14 UNL     1     -14.890  17.225 -12.126  1.00  0.00     0.010 C 
HETATM   10  C15 UNL     1     -15.333  16.844 -10.775  1.00  0.00     0.017 C 
HETATM   11  C16 UNL     1     -14.429  16.980  -9.624  1.00  0.00     0.111 C 
HETATM   12  N2  UNL     1     -13.711  18.236  -9.497  1.00  0.00    -0.220 NA
HETATM   13  N3  UNL     1     -14.543  19.077  -8.767  1.00  0.00    -0.235 NA
HETATM   14  C17 UNL     1     -12.607  17.781 -11.829  1.00  0.00     0.010 C 
HETATM   15  C18 UNL     1     -11.516  18.339 -11.042  1.00  0.00     0.013 C 
HETATM   16  C19 UNL     1     -11.359  17.919  -9.605  1.00  0.00     0.058 C 
ENDROOT
BRANCH   1  17
HETATM   17  N1  UNL     1     -12.647  17.041  -7.785  1.00  0.00    -0.373 N 
ATOM     18  H1  UNL     1     -13.582  16.729  -7.525  1.00  0.00     0.161 HD
BRANCH  17  19
HETATM   19  C5  UNL     1     -11.546  16.381  -7.235  1.00  0.00     0.116 C 
BRANCH  19  20
HETATM   20  C4  UNL     1     -11.518  14.962  -7.739  1.00  0.00     0.072 A 
HETATM   21  C3  UNL     1     -10.771  14.371  -8.702  1.00  0.00     0.067 A 
HETATM   22  C2  UNL     1     -11.167  13.046  -8.737  1.00  0.00     0.074 A 
HETATM   23  C1  UNL     1     -10.669  11.973  -9.606  1.00  0.00     0.079 C 
HETATM   24  O1  UNL     1     -12.100  12.891  -7.828  1.00  0.00    -0.242 OA
HETATM   25  N4  UNL     1     -12.332  14.016  -7.215  1.00  0.00    -0.260 N 
ATOM     26  H4  UNL     1     -13.011  14.160  -6.467  1.00  0.00     0.195 HD
ENDBRANCH  19  20
ENDBRANCH  17  19
ENDBRANCH   1  17
BRANCH  16  27
HETATM   27  C20 UNL     1     -10.089  18.450  -9.029  1.00  0.00     0.056 C 
HETATM   28  C21 UNL     1      -8.926  17.895  -8.895  1.00  0.00     0.264 C 
HETATM   29  F1  UNL     1      -7.901  18.653  -8.306  1.00  0.00    -0.173 F 
HETATM   30  F2  UNL     1      -8.489  16.668  -9.222  1.00  0.00    -0.173 F 
ENDBRANCH  16  27
TORSDOF 4
ENDMDL
MODEL 3
REMARK VINA RESULT: -6.990654899      1.512      1.830
REMARK  4 active torsions:
REMARK  status: ('A' for Active; 'I' for Inactive)
REMARK    1  A    between atoms: C4_4  and  C5_5 
REMARK    2  A    between atoms: C5_5  and  N1_6 
REMARK    3  A    between atoms: N1_6  and  C6_8 
REMARK    4  A    between atoms: C19_23  and  C20_24 
ROOT
HETATM    1  C6  UNL     1     -12.282  17.651  -9.024  1.00  0.00     0.107 C 
HETATM    2  C7  UNL     1     -12.019  18.879  -8.178  1.00  0.00     0.072 C 
HETATM    3  C8  UNL     1     -13.356  19.445  -7.920  1.00  0.00     0.098 A 
HETATM    4  C9  UNL     1     -14.281  20.027  -8.826  1.00  0.00     0.094 A 
HETATM    5  C10 UNL     1     -14.014  20.415 -10.278  1.00  0.00     0.023 C 
HETATM    6  C11 UNL     1     -14.701  19.535 -11.267  1.00  0.00     0.011 C 
HETATM    7  C12 UNL     1     -14.093  18.566 -12.119  1.00  0.00    -0.044 C 
HETATM    8  C13 UNL     1     -14.288  19.114 -13.582  1.00  0.00     0.015 C 
HETATM    9  C14 UNL     1     -15.137  17.409 -12.189  1.00  0.00     0.010 C 
HETATM   10  C15 UNL     1     -15.394  16.785 -10.881  1.00  0.00     0.017 C 
HETATM   11  C16 UNL     1     -14.332  16.703  -9.869  1.00  0.00     0.111 C 
HETATM   12  N2  UNL     1     -13.569  17.913  -9.618  1.00  0.00    -0.220 NA
HETATM   13  N3  UNL     1     -14.264  18.605  -8.633  1.00  0.00    -0.235 NA
HETATM   14  C17 UNL     1     -12.820  17.898 -12.129  1.00  0.00     0.010 C 
HETATM   15  C18 UNL     1     -11.614  18.299 -11.419  1.00  0.00     0.013 C 
HETATM   16  C19 UNL     1     -11.265  17.619 -10.122  1.00  0.00     0.058 C 
ENDROOT
BRANCH   1  17
HETATM   17  N1  UNL     1     -12.306  16.420  -8.327  1.00  0.00    -0.373 N 
ATOM     18  H1  UNL     1     -13.164  15.869  -8.342  1.00  0.00     0.161 HD
BRANCH  17  19
HETATM   19  C5  UNL     1     -11.208  15.924  -7.621  1.00  0.00     0.116 C 
BRANCH  19  20
HETATM   20  C4  UNL     1     -10.699  14.682  -8.304  1.00  0.00     0.072 A 
HETATM   21  C3  UNL     1     -11.327  13.534  -8.653  1.00  0.00     0.067 A 
HETATM   22  C2  UNL     1     -10.369  12.738  -9.254  1.00  0.00     0.074 A 
HETATM   23  C1  UNL     1     -10.529  11.390  -9.812  1.00  0.00     0.079 C 
HETATM   24  O1  UNL     1      -9.242  13.410  -9.249  1.00  0.00    -0.242 OA
HETATM   25  N4  UNL     1      -9.406  14.574  -8.689  1.00  0.00    -0.260 N 
ATOM     26  H4  UNL     1      -8.684  15.283  -8.562  1.00  0.00     0.195 HD
ENDBRANCH  19  20
ENDBRANCH  17  19
ENDBRANCH   1  17
BRANCH  16  27
HETATM   27  C20 UNL     1      -9.912  18.032  -9.649  1.00  0.00     0.056 C 
HETATM   28  C21 UNL     1      -9.314  19.180  -9.698  1.00  0.00     0.264 C 
HETATM   29  F1  UNL     1      -8.018  19.269  -9.163  1.00  0.00    -0.173 F 
HETATM   30  F2  UNL     1      -9.712  20.363 -10.193  1.00  0.00    -0.173 F 
ENDBRANCH  16  27
TORSDOF 4
ENDMDL
MODEL 4
REMARK VINA RESULT: -6.692211435      1.144      1.280
REMARK  4 active torsions:
REMARK  status: ('A' for Active; 'I' for Inactive)
REMARK    1  A    between atoms: C4_4  and  C5_5 
REMARK    2  A    between atoms: C5_5  and  N1_6 
REMARK    3  A    between atoms: N1_6  and  C6_8 
REMARK    4  A    between atoms: C19_23  and  C20_24 
ROOT
HETATM    1  C6  UNL     1     -13.129  19.099 -10.524  1.00  0.00     0.107 C 
HETATM    2  C7  UNL     1     -13.091  20.465  -9.872  1.00  0.00     0.072 C 
HETATM    3  C8  UNL     1     -14.424  21.039 -10.134  1.00  0.00     0.098 A 
HETATM    4  C9  UNL     1     -15.015  21.427 -11.365  1.00  0.00     0.094 A 
HETATM    5  C10 UNL     1     -14.312  21.552 -12.714  1.00  0.00     0.023 C 
HETATM    6  C11 UNL     1     -14.700  20.492 -13.690  1.00  0.00     0.011 C 
HETATM    7  C12 UNL     1     -13.897  19.399 -14.132  1.00  0.00    -0.044 C 
HETATM    8  C13 UNL     1     -13.627  19.669 -15.659  1.00  0.00     0.015 C 
HETATM    9  C14 UNL     1     -14.910  18.226 -14.304  1.00  0.00     0.010 C 
HETATM   10  C15 UNL     1     -15.568  17.843 -13.044  1.00  0.00     0.017 C 
HETATM   11  C16 UNL     1     -14.863  17.969 -11.762  1.00  0.00     0.111 C 
HETATM   12  N2  UNL     1     -14.169  19.221 -11.514  1.00  0.00    -0.220 NA
HETATM   13  N3  UNL     1     -15.105  20.063 -10.925  1.00  0.00    -0.235 NA
HETATM   14  C17 UNL     1     -12.703  18.769 -13.639  1.00  0.00     0.010 C 
HETATM   15  C18 UNL     1     -11.752  19.319 -12.682  1.00  0.00     0.013 C 
HETATM   16  C19 UNL     1     -11.832  18.892 -11.241  1.00  0.00     0.058 C 
ENDROOT
BRANCH   1  17
HETATM   17  N1  UNL     1     -13.401  18.014  -9.658  1.00  0.00    -0.373 N 
ATOM     18  H1  UNL     1     -13.892  17.203 -10.035  1.00  0.00     0.161 HD
BRANCH  17  19
HETATM   19  C5  UNL     1     -13.030  18.003  -8.312  1.00  0.00     0.116 C 
BRANCH  19  20
HETATM   20  C4  UNL     1     -12.574  16.618  -7.936  1.00  0.00     0.072 A 
HETATM   21  C3  UNL     1     -12.260  15.543  -8.698  1.00  0.00     0.067 A 
HETATM   22  C2  UNL     1     -11.904  14.538  -7.817  1.00  0.00     0.074 A 
HETATM   23  C1  UNL     1     -11.479  13.167  -8.128  1.00  0.00     0.079 C 
HETATM   24  O1  UNL     1     -12.010  15.024  -6.603  1.00  0.00    -0.242 OA
HETATM   25  N4  UNL     1     -12.407  16.263  -6.640  1.00  0.00    -0.260 N 
ATOM     26  H4  UNL     1     -12.566  16.864  -5.832  1.00  0.00     0.195 HD
ENDBRANCH  19  20
ENDBRANCH  17  19
ENDBRANCH   1  17
BRANCH  16  27
HETATM   27  C20 UNL     1     -10.669  19.414 -10.465  1.00  0.00     0.056 C 
HETATM   28  C21 UNL     1      -9.782  18.794  -9.754  1.00  0.00     0.264 C 
HETATM   29  F1  UNL     1      -8.787  19.563  -9.127  1.00  0.00    -0.173 F 
HETATM   30  F2  UNL     1      -9.623  17.489  -9.480  1.00  0.00    -0.173 F 
ENDBRANCH  16  27
TORSDOF 4
ENDMDL
MODEL 5
REMARK VINA RESULT: -6.492314254      2.937      4.871
REMARK  4 active torsions:
REMARK  status: ('A' for Active; 'I' for Inactive)
REMARK    1  A    between atoms: C4_4  and  C5_5 
REMARK    2  A    between atoms: C5_5  and  N1_6 
REMARK    3  A    between atoms: N1_6  and  C6_8 
REMARK    4  A    between atoms: C19_23  and  C20_24 
ROOT
HETATM    1  C6  UNL     1     -12.999  19.488  -9.687  1.00  0.00     0.107 C 
HETATM    2  C7  UNL     1     -11.491  19.366  -9.753  1.00  0.00     0.072 C 
HETATM    3  C8  UNL     1     -11.117  20.048 -11.006  1.00  0.00     0.098 A 
HETATM    4  C9  UNL     1     -11.401  19.688 -12.349  1.00  0.00     0.094 A 
HETATM    5  C10 UNL     1     -11.982  18.363 -12.835  1.00  0.00     0.023 C 
HETATM    6  C11 UNL     1     -13.386  18.471 -13.327  1.00  0.00     0.011 C 
HETATM    7  C12 UNL     1     -14.559  17.977 -12.683  1.00  0.00    -0.044 C 
HETATM    8  C13 UNL     1     -15.102  16.836 -13.621  1.00  0.00     0.015 C 
HETATM    9  C14 UNL     1     -15.650  19.045 -13.004  1.00  0.00     0.010 C 
HETATM   10  C15 UNL     1     -15.337  20.373 -12.449  1.00  0.00     0.017 C 
HETATM   11  C16 UNL     1     -14.585  20.502 -11.194  1.00  0.00     0.111 C 
HETATM   12  N2  UNL     1     -13.386  19.694 -11.060  1.00  0.00    -0.220 NA
HETATM   13  N3  UNL     1     -12.353  20.454 -11.596  1.00  0.00    -0.235 NA
HETATM   14  C17 UNL     1     -14.864  17.549 -11.345  1.00  0.00     0.010 C 
HETATM   15  C18 UNL     1     -13.914  17.170 -10.308  1.00  0.00     0.013 C 
HETATM   16  C19 UNL     1     -13.551  18.170  -9.244  1.00  0.00     0.058 C 
ENDROOT
BRANCH   1  17
HETATM   17  N1  UNL     1     -13.494  20.537  -8.876  1.00  0.00    -0.373 N 
ATOM     18  H1  UNL     1     -14.302  21.066  -9.205  1.00  0.00     0.161 HD
BRANCH  17  19
HETATM   19  C5  UNL     1     -12.927  20.881  -7.648  1.00  0.00     0.116 C 
BRANCH  19  20
HETATM   20  C4  UNL     1     -13.987  20.818  -6.579  1.00  0.00     0.072 A 
HETATM   21  C3  UNL     1     -14.008  21.298  -5.312  1.00  0.00     0.067 A 
HETATM   22  C2  UNL     1     -15.240  20.949  -4.789  1.00  0.00     0.074 A 
HETATM   23  C1  UNL     1     -15.768  21.229  -3.449  1.00  0.00     0.079 C 
HETATM   24  O1  UNL     1     -15.892  20.298  -5.723  1.00  0.00    -0.242 OA
HETATM   25  N4  UNL     1     -15.172  20.203  -6.803  1.00  0.00    -0.260 N 
ATOM     26  H4  UNL     1     -15.452  19.745  -7.670  1.00  0.00     0.195 HD
ENDBRANCH  19  20
ENDBRANCH  17  19
ENDBRANCH   1  17
BRANCH  16  27
HETATM   27  C20 UNL     1     -12.718  17.539  -8.179  1.00  0.00     0.056 C 
HETATM   28  C21 UNL     1     -12.755  16.347  -7.674  1.00  0.00     0.264 C 
HETATM   29  F1  UNL     1     -11.829  16.032  -6.665  1.00  0.00    -0.173 F 
HETATM   30  F2  UNL     1     -13.553  15.300  -7.937  1.00  0.00    -0.173 F 
ENDBRANCH  16  27
TORSDOF 4
ENDMDL
