MODEL 1
REMARK VINA RESULT: -7.802703004      0.000      0.000
REMARK  3 active torsions:
REMARK  status: ('A' for Active; 'I' for Inactive)
REMARK    1  A    between atoms: C7_8  and  S1_9 
REMARK    2  A    between atoms: S1_9  and  C8_10 
REMARK    3  A    between atoms: C9_15  and  C10_16 
ROOT
HETATM    1  C8  UNL     1     -12.826  16.481  -8.645  1.00  0.00     0.204 A 
HETATM    2  N1  UNL     1     -14.148  16.362  -8.365  1.00  0.00    -0.272 N 
ATOM      3  H1  UNL     1     -14.546  15.954  -7.519  1.00  0.00     0.189 HD
HETATM    4  N2  UNL     1     -14.835  16.872  -9.387  1.00  0.00    -0.281 N 
ATOM      5  H2  UNL     1     -15.850  16.926  -9.464  1.00  0.00     0.189 HD
HETATM    6  C9  UNL     1     -13.939  17.305 -10.300  1.00  0.00     0.145 A 
HETATM    7  O1  UNL     1     -12.754  17.046  -9.806  1.00  0.00    -0.272 OA
ENDROOT
BRANCH   1   8
HETATM    8  S1  UNL     1     -11.541  15.923  -7.540  1.00  0.00    -0.073 SA
BRANCH   8   9
HETATM    9  C7  UNL     1     -10.988  14.261  -7.909  1.00  0.00     0.109 C 
HETATM   10  C5  UNL     1      -9.749  14.343  -8.720  1.00  0.00    -0.015 A 
HETATM   11  C4  UNL     1      -9.829  13.336  -9.669  1.00  0.00     0.035 A 
HETATM   12  C6  UNL     1      -8.637  15.170  -8.695  1.00  0.00     0.029 A 
HETATM   13  C3  UNL     1      -8.777  13.209 -10.552  1.00  0.00     0.031 A 
HETATM   14  N3  UNL     1     -11.054  12.628  -9.496  1.00  0.00    -0.388 N 
HETATM   15  C2  UNL     1      -7.678  14.039 -10.514  1.00  0.00     0.021 A 
HETATM   16  C1  UNL     1      -7.592  15.041  -9.574  1.00  0.00     0.011 A 
HETATM   17 BR1  UNL     1      -6.081  16.192  -9.513  1.00  0.00    -0.051 Br
HETATM   18  C16 UNL     1     -11.965  13.452  -8.729  1.00  0.00     0.140 C 
ATOM     19  H3  UNL     1     -11.256  11.694  -9.854  1.00  0.00     0.159 HD
ENDBRANCH   8   9
ENDBRANCH   1   8
BRANCH   6  20
HETATM   20  C10 UNL     1     -14.202  17.953 -11.623  1.00  0.00     0.062 C 
HETATM   21  C11 UNL     1     -12.983  17.915 -12.508  1.00  0.00     0.013 C 
HETATM   22  C12 UNL     1     -13.318  18.881 -13.651  1.00  0.00     0.001 C 
HETATM   23  C13 UNL     1     -14.596  18.548 -14.329  1.00  0.00     0.000 C 
HETATM   24  C14 UNL     1     -15.360  17.396 -13.790  1.00  0.00     0.001 C 
HETATM   25  C15 UNL     1     -15.253  17.158 -12.326  1.00  0.00     0.013 C 
ENDBRANCH   6  20
TORSDOF 3
ENDMDL
MODEL 2
REMARK VINA RESULT: -7.381473050      3.118      6.452
REMARK  3 active torsions:
REMARK  status: ('A' for Active; 'I' for Inactive)
REMARK    1  A    between atoms: C7_8  and  S1_9 
REMARK    2  A    between atoms: S1_9  and  C8_10 
REMARK    3  A    between atoms: C9_15  and  C10_16 
ROOT
HETATM    1  C8  UNL     1     -12.659  17.380  -8.233  1.00  0.00     0.204 A 
HETATM    2  N1  UNL     1     -12.595  16.678  -7.074  1.00  0.00    -0.272 N 
ATOM      3  H1  UNL     1     -12.933  16.992  -6.165  1.00  0.00     0.189 HD
HETATM    4  N2  UNL     1     -12.012  15.507  -7.332  1.00  0.00    -0.281 N 
ATOM      5  H2  UNL     1     -11.826  14.765  -6.658  1.00  0.00     0.189 HD
HETATM    6  C9  UNL     1     -11.715  15.485  -8.649  1.00  0.00     0.145 A 
HETATM    7  O1  UNL     1     -12.123  16.629  -9.139  1.00  0.00    -0.272 OA
ENDROOT
BRANCH   1   8
HETATM    8  S1  UNL     1     -13.370  19.013  -8.345  1.00  0.00    -0.073 SA
BRANCH   8   9
HETATM    9  C7  UNL     1     -12.610  20.009  -9.625  1.00  0.00     0.109 C 
HETATM   10  C5  UNL     1     -12.903  19.393 -10.941  1.00  0.00    -0.015 A 
HETATM   11  C4  UNL     1     -11.753  19.524 -11.704  1.00  0.00     0.035 A 
HETATM   12  C6  UNL     1     -14.015  18.772 -11.486  1.00  0.00     0.029 A 
HETATM   13  C3  UNL     1     -11.780  19.021 -12.988  1.00  0.00     0.031 A 
HETATM   14  N3  UNL     1     -10.754  20.188 -10.934  1.00  0.00    -0.388 N 
HETATM   15  C2  UNL     1     -12.895  18.406 -13.515  1.00  0.00     0.021 A 
HETATM   16  C1  UNL     1     -14.040  18.272 -12.763  1.00  0.00     0.011 A 
HETATM   17 BR1  UNL     1     -15.584  17.425 -13.480  1.00  0.00    -0.051 Br
HETATM   18  C16 UNL     1     -11.104  20.090  -9.532  1.00  0.00     0.140 C 
ATOM     19  H3  UNL     1      -9.929  20.656 -11.308  1.00  0.00     0.159 HD
ENDBRANCH   8   9
ENDBRANCH   1   8
BRANCH   6  20
HETATM   20  C10 UNL     1     -11.052  14.395  -9.432  1.00  0.00     0.062 C 
HETATM   21  C11 UNL     1      -9.551  14.526  -9.398  1.00  0.00     0.013 C 
HETATM   22  C12 UNL     1      -9.065  13.561 -10.485  1.00  0.00     0.001 C 
HETATM   23  C13 UNL     1      -9.578  12.180 -10.299  1.00  0.00     0.000 C 
HETATM   24  C14 UNL     1     -10.493  11.954  -9.153  1.00  0.00     0.001 C 
HETATM   25  C15 UNL     1     -11.372  13.094  -8.774  1.00  0.00     0.013 C 
ENDBRANCH   6  20
TORSDOF 3
ENDMDL
MODEL 3
REMARK VINA RESULT: -7.334708326      3.075      6.385
REMARK  3 active torsions:
REMARK  status: ('A' for Active; 'I' for Inactive)
REMARK    1  A    between atoms: C7_8  and  S1_9 
REMARK    2  A    between atoms: S1_9  and  C8_10 
REMARK    3  A    between atoms: C9_15  and  C10_16 
ROOT
HETATM    1  C8  UNL     1     -12.522  17.083  -8.035  1.00  0.00     0.204 A 
HETATM    2  N1  UNL     1     -12.640  16.472  -6.830  1.00  0.00    -0.272 N 
ATOM      3  H1  UNL     1     -13.143  16.836  -6.021  1.00  0.00     0.189 HD
HETATM    4  N2  UNL     1     -11.983  15.314  -6.888  1.00  0.00    -0.281 N 
ATOM      5  H2  UNL     1     -11.894  14.632  -6.134  1.00  0.00     0.189 HD
HETATM    6  C9  UNL     1     -11.457  15.208  -8.127  1.00  0.00     0.145 A 
HETATM    7  O1  UNL     1     -11.810  16.293  -8.771  1.00  0.00    -0.272 OA
ENDROOT
BRANCH   1   8
HETATM    8  S1  UNL     1     -13.255  18.668  -8.400  1.00  0.00    -0.073 SA
BRANCH   8   9
HETATM    9  C7  UNL     1     -12.368  19.562  -9.673  1.00  0.00     0.109 C 
HETATM   10  C5  UNL     1     -12.757  19.014 -10.995  1.00  0.00    -0.015 A 
HETATM   11  C4  UNL     1     -11.605  18.988 -11.766  1.00  0.00     0.035 A 
HETATM   12  C6  UNL     1     -13.951  18.569 -11.537  1.00  0.00     0.029 A 
HETATM   13  C3  UNL     1     -11.714  18.512 -13.057  1.00  0.00     0.031 A 
HETATM   14  N3  UNL     1     -10.515  19.488 -10.997  1.00  0.00    -0.388 N 
HETATM   15  C2  UNL     1     -12.911  18.073 -13.581  1.00  0.00     0.021 A 
HETATM   16  C1  UNL     1     -14.058  18.097 -12.821  1.00  0.00     0.011 A 
HETATM   17 BR1  UNL     1     -15.713  17.494 -13.534  1.00  0.00    -0.051 Br
HETATM   18  C16 UNL     1     -10.865  19.422  -9.593  1.00  0.00     0.140 C 
ATOM     19  H3  UNL     1      -9.632  19.837 -11.372  1.00  0.00     0.159 HD
ENDBRANCH   8   9
ENDBRANCH   1   8
BRANCH   6  20
HETATM   20  C10 UNL     1     -10.632  14.096  -8.693  1.00  0.00     0.062 C 
HETATM   21  C11 UNL     1     -11.496  12.988  -9.236  1.00  0.00     0.013 C 
HETATM   22  C12 UNL     1     -10.521  11.827  -9.464  1.00  0.00     0.001 C 
HETATM   23  C13 UNL     1      -9.371  12.204 -10.324  1.00  0.00     0.000 C 
HETATM   24  C14 UNL     1      -9.311  13.613 -10.784  1.00  0.00     0.001 C 
HETATM   25  C15 UNL     1      -9.866  14.635  -9.856  1.00  0.00     0.013 C 
ENDBRANCH   6  20
TORSDOF 3
ENDMDL
MODEL 4
REMARK VINA RESULT: -7.233461157      2.503      3.420
REMARK  3 active torsions:
REMARK  status: ('A' for Active; 'I' for Inactive)
REMARK    1  A    between atoms: C7_8  and  S1_9 
REMARK    2  A    between atoms: S1_9  and  C8_10 
REMARK    3  A    between atoms: C9_15  and  C10_16 
ROOT
HETATM    1  C8  UNL     1     -11.001  19.045  -9.995  1.00  0.00     0.204 A 
HETATM    2  N1  UNL     1     -11.165  20.363 -10.266  1.00  0.00    -0.272 N 
ATOM      3  H1  UNL     1     -10.590  21.125  -9.906  1.00  0.00     0.189 HD
HETATM    4  N2  UNL     1     -12.209  20.491 -11.084  1.00  0.00    -0.281 N 
ATOM      5  H2  UNL     1     -12.576  21.364 -11.464  1.00  0.00     0.189 HD
HETATM    6  C9  UNL     1     -12.693  19.252 -11.319  1.00  0.00     0.145 A 
HETATM    7  O1  UNL     1     -11.934  18.426 -10.644  1.00  0.00    -0.272 OA
ENDROOT
BRANCH   1   8
HETATM    8  S1  UNL     1      -9.710  18.421  -8.933  1.00  0.00    -0.073 SA
BRANCH   8   9
HETATM    9  C7  UNL     1     -10.350  17.498  -7.538  1.00  0.00     0.109 C 
HETATM   10  C5  UNL     1     -10.635  16.111  -7.978  1.00  0.00    -0.015 A 
HETATM   11  C4  UNL     1     -11.810  15.730  -7.350  1.00  0.00     0.035 A 
HETATM   12  C6  UNL     1      -9.993  15.220  -8.823  1.00  0.00     0.029 A 
HETATM   13  C3  UNL     1     -12.284  14.460  -7.604  1.00  0.00     0.031 A 
HETATM   14  N3  UNL     1     -12.278  16.806  -6.541  1.00  0.00    -0.388 N 
HETATM   15  C2  UNL     1     -11.634  13.585  -8.447  1.00  0.00     0.021 A 
HETATM   16  C1  UNL     1     -10.466  13.957  -9.074  1.00  0.00     0.011 A 
HETATM   17 BR1  UNL     1      -9.561  12.759 -10.239  1.00  0.00    -0.051 Br
HETATM   18  C16 UNL     1     -11.653  18.033  -6.990  1.00  0.00     0.140 C 
ATOM     19  H3  UNL     1     -12.945  16.726  -5.773  1.00  0.00     0.159 HD
ENDBRANCH   8   9
ENDBRANCH   1   8
BRANCH   6  20
HETATM   20  C10 UNL     1     -13.858  18.857 -12.171  1.00  0.00     0.062 C 
HETATM   21  C11 UNL     1     -13.409  18.290 -13.493  1.00  0.00     0.013 C 
HETATM   22  C12 UNL     1     -14.687  18.250 -14.339  1.00  0.00     0.001 C 
HETATM   23  C13 UNL     1     -15.789  17.505 -13.680  1.00  0.00     0.000 C 
HETATM   24  C14 UNL     1     -15.518  16.967 -12.324  1.00  0.00     0.001 C 
HETATM   25  C15 UNL     1     -14.588  17.758 -11.473  1.00  0.00     0.013 C 
ENDBRANCH   6  20
TORSDOF 3
ENDMDL
MODEL 5
REMARK VINA RESULT: -7.232256791      2.634      3.767
REMARK  3 active torsions:
REMARK  status: ('A' for Active; 'I' for Inactive)
REMARK    1  A    between atoms: C7_8  and  S1_9 
REMARK    2  A    between atoms: S1_9  and  C8_10 
REMARK    3  A    between atoms: C9_15  and  C10_16 
ROOT
HETATM    1  C8  UNL     1     -10.469  18.626 -10.303  1.00  0.00     0.204 A 
HETATM    2  N1  UNL     1     -10.259  19.561 -11.262  1.00  0.00    -0.272 N 
ATOM      3  H1  UNL     1      -9.513  20.257 -11.267  1.00  0.00     0.189 HD
HETATM    4  N2  UNL     1     -11.197  19.412 -12.197  1.00  0.00    -0.281 N 
ATOM      5  H2  UNL     1     -11.298  19.971 -13.045  1.00  0.00     0.189 HD
HETATM    6  C9  UNL     1     -11.988  18.386 -11.817  1.00  0.00     0.145 A 
HETATM    7  O1  UNL     1     -11.509  17.953 -10.678  1.00  0.00    -0.272 OA
ENDROOT
BRANCH   1   8
HETATM    8  S1  UNL     1      -9.438  18.465  -8.856  1.00  0.00    -0.073 SA
BRANCH   8   9
HETATM    9  C7  UNL     1     -10.309  17.746  -7.465  1.00  0.00     0.109 C 
HETATM   10  C5  UNL     1     -10.725  16.370  -7.827  1.00  0.00    -0.015 A 
HETATM   11  C4  UNL     1     -11.989  16.185  -7.289  1.00  0.00     0.035 A 
HETATM   12  C6  UNL     1     -10.129  15.341  -8.537  1.00  0.00     0.029 A 
HETATM   13  C3  UNL     1     -12.595  14.963  -7.494  1.00  0.00     0.031 A 
HETATM   14  N3  UNL     1     -12.388  17.374  -6.612  1.00  0.00    -0.388 N 
HETATM   15  C2  UNL     1     -11.988  13.949  -8.203  1.00  0.00     0.021 A 
HETATM   16  C1  UNL     1     -10.733  14.126  -8.739  1.00  0.00     0.011 A 
HETATM   17 BR1  UNL     1      -9.886  12.734  -9.718  1.00  0.00    -0.051 Br
HETATM   18  C16 UNL     1     -11.576  18.476  -7.087  1.00  0.00     0.140 C 
ATOM     19  H3  UNL     1     -13.124  17.439  -5.908  1.00  0.00     0.159 HD
ENDBRANCH   8   9
ENDBRANCH   1   8
BRANCH   6  20
HETATM   20  C10 UNL     1     -13.183  17.826 -12.522  1.00  0.00     0.062 C 
HETATM   21  C11 UNL     1     -14.443  18.029 -11.720  1.00  0.00     0.013 C 
HETATM   22  C12 UNL     1     -15.477  17.132 -12.410  1.00  0.00     0.001 C 
HETATM   23  C13 UNL     1     -15.605  17.415 -13.862  1.00  0.00     0.000 C 
HETATM   24  C14 UNL     1     -14.711  18.457 -14.423  1.00  0.00     0.001 C 
HETATM   25  C15 UNL     1     -13.370  18.587 -13.792  1.00  0.00     0.013 C 
ENDBRANCH   6  20
TORSDOF 3
ENDMDL
