MODEL 1
REMARK VINA RESULT: -8.356917202      0.000      0.000
REMARK  7 active torsions:
REMARK  status: ('A' for Active; 'I' for Inactive)
REMARK    1  A    between atoms: C1_2  and  C2_3 
REMARK       I    between atoms: C2_3  and  N1_5 
REMARK    2  A    between atoms: N1_5  and  C3_7 
REMARK    3  A    between atoms: C6_16  and  C7_17 
REMARK    4  A    between atoms: N4_18  and  N5_20 
REMARK       I    between atoms: N5_20  and  C8_22 
REMARK    5  A    between atoms: C8_22  and  O6_24 
REMARK    6  A    between atoms: O6_24  and  N6_25 
REMARK    7  A    between atoms: C10_30  and  O8_31 
ROOT
HETATM    1  C3  UNL     1      17.082  -1.154  -2.597  1.00  0.00     0.129 A 
HETATM    2  N2  UNL     1      17.785  -0.053  -2.213  1.00  0.00    -0.293 N 
ATOM      3  H2  UNL     1      18.452   0.368  -2.860  1.00  0.00     0.172 HD
HETATM    4  C4  UNL     1      17.614   0.490  -0.985  1.00  0.00     0.328 A 
HETATM    5  O3  UNL     1      18.298   1.517  -0.682  1.00  0.00    -0.247 OA
HETATM    6  N3  UNL     1      16.755  -0.028  -0.110  1.00  0.00    -0.275 N 
ATOM      7  H3  UNL     1      16.636   0.392   0.812  1.00  0.00     0.173 HD
HETATM    8  C5  UNL     1      16.037  -1.129  -0.467  1.00  0.00     0.264 A 
HETATM    9  O4  UNL     1      15.214  -1.646   0.343  1.00  0.00    -0.267 OA
HETATM   10  C6  UNL     1      16.175  -1.719  -1.703  1.00  0.00     0.093 A 
ENDROOT
BRANCH  10  11
HETATM   11  C7  UNL     1      15.384  -2.889  -2.021  1.00  0.00     0.128 C 
HETATM   12  N4  UNL     1      14.093  -2.808  -1.950  1.00  0.00    -0.306 N 
ATOM     13  H4  UNL     1      13.659  -1.927  -1.674  1.00  0.00     0.186 HD
BRANCH  12  14
HETATM   14  N5  UNL     1      13.289  -3.903  -2.246  1.00  0.00    -0.244 N 
HETATM   15  C8  UNL     1      12.131  -3.803  -3.064  1.00  0.00     0.398 C 
HETATM   16  O5  UNL     1      11.829  -2.679  -3.535  1.00  0.00    -0.235 OA
ATOM     17  H5  UNL     1      13.539  -4.813  -1.860  1.00  0.00     0.192 HD
BRANCH  15  18
HETATM   18  O6  UNL     1      11.331  -4.882  -3.359  1.00  0.00    -0.182 OA
BRANCH  18  19
HETATM   19  N6  UNL     1      10.075  -5.076  -2.834  1.00  0.00    -0.052 NA
HETATM   20  N7  UNL     1       9.497  -3.921  -2.355  1.00  0.00    -0.259 N 
HETATM   21  C9  UNL     1       8.277  -4.307  -2.975  1.00  0.00     0.281 C 
ATOM     22  H7  UNL     1       9.810  -3.128  -1.795  1.00  0.00     0.186 HD
HETATM   23  O7  UNL     1       7.049  -4.126  -2.811  1.00  0.00    -0.268 OA
HETATM   24  C10 UNL     1       9.103  -5.043  -3.938  1.00  0.00     0.336 C 
BRANCH  24  25
HETATM   25  O8  UNL     1       9.544  -4.184  -4.969  1.00  0.00    -0.369 OA
ATOM     26  H8  UNL     1       9.201  -3.307  -4.847  1.00  0.00     0.212 HD
ENDBRANCH  24  25
ENDBRANCH  18  19
ENDBRANCH  15  18
ENDBRANCH  12  14
ENDBRANCH  10  11
BRANCH   1  27
HETATM   27  N1  UNL     1      17.233  -1.748  -3.866  1.00  0.00    -0.306 N 
HETATM   28  C2  UNL     1      17.962  -1.253  -4.956  1.00  0.00     0.284 C 
HETATM   29  O2  UNL     1      18.619  -0.193  -5.022  1.00  0.00    -0.265 OA
ATOM     30  H1  UNL     1      16.757  -2.640  -4.007  1.00  0.00     0.170 HD
BRANCH  28  31
HETATM   31  C1  UNL     1      17.983  -2.053  -6.209  1.00  0.00     0.332 C 
HETATM   32  O1  UNL     1      17.023  -2.801  -6.496  1.00  0.00    -0.296 OA
ENDBRANCH  28  31
ENDBRANCH   1  27
TORSDOF 7
ENDMDL
MODEL 2
REMARK VINA RESULT: -8.256307194      1.488      3.729
REMARK  7 active torsions:
REMARK  status: ('A' for Active; 'I' for Inactive)
REMARK    1  A    between atoms: C1_2  and  C2_3 
REMARK       I    between atoms: C2_3  and  N1_5 
REMARK    2  A    between atoms: N1_5  and  C3_7 
REMARK    3  A    between atoms: C6_16  and  C7_17 
REMARK    4  A    between atoms: N4_18  and  N5_20 
REMARK       I    between atoms: N5_20  and  C8_22 
REMARK    5  A    between atoms: C8_22  and  O6_24 
REMARK    6  A    between atoms: O6_24  and  N6_25 
REMARK    7  A    between atoms: C10_30  and  O8_31 
ROOT
HETATM    1  C3  UNL     1      17.392  -1.408  -3.174  1.00  0.00     0.129 A 
HETATM    2  N2  UNL     1      18.451  -0.596  -3.448  1.00  0.00    -0.293 N 
ATOM      3  H2  UNL     1      18.801   0.033  -2.726  1.00  0.00     0.172 HD
HETATM    4  C4  UNL     1      19.043  -0.612  -4.665  1.00  0.00     0.328 A 
HETATM    5  O3  UNL     1      20.028   0.167  -4.863  1.00  0.00    -0.247 OA
HETATM    6  N3  UNL     1      18.617  -1.417  -5.635  1.00  0.00    -0.275 N 
ATOM      7  H3  UNL     1      19.074  -1.418  -6.547  1.00  0.00     0.173 HD
HETATM    8  C5  UNL     1      17.560  -2.240  -5.389  1.00  0.00     0.264 A 
HETATM    9  O4  UNL     1      17.130  -3.016  -6.292  1.00  0.00    -0.267 OA
HETATM   10  C6  UNL     1      16.923  -2.261  -4.170  1.00  0.00     0.093 A 
ENDROOT
BRANCH  10  11
HETATM   11  C7  UNL     1      15.803  -3.159  -3.972  1.00  0.00     0.128 C 
HETATM   12  N4  UNL     1      14.727  -2.979  -4.671  1.00  0.00    -0.306 N 
ATOM     13  H4  UNL     1      14.688  -2.214  -5.345  1.00  0.00     0.186 HD
BRANCH  12  14
HETATM   14  N5  UNL     1      13.626  -3.813  -4.518  1.00  0.00    -0.244 N 
HETATM   15  C8  UNL     1      12.721  -3.691  -3.429  1.00  0.00     0.398 C 
HETATM   16  O5  UNL     1      12.930  -2.794  -2.576  1.00  0.00    -0.235 OA
ATOM     17  H5  UNL     1      13.461  -4.539  -5.214  1.00  0.00     0.192 HD
BRANCH  15  18
HETATM   18  O6  UNL     1      11.629  -4.513  -3.271  1.00  0.00    -0.182 OA
BRANCH  18  19
HETATM   19  N6  UNL     1      10.337  -4.142  -3.558  1.00  0.00    -0.052 NA
HETATM   20  N7  UNL     1       9.587  -5.155  -4.116  1.00  0.00    -0.259 N 
HETATM   21  C9  UNL     1       8.511  -4.791  -3.261  1.00  0.00     0.281 C 
ATOM     22  H7  UNL     1       9.740  -5.862  -4.834  1.00  0.00     0.186 HD
HETATM   23  O7  UNL     1       7.260  -4.851  -3.259  1.00  0.00    -0.268 OA
HETATM   24  C10 UNL     1       9.532  -4.290  -2.336  1.00  0.00     0.336 C 
BRANCH  24  25
HETATM   25  O8  UNL     1      10.029  -5.339  -1.532  1.00  0.00    -0.369 OA
ATOM     26  H8  UNL     1      10.927  -5.170  -1.275  1.00  0.00     0.212 HD
ENDBRANCH  24  25
ENDBRANCH  18  19
ENDBRANCH  15  18
ENDBRANCH  12  14
ENDBRANCH  10  11
BRANCH   1  27
HETATM   27  N1  UNL     1      16.748  -1.420  -1.920  1.00  0.00    -0.306 N 
HETATM   28  C2  UNL     1      16.704  -0.385  -0.976  1.00  0.00     0.284 C 
HETATM   29  O2  UNL     1      17.224   0.748  -1.054  1.00  0.00    -0.265 OA
ATOM     30  H1  UNL     1      16.258  -2.280  -1.672  1.00  0.00     0.170 HD
BRANCH  28  31
HETATM   31  C1  UNL     1      15.961  -0.619   0.290  1.00  0.00     0.332 C 
HETATM   32  O1  UNL     1      15.215  -1.617   0.408  1.00  0.00    -0.296 OA
ENDBRANCH  28  31
ENDBRANCH   1  27
TORSDOF 7
ENDMDL
MODEL 3
REMARK VINA RESULT: -8.105504943      1.692      2.037
REMARK  7 active torsions:
REMARK  status: ('A' for Active; 'I' for Inactive)
REMARK    1  A    between atoms: C1_2  and  C2_3 
REMARK       I    between atoms: C2_3  and  N1_5 
REMARK    2  A    between atoms: N1_5  and  C3_7 
REMARK    3  A    between atoms: C6_16  and  C7_17 
REMARK    4  A    between atoms: N4_18  and  N5_20 
REMARK       I    between atoms: N5_20  and  C8_22 
REMARK    5  A    between atoms: C8_22  and  O6_24 
REMARK    6  A    between atoms: O6_24  and  N6_25 
REMARK    7  A    between atoms: C10_30  and  O8_31 
ROOT
HETATM    1  C3  UNL     1      16.572  -2.311  -3.248  1.00  0.00     0.129 A 
HETATM    2  N2  UNL     1      17.609  -1.449  -3.061  1.00  0.00    -0.293 N 
ATOM      3  H2  UNL     1      18.308  -1.336  -3.795  1.00  0.00     0.172 HD
HETATM    4  C4  UNL     1      17.727  -0.739  -1.914  1.00  0.00     0.328 A 
HETATM    5  O3  UNL     1      18.716   0.051  -1.796  1.00  0.00    -0.247 OA
HETATM    6  N3  UNL     1      16.839  -0.856  -0.930  1.00  0.00    -0.275 N 
ATOM      7  H3  UNL     1      16.941  -0.315  -0.072  1.00  0.00     0.173 HD
HETATM    8  C5  UNL     1      15.791  -1.711  -1.090  1.00  0.00     0.264 A 
HETATM    9  O4  UNL     1      14.929  -1.845  -0.172  1.00  0.00    -0.267 OA
HETATM   10  C6  UNL     1      15.626  -2.454  -2.236  1.00  0.00     0.093 A 
ENDROOT
BRANCH  10  11
HETATM   11  C7  UNL     1      14.490  -3.347  -2.343  1.00  0.00     0.128 C 
HETATM   12  N4  UNL     1      13.335  -2.853  -2.661  1.00  0.00    -0.306 N 
ATOM     13  H4  UNL     1      13.247  -1.850  -2.828  1.00  0.00     0.186 HD
BRANCH  12  14
HETATM   14  N5  UNL     1      12.215  -3.667  -2.776  1.00  0.00    -0.244 N 
HETATM   15  C8  UNL     1      10.955  -3.176  -3.216  1.00  0.00     0.398 C 
HETATM   16  O5  UNL     1      10.859  -1.960  -3.510  1.00  0.00    -0.235 OA
ATOM     17  H5  UNL     1      12.299  -4.654  -2.536  1.00  0.00     0.192 HD
BRANCH  15  18
HETATM   18  O6  UNL     1       9.843  -3.976  -3.332  1.00  0.00    -0.182 OA
BRANCH  18  19
HETATM   19  N6  UNL     1       8.970  -3.935  -4.394  1.00  0.00    -0.052 NA
HETATM   20  N7  UNL     1       8.984  -2.732  -5.066  1.00  0.00    -0.259 N 
HETATM   21  C9  UNL     1       8.975  -3.450  -6.294  1.00  0.00     0.281 C 
ATOM     22  H7  UNL     1       8.995  -1.748  -4.799  1.00  0.00     0.186 HD
HETATM   23  O7  UNL     1       8.593  -3.276  -7.473  1.00  0.00    -0.268 OA
HETATM   24  C10 UNL     1       9.635  -4.535  -5.561  1.00  0.00     0.336 C 
BRANCH  24  25
HETATM   25  O8  UNL     1      11.030  -4.319  -5.509  1.00  0.00    -0.369 OA
ATOM     26  H8  UNL     1      11.382  -4.177  -6.380  1.00  0.00     0.212 HD
ENDBRANCH  24  25
ENDBRANCH  18  19
ENDBRANCH  15  18
ENDBRANCH  12  14
ENDBRANCH  10  11
BRANCH   1  27
HETATM   27  N1  UNL     1      16.414  -3.066  -4.427  1.00  0.00    -0.306 N 
HETATM   28  C2  UNL     1      16.514  -2.611  -5.749  1.00  0.00     0.284 C 
HETATM   29  O2  UNL     1      16.760  -1.452  -6.146  1.00  0.00    -0.265 OA
ATOM     30  H1  UNL     1      16.204  -4.057  -4.304  1.00  0.00     0.170 HD
BRANCH  28  31
HETATM   31  C1  UNL     1      16.309  -3.592  -6.848  1.00  0.00     0.332 C 
HETATM   32  O1  UNL     1      15.974  -3.201  -7.988  1.00  0.00    -0.296 OA
ENDBRANCH  28  31
ENDBRANCH   1  27
TORSDOF 7
ENDMDL
MODEL 4
REMARK VINA RESULT: -8.049925751      2.416      7.571
REMARK  7 active torsions:
REMARK  status: ('A' for Active; 'I' for Inactive)
REMARK    1  A    between atoms: C1_2  and  C2_3 
REMARK       I    between atoms: C2_3  and  N1_5 
REMARK    2  A    between atoms: N1_5  and  C3_7 
REMARK    3  A    between atoms: C6_16  and  C7_17 
REMARK    4  A    between atoms: N4_18  and  N5_20 
REMARK       I    between atoms: N5_20  and  C8_22 
REMARK    5  A    between atoms: C8_22  and  O6_24 
REMARK    6  A    between atoms: O6_24  and  N6_25 
REMARK    7  A    between atoms: C10_30  and  O8_31 
ROOT
HETATM    1  C3  UNL     1      11.002  -3.530  -5.493  1.00  0.00     0.129 A 
HETATM    2  N2  UNL     1      10.134  -3.914  -6.470  1.00  0.00    -0.293 N 
ATOM      3  H2  UNL     1      10.433  -3.891  -7.445  1.00  0.00     0.172 HD
HETATM    4  C4  UNL     1       8.881  -4.325  -6.166  1.00  0.00     0.328 A 
HETATM    5  O3  UNL     1       8.115  -4.673  -7.119  1.00  0.00    -0.247 OA
HETATM    6  N3  UNL     1       8.451  -4.370  -4.907  1.00  0.00    -0.275 N 
ATOM      7  H3  UNL     1       7.504  -4.682  -4.693  1.00  0.00     0.173 HD
HETATM    8  C5  UNL     1       9.298  -3.991  -3.910  1.00  0.00     0.264 A 
HETATM    9  O4  UNL     1       8.918  -4.021  -2.702  1.00  0.00    -0.267 OA
HETATM   10  C6  UNL     1      10.581  -3.565  -4.166  1.00  0.00     0.093 A 
ENDROOT
BRANCH  10  11
HETATM   11  C7  UNL     1      11.432  -3.175  -3.061  1.00  0.00     0.128 C 
HETATM   12  N4  UNL     1      12.519  -3.845  -2.843  1.00  0.00    -0.306 N 
ATOM     13  H4  UNL     1      12.754  -4.631  -3.449  1.00  0.00     0.186 HD
BRANCH  12  14
HETATM   14  N5  UNL     1      13.368  -3.511  -1.795  1.00  0.00    -0.244 N 
HETATM   15  C8  UNL     1      14.648  -2.929  -2.004  1.00  0.00     0.398 C 
HETATM   16  O5  UNL     1      15.018  -2.711  -3.184  1.00  0.00    -0.235 OA
ATOM     17  H5  UNL     1      13.062  -3.690  -0.839  1.00  0.00     0.192 HD
BRANCH  15  18
HETATM   18  O6  UNL     1      15.493  -2.596  -0.972  1.00  0.00    -0.182 OA
BRANCH  18  19
HETATM   19  N6  UNL     1      16.406  -1.569  -1.024  1.00  0.00    -0.052 NA
HETATM   20  N7  UNL     1      15.893  -0.408  -1.559  1.00  0.00    -0.259 N 
HETATM   21  C9  UNL     1      16.536   0.321  -0.521  1.00  0.00     0.281 C 
ATOM     22  H7  UNL     1      15.305  -0.172  -2.358  1.00  0.00     0.186 HD
HETATM   23  O7  UNL     1      17.000   1.470  -0.337  1.00  0.00    -0.268 OA
HETATM   24  C10 UNL     1      16.421  -0.898   0.285  1.00  0.00     0.336 C 
BRANCH  24  25
HETATM   25  O8  UNL     1      15.151  -0.967   0.898  1.00  0.00    -0.369 OA
ATOM     26  H8  UNL     1      15.212  -0.769   1.825  1.00  0.00     0.212 HD
ENDBRANCH  24  25
ENDBRANCH  18  19
ENDBRANCH  15  18
ENDBRANCH  12  14
ENDBRANCH  10  11
BRANCH   1  27
HETATM   27  N1  UNL     1      12.314  -3.096  -5.770  1.00  0.00    -0.306 N 
HETATM   28  C2  UNL     1      12.752  -2.366  -6.884  1.00  0.00     0.284 C 
HETATM   29  O2  UNL     1      12.073  -1.956  -7.849  1.00  0.00    -0.265 OA
ATOM     30  H1  UNL     1      13.027  -3.342  -5.082  1.00  0.00     0.170 HD
BRANCH  28  31
HETATM   31  C1  UNL     1      14.194  -2.013  -6.971  1.00  0.00     0.332 C 
HETATM   32  O1  UNL     1      15.065  -2.820  -6.578  1.00  0.00    -0.296 OA
ENDBRANCH  28  31
ENDBRANCH   1  27
TORSDOF 7
ENDMDL
MODEL 5
REMARK VINA RESULT: -7.838802764      2.941      8.617
REMARK  7 active torsions:
REMARK  status: ('A' for Active; 'I' for Inactive)
REMARK    1  A    between atoms: C1_2  and  C2_3 
REMARK       I    between atoms: C2_3  and  N1_5 
REMARK    2  A    between atoms: N1_5  and  C3_7 
REMARK    3  A    between atoms: C6_16  and  C7_17 
REMARK    4  A    between atoms: N4_18  and  N5_20 
REMARK       I    between atoms: N5_20  and  C8_22 
REMARK    5  A    between atoms: C8_22  and  O6_24 
REMARK    6  A    between atoms: O6_24  and  N6_25 
REMARK    7  A    between atoms: C10_30  and  O8_31 
ROOT
HETATM    1  C3  UNL     1       9.214  -4.322  -5.754  1.00  0.00     0.129 A 
HETATM    2  N2  UNL     1       8.087  -4.749  -6.388  1.00  0.00    -0.293 N 
ATOM      3  H2  UNL     1       7.498  -5.454  -5.946  1.00  0.00     0.172 HD
HETATM    4  C4  UNL     1       7.738  -4.251  -7.597  1.00  0.00     0.328 A 
HETATM    5  O3  UNL     1       6.675  -4.686  -8.142  1.00  0.00    -0.247 OA
HETATM    6  N3  UNL     1       8.479  -3.330  -8.210  1.00  0.00    -0.275 N 
ATOM      7  H3  UNL     1       8.203  -2.964  -9.121  1.00  0.00     0.173 HD
HETATM    8  C5  UNL     1       9.611  -2.885  -7.598  1.00  0.00     0.264 A 
HETATM    9  O4  UNL     1      10.338  -2.010  -8.155  1.00  0.00    -0.267 OA
HETATM   10  C6  UNL     1      10.009  -3.359  -6.369  1.00  0.00     0.093 A 
ENDROOT
BRANCH  10  11
HETATM   11  C7  UNL     1      11.225  -2.846  -5.772  1.00  0.00     0.128 C 
HETATM   12  N4  UNL     1      12.351  -3.419  -6.057  1.00  0.00    -0.306 N 
ATOM     13  H4  UNL     1      12.362  -4.216  -6.693  1.00  0.00     0.186 HD
BRANCH  12  14
HETATM   14  N5  UNL     1      13.545  -2.964  -5.510  1.00  0.00    -0.244 N 
HETATM   15  C8  UNL     1      14.325  -3.749  -4.617  1.00  0.00     0.398 C 
HETATM   16  O5  UNL     1      13.913  -4.895  -4.316  1.00  0.00    -0.235 OA
ATOM     17  H5  UNL     1      13.875  -2.031  -5.759  1.00  0.00     0.192 HD
BRANCH  15  18
HETATM   18  O6  UNL     1      15.506  -3.304  -4.072  1.00  0.00    -0.182 OA
BRANCH  18  19
HETATM   19  N6  UNL     1      15.774  -3.285  -2.723  1.00  0.00    -0.052 NA
HETATM   20  N7  UNL     1      16.089  -2.032  -2.245  1.00  0.00    -0.259 N 
HETATM   21  C9  UNL     1      15.249  -2.278  -1.125  1.00  0.00     0.281 C 
ATOM     22  H7  UNL     1      16.674  -1.258  -2.560  1.00  0.00     0.186 HD
HETATM   23  O7  UNL     1      15.156  -1.915   0.070  1.00  0.00    -0.268 OA
HETATM   24  C10 UNL     1      14.496  -3.182  -2.000  1.00  0.00     0.336 C 
BRANCH  24  25
HETATM   25  O8  UNL     1      13.548  -2.461  -2.759  1.00  0.00    -0.369 OA
ATOM     26  H8  UNL     1      12.683  -2.844  -2.669  1.00  0.00     0.212 HD
ENDBRANCH  24  25
ENDBRANCH  18  19
ENDBRANCH  15  18
ENDBRANCH  12  14
ENDBRANCH  10  11
BRANCH   1  27
HETATM   27  N1  UNL     1       9.610  -4.816  -4.495  1.00  0.00    -0.306 N 
HETATM   28  C2  UNL     1       8.895  -4.750  -3.291  1.00  0.00     0.284 C 
HETATM   29  O2  UNL     1       7.771  -4.242  -3.092  1.00  0.00    -0.265 OA
ATOM     30  H1  UNL     1      10.521  -5.274  -4.455  1.00  0.00     0.170 HD
BRANCH  28  31
HETATM   31  C1  UNL     1       9.510  -5.342  -2.073  1.00  0.00     0.332 C 
HETATM   32  O1  UNL     1      10.703  -5.719  -2.090  1.00  0.00    -0.296 OA
ENDBRANCH  28  31
ENDBRANCH   1  27
TORSDOF 7
ENDMDL
