MODEL 1
REMARK VINA RESULT: -7.434705556      0.000      0.000
REMARK  9 active torsions:
REMARK  status: ('A' for Active; 'I' for Inactive)
REMARK    1  A    between atoms: N2_3  and  C2_5 
REMARK    2  A    between atoms: C5_8  and  O1_9 
REMARK    3  A    between atoms: O1_9  and  C6_10 
REMARK    4  A    between atoms: C7_11  and  O2_12 
REMARK    5  A    between atoms: C8_14  and  O3_15 
REMARK    6  A    between atoms: C9_17  and  O4_18 
REMARK    7  A    between atoms: O4_18  and  S1_19 
REMARK    8  A    between atoms: C10_23  and  O8_24 
REMARK    9  A    between atoms: C11_26  and  O9_27 
ROOT
HETATM    1  N1  UNL     1      16.689  -0.926   1.399  1.00  0.00    -0.172 NA
HETATM    2  C1  UNL     1      16.362  -0.480   0.384  1.00  0.00     0.177 C 
HETATM    3  N2  UNL     1      15.981   0.081  -0.864  1.00  0.00    -0.322 N 
ATOM      4  H2  UNL     1      15.023   0.380  -1.043  1.00  0.00     0.172 HD
ENDROOT
BRANCH   3   5
HETATM    5  C2  UNL     1      16.999   0.206  -1.856  1.00  0.00     0.121 C 
HETATM    6  C3  UNL     1      18.394  -0.045  -1.287  1.00  0.00     0.031 C 
HETATM    7  C4  UNL     1      18.720  -0.740  -2.601  1.00  0.00     0.036 C 
HETATM    8  C5  UNL     1      17.210  -0.943  -2.781  1.00  0.00     0.145 C 
BRANCH   8   9
HETATM    9  O1  UNL     1      16.758  -2.175  -2.391  1.00  0.00    -0.373 OA
BRANCH   9  10
HETATM   10  C6  UNL     1      15.801  -2.722  -3.212  1.00  0.00     0.184 C 
HETATM   11  C7  UNL     1      14.493  -2.748  -2.469  1.00  0.00     0.181 C 
HETATM   12  C8  UNL     1      13.624  -3.926  -2.916  1.00  0.00     0.182 C 
HETATM   13  C9  UNL     1      13.726  -4.144  -4.402  1.00  0.00     0.207 C 
HETATM   14  C10 UNL     1      15.148  -4.501  -4.739  1.00  0.00     0.182 C 
HETATM   15  C11 UNL     1      16.116  -4.141  -3.627  1.00  0.00     0.181 C 
BRANCH  11  16
HETATM   16  O2  UNL     1      14.688  -2.928  -1.092  1.00  0.00    -0.390 OA
ATOM     17  H2  UNL     1      13.926  -2.656  -0.593  1.00  0.00     0.210 HD
ENDBRANCH  11  16
BRANCH  12  18
HETATM   18  O3  UNL     1      12.313  -3.587  -2.550  1.00  0.00    -0.390 OA
ATOM     19  H3  UNL     1      11.767  -4.291  -2.879  1.00  0.00     0.210 HD
ENDBRANCH  12  18
BRANCH  13  20
HETATM   20  O4  UNL     1      13.336  -2.972  -5.042  1.00  0.00    -0.246 OA
BRANCH  20  21
HETATM   21  S1  UNL     1      11.831  -3.115  -5.762  1.00  0.00     0.252 S 
HETATM   22  O5  UNL     1      11.795  -2.350  -7.055  1.00  0.00    -0.572 OA
HETATM   23  O6  UNL     1      11.448  -4.539  -6.010  1.00  0.00    -0.572 OA
HETATM   24  O7  UNL     1      10.686  -2.416  -4.726  1.00  0.00    -0.572 OA
ENDBRANCH  20  21
ENDBRANCH  13  20
BRANCH  14  25
HETATM   25  O8  UNL     1      15.543  -3.729  -5.856  1.00  0.00    -0.390 OA
ATOM     26  H8  UNL     1      16.442  -3.456  -5.723  1.00  0.00     0.210 HD
ENDBRANCH  14  25
BRANCH  15  27
HETATM   27  O9  UNL     1      17.399  -4.259  -4.161  1.00  0.00    -0.390 OA
ATOM     28  H9  UNL     1      18.043  -4.485  -3.500  1.00  0.00     0.210 HD
ENDBRANCH  15  27
ENDBRANCH   9  10
ENDBRANCH   8   9
ENDBRANCH   3   5
TORSDOF 9
ENDMDL
MODEL 2
REMARK VINA RESULT: -7.284106188      1.530      2.134
REMARK  9 active torsions:
REMARK  status: ('A' for Active; 'I' for Inactive)
REMARK    1  A    between atoms: N2_3  and  C2_5 
REMARK    2  A    between atoms: C5_8  and  O1_9 
REMARK    3  A    between atoms: O1_9  and  C6_10 
REMARK    4  A    between atoms: C7_11  and  O2_12 
REMARK    5  A    between atoms: C8_14  and  O3_15 
REMARK    6  A    between atoms: C9_17  and  O4_18 
REMARK    7  A    between atoms: O4_18  and  S1_19 
REMARK    8  A    between atoms: C10_23  and  O8_24 
REMARK    9  A    between atoms: C11_26  and  O9_27 
ROOT
HETATM    1  N1  UNL     1      16.373  -0.198   0.610  1.00  0.00    -0.172 NA
HETATM    2  C1  UNL     1      16.541  -0.734  -0.401  1.00  0.00     0.177 C 
HETATM    3  N2  UNL     1      16.741  -1.372  -1.654  1.00  0.00    -0.322 N 
ATOM      4  H2  UNL     1      16.402  -2.316  -1.831  1.00  0.00     0.172 HD
ENDROOT
BRANCH   3   5
HETATM    5  C2  UNL     1      17.439  -0.630  -2.654  1.00  0.00     0.121 C 
HETATM    6  C3  UNL     1      18.948  -0.859  -2.594  1.00  0.00     0.031 C 
HETATM    7  C4  UNL     1      18.937  -0.812  -4.115  1.00  0.00     0.036 C 
HETATM    8  C5  UNL     1      17.449  -1.177  -4.040  1.00  0.00     0.145 C 
BRANCH   8   9
HETATM    9  O1  UNL     1      17.188  -2.510  -4.208  1.00  0.00    -0.373 OA
BRANCH   9  10
HETATM   10  C6  UNL     1      15.892  -2.801  -4.565  1.00  0.00     0.184 C 
HETATM   11  C7  UNL     1      15.393  -3.910  -3.679  1.00  0.00     0.181 C 
HETATM   12  C8  UNL     1      14.365  -4.781  -4.406  1.00  0.00     0.182 C 
HETATM   13  C9  UNL     1      13.454  -3.945  -5.265  1.00  0.00     0.207 C 
HETATM   14  C10 UNL     1      14.280  -3.270  -6.326  1.00  0.00     0.182 C 
HETATM   15  C11 UNL     1      15.761  -3.269  -5.996  1.00  0.00     0.181 C 
BRANCH  11  16
HETATM   16  O2  UNL     1      16.428  -4.782  -3.311  1.00  0.00    -0.390 OA
ATOM     17  H2  UNL     1      16.124  -5.450  -2.708  1.00  0.00     0.210 HD
ENDBRANCH  11  16
BRANCH  12  18
HETATM   18  O3  UNL     1      13.640  -5.431  -3.397  1.00  0.00    -0.390 OA
ATOM     19  H3  UNL     1      12.726  -5.318  -3.626  1.00  0.00     0.210 HD
ENDBRANCH  12  18
BRANCH  13  20
HETATM   20  O4  UNL     1      12.821  -3.012  -4.451  1.00  0.00    -0.246 OA
BRANCH  20  21
HETATM   21  S1  UNL     1      11.154  -3.086  -4.581  1.00  0.00     0.252 S 
HETATM   22  O5  UNL     1      10.661  -4.457  -4.214  1.00  0.00    -0.572 OA
HETATM   23  O6  UNL     1      10.468  -2.062  -3.734  1.00  0.00    -0.572 OA
HETATM   24  O7  UNL     1      10.742  -2.814  -6.203  1.00  0.00    -0.572 OA
ENDBRANCH  20  21
ENDBRANCH  13  20
BRANCH  14  25
HETATM   25  O8  UNL     1      13.899  -1.909  -6.381  1.00  0.00    -0.390 OA
ATOM     26  H8  UNL     1      13.534  -1.739  -7.242  1.00  0.00     0.210 HD
ENDBRANCH  14  25
BRANCH  15  27
HETATM   27  O9  UNL     1      16.370  -2.391  -6.893  1.00  0.00    -0.390 OA
ATOM     28  H9  UNL     1      16.732  -2.843  -7.646  1.00  0.00     0.210 HD
ENDBRANCH  15  27
ENDBRANCH   9  10
ENDBRANCH   8   9
ENDBRANCH   3   5
TORSDOF 9
ENDMDL
MODEL 3
REMARK VINA RESULT: -7.241451289      1.550      2.084
REMARK  9 active torsions:
REMARK  status: ('A' for Active; 'I' for Inactive)
REMARK    1  A    between atoms: N2_3  and  C2_5 
REMARK    2  A    between atoms: C5_8  and  O1_9 
REMARK    3  A    between atoms: O1_9  and  C6_10 
REMARK    4  A    between atoms: C7_11  and  O2_12 
REMARK    5  A    between atoms: C8_14  and  O3_15 
REMARK    6  A    between atoms: C9_17  and  O4_18 
REMARK    7  A    between atoms: O4_18  and  S1_19 
REMARK    8  A    between atoms: C10_23  and  O8_24 
REMARK    9  A    between atoms: C11_26  and  O9_27 
ROOT
HETATM    1  N1  UNL     1      16.320  -0.197   0.576  1.00  0.00    -0.172 NA
HETATM    2  C1  UNL     1      16.512  -0.735  -0.429  1.00  0.00     0.177 C 
HETATM    3  N2  UNL     1      16.741  -1.377  -1.675  1.00  0.00    -0.322 N 
ATOM      4  H2  UNL     1      16.431  -2.333  -1.846  1.00  0.00     0.172 HD
ENDROOT
BRANCH   3   5
HETATM    5  C2  UNL     1      17.426  -0.624  -2.675  1.00  0.00     0.121 C 
HETATM    6  C3  UNL     1      18.937  -0.836  -2.624  1.00  0.00     0.031 C 
HETATM    7  C4  UNL     1      18.918  -0.782  -4.145  1.00  0.00     0.036 C 
HETATM    8  C5  UNL     1      17.435  -1.165  -4.064  1.00  0.00     0.145 C 
BRANCH   8   9
HETATM    9  O1  UNL     1      17.188  -2.500  -4.236  1.00  0.00    -0.373 OA
BRANCH   9  10
HETATM   10  C6  UNL     1      15.893  -2.806  -4.579  1.00  0.00     0.184 C 
HETATM   11  C7  UNL     1      15.421  -3.934  -3.702  1.00  0.00     0.181 C 
HETATM   12  C8  UNL     1      14.397  -4.810  -4.426  1.00  0.00     0.182 C 
HETATM   13  C9  UNL     1      13.462  -3.976  -5.262  1.00  0.00     0.207 C 
HETATM   14  C10 UNL     1      14.263  -3.274  -6.324  1.00  0.00     0.182 C 
HETATM   15  C11 UNL     1      15.748  -3.256  -6.015  1.00  0.00     0.181 C 
BRANCH  11  16
HETATM   16  O2  UNL     1      16.474  -4.795  -3.360  1.00  0.00    -0.390 OA
ATOM     17  H2  UNL     1      16.379  -5.645  -3.773  1.00  0.00     0.210 HD
ENDBRANCH  11  16
BRANCH  12  18
HETATM   18  O3  UNL     1      13.696  -5.484  -3.417  1.00  0.00    -0.390 OA
ATOM     19  H3  UNL     1      14.323  -6.079  -3.023  1.00  0.00     0.210 HD
ENDBRANCH  12  18
BRANCH  13  20
HETATM   20  O4  UNL     1      12.827  -3.063  -4.426  1.00  0.00    -0.246 OA
BRANCH  20  21
HETATM   21  S1  UNL     1      11.176  -3.325  -4.341  1.00  0.00     0.252 S 
HETATM   22  O5  UNL     1      10.479  -2.105  -3.807  1.00  0.00    -0.572 OA
HETATM   23  O6  UNL     1      10.586  -3.700  -5.664  1.00  0.00    -0.572 OA
HETATM   24  O7  UNL     1      10.900  -4.589  -3.245  1.00  0.00    -0.572 OA
ENDBRANCH  20  21
ENDBRANCH  13  20
BRANCH  14  25
HETATM   25  O8  UNL     1      13.861  -1.919  -6.356  1.00  0.00    -0.390 OA
ATOM     26  H8  UNL     1      13.551  -1.682  -5.490  1.00  0.00     0.210 HD
ENDBRANCH  14  25
BRANCH  15  27
HETATM   27  O9  UNL     1      16.332  -2.357  -6.908  1.00  0.00    -0.390 OA
ATOM     28  H9  UNL     1      15.998  -1.474  -6.795  1.00  0.00     0.210 HD
ENDBRANCH  15  27
ENDBRANCH   9  10
ENDBRANCH   8   9
ENDBRANCH   3   5
TORSDOF 9
ENDMDL
MODEL 4
REMARK VINA RESULT: -7.071447131      1.812      2.465
REMARK  9 active torsions:
REMARK  status: ('A' for Active; 'I' for Inactive)
REMARK    1  A    between atoms: N2_3  and  C2_5 
REMARK    2  A    between atoms: C5_8  and  O1_9 
REMARK    3  A    between atoms: O1_9  and  C6_10 
REMARK    4  A    between atoms: C7_11  and  O2_12 
REMARK    5  A    between atoms: C8_14  and  O3_15 
REMARK    6  A    between atoms: C9_17  and  O4_18 
REMARK    7  A    between atoms: O4_18  and  S1_19 
REMARK    8  A    between atoms: C10_23  and  O8_24 
REMARK    9  A    between atoms: C11_26  and  O9_27 
ROOT
HETATM    1  N1  UNL     1      15.413  -1.362  -1.100  1.00  0.00    -0.172 NA
HETATM    2  C1  UNL     1      16.463  -1.347  -1.584  1.00  0.00     0.177 C 
HETATM    3  N2  UNL     1      17.742  -1.330  -2.201  1.00  0.00    -0.322 N 
ATOM      4  H2  UNL     1      18.516  -1.885  -1.837  1.00  0.00     0.172 HD
ENDROOT
BRANCH   3   5
HETATM    5  C2  UNL     1      17.895  -0.501  -3.352  1.00  0.00     0.121 C 
HETATM    6  C3  UNL     1      19.303  -0.583  -3.939  1.00  0.00     0.031 C 
HETATM    7  C4  UNL     1      18.652  -0.500  -5.312  1.00  0.00     0.036 C 
HETATM    8  C5  UNL     1      17.366  -1.011  -4.649  1.00  0.00     0.145 C 
BRANCH   8   9
HETATM    9  O1  UNL     1      17.164  -2.358  -4.776  1.00  0.00    -0.373 OA
BRANCH   9  10
HETATM   10  C6  UNL     1      15.855  -2.727  -4.973  1.00  0.00     0.184 C 
HETATM   11  C7  UNL     1      15.532  -3.860  -4.037  1.00  0.00     0.181 C 
HETATM   12  C8  UNL     1      14.478  -4.793  -4.636  1.00  0.00     0.182 C 
HETATM   13  C9  UNL     1      13.422  -4.016  -5.377  1.00  0.00     0.207 C 
HETATM   14  C10 UNL     1      14.072  -3.298  -6.528  1.00  0.00     0.182 C 
HETATM   15  C11 UNL     1      15.580  -3.208  -6.380  1.00  0.00     0.181 C 
BRANCH  11  16
HETATM   16  O2  UNL     1      16.654  -4.667  -3.799  1.00  0.00    -0.390 OA
ATOM     17  H2  UNL     1      16.567  -5.157  -2.990  1.00  0.00     0.210 HD
ENDBRANCH  11  16
BRANCH  12  18
HETATM   18  O3  UNL     1      13.920  -5.480  -3.549  1.00  0.00    -0.390 OA
ATOM     19  H3  UNL     1      13.355  -6.143  -3.928  1.00  0.00     0.210 HD
ENDBRANCH  12  18
BRANCH  13  20
HETATM   20  O4  UNL     1      12.838  -3.118  -4.489  1.00  0.00    -0.246 OA
BRANCH  20  21
HETATM   21  S1  UNL     1      11.222  -3.457  -4.218  1.00  0.00     0.252 S 
HETATM   22  O5  UNL     1      10.555  -3.882  -5.496  1.00  0.00    -0.572 OA
HETATM   23  O6  UNL     1      11.025  -4.511  -3.175  1.00  0.00    -0.572 OA
HETATM   24  O7  UNL     1      10.466  -2.031  -3.699  1.00  0.00    -0.572 OA
ENDBRANCH  20  21
ENDBRANCH  13  20
BRANCH  14  25
HETATM   25  O8  UNL     1      13.607  -1.963  -6.533  1.00  0.00    -0.390 OA
ATOM     26  H8  UNL     1      12.959  -1.873  -5.845  1.00  0.00     0.210 HD
ENDBRANCH  14  25
BRANCH  15  27
HETATM   27  O9  UNL     1      16.022  -2.300  -7.341  1.00  0.00    -0.390 OA
ATOM     28  H9  UNL     1      16.968  -2.310  -7.435  1.00  0.00     0.210 HD
ENDBRANCH  15  27
ENDBRANCH   9  10
ENDBRANCH   8   9
ENDBRANCH   3   5
TORSDOF 9
ENDMDL
MODEL 5
REMARK VINA RESULT: -7.061781610      1.290      1.694
REMARK  9 active torsions:
REMARK  status: ('A' for Active; 'I' for Inactive)
REMARK    1  A    between atoms: N2_3  and  C2_5 
REMARK    2  A    between atoms: C5_8  and  O1_9 
REMARK    3  A    between atoms: O1_9  and  C6_10 
REMARK    4  A    between atoms: C7_11  and  O2_12 
REMARK    5  A    between atoms: C8_14  and  O3_15 
REMARK    6  A    between atoms: C9_17  and  O4_18 
REMARK    7  A    between atoms: O4_18  and  S1_19 
REMARK    8  A    between atoms: C10_23  and  O8_24 
REMARK    9  A    between atoms: C11_26  and  O9_27 
ROOT
HETATM    1  N1  UNL     1      16.347   1.125  -0.347  1.00  0.00    -0.172 NA
HETATM    2  C1  UNL     1      16.993   0.365  -0.934  1.00  0.00     0.177 C 
HETATM    3  N2  UNL     1      17.769  -0.566  -1.671  1.00  0.00    -0.322 N 
ATOM      4  H2  UNL     1      18.196  -1.376  -1.224  1.00  0.00     0.172 HD
ENDROOT
BRANCH   3   5
HETATM    5  C2  UNL     1      17.926  -0.317  -3.068  1.00  0.00     0.121 C 
HETATM    6  C3  UNL     1      19.292  -0.763  -3.584  1.00  0.00     0.031 C 
HETATM    7  C4  UNL     1      18.581  -1.210  -4.853  1.00  0.00     0.036 C 
HETATM    8  C5  UNL     1      17.296  -1.277  -4.018  1.00  0.00     0.145 C 
BRANCH   8   9
HETATM    9  O1  UNL     1      16.988  -2.529  -3.558  1.00  0.00    -0.373 OA
BRANCH   9  10
HETATM   10  C6  UNL     1      15.735  -2.976  -3.903  1.00  0.00     0.184 C 
HETATM   11  C7  UNL     1      14.839  -2.862  -2.699  1.00  0.00     0.181 C 
HETATM   12  C8  UNL     1      13.757  -3.943  -2.708  1.00  0.00     0.182 C 
HETATM   13  C9  UNL     1      13.231  -4.176  -4.099  1.00  0.00     0.207 C 
HETATM   14  C10 UNL     1      14.358  -4.682  -4.959  1.00  0.00     0.182 C 
HETATM   15  C11 UNL     1      15.720  -4.422  -4.344  1.00  0.00     0.181 C 
BRANCH  11  16
HETATM   16  O2  UNL     1      15.553  -3.055  -1.507  1.00  0.00    -0.390 OA
ATOM     17  H2  UNL     1      15.038  -3.530  -0.865  1.00  0.00     0.210 HD
ENDBRANCH  11  16
BRANCH  12  18
HETATM   18  O3  UNL     1      12.742  -3.467  -1.865  1.00  0.00    -0.390 OA
ATOM     19  H3  UNL     1      13.029  -3.665  -0.982  1.00  0.00     0.210 HD
ENDBRANCH  12  18
BRANCH  13  20
HETATM   20  O4  UNL     1      12.730  -2.973  -4.584  1.00  0.00    -0.246 OA
BRANCH  20  21
HETATM   21  S1  UNL     1      11.060  -2.902  -4.497  1.00  0.00     0.252 S 
HETATM   22  O5  UNL     1      10.632  -1.819  -3.546  1.00  0.00    -0.572 OA
HETATM   23  O6  UNL     1      10.426  -2.677  -5.833  1.00  0.00    -0.572 OA
HETATM   24  O7  UNL     1      10.504  -4.376  -3.872  1.00  0.00    -0.572 OA
ENDBRANCH  20  21
ENDBRANCH  13  20
BRANCH  14  25
HETATM   25  O8  UNL     1      14.342  -3.961  -6.175  1.00  0.00    -0.390 OA
ATOM     26  H8  UNL     1      14.294  -4.585  -6.889  1.00  0.00     0.210 HD
ENDBRANCH  14  25
BRANCH  15  27
HETATM   27  O9  UNL     1      16.663  -4.676  -5.340  1.00  0.00    -0.390 OA
ATOM     28  H9  UNL     1      17.541  -4.428  -5.073  1.00  0.00     0.210 HD
ENDBRANCH  15  27
ENDBRANCH   9  10
ENDBRANCH   8   9
ENDBRANCH   3   5
TORSDOF 9
ENDMDL
