MODEL 1
REMARK VINA RESULT: -7.319373710      0.000      0.000
REMARK  11 active torsions:
REMARK  status: ('A' for Active; 'I' for Inactive)
REMARK    1  A    between atoms: C2_2  and  O2_4 
REMARK    2  A    between atoms: O2_4  and  C3_5 
REMARK    3  A    between atoms: C4_6  and  C5_7 
REMARK    4  A    between atoms: N1_8  and  O3_10 
REMARK    5  A    between atoms: C7_16  and  O4_17 
REMARK    6  A    between atoms: O4_17  and  C8_18 
REMARK    7  A    between atoms: C8_18  and  C9_20 
REMARK    8  A    between atoms: C11_22  and  N3_23 
REMARK    9  A    between atoms: C12_27  and  O6_28 
REMARK   10  A    between atoms: C13_30  and  O7_31 
REMARK   11  A    between atoms: C14_33  and  O8_34 
ROOT
HETATM    1  C8  UNL     1      14.235  -3.726  -1.956  1.00  0.00     0.266 C 
HETATM    2  O5  UNL     1      14.872  -4.620  -1.316  1.00  0.00    -0.265 OA
ENDROOT
BRANCH   1   3
HETATM    3  O4  UNL     1      13.001  -4.037  -2.453  1.00  0.00    -0.311 OA
BRANCH   3   4
HETATM    4  C7  UNL     1      12.089  -2.983  -2.797  1.00  0.00     0.189 C 
HETATM    5  C3  UNL     1      11.881  -2.896  -4.270  1.00  0.00     0.198 C 
HETATM    6  C4  UNL     1      10.423  -2.712  -4.468  1.00  0.00     0.258 C 
HETATM    7  N2  UNL     1       9.810  -2.691  -3.137  1.00  0.00    -0.061 N 
HETATM    8  C6  UNL     1      10.734  -3.430  -2.289  1.00  0.00     0.268 C 
ATOM      9  H22 UNL     1       9.593  -1.755  -2.796  1.00  0.00     0.278 HD
ATOM     10  H21 UNL     1       8.854  -3.046  -3.116  1.00  0.00     0.278 HD
BRANCH   5  11
HETATM   11  O2  UNL     1      12.685  -1.944  -4.908  1.00  0.00    -0.311 OA
BRANCH  11  12
HETATM   12  C2  UNL     1      12.856  -1.821  -6.266  1.00  0.00     0.255 C 
HETATM   13  C1  UNL     1      14.256  -1.683  -6.772  1.00  0.00     0.126 C 
HETATM   14  O1  UNL     1      11.852  -1.833  -6.998  1.00  0.00    -0.266 OA
ENDBRANCH  11  12
ENDBRANCH   5  11
BRANCH   6  15
HETATM   15  C5  UNL     1       9.808  -3.849  -5.193  1.00  0.00     0.122 C 
HETATM   16  N1  UNL     1       9.278  -3.652  -6.338  1.00  0.00    -0.282 N 
ATOM     17  H1  UNL     1       9.298  -2.706  -6.718  1.00  0.00     0.192 HD
BRANCH  16  18
HETATM   18  O3  UNL     1       8.689  -4.630  -7.084  1.00  0.00    -0.290 OA
ATOM     19  H3  UNL     1       7.892  -4.507  -7.587  1.00  0.00     0.244 HD
ENDBRANCH  16  18
ENDBRANCH   6  15
ENDBRANCH   3   4
ENDBRANCH   1   3
BRANCH   1  20
HETATM   20  C9  UNL     1      14.886  -2.398  -2.120  1.00  0.00     0.119 C 
HETATM   21  C10 UNL     1      15.665  -2.004  -0.901  1.00  0.00     0.052 C 
HETATM   22  C11 UNL     1      16.627  -0.900  -1.315  1.00  0.00     0.215 C 
HETATM   23  C12 UNL     1      17.753  -1.562  -2.069  1.00  0.00     0.179 C 
HETATM   24  C13 UNL     1      17.219  -2.617  -3.008  1.00  0.00     0.178 C 
HETATM   25  C14 UNL     1      15.762  -2.379  -3.353  1.00  0.00     0.163 C 
BRANCH  22  26
HETATM   26  N3  UNL     1      17.128  -0.279  -0.109  1.00  0.00    -0.072 N 
ATOM     27  H33 UNL     1      16.726  -0.679   0.738  1.00  0.00     0.274 HD
ATOM     28  H32 UNL     1      18.102  -0.513   0.082  1.00  0.00     0.274 HD
ATOM     29  H31 UNL     1      16.969   0.725  -0.189  1.00  0.00     0.274 HD
ENDBRANCH  22  26
BRANCH  23  30
HETATM   30  O6  UNL     1      18.550  -0.622  -2.731  1.00  0.00    -0.391 OA
ATOM     31  H6  UNL     1      18.380  -0.618  -3.666  1.00  0.00     0.210 HD
ENDBRANCH  23  30
BRANCH  24  32
HETATM   32  O7  UNL     1      17.430  -3.912  -2.528  1.00  0.00    -0.390 OA
ATOM     33  H7  UNL     1      17.554  -4.541  -3.229  1.00  0.00     0.210 HD
ENDBRANCH  24  32
BRANCH  25  34
HETATM   34  O8  UNL     1      15.395  -3.372  -4.257  1.00  0.00    -0.392 OA
ATOM     35  H8  UNL     1      16.100  -3.572  -4.861  1.00  0.00     0.210 HD
ENDBRANCH  25  34
ENDBRANCH   1  20
TORSDOF 11
ENDMDL
MODEL 2
REMARK VINA RESULT: -7.164078935      2.812      4.327
REMARK  11 active torsions:
REMARK  status: ('A' for Active; 'I' for Inactive)
REMARK    1  A    between atoms: C2_2  and  O2_4 
REMARK    2  A    between atoms: O2_4  and  C3_5 
REMARK    3  A    between atoms: C4_6  and  C5_7 
REMARK    4  A    between atoms: N1_8  and  O3_10 
REMARK    5  A    between atoms: C7_16  and  O4_17 
REMARK    6  A    between atoms: O4_17  and  C8_18 
REMARK    7  A    between atoms: C8_18  and  C9_20 
REMARK    8  A    between atoms: C11_22  and  N3_23 
REMARK    9  A    between atoms: C12_27  and  O6_28 
REMARK   10  A    between atoms: C13_30  and  O7_31 
REMARK   11  A    between atoms: C14_33  and  O8_34 
ROOT
HETATM    1  C8  UNL     1      16.275  -1.345  -0.931  1.00  0.00     0.266 C 
HETATM    2  O5  UNL     1      15.475  -1.596   0.024  1.00  0.00    -0.265 OA
ENDROOT
BRANCH   1   3
HETATM    3  O4  UNL     1      15.823  -1.487  -2.212  1.00  0.00    -0.311 OA
BRANCH   3   4
HETATM    4  C7  UNL     1      15.052  -2.644  -2.568  1.00  0.00     0.189 C 
HETATM    5  C3  UNL     1      13.877  -2.283  -3.410  1.00  0.00     0.198 C 
HETATM    6  C4  UNL     1      13.825  -3.290  -4.497  1.00  0.00     0.258 C 
HETATM    7  N2  UNL     1      14.945  -4.209  -4.280  1.00  0.00    -0.061 N 
HETATM    8  C6  UNL     1      15.919  -3.439  -3.521  1.00  0.00     0.268 C 
ATOM      9  H22 UNL     1      14.678  -5.090  -3.839  1.00  0.00     0.278 HD
ATOM     10  H21 UNL     1      15.317  -4.617  -5.137  1.00  0.00     0.278 HD
BRANCH   5  11
HETATM   11  O2  UNL     1      12.682  -2.130  -2.693  1.00  0.00    -0.311 OA
BRANCH  11  12
HETATM   12  C2  UNL     1      11.431  -2.481  -3.140  1.00  0.00     0.255 C 
HETATM   13  C1  UNL     1      10.729  -3.586  -2.419  1.00  0.00     0.126 C 
HETATM   14  O1  UNL     1      10.949  -1.869  -4.108  1.00  0.00    -0.266 OA
ENDBRANCH  11  12
ENDBRANCH   5  11
BRANCH   6  15
HETATM   15  C5  UNL     1      14.035  -2.684  -5.833  1.00  0.00     0.122 C 
HETATM   16  N1  UNL     1      13.191  -1.835  -6.277  1.00  0.00    -0.282 N 
ATOM     17  H1  UNL     1      12.392  -1.601  -5.688  1.00  0.00     0.192 HD
BRANCH  16  18
HETATM   18  O3  UNL     1      13.295  -1.221  -7.491  1.00  0.00    -0.290 OA
ATOM     19  H3  UNL     1      13.308  -0.279  -7.610  1.00  0.00     0.244 HD
ENDBRANCH  16  18
ENDBRANCH   6  15
ENDBRANCH   3   4
ENDBRANCH   1   3
BRANCH   1  20
HETATM   20  C9  UNL     1      17.655  -0.913  -0.579  1.00  0.00     0.119 C 
HETATM   21  C10 UNL     1      18.411  -0.425  -1.779  1.00  0.00     0.052 C 
HETATM   22  C11 UNL     1      19.592   0.388  -1.271  1.00  0.00     0.215 C 
HETATM   23  C12 UNL     1      19.044   1.720  -0.822  1.00  0.00     0.179 C 
HETATM   24  C13 UNL     1      17.752   1.538  -0.063  1.00  0.00     0.178 C 
HETATM   25  C14 UNL     1      17.627   0.139   0.508  1.00  0.00     0.163 C 
BRANCH  22  26
HETATM   26  N3  UNL     1      20.508   0.569  -2.374  1.00  0.00    -0.072 N 
ATOM     27  H33 UNL     1      20.439   1.494  -2.799  1.00  0.00     0.274 HD
ATOM     28  H32 UNL     1      21.482   0.631  -2.077  1.00  0.00     0.274 HD
ATOM     29  H31 UNL     1      20.344  -0.187  -3.040  1.00  0.00     0.274 HD
ENDBRANCH  22  26
BRANCH  23  30
HETATM   30  O6  UNL     1      19.989   2.443  -0.086  1.00  0.00    -0.391 OA
ATOM     31  H6  UNL     1      20.467   3.052  -0.636  1.00  0.00     0.210 HD
ENDBRANCH  23  30
BRANCH  24  32
HETATM   32  O7  UNL     1      16.634   1.884  -0.826  1.00  0.00    -0.390 OA
ATOM     33  H7  UNL     1      15.904   1.293  -0.687  1.00  0.00     0.210 HD
ENDBRANCH  24  32
BRANCH  25  34
HETATM   34  O8  UNL     1      16.433   0.101   1.224  1.00  0.00    -0.392 OA
ATOM     35  H8  UNL     1      16.405   0.777   1.891  1.00  0.00     0.210 HD
ENDBRANCH  25  34
ENDBRANCH   1  20
TORSDOF 11
ENDMDL
MODEL 3
REMARK VINA RESULT: -7.048711056      3.313      4.871
REMARK  11 active torsions:
REMARK  status: ('A' for Active; 'I' for Inactive)
REMARK    1  A    between atoms: C2_2  and  O2_4 
REMARK    2  A    between atoms: O2_4  and  C3_5 
REMARK    3  A    between atoms: C4_6  and  C5_7 
REMARK    4  A    between atoms: N1_8  and  O3_10 
REMARK    5  A    between atoms: C7_16  and  O4_17 
REMARK    6  A    between atoms: O4_17  and  C8_18 
REMARK    7  A    between atoms: C8_18  and  C9_20 
REMARK    8  A    between atoms: C11_22  and  N3_23 
REMARK    9  A    between atoms: C12_27  and  O6_28 
REMARK   10  A    between atoms: C13_30  and  O7_31 
REMARK   11  A    between atoms: C14_33  and  O8_34 
ROOT
HETATM    1  C8  UNL     1      16.191  -1.262  -0.994  1.00  0.00     0.266 C 
HETATM    2  O5  UNL     1      15.439  -1.836  -0.144  1.00  0.00    -0.265 OA
ENDROOT
BRANCH   1   3
HETATM    3  O4  UNL     1      15.699  -1.034  -2.247  1.00  0.00    -0.311 OA
BRANCH   3   4
HETATM    4  C7  UNL     1      15.514  -2.136  -3.148  1.00  0.00     0.189 C 
HETATM    5  C3  UNL     1      15.767  -3.442  -2.477  1.00  0.00     0.198 C 
HETATM    6  C4  UNL     1      14.676  -4.347  -2.912  1.00  0.00     0.258 C 
HETATM    7  N2  UNL     1      13.818  -3.576  -3.816  1.00  0.00    -0.061 N 
HETATM    8  C6  UNL     1      14.028  -2.187  -3.436  1.00  0.00     0.268 C 
ATOM      9  H22 UNL     1      13.983  -3.764  -4.805  1.00  0.00     0.278 HD
ATOM     10  H21 UNL     1      12.840  -3.865  -3.805  1.00  0.00     0.278 HD
BRANCH   5  11
HETATM   11  O2  UNL     1      17.060  -3.946  -2.670  1.00  0.00    -0.311 OA
BRANCH  11  12
HETATM   12  C2  UNL     1      17.896  -3.624  -3.712  1.00  0.00     0.255 C 
HETATM   13  C1  UNL     1      17.431  -3.952  -5.094  1.00  0.00     0.126 C 
HETATM   14  O1  UNL     1      18.985  -3.081  -3.458  1.00  0.00    -0.266 OA
ENDBRANCH  11  12
ENDBRANCH   5  11
BRANCH   6  15
HETATM   15  C5  UNL     1      13.816  -4.773  -1.783  1.00  0.00     0.122 C 
HETATM   16  N1  UNL     1      12.594  -4.407  -1.751  1.00  0.00    -0.282 N 
ATOM     17  H1  UNL     1      12.247  -3.826  -2.514  1.00  0.00     0.192 HD
BRANCH  16  18
HETATM   18  O3  UNL     1      11.723  -4.746  -0.757  1.00  0.00    -0.290 OA
ATOM     19  H3  UNL     1      11.545  -4.202   0.002  1.00  0.00     0.244 HD
ENDBRANCH  16  18
ENDBRANCH   6  15
ENDBRANCH   3   4
ENDBRANCH   1   3
BRANCH   1  20
HETATM   20  C9  UNL     1      17.561  -0.880  -0.556  1.00  0.00     0.119 C 
HETATM   21  C10 UNL     1      18.410  -0.428  -1.706  1.00  0.00     0.052 C 
HETATM   22  C11 UNL     1      19.586   0.344  -1.126  1.00  0.00     0.215 C 
HETATM   23  C12 UNL     1      19.061   1.698  -0.717  1.00  0.00     0.179 C 
HETATM   24  C13 UNL     1      17.717   1.568  -0.042  1.00  0.00     0.178 C 
HETATM   25  C14 UNL     1      17.503   0.178   0.524  1.00  0.00     0.163 C 
BRANCH  22  26
HETATM   26  N3  UNL     1      20.576   0.484  -2.169  1.00  0.00    -0.072 N 
ATOM     27  H33 UNL     1      21.345  -0.180  -2.078  1.00  0.00     0.274 HD
ATOM     28  H32 UNL     1      20.239   0.174  -3.081  1.00  0.00     0.274 HD
ATOM     29  H31 UNL     1      20.889   1.455  -2.171  1.00  0.00     0.274 HD
ENDBRANCH  22  26
BRANCH  23  30
HETATM   30  O6  UNL     1      19.984   2.388   0.075  1.00  0.00    -0.391 OA
ATOM     31  H6  UNL     1      20.731   1.844   0.293  1.00  0.00     0.210 HD
ENDBRANCH  23  30
BRANCH  24  32
HETATM   32  O7  UNL     1      16.664   1.952  -0.876  1.00  0.00    -0.390 OA
ATOM     33  H7  UNL     1      15.923   1.360  -0.818  1.00  0.00     0.210 HD
ENDBRANCH  24  32
BRANCH  25  34
HETATM   34  O8  UNL     1      16.266   0.189   1.163  1.00  0.00    -0.392 OA
ATOM     35  H8  UNL     1      15.571   0.458   0.573  1.00  0.00     0.210 HD
ENDBRANCH  25  34
ENDBRANCH   1  20
TORSDOF 11
ENDMDL
MODEL 4
REMARK VINA RESULT: -7.046064949      1.927      6.904
REMARK  11 active torsions:
REMARK  status: ('A' for Active; 'I' for Inactive)
REMARK    1  A    between atoms: C2_2  and  O2_4 
REMARK    2  A    between atoms: O2_4  and  C3_5 
REMARK    3  A    between atoms: C4_6  and  C5_7 
REMARK    4  A    between atoms: N1_8  and  O3_10 
REMARK    5  A    between atoms: C7_16  and  O4_17 
REMARK    6  A    between atoms: O4_17  and  C8_18 
REMARK    7  A    between atoms: C8_18  and  C9_20 
REMARK    8  A    between atoms: C11_22  and  N3_23 
REMARK    9  A    between atoms: C12_27  and  O6_28 
REMARK   10  A    between atoms: C13_30  and  O7_31 
REMARK   11  A    between atoms: C14_33  and  O8_34 
ROOT
HETATM    1  C8  UNL     1      12.493  -2.340  -3.788  1.00  0.00     0.266 C 
HETATM    2  O5  UNL     1      12.767  -2.923  -4.884  1.00  0.00    -0.265 OA
ENDROOT
BRANCH   1   3
HETATM    3  O4  UNL     1      13.524  -1.994  -2.961  1.00  0.00    -0.311 OA
BRANCH   3   4
HETATM    4  C7  UNL     1      14.656  -2.868  -2.836  1.00  0.00     0.189 C 
HETATM    5  C3  UNL     1      15.889  -2.254  -3.405  1.00  0.00     0.198 C 
HETATM    6  C4  UNL     1      16.973  -2.532  -2.432  1.00  0.00     0.258 C 
HETATM    7  N2  UNL     1      16.374  -3.291  -1.331  1.00  0.00    -0.061 N 
HETATM    8  C6  UNL     1      14.964  -2.933  -1.354  1.00  0.00     0.268 C 
ATOM      9  H22 UNL     1      16.547  -4.295  -1.378  1.00  0.00     0.278 HD
ATOM     10  H21 UNL     1      16.826  -3.138  -0.430  1.00  0.00     0.278 HD
BRANCH   5  11
HETATM   11  O2  UNL     1      16.168  -2.642  -4.722  1.00  0.00    -0.311 OA
BRANCH  11  12
HETATM   12  C2  UNL     1      16.441  -1.792  -5.766  1.00  0.00     0.255 C 
HETATM   13  C1  UNL     1      15.586  -1.905  -6.986  1.00  0.00     0.126 C 
HETATM   14  O1  UNL     1      17.373  -0.978  -5.646  1.00  0.00    -0.266 OA
ENDBRANCH  11  12
ENDBRANCH   5  11
BRANCH   6  15
HETATM   15  C5  UNL     1      17.521  -1.292  -1.834  1.00  0.00     0.122 C 
HETATM   16  N1  UNL     1      18.015  -0.392  -2.594  1.00  0.00    -0.282 N 
ATOM     17  H1  UNL     1      18.014  -0.563  -3.600  1.00  0.00     0.192 HD
BRANCH  16  18
HETATM   18  O3  UNL     1      18.542   0.782  -2.143  1.00  0.00    -0.290 OA
ATOM     19  H3  UNL     1      19.443   0.883  -1.857  1.00  0.00     0.244 HD
ENDBRANCH  16  18
ENDBRANCH   6  15
ENDBRANCH   3   4
ENDBRANCH   1   3
BRANCH   1  20
HETATM   20  C9  UNL     1      11.061  -2.077  -3.485  1.00  0.00     0.119 C 
HETATM   21  C10 UNL     1      10.211  -2.117  -4.720  1.00  0.00     0.052 C 
HETATM   22  C11 UNL     1       8.767  -2.288  -4.272  1.00  0.00     0.215 C 
HETATM   23  C12 UNL     1       8.604  -3.732  -3.866  1.00  0.00     0.179 C 
HETATM   24  C13 UNL     1       9.798  -4.202  -3.072  1.00  0.00     0.178 C 
HETATM   25  C14 UNL     1      10.546  -3.044  -2.442  1.00  0.00     0.163 C 
BRANCH  22  26
HETATM   26  N3  UNL     1       7.919  -1.985  -5.402  1.00  0.00    -0.072 N 
ATOM     27  H33 UNL     1       7.917  -2.724  -6.105  1.00  0.00     0.274 HD
ATOM     28  H32 UNL     1       6.925  -2.016  -5.173  1.00  0.00     0.274 HD
ATOM     29  H31 UNL     1       8.211  -1.082  -5.777  1.00  0.00     0.274 HD
ENDBRANCH  22  26
BRANCH  23  30
HETATM   30  O6  UNL     1       7.401  -3.939  -3.182  1.00  0.00    -0.391 OA
ATOM     31  H6  UNL     1       7.389  -4.783  -2.747  1.00  0.00     0.210 HD
ENDBRANCH  23  30
BRANCH  24  32
HETATM   32  O7  UNL     1      10.648  -5.017  -3.823  1.00  0.00    -0.390 OA
ATOM     33  H7  UNL     1      11.564  -4.793  -3.702  1.00  0.00     0.210 HD
ENDBRANCH  24  32
BRANCH  25  34
HETATM   34  O8  UNL     1      11.587  -3.595  -1.698  1.00  0.00    -0.392 OA
ATOM     35  H8  UNL     1      11.276  -3.954  -0.876  1.00  0.00     0.210 HD
ENDBRANCH  25  34
ENDBRANCH   1  20
TORSDOF 11
ENDMDL
MODEL 5
REMARK VINA RESULT: -7.024004371      2.347      6.620
REMARK  11 active torsions:
REMARK  status: ('A' for Active; 'I' for Inactive)
REMARK    1  A    between atoms: C2_2  and  O2_4 
REMARK    2  A    between atoms: O2_4  and  C3_5 
REMARK    3  A    between atoms: C4_6  and  C5_7 
REMARK    4  A    between atoms: N1_8  and  O3_10 
REMARK    5  A    between atoms: C7_16  and  O4_17 
REMARK    6  A    between atoms: O4_17  and  C8_18 
REMARK    7  A    between atoms: C8_18  and  C9_20 
REMARK    8  A    between atoms: C11_22  and  N3_23 
REMARK    9  A    between atoms: C12_27  and  O6_28 
REMARK   10  A    between atoms: C13_30  and  O7_31 
REMARK   11  A    between atoms: C14_33  and  O8_34 
ROOT
HETATM    1  C8  UNL     1      12.396  -2.596  -4.870  1.00  0.00     0.266 C 
HETATM    2  O5  UNL     1      12.670  -3.788  -5.217  1.00  0.00    -0.265 OA
ENDROOT
BRANCH   1   3
HETATM    3  O4  UNL     1      13.423  -1.704  -4.745  1.00  0.00    -0.311 OA
BRANCH   3   4
HETATM    4  C7  UNL     1      14.707  -2.160  -4.293  1.00  0.00     0.189 C 
HETATM    5  C3  UNL     1      14.735  -2.343  -2.814  1.00  0.00     0.198 C 
HETATM    6  C4  UNL     1      15.433  -3.629  -2.573  1.00  0.00     0.258 C 
HETATM    7  N2  UNL     1      15.799  -4.169  -3.885  1.00  0.00    -0.061 N 
HETATM    8  C6  UNL     1      14.847  -3.576  -4.812  1.00  0.00     0.268 C 
ATOM      9  H22 UNL     1      16.775  -4.013  -4.139  1.00  0.00     0.278 HD
ATOM     10  H21 UNL     1      15.832  -5.187  -3.919  1.00  0.00     0.278 HD
BRANCH   5  11
HETATM   11  O2  UNL     1      15.257  -1.251  -2.110  1.00  0.00    -0.311 OA
BRANCH  11  12
HETATM   12  C2  UNL     1      16.297  -1.300  -1.213  1.00  0.00     0.255 C 
HETATM   13  C1  UNL     1      17.679  -1.117  -1.753  1.00  0.00     0.126 C 
HETATM   14  O1  UNL     1      16.042  -1.490  -0.012  1.00  0.00    -0.266 OA
ENDBRANCH  11  12
ENDBRANCH   5  11
BRANCH   6  15
HETATM   15  C5  UNL     1      14.550  -4.636  -1.939  1.00  0.00     0.122 C 
HETATM   16  N1  UNL     1      13.479  -4.256  -1.359  1.00  0.00    -0.282 N 
ATOM     17  H1  UNL     1      13.266  -3.258  -1.352  1.00  0.00     0.192 HD
BRANCH  16  18
HETATM   18  O3  UNL     1      12.601  -5.103  -0.748  1.00  0.00    -0.290 OA
ATOM     19  H3  UNL     1      12.427  -5.990  -1.042  1.00  0.00     0.244 HD
ENDBRANCH  16  18
ENDBRANCH   6  15
ENDBRANCH   3   4
ENDBRANCH   1   3
BRANCH   1  20
HETATM   20  C9  UNL     1      10.968  -2.260  -4.624  1.00  0.00     0.119 C 
HETATM   21  C10 UNL     1      10.045  -3.084  -5.471  1.00  0.00     0.052 C 
HETATM   22  C11 UNL     1       8.660  -3.001  -4.847  1.00  0.00     0.215 C 
HETATM   23  C12 UNL     1       8.675  -3.896  -3.633  1.00  0.00     0.179 C 
HETATM   24  C13 UNL     1       9.962  -3.732  -2.863  1.00  0.00     0.178 C 
HETATM   25  C14 UNL     1      10.628  -2.402  -3.157  1.00  0.00     0.163 C 
BRANCH  22  26
HETATM   26  N3  UNL     1       7.710  -3.490  -5.820  1.00  0.00    -0.072 N 
ATOM     27  H33 UNL     1       7.460  -2.789  -6.517  1.00  0.00     0.274 HD
ATOM     28  H32 UNL     1       8.113  -4.176  -6.459  1.00  0.00     0.274 HD
ATOM     29  H31 UNL     1       6.902  -3.850  -5.311  1.00  0.00     0.274 HD
ENDBRANCH  22  26
BRANCH  23  30
HETATM   30  O6  UNL     1       7.549  -3.688  -2.829  1.00  0.00    -0.391 OA
ATOM     31  H6  UNL     1       7.143  -4.509  -2.579  1.00  0.00     0.210 HD
ENDBRANCH  23  30
BRANCH  24  32
HETATM   32  O7  UNL     1      10.839  -4.802  -3.059  1.00  0.00    -0.390 OA
ATOM     33  H7  UNL     1      11.711  -4.514  -3.303  1.00  0.00     0.210 HD
ENDBRANCH  24  32
BRANCH  25  34
HETATM   34  O8  UNL     1      11.768  -2.338  -2.360  1.00  0.00    -0.392 OA
ATOM     35  H8  UNL     1      11.574  -1.980  -1.501  1.00  0.00     0.210 HD
ENDBRANCH  25  34
ENDBRANCH   1  20
TORSDOF 11
ENDMDL
