MODEL 1
REMARK VINA RESULT: -7.938561370      0.000      0.000
REMARK  7 active torsions:
REMARK  status: ('A' for Active; 'I' for Inactive)
REMARK    1  A    between atoms: N1_2  and  C2_3 
REMARK    2  A    between atoms: N1_2  and  C4_7 
REMARK    3  A    between atoms: C2_3  and  C3_4 
REMARK    4  A    between atoms: C6_15  and  S1_16 
REMARK    5  A    between atoms: S1_16  and  N6_19 
REMARK       I    between atoms: N6_19  and  C7_21 
REMARK       I    between atoms: C7_21  and  N7_23 
REMARK    6  A    between atoms: N7_23  and  N8_25 
REMARK    7  A    between atoms: C9_30  and  N9_31 
ROOT
HETATM    1  C4  UNL     1      11.103  -2.892  -4.640  1.00  0.00     0.157 A 
HETATM    2  N3  UNL     1      12.190  -2.420  -5.322  1.00  0.00    -0.322 N 
ATOM      3  H3  UNL     1      12.049  -2.019  -6.249  1.00  0.00     0.169 HD
HETATM    4  C5  UNL     1      13.437  -2.462  -4.820  1.00  0.00     0.159 A 
HETATM    5  N4  UNL     1      14.655  -2.089  -5.249  1.00  0.00    -0.282 N 
ATOM      6  H4  UNL     1      14.828  -1.653  -6.154  1.00  0.00     0.188 HD
HETATM    7  N5  UNL     1      15.587  -2.346  -4.380  1.00  0.00    -0.285 N 
ATOM      8  H5  UNL     1      16.583  -2.150  -4.491  1.00  0.00     0.188 HD
HETATM    9  C6  UNL     1      15.001  -2.924  -3.299  1.00  0.00     0.202 A 
HETATM   10  C8  UNL     1      13.644  -3.006  -3.560  1.00  0.00     0.164 A 
HETATM   11  O5  UNL     1      12.598  -3.452  -2.921  1.00  0.00    -0.284 OA
HETATM   12  C9  UNL     1      11.381  -3.415  -3.401  1.00  0.00     0.186 A 
ENDROOT
BRANCH   9  13
HETATM   13  S1  UNL     1      15.755  -3.459  -1.829  1.00  0.00     0.286 S 
HETATM   14  O2  UNL     1      14.995  -4.625  -1.219  1.00  0.00    -0.198 OA
HETATM   15  O3  UNL     1      17.155  -3.863  -2.095  1.00  0.00    -0.198 OA
BRANCH  13  16
HETATM   16  N6  UNL     1      15.730  -2.168  -0.660  1.00  0.00    -0.229 N 
HETATM   17  C7  UNL     1      16.489  -1.014  -0.940  1.00  0.00     0.348 C 
HETATM   18  O4  UNL     1      17.157  -0.909  -1.986  1.00  0.00    -0.245 OA
HETATM   19  N7  UNL     1      16.493   0.054  -0.016  1.00  0.00    -0.258 N 
ATOM     20  H7  UNL     1      15.948  -0.024   0.843  1.00  0.00     0.191 HD
ATOM     21  H6  UNL     1      15.185  -2.244   0.198  1.00  0.00     0.183 HD
BRANCH  19  22
HETATM   22  N8  UNL     1      17.242   1.231  -0.261  1.00  0.00    -0.341 N 
ATOM     23  H82 UNL     1      18.086   1.393   0.287  1.00  0.00     0.177 HD
ATOM     24  H81 UNL     1      16.948   1.904  -0.969  1.00  0.00     0.177 HD
ENDBRANCH  19  22
ENDBRANCH  13  16
ENDBRANCH   9  13
BRANCH  12  25
HETATM   25  N9  UNL     1      10.438  -3.899  -2.640  1.00  0.00    -0.377 N 
ATOM     26  H92 UNL     1       9.827  -3.220  -2.184  1.00  0.00     0.158 HD
ATOM     27  H91 UNL     1      10.321  -4.904  -2.511  1.00  0.00     0.158 HD
ENDBRANCH  12  25
BRANCH   1  28
HETATM   28  N1  UNL     1       9.805  -2.859  -5.211  1.00  0.00    -0.360 N 
HETATM   29  C1  UNL     1       9.507  -3.734  -6.337  1.00  0.00     0.152 C 
BRANCH  28  30
HETATM   30  C2  UNL     1       8.782  -1.969  -4.675  1.00  0.00     0.223 C 
BRANCH  30  31
HETATM   31  C3  UNL     1       7.602  -2.728  -4.261  1.00  0.00     0.248 C 
HETATM   32  N2  UNL     1       7.539  -3.645  -3.159  1.00  0.00    -0.061 NA
HETATM   33  O1  UNL     1       6.548  -2.591  -4.896  1.00  0.00    -0.275 OA
ENDBRANCH  30  31
ENDBRANCH  28  30
ENDBRANCH   1  28
TORSDOF 7
ENDMDL
MODEL 2
REMARK VINA RESULT: -7.788556009      1.356      2.102
REMARK  7 active torsions:
REMARK  status: ('A' for Active; 'I' for Inactive)
REMARK    1  A    between atoms: N1_2  and  C2_3 
REMARK    2  A    between atoms: N1_2  and  C4_7 
REMARK    3  A    between atoms: C2_3  and  C3_4 
REMARK    4  A    between atoms: C6_15  and  S1_16 
REMARK    5  A    between atoms: S1_16  and  N6_19 
REMARK       I    between atoms: N6_19  and  C7_21 
REMARK       I    between atoms: C7_21  and  N7_23 
REMARK    6  A    between atoms: N7_23  and  N8_25 
REMARK    7  A    between atoms: C9_30  and  N9_31 
ROOT
HETATM    1  C4  UNL     1      11.071  -2.968  -4.678  1.00  0.00     0.157 A 
HETATM    2  N3  UNL     1      11.169  -3.455  -3.405  1.00  0.00    -0.322 N 
ATOM      3  H3  UNL     1      10.321  -3.771  -2.935  1.00  0.00     0.169 HD
HETATM    4  C5  UNL     1      12.340  -3.535  -2.746  1.00  0.00     0.159 A 
HETATM    5  N4  UNL     1      12.726  -3.953  -1.529  1.00  0.00    -0.282 N 
ATOM      6  H4  UNL     1      12.086  -4.326  -0.828  1.00  0.00     0.188 HD
HETATM    7  N5  UNL     1      14.008  -3.828  -1.344  1.00  0.00    -0.285 N 
ATOM      8  H5  UNL     1      14.521  -4.081  -0.499  1.00  0.00     0.188 HD
HETATM    9  C6  UNL     1      14.541  -3.302  -2.477  1.00  0.00     0.202 A 
HETATM   10  C8  UNL     1      13.503  -3.109  -3.372  1.00  0.00     0.164 A 
HETATM   11  O5  UNL     1      13.393  -2.647  -4.587  1.00  0.00    -0.284 OA
HETATM   12  C9  UNL     1      12.259  -2.565  -5.236  1.00  0.00     0.186 A 
ENDROOT
BRANCH   9  13
HETATM   13  S1  UNL     1      16.206  -2.937  -2.809  1.00  0.00     0.286 S 
HETATM   14  O2  UNL     1      17.129  -3.936  -2.131  1.00  0.00    -0.198 OA
HETATM   15  O3  UNL     1      16.446  -2.951  -4.271  1.00  0.00    -0.198 OA
BRANCH  13  16
HETATM   16  N6  UNL     1      16.596  -1.366  -2.166  1.00  0.00    -0.229 N 
HETATM   17  C7  UNL     1      16.366  -1.143  -0.794  1.00  0.00     0.348 C 
HETATM   18  O4  UNL     1      15.902  -2.032  -0.056  1.00  0.00    -0.245 OA
HETATM   19  N7  UNL     1      16.671   0.119  -0.237  1.00  0.00    -0.258 N 
ATOM     20  H7  UNL     1      17.052   0.852  -0.835  1.00  0.00     0.191 HD
ATOM     21  H6  UNL     1      16.979  -0.633  -2.763  1.00  0.00     0.183 HD
BRANCH  19  22
HETATM   22  N8  UNL     1      16.455   0.383   1.138  1.00  0.00    -0.341 N 
ATOM     23  H82 UNL     1      16.207  -0.395   1.749  1.00  0.00     0.177 HD
ATOM     24  H81 UNL     1      16.545   1.327   1.513  1.00  0.00     0.177 HD
ENDBRANCH  19  22
ENDBRANCH  13  16
ENDBRANCH   9  13
BRANCH  12  25
HETATM   25  N9  UNL     1      12.314  -2.083  -6.447  1.00  0.00    -0.377 N 
ATOM     26  H92 UNL     1      12.307  -2.761  -7.209  1.00  0.00     0.158 HD
ATOM     27  H91 UNL     1      12.359  -1.078  -6.618  1.00  0.00     0.158 HD
ENDBRANCH  12  25
BRANCH   1  28
HETATM   28  N1  UNL     1       9.817  -2.869  -5.333  1.00  0.00    -0.360 N 
HETATM   29  C1  UNL     1       9.587  -3.658  -6.536  1.00  0.00     0.152 C 
BRANCH  28  30
HETATM   30  C2  UNL     1       8.771  -2.000  -4.807  1.00  0.00     0.223 C 
BRANCH  30  31
HETATM   31  C3  UNL     1       7.703  -2.788  -4.195  1.00  0.00     0.248 C 
HETATM   32  N2  UNL     1       7.826  -3.591  -3.011  1.00  0.00    -0.061 NA
HETATM   33  O1  UNL     1       6.581  -2.786  -4.717  1.00  0.00    -0.275 OA
ENDBRANCH  30  31
ENDBRANCH  28  30
ENDBRANCH   1  28
TORSDOF 7
ENDMDL
MODEL 3
REMARK VINA RESULT: -7.536783782      2.217      3.247
REMARK  7 active torsions:
REMARK  status: ('A' for Active; 'I' for Inactive)
REMARK    1  A    between atoms: N1_2  and  C2_3 
REMARK    2  A    between atoms: N1_2  and  C4_7 
REMARK    3  A    between atoms: C2_3  and  C3_4 
REMARK    4  A    between atoms: C6_15  and  S1_16 
REMARK    5  A    between atoms: S1_16  and  N6_19 
REMARK       I    between atoms: N6_19  and  C7_21 
REMARK       I    between atoms: C7_21  and  N7_23 
REMARK    6  A    between atoms: N7_23  and  N8_25 
REMARK    7  A    between atoms: C9_30  and  N9_31 
ROOT
HETATM    1  C4  UNL     1      12.744  -3.017  -3.243  1.00  0.00     0.157 A 
HETATM    2  N3  UNL     1      13.262  -2.672  -2.026  1.00  0.00    -0.322 N 
ATOM      3  H3  UNL     1      12.642  -2.662  -1.216  1.00  0.00     0.169 HD
HETATM    4  C5  UNL     1      14.556  -2.347  -1.852  1.00  0.00     0.159 A 
HETATM    5  N4  UNL     1      15.318  -1.977  -0.810  1.00  0.00    -0.282 N 
ATOM      6  H4  UNL     1      14.967  -1.878   0.143  1.00  0.00     0.188 HD
HETATM    7  N5  UNL     1      16.554  -1.759  -1.150  1.00  0.00    -0.285 N 
ATOM      8  H5  UNL     1      17.308  -1.470  -0.526  1.00  0.00     0.188 HD
HETATM    9  C6  UNL     1      16.663  -1.985  -2.486  1.00  0.00     0.202 A 
HETATM   10  C8  UNL     1      15.411  -2.356  -2.945  1.00  0.00     0.164 A 
HETATM   11  O5  UNL     1      14.902  -2.686  -4.100  1.00  0.00    -0.284 OA
HETATM   12  C9  UNL     1      13.646  -3.005  -4.279  1.00  0.00     0.186 A 
ENDROOT
BRANCH   9  13
HETATM   13  S1  UNL     1      18.082  -1.870  -3.480  1.00  0.00     0.286 S 
HETATM   14  O2  UNL     1      18.617  -3.248  -3.830  1.00  0.00    -0.198 OA
HETATM   15  O3  UNL     1      17.769  -1.127  -4.724  1.00  0.00    -0.198 OA
BRANCH  13  16
HETATM   16  N6  UNL     1      19.339  -1.042  -2.604  1.00  0.00    -0.229 N 
HETATM   17  C7  UNL     1      18.998   0.151  -1.936  1.00  0.00     0.348 C 
HETATM   18  O4  UNL     1      17.839   0.606  -1.963  1.00  0.00    -0.245 OA
HETATM   19  N7  UNL     1      19.992   0.850  -1.216  1.00  0.00    -0.258 N 
ATOM     20  H7  UNL     1      20.943   0.483  -1.189  1.00  0.00     0.191 HD
ATOM     21  H6  UNL     1      20.291  -1.408  -2.576  1.00  0.00     0.183 HD
BRANCH  19  22
HETATM   22  N8  UNL     1      19.689   2.052  -0.530  1.00  0.00    -0.341 N 
ATOM     23  H82 UNL     1      19.452   2.000   0.460  1.00  0.00     0.177 HD
ATOM     24  H81 UNL     1      19.706   2.951  -1.011  1.00  0.00     0.177 HD
ENDBRANCH  19  22
ENDBRANCH  13  16
ENDBRANCH   9  13
BRANCH  12  25
HETATM   25  N9  UNL     1      13.290  -3.316  -5.495  1.00  0.00    -0.377 N 
ATOM     26  H92 UNL     1      12.532  -3.993  -5.589  1.00  0.00     0.158 HD
ATOM     27  H91 UNL     1      13.747  -2.899  -6.306  1.00  0.00     0.158 HD
ENDBRANCH  12  25
BRANCH   1  28
HETATM   28  N1  UNL     1      11.369  -3.326  -3.396  1.00  0.00    -0.360 N 
HETATM   29  C1  UNL     1      10.886  -4.629  -2.957  1.00  0.00     0.152 C 
BRANCH  28  30
HETATM   30  C2  UNL     1      10.450  -2.354  -3.976  1.00  0.00     0.223 C 
BRANCH  30  31
HETATM   31  C3  UNL     1      10.085  -2.735  -5.339  1.00  0.00     0.248 C 
HETATM   32  N2  UNL     1       9.188  -3.796  -5.702  1.00  0.00    -0.061 NA
HETATM   33  O1  UNL     1      10.573  -2.109  -6.288  1.00  0.00    -0.275 OA
ENDBRANCH  30  31
ENDBRANCH  28  30
ENDBRANCH   1  28
TORSDOF 7
ENDMDL
MODEL 4
REMARK VINA RESULT: -7.532909813      1.658      1.782
REMARK  7 active torsions:
REMARK  status: ('A' for Active; 'I' for Inactive)
REMARK    1  A    between atoms: N1_2  and  C2_3 
REMARK    2  A    between atoms: N1_2  and  C4_7 
REMARK    3  A    between atoms: C2_3  and  C3_4 
REMARK    4  A    between atoms: C6_15  and  S1_16 
REMARK    5  A    between atoms: S1_16  and  N6_19 
REMARK       I    between atoms: N6_19  and  C7_21 
REMARK       I    between atoms: C7_21  and  N7_23 
REMARK    6  A    between atoms: N7_23  and  N8_25 
REMARK    7  A    between atoms: C9_30  and  N9_31 
ROOT
HETATM    1  C4  UNL     1      12.192  -2.885  -4.343  1.00  0.00     0.157 A 
HETATM    2  N3  UNL     1      12.970  -2.317  -5.313  1.00  0.00    -0.322 N 
ATOM      3  H3  UNL     1      12.521  -1.981  -6.165  1.00  0.00     0.169 HD
HETATM    4  C5  UNL     1      14.303  -2.181  -5.189  1.00  0.00     0.159 A 
HETATM    5  N4  UNL     1      15.289  -1.683  -5.952  1.00  0.00    -0.282 N 
ATOM      6  H4  UNL     1      15.141  -1.273  -6.874  1.00  0.00     0.188 HD
HETATM    7  N5  UNL     1      16.455  -1.781  -5.385  1.00  0.00    -0.285 N 
ATOM      8  H5  UNL     1      17.344  -1.470  -5.778  1.00  0.00     0.188 HD
HETATM    9  C6  UNL     1      16.279  -2.373  -4.174  1.00  0.00     0.202 A 
HETATM   10  C8  UNL     1      14.927  -2.634  -4.035  1.00  0.00     0.164 A 
HETATM   11  O5  UNL     1      14.172  -3.174  -3.118  1.00  0.00    -0.284 OA
HETATM   12  C9  UNL     1      12.875  -3.310  -3.230  1.00  0.00     0.186 A 
ENDROOT
BRANCH   9  13
HETATM   13  S1  UNL     1      17.481  -2.740  -2.976  1.00  0.00     0.286 S 
HETATM   14  O2  UNL     1      16.973  -3.784  -1.995  1.00  0.00    -0.198 OA
HETATM   15  O3  UNL     1      18.716  -3.232  -3.630  1.00  0.00    -0.198 OA
BRANCH  13  16
HETATM   16  N6  UNL     1      17.838  -1.306  -2.054  1.00  0.00    -0.229 N 
HETATM   17  C7  UNL     1      16.974  -0.977  -0.991  1.00  0.00     0.348 C 
HETATM   18  O4  UNL     1      15.986  -1.681  -0.710  1.00  0.00    -0.245 OA
HETATM   19  N7  UNL     1      17.232   0.179  -0.221  1.00  0.00    -0.258 N 
ATOM     20  H7  UNL     1      18.040   0.760  -0.444  1.00  0.00     0.191 HD
ATOM     21  H6  UNL     1      18.646  -0.725  -2.276  1.00  0.00     0.183 HD
BRANCH  19  22
HETATM   22  N8  UNL     1      16.388   0.543   0.857  1.00  0.00    -0.341 N 
ATOM     23  H82 UNL     1      16.327   1.528   1.115  1.00  0.00     0.177 HD
ATOM     24  H81 UNL     1      15.849  -0.158   1.365  1.00  0.00     0.177 HD
ENDBRANCH  19  22
ENDBRANCH  13  16
ENDBRANCH   9  13
BRANCH  12  25
HETATM   25  N9  UNL     1      12.258  -3.868  -2.224  1.00  0.00    -0.377 N 
ATOM     26  H92 UNL     1      12.075  -3.274  -1.415  1.00  0.00     0.158 HD
ATOM     27  H91 UNL     1      11.973  -4.847  -2.253  1.00  0.00     0.158 HD
ENDBRANCH  12  25
BRANCH   1  28
HETATM   28  N1  UNL     1      10.794  -3.039  -4.518  1.00  0.00    -0.360 N 
HETATM   29  C1  UNL     1      10.306  -3.815  -5.651  1.00  0.00     0.152 C 
BRANCH  28  30
HETATM   30  C2  UNL     1       9.857  -2.438  -3.576  1.00  0.00     0.223 C 
BRANCH  30  31
HETATM   31  C3  UNL     1       8.986  -3.457  -2.991  1.00  0.00     0.248 C 
HETATM   32  N2  UNL     1       7.577  -3.594  -3.231  1.00  0.00    -0.061 NA
HETATM   33  O1  UNL     1       9.474  -4.290  -2.216  1.00  0.00    -0.275 OA
ENDBRANCH  30  31
ENDBRANCH  28  30
ENDBRANCH   1  28
TORSDOF 7
ENDMDL
MODEL 5
REMARK VINA RESULT: -7.525763183      1.217      1.502
REMARK  7 active torsions:
REMARK  status: ('A' for Active; 'I' for Inactive)
REMARK    1  A    between atoms: N1_2  and  C2_3 
REMARK    2  A    between atoms: N1_2  and  C4_7 
REMARK    3  A    between atoms: C2_3  and  C3_4 
REMARK    4  A    between atoms: C6_15  and  S1_16 
REMARK    5  A    between atoms: S1_16  and  N6_19 
REMARK       I    between atoms: N6_19  and  C7_21 
REMARK       I    between atoms: C7_21  and  N7_23 
REMARK    6  A    between atoms: N7_23  and  N8_25 
REMARK    7  A    between atoms: C9_30  and  N9_31 
ROOT
HETATM    1  C4  UNL     1      10.713  -3.192  -3.716  1.00  0.00     0.157 A 
HETATM    2  N3  UNL     1      11.639  -2.677  -4.580  1.00  0.00    -0.322 N 
ATOM      3  H3  UNL     1      11.320  -2.310  -5.477  1.00  0.00     0.169 HD
HETATM    4  C5  UNL     1      12.954  -2.635  -4.296  1.00  0.00     0.159 A 
HETATM    5  N4  UNL     1      14.057  -2.204  -4.930  1.00  0.00    -0.282 N 
ATOM      6  H4  UNL     1      14.049  -1.783  -5.859  1.00  0.00     0.188 HD
HETATM    7  N5  UNL     1      15.136  -2.384  -4.228  1.00  0.00    -0.285 N 
ATOM      8  H5  UNL     1      16.085  -2.135  -4.509  1.00  0.00     0.188 HD
HETATM    9  C6  UNL     1      14.776  -2.965  -3.054  1.00  0.00     0.202 A 
HETATM   10  C8  UNL     1      13.402  -3.131  -3.080  1.00  0.00     0.164 A 
HETATM   11  O5  UNL     1      12.507  -3.619  -2.266  1.00  0.00    -0.284 OA
HETATM   12  C9  UNL     1      11.227  -3.664  -2.533  1.00  0.00     0.186 A 
ENDROOT
BRANCH   9  13
HETATM   13  S1  UNL     1      15.797  -3.416  -1.723  1.00  0.00     0.286 S 
HETATM   14  O2  UNL     1      15.237  -4.624  -0.991  1.00  0.00    -0.198 OA
HETATM   15  O3  UNL     1      17.162  -3.720  -2.213  1.00  0.00    -0.198 OA
BRANCH  13  16
HETATM   16  N6  UNL     1      15.865  -2.110  -0.574  1.00  0.00    -0.229 N 
HETATM   17  C7  UNL     1      16.542  -0.934  -0.954  1.00  0.00     0.348 C 
HETATM   18  O4  UNL     1      17.076  -0.821  -2.074  1.00  0.00    -0.245 OA
HETATM   19  N7  UNL     1      16.617   0.146  -0.048  1.00  0.00    -0.258 N 
ATOM     20  H7  UNL     1      16.181   0.062   0.870  1.00  0.00     0.191 HD
ATOM     21  H6  UNL     1      15.429  -2.193   0.344  1.00  0.00     0.183 HD
BRANCH  19  22
HETATM   22  N8  UNL     1      17.288   1.345  -0.394  1.00  0.00    -0.341 N 
ATOM     23  H82 UNL     1      18.198   1.280  -0.848  1.00  0.00     0.177 HD
ATOM     24  H81 UNL     1      16.874   2.257  -0.195  1.00  0.00     0.177 HD
ENDBRANCH  19  22
ENDBRANCH  13  16
ENDBRANCH   9  13
BRANCH  12  25
HETATM   25  N9  UNL     1      10.456  -4.180  -1.615  1.00  0.00    -0.377 N 
ATOM     26  H92 UNL     1       9.522  -4.465  -1.910  1.00  0.00     0.158 HD
ATOM     27  H91 UNL     1      10.777  -4.292  -0.653  1.00  0.00     0.158 HD
ENDBRANCH  12  25
BRANCH   1  28
HETATM   28  N1  UNL     1       9.339  -3.248  -4.059  1.00  0.00    -0.360 N 
HETATM   29  C1  UNL     1       8.357  -3.455  -3.003  1.00  0.00     0.152 C 
BRANCH  28  30
HETATM   30  C2  UNL     1       8.913  -3.091  -5.445  1.00  0.00     0.223 C 
BRANCH  30  31
HETATM   31  C3  UNL     1       8.786  -1.676  -5.791  1.00  0.00     0.248 C 
HETATM   32  N2  UNL     1       7.812  -0.767  -5.257  1.00  0.00    -0.061 NA
HETATM   33  O1  UNL     1       9.572  -1.187  -6.612  1.00  0.00    -0.275 OA
ENDBRANCH  30  31
ENDBRANCH  28  30
ENDBRANCH   1  28
TORSDOF 7
ENDMDL
