MODEL 1
REMARK VINA RESULT: -6.599459031      0.000      0.000
REMARK  12 active torsions:
REMARK  status: ('A' for Active; 'I' for Inactive)
REMARK    1  A    between atoms: O1_2  and  C2_3 
REMARK    2  A    between atoms: C2_3  and  C3_5 
REMARK    3  A    between atoms: C3_5  and  N1_6 
REMARK    4  A    between atoms: C3_5  and  C4_10 
REMARK    5  A    between atoms: N2_12  and  N3_14 
REMARK    6  A    between atoms: N3_14  and  C6_16 
REMARK    7  A    between atoms: C7_19  and  N5_20 
REMARK    8  A    between atoms: N5_20  and  N6_22 
REMARK    9  A    between atoms: C8_27  and  N8_28 
REMARK   10  A    between atoms: C11_31  and  C12_32 
REMARK   11  A    between atoms: C12_32  and  N9_33 
REMARK   12  A    between atoms: C12_32  and  O3_37 
ROOT
HETATM    1  C6  UNL     1      15.196  -2.429  -2.338  1.00  0.00     0.150 A 
HETATM    2  N4  UNL     1      15.254  -1.961  -1.068  1.00  0.00    -0.173 N 
ATOM      3  H4  UNL     1      14.458  -2.136  -0.454  1.00  0.00     0.186 HD
HETATM    4  C7  UNL     1      16.291  -1.287  -0.576  1.00  0.00     0.699 A 
HETATM    5  N7  UNL     1      17.336  -1.060  -1.388  1.00  0.00    -0.175 N 
ATOM      6  H7  UNL     1      18.143  -0.546  -1.035  1.00  0.00     0.186 HD
HETATM    7  C8  UNL     1      17.338  -1.504  -2.675  1.00  0.00     0.133 A 
HETATM    8  C11 UNL     1      16.253  -2.205  -3.175  1.00  0.00     0.087 A 
ENDROOT
BRANCH   1   9
HETATM    9  N3  UNL     1      14.178  -3.081  -2.795  1.00  0.00    -0.284 N 
ATOM     10  H3  UNL     1      14.088  -3.296  -3.788  1.00  0.00     0.188 HD
BRANCH   9  11
HETATM   11  N2  UNL     1      13.209  -3.479  -1.875  1.00  0.00    -0.305 N 
HETATM   12  C4  UNL     1      12.017  -3.721  -2.281  1.00  0.00     0.040 C 
HETATM   13  C5  UNL     1      11.005  -4.144  -1.285  1.00  0.00     0.067 C 
ATOM     14  H2  UNL     1      13.447  -3.577  -0.888  1.00  0.00     0.186 HD
BRANCH  12  15
HETATM   15  C3  UNL     1      11.694  -3.572  -3.719  1.00  0.00     0.328 C 
BRANCH  15  16
HETATM   16  C2  UNL     1      11.215  -2.200  -3.989  1.00  0.00     0.295 C 
HETATM   17  O2  UNL     1      11.617  -1.257  -3.261  1.00  0.00    -0.262 OA
BRANCH  16  18
HETATM   18  O1  UNL     1      10.339  -1.928  -5.021  1.00  0.00    -0.325 OA
HETATM   19  C1  UNL     1       8.972  -1.732  -4.710  1.00  0.00     0.213 C 
ENDBRANCH  16  18
ENDBRANCH  15  16
BRANCH  15  20
HETATM   20  N1  UNL     1      10.705  -4.549  -4.136  1.00  0.00    -0.061 N 
ATOM     21  H13 UNL     1      10.454  -5.183  -3.378  1.00  0.00     0.275 HD
ATOM     22  H12 UNL     1       9.791  -4.122  -4.286  1.00  0.00     0.275 HD
ATOM     23  H11 UNL     1      11.027  -5.055  -4.962  1.00  0.00     0.275 HD
ENDBRANCH  15  20
ENDBRANCH  12  15
ENDBRANCH   9  11
ENDBRANCH   1   9
BRANCH   8  24
HETATM   24  C12 UNL     1      16.210  -2.710  -4.580  1.00  0.00     0.358 C 
BRANCH  24  25
HETATM   25  N9  UNL     1      15.989  -4.160  -4.559  1.00  0.00    -0.049 N 
ATOM     26  H93 UNL     1      16.292  -4.611  -5.422  1.00  0.00     0.277 HD
ATOM     27  H92 UNL     1      16.620  -4.640  -3.918  1.00  0.00     0.277 HD
ATOM     28  H91 UNL     1      15.009  -4.343  -4.349  1.00  0.00     0.277 HD
ENDBRANCH  24  25
BRANCH  24  29
HETATM   29  O3  UNL     1      15.112  -2.158  -5.242  1.00  0.00    -0.366 OA
ATOM     30  H3  UNL     1      14.383  -2.077  -4.637  1.00  0.00     0.212 HD
ENDBRANCH  24  29
ENDBRANCH   8  24
BRANCH   4  31
HETATM   31  N5  UNL     1      16.245  -0.886   0.651  1.00  0.00    -0.138 N 
ATOM     32  H5  UNL     1      15.965  -1.566   1.358  1.00  0.00     0.205 HD
BRANCH  31  33
HETATM   33  N6  UNL     1      16.543   0.386   1.078  1.00  0.00    -0.331 N 
ATOM     34  H62 UNL     1      16.289   0.614   2.039  1.00  0.00     0.177 HD
ATOM     35  H61 UNL     1      16.994   1.104   0.510  1.00  0.00     0.177 HD
ENDBRANCH  31  33
ENDBRANCH   4  31
BRANCH   7  36
HETATM   36  N8  UNL     1      18.442  -1.258  -3.517  1.00  0.00    -0.375 N 
HETATM   37  C9  UNL     1      18.517  -0.063  -4.310  1.00  0.00     0.150 C 
HETATM   38  C10 UNL     1      19.516  -2.214  -3.586  1.00  0.00     0.150 C 
ENDBRANCH   7  36
TORSDOF 12
ENDMDL
MODEL 2
REMARK VINA RESULT: -6.503408996      2.541      4.193
REMARK  12 active torsions:
REMARK  status: ('A' for Active; 'I' for Inactive)
REMARK    1  A    between atoms: O1_2  and  C2_3 
REMARK    2  A    between atoms: C2_3  and  C3_5 
REMARK    3  A    between atoms: C3_5  and  N1_6 
REMARK    4  A    between atoms: C3_5  and  C4_10 
REMARK    5  A    between atoms: N2_12  and  N3_14 
REMARK    6  A    between atoms: N3_14  and  C6_16 
REMARK    7  A    between atoms: C7_19  and  N5_20 
REMARK    8  A    between atoms: N5_20  and  N6_22 
REMARK    9  A    between atoms: C8_27  and  N8_28 
REMARK   10  A    between atoms: C11_31  and  C12_32 
REMARK   11  A    between atoms: C12_32  and  N9_33 
REMARK   12  A    between atoms: C12_32  and  O3_37 
ROOT
HETATM    1  C6  UNL     1      13.932  -2.994  -4.793  1.00  0.00     0.150 A 
HETATM    2  N4  UNL     1      14.131  -2.414  -6.001  1.00  0.00    -0.173 N 
ATOM      3  H4  UNL     1      13.359  -2.411  -6.667  1.00  0.00     0.186 HD
HETATM    4  C7  UNL     1      15.280  -1.847  -6.367  1.00  0.00     0.699 A 
HETATM    5  N7  UNL     1      16.293  -1.855  -5.486  1.00  0.00    -0.175 N 
ATOM      6  H7  UNL     1      17.183  -1.428  -5.743  1.00  0.00     0.186 HD
HETATM    7  C8  UNL     1      16.154  -2.422  -4.256  1.00  0.00     0.133 A 
HETATM    8  C11 UNL     1      14.954  -3.008  -3.887  1.00  0.00     0.087 A 
ENDROOT
BRANCH   1   9
HETATM    9  N3  UNL     1      12.808  -3.537  -4.459  1.00  0.00    -0.284 N 
ATOM     10  H3  UNL     1      12.609  -3.795  -3.492  1.00  0.00     0.188 HD
BRANCH   9  11
HETATM   11  N2  UNL     1      11.878  -3.758  -5.474  1.00  0.00    -0.305 N 
HETATM   12  C4  UNL     1      10.681  -3.320  -5.338  1.00  0.00     0.040 C 
HETATM   13  C5  UNL     1       9.711  -3.565  -6.430  1.00  0.00     0.067 C 
ATOM     14  H2  UNL     1      12.148  -4.265  -6.317  1.00  0.00     0.186 HD
BRANCH  12  15
HETATM   15  C3  UNL     1      10.310  -2.586  -4.105  1.00  0.00     0.328 C 
BRANCH  15  16
HETATM   16  C2  UNL     1       9.852  -3.537  -3.071  1.00  0.00     0.295 C 
HETATM   17  O2  UNL     1      10.654  -4.403  -2.637  1.00  0.00    -0.262 OA
BRANCH  16  18
HETATM   18  O1  UNL     1       8.565  -3.500  -2.570  1.00  0.00    -0.325 OA
HETATM   19  C1  UNL     1       7.497  -3.843  -3.432  1.00  0.00     0.213 C 
ENDBRANCH  16  18
ENDBRANCH  15  16
BRANCH  15  20
HETATM   20  N1  UNL     1       9.286  -1.594  -4.375  1.00  0.00    -0.061 N 
ATOM     21  H13 UNL     1       8.935  -1.661  -5.330  1.00  0.00     0.275 HD
ATOM     22  H12 UNL     1       8.419  -1.799  -3.879  1.00  0.00     0.275 HD
ATOM     23  H11 UNL     1       9.631  -0.657  -4.164  1.00  0.00     0.275 HD
ENDBRANCH  15  20
ENDBRANCH  12  15
ENDBRANCH   9  11
ENDBRANCH   1   9
BRANCH   8  24
HETATM   24  C12 UNL     1      14.757  -3.643  -2.550  1.00  0.00     0.358 C 
BRANCH  24  25
HETATM   25  N9  UNL     1      13.585  -3.041  -1.904  1.00  0.00    -0.049 N 
ATOM     26  H93 UNL     1      13.197  -3.634  -1.171  1.00  0.00     0.277 HD
ATOM     27  H92 UNL     1      13.830  -2.239  -1.324  1.00  0.00     0.277 HD
ATOM     28  H91 UNL     1      12.896  -2.807  -2.619  1.00  0.00     0.277 HD
ENDBRANCH  24  25
BRANCH  24  29
HETATM   29  O3  UNL     1      14.458  -4.997  -2.715  1.00  0.00    -0.366 OA
ATOM     30  H3  UNL     1      13.995  -5.316  -1.949  1.00  0.00     0.212 HD
ENDBRANCH  24  29
ENDBRANCH   8  24
BRANCH   4  31
HETATM   31  N5  UNL     1      15.365  -1.322  -7.543  1.00  0.00    -0.138 N 
ATOM     32  H5  UNL     1      15.072  -0.350  -7.647  1.00  0.00     0.205 HD
BRANCH  31  33
HETATM   33  N6  UNL     1      15.820  -1.970  -8.667  1.00  0.00    -0.331 N 
ATOM     34  H62 UNL     1      16.077  -2.950  -8.551  1.00  0.00     0.177 HD
ATOM     35  H61 UNL     1      15.915  -1.547  -9.590  1.00  0.00     0.177 HD
ENDBRANCH  31  33
ENDBRANCH   4  31
BRANCH   7  36
HETATM   36  N8  UNL     1      17.227  -2.422  -3.341  1.00  0.00    -0.375 N 
HETATM   37  C9  UNL     1      17.332  -1.416  -2.322  1.00  0.00     0.150 C 
HETATM   38  C10 UNL     1      18.237  -3.445  -3.423  1.00  0.00     0.150 C 
ENDBRANCH   7  36
TORSDOF 12
ENDMDL
MODEL 3
REMARK VINA RESULT: -6.292567024      1.325      1.431
REMARK  12 active torsions:
REMARK  status: ('A' for Active; 'I' for Inactive)
REMARK    1  A    between atoms: O1_2  and  C2_3 
REMARK    2  A    between atoms: C2_3  and  C3_5 
REMARK    3  A    between atoms: C3_5  and  N1_6 
REMARK    4  A    between atoms: C3_5  and  C4_10 
REMARK    5  A    between atoms: N2_12  and  N3_14 
REMARK    6  A    between atoms: N3_14  and  C6_16 
REMARK    7  A    between atoms: C7_19  and  N5_20 
REMARK    8  A    between atoms: N5_20  and  N6_22 
REMARK    9  A    between atoms: C8_27  and  N8_28 
REMARK   10  A    between atoms: C11_31  and  C12_32 
REMARK   11  A    between atoms: C12_32  and  N9_33 
REMARK   12  A    between atoms: C12_32  and  O3_37 
ROOT
HETATM    1  C6  UNL     1      16.311  -2.538  -1.990  1.00  0.00     0.150 A 
HETATM    2  N4  UNL     1      15.972  -2.033  -0.780  1.00  0.00    -0.173 N 
ATOM      3  H4  UNL     1      15.227  -2.494  -0.257  1.00  0.00     0.186 HD
HETATM    4  C7  UNL     1      16.557  -0.968  -0.234  1.00  0.00     0.699 A 
HETATM    5  N7  UNL     1      17.536  -0.365  -0.927  1.00  0.00    -0.175 N 
ATOM      6  H7  UNL     1      18.000   0.453  -0.531  1.00  0.00     0.186 HD
HETATM    7  C8  UNL     1      17.922  -0.825  -2.149  1.00  0.00     0.133 A 
HETATM    8  C11 UNL     1      17.307  -1.935  -2.705  1.00  0.00     0.087 A 
ENDROOT
BRANCH   1   9
HETATM    9  N3  UNL     1      15.730  -3.574  -2.500  1.00  0.00    -0.284 N 
ATOM     10  H3  UNL     1      16.130  -4.068  -3.298  1.00  0.00     0.188 HD
BRANCH   9  11
HETATM   11  N2  UNL     1      14.534  -3.989  -1.915  1.00  0.00    -0.305 N 
HETATM   12  C4  UNL     1      13.422  -3.695  -2.480  1.00  0.00     0.040 C 
HETATM   13  C5  UNL     1      12.164  -4.148  -1.842  1.00  0.00     0.067 C 
ATOM     14  H2  UNL     1      14.545  -4.521  -1.045  1.00  0.00     0.186 HD
BRANCH  12  15
HETATM   15  C3  UNL     1      13.429  -2.921  -3.744  1.00  0.00     0.328 C 
BRANCH  15  16
HETATM   16  C2  UNL     1      12.185  -2.132  -3.859  1.00  0.00     0.295 C 
HETATM   17  O2  UNL     1      11.966  -1.209  -3.034  1.00  0.00    -0.262 OA
BRANCH  16  18
HETATM   18  O1  UNL     1      11.256  -2.384  -4.850  1.00  0.00    -0.325 OA
HETATM   19  C1  UNL     1       9.885  -2.395  -4.500  1.00  0.00     0.213 C 
ENDBRANCH  16  18
ENDBRANCH  15  16
BRANCH  15  20
HETATM   20  N1  UNL     1      13.588  -3.794  -4.892  1.00  0.00    -0.061 N 
ATOM     21  H13 UNL     1      13.794  -4.753  -4.613  1.00  0.00     0.275 HD
ATOM     22  H12 UNL     1      12.701  -3.960  -5.367  1.00  0.00     0.275 HD
ATOM     23  H11 UNL     1      14.295  -3.425  -5.528  1.00  0.00     0.275 HD
ENDBRANCH  15  20
ENDBRANCH  12  15
ENDBRANCH   9  11
ENDBRANCH   1   9
BRANCH   8  24
HETATM   24  C12 UNL     1      17.697  -2.475  -4.042  1.00  0.00     0.358 C 
BRANCH  24  25
HETATM   25  N9  UNL     1      18.034  -3.895  -3.903  1.00  0.00    -0.049 N 
ATOM     26  H93 UNL     1      18.936  -4.038  -3.448  1.00  0.00     0.277 HD
ATOM     27  H92 UNL     1      17.451  -4.368  -3.213  1.00  0.00     0.277 HD
ATOM     28  H91 UNL     1      17.988  -4.339  -4.820  1.00  0.00     0.277 HD
ENDBRANCH  24  25
BRANCH  24  29
HETATM   29  O3  UNL     1      16.601  -2.417  -4.906  1.00  0.00    -0.366 OA
ATOM     30  H3  UNL     1      16.906  -2.432  -5.806  1.00  0.00     0.212 HD
ENDBRANCH  24  29
ENDBRANCH   8  24
BRANCH   4  31
HETATM   31  N5  UNL     1      16.157  -0.567   0.927  1.00  0.00    -0.138 N 
ATOM     32  H5  UNL     1      15.508  -1.169   1.434  1.00  0.00     0.205 HD
BRANCH  31  33
HETATM   33  N6  UNL     1      16.538   0.607   1.531  1.00  0.00    -0.331 N 
ATOM     34  H62 UNL     1      17.511   0.886   1.406  1.00  0.00     0.177 HD
ATOM     35  H61 UNL     1      15.926   1.207   2.085  1.00  0.00     0.177 HD
ENDBRANCH  31  33
ENDBRANCH   4  31
BRANCH   7  36
HETATM   36  N8  UNL     1      18.953  -0.182  -2.864  1.00  0.00    -0.375 N 
HETATM   37  C9  UNL     1      18.701   0.425  -4.141  1.00  0.00     0.150 C 
HETATM   38  C10 UNL     1      20.281  -0.127  -2.312  1.00  0.00     0.150 C 
ENDBRANCH   7  36
TORSDOF 12
ENDMDL
MODEL 4
REMARK VINA RESULT: -6.221474109      2.358      4.321
REMARK  12 active torsions:
REMARK  status: ('A' for Active; 'I' for Inactive)
REMARK    1  A    between atoms: O1_2  and  C2_3 
REMARK    2  A    between atoms: C2_3  and  C3_5 
REMARK    3  A    between atoms: C3_5  and  N1_6 
REMARK    4  A    between atoms: C3_5  and  C4_10 
REMARK    5  A    between atoms: N2_12  and  N3_14 
REMARK    6  A    between atoms: N3_14  and  C6_16 
REMARK    7  A    between atoms: C7_19  and  N5_20 
REMARK    8  A    between atoms: N5_20  and  N6_22 
REMARK    9  A    between atoms: C8_27  and  N8_28 
REMARK   10  A    between atoms: C11_31  and  C12_32 
REMARK   11  A    between atoms: C12_32  and  N9_33 
REMARK   12  A    between atoms: C12_32  and  O3_37 
ROOT
HETATM    1  C6  UNL     1      15.339  -2.855  -4.802  1.00  0.00     0.150 A 
HETATM    2  N4  UNL     1      15.349  -2.628  -6.137  1.00  0.00    -0.173 N 
ATOM      3  H4  UNL     1      14.560  -2.964  -6.689  1.00  0.00     0.186 HD
HETATM    4  C7  UNL     1      16.333  -1.991  -6.771  1.00  0.00     0.699 A 
HETATM    5  N7  UNL     1      17.370  -1.552  -6.040  1.00  0.00    -0.175 N 
ATOM      6  H7  UNL     1      18.136  -1.061  -6.502  1.00  0.00     0.186 HD
HETATM    7  C8  UNL     1      17.418  -1.749  -4.694  1.00  0.00     0.133 A 
HETATM    8  C11 UNL     1      16.388  -2.413  -4.047  1.00  0.00     0.087 A 
ENDROOT
BRANCH   1   9
HETATM    9  N3  UNL     1      14.373  -3.475  -4.208  1.00  0.00    -0.284 N 
ATOM     10  H3  UNL     1      14.487  -3.862  -3.271  1.00  0.00     0.188 HD
BRANCH   9  11
HETATM   11  N2  UNL     1      13.169  -3.595  -4.900  1.00  0.00    -0.305 N 
HETATM   12  C4  UNL     1      12.063  -3.439  -4.272  1.00  0.00     0.040 C 
HETATM   13  C5  UNL     1      10.796  -3.569  -5.028  1.00  0.00     0.067 C 
ATOM     14  H2  UNL     1      13.168  -3.804  -5.899  1.00  0.00     0.186 HD
BRANCH  12  15
HETATM   15  C3  UNL     1      12.086  -3.135  -2.821  1.00  0.00     0.328 C 
BRANCH  15  16
HETATM   16  C2  UNL     1      11.445  -4.231  -2.066  1.00  0.00     0.295 C 
HETATM   17  O2  UNL     1      10.215  -4.161  -1.812  1.00  0.00    -0.262 OA
BRANCH  16  18
HETATM   18  O1  UNL     1      12.161  -5.329  -1.632  1.00  0.00    -0.325 OA
HETATM   19  C1  UNL     1      13.450  -5.119  -1.087  1.00  0.00     0.213 C 
ENDBRANCH  16  18
ENDBRANCH  15  16
BRANCH  15  20
HETATM   20  N1  UNL     1      11.432  -1.870  -2.541  1.00  0.00    -0.061 N 
ATOM     21  H13 UNL     1      10.416  -1.956  -2.564  1.00  0.00     0.275 HD
ATOM     22  H12 UNL     1      11.541  -1.595  -1.565  1.00  0.00     0.275 HD
ATOM     23  H11 UNL     1      11.765  -1.146  -3.178  1.00  0.00     0.275 HD
ENDBRANCH  15  20
ENDBRANCH  12  15
ENDBRANCH   9  11
ENDBRANCH   1   9
BRANCH   8  24
HETATM   24  C12 UNL     1      16.398  -2.652  -2.573  1.00  0.00     0.358 C 
BRANCH  24  25
HETATM   25  N9  UNL     1      15.198  -2.050  -1.983  1.00  0.00    -0.049 N 
ATOM     26  H93 UNL     1      14.923  -1.189  -2.455  1.00  0.00     0.277 HD
ATOM     27  H92 UNL     1      14.356  -2.593  -2.175  1.00  0.00     0.277 HD
ATOM     28  H91 UNL     1      15.352  -1.912  -0.984  1.00  0.00     0.277 HD
ENDBRANCH  24  25
BRANCH  24  29
HETATM   29  O3  UNL     1      16.310  -4.023  -2.321  1.00  0.00    -0.366 OA
ATOM     30  H3  UNL     1      16.920  -4.261  -1.633  1.00  0.00     0.212 HD
ENDBRANCH  24  29
ENDBRANCH   8  24
BRANCH   4  31
HETATM   31  N5  UNL     1      16.244  -1.828  -8.049  1.00  0.00    -0.138 N 
ATOM     32  H5  UNL     1      15.738  -1.008  -8.384  1.00  0.00     0.205 HD
BRANCH  31  33
HETATM   33  N6  UNL     1      16.779  -2.673  -8.992  1.00  0.00    -0.331 N 
ATOM     34  H62 UNL     1      16.122  -3.086  -9.654  1.00  0.00     0.177 HD
ATOM     35  H61 UNL     1      17.767  -2.909  -9.074  1.00  0.00     0.177 HD
ENDBRANCH  31  33
ENDBRANCH   4  31
BRANCH   7  36
HETATM   36  N8  UNL     1      18.514  -1.282  -3.939  1.00  0.00    -0.375 N 
HETATM   37  C9  UNL     1      18.601   0.093  -3.534  1.00  0.00     0.150 C 
HETATM   38  C10 UNL     1      19.564  -2.191  -3.565  1.00  0.00     0.150 C 
ENDBRANCH   7  36
TORSDOF 12
ENDMDL
MODEL 5
REMARK VINA RESULT: -6.167018988      2.777      6.258
REMARK  12 active torsions:
REMARK  status: ('A' for Active; 'I' for Inactive)
REMARK    1  A    between atoms: O1_2  and  C2_3 
REMARK    2  A    between atoms: C2_3  and  C3_5 
REMARK    3  A    between atoms: C3_5  and  N1_6 
REMARK    4  A    between atoms: C3_5  and  C4_10 
REMARK    5  A    between atoms: N2_12  and  N3_14 
REMARK    6  A    between atoms: N3_14  and  C6_16 
REMARK    7  A    between atoms: C7_19  and  N5_20 
REMARK    8  A    between atoms: N5_20  and  N6_22 
REMARK    9  A    between atoms: C8_27  and  N8_28 
REMARK   10  A    between atoms: C11_31  and  C12_32 
REMARK   11  A    between atoms: C12_32  and  N9_33 
REMARK   12  A    between atoms: C12_32  and  O3_37 
ROOT
HETATM    1  C6  UNL     1      17.559  -1.780  -2.815  1.00  0.00     0.150 A 
HETATM    2  N4  UNL     1      17.752  -0.952  -1.760  1.00  0.00    -0.173 N 
ATOM      3  H4  UNL     1      18.621  -0.419  -1.719  1.00  0.00     0.186 HD
HETATM    4  C7  UNL     1      16.870  -0.794  -0.775  1.00  0.00     0.699 A 
HETATM    5  N7  UNL     1      15.728  -1.498  -0.835  1.00  0.00    -0.175 N 
ATOM      6  H7  UNL     1      15.036  -1.396  -0.092  1.00  0.00     0.186 HD
HETATM    7  C8  UNL     1      15.476  -2.348  -1.869  1.00  0.00     0.133 A 
HETATM    8  C11 UNL     1      16.402  -2.502  -2.888  1.00  0.00     0.087 A 
ENDROOT
BRANCH   1   9
HETATM    9  N3  UNL     1      18.429  -1.917  -3.761  1.00  0.00    -0.284 N 
ATOM     10  H3  UNL     1      18.369  -2.683  -4.431  1.00  0.00     0.188 HD
BRANCH   9  11
HETATM   11  N2  UNL     1      19.455  -0.975  -3.828  1.00  0.00    -0.305 N 
HETATM   12  C4  UNL     1      19.456  -0.111  -4.775  1.00  0.00     0.040 C 
HETATM   13  C5  UNL     1      20.555   0.881  -4.825  1.00  0.00     0.067 C 
ATOM     14  H2  UNL     1      20.197  -0.972  -3.128  1.00  0.00     0.186 HD
BRANCH  12  15
HETATM   15  C3  UNL     1      18.368  -0.133  -5.781  1.00  0.00     0.328 C 
BRANCH  15  16
HETATM   16  C2  UNL     1      18.679  -1.116  -6.839  1.00  0.00     0.295 C 
HETATM   17  O2  UNL     1      18.317  -2.311  -6.690  1.00  0.00    -0.262 OA
BRANCH  16  18
HETATM   18  O1  UNL     1      19.357  -0.756  -7.988  1.00  0.00    -0.325 OA
HETATM   19  C1  UNL     1      20.695  -1.187  -8.143  1.00  0.00     0.213 C 
ENDBRANCH  16  18
ENDBRANCH  15  16
BRANCH  15  20
HETATM   20  N1  UNL     1      18.160   1.185  -6.354  1.00  0.00    -0.061 N 
ATOM     21  H13 UNL     1      18.601   1.915  -5.795  1.00  0.00     0.275 HD
ATOM     22  H12 UNL     1      18.689   1.311  -7.216  1.00  0.00     0.275 HD
ATOM     23  H11 UNL     1      17.164   1.362  -6.491  1.00  0.00     0.275 HD
ENDBRANCH  15  20
ENDBRANCH  12  15
ENDBRANCH   9  11
ENDBRANCH   1   9
BRANCH   8  24
HETATM   24  C12 UNL     1      16.169  -3.422  -4.042  1.00  0.00     0.358 C 
BRANCH  24  25
HETATM   25  N9  UNL     1      15.702  -2.638  -5.190  1.00  0.00    -0.049 N 
ATOM     26  H93 UNL     1      15.397  -1.703  -4.924  1.00  0.00     0.277 HD
ATOM     27  H92 UNL     1      16.464  -2.369  -5.812  1.00  0.00     0.277 HD
ATOM     28  H91 UNL     1      14.973  -3.161  -5.675  1.00  0.00     0.277 HD
ENDBRANCH  24  25
BRANCH  24  29
HETATM   29  O3  UNL     1      17.380  -4.000  -4.430  1.00  0.00    -0.366 OA
ATOM     30  H3  UNL     1      17.209  -4.776  -4.951  1.00  0.00     0.212 HD
ENDBRANCH  24  29
ENDBRANCH   8  24
BRANCH   4  31
HETATM   31  N5  UNL     1      17.152   0.022   0.185  1.00  0.00    -0.138 N 
ATOM     32  H5  UNL     1      17.977   0.611   0.075  1.00  0.00     0.205 HD
BRANCH  31  33
HETATM   33  N6  UNL     1      16.426   0.158   1.345  1.00  0.00    -0.331 N 
ATOM     34  H62 UNL     1      16.912   0.578   2.137  1.00  0.00     0.177 HD
ATOM     35  H61 UNL     1      15.453  -0.126   1.464  1.00  0.00     0.177 HD
ENDBRANCH  31  33
ENDBRANCH   4  31
BRANCH   7  36
HETATM   36  N8  UNL     1      14.273  -3.080  -1.918  1.00  0.00    -0.375 N 
HETATM   37  C9  UNL     1      14.180  -4.392  -1.341  1.00  0.00     0.150 C 
HETATM   38  C10 UNL     1      13.114  -2.511  -2.554  1.00  0.00     0.150 C 
ENDBRANCH   7  36
TORSDOF 12
ENDMDL
