MODEL 1
REMARK VINA RESULT: -7.948173515      0.000      0.000
REMARK  9 active torsions:
REMARK  status: ('A' for Active; 'I' for Inactive)
REMARK    1  A    between atoms: C2_2  and  O1_3 
REMARK    2  A    between atoms: O1_3  and  C3_4 
REMARK    3  A    between atoms: C3_4  and  N1_5 
REMARK    4  A    between atoms: C5_9  and  C6_10 
REMARK    5  A    between atoms: C7_13  and  N4_14 
REMARK    6  A    between atoms: C8_19  and  N6_20 
REMARK    7  A    between atoms: C9_22  and  O2_23 
REMARK    8  A    between atoms: N7_25  and  O3_26 
REMARK    9  A    between atoms: N9_33  and  N10_34 
ROOT
HETATM    1  N1  UNL     1      18.392  -0.538  -2.649  1.00  0.00    -0.226 N 
HETATM    2  C4  UNL     1      17.278  -1.240  -2.417  1.00  0.00     0.161 A 
HETATM    3  N2  UNL     1      16.376  -2.143  -2.883  1.00  0.00    -0.322 N 
ATOM      4  H2  UNL     1      16.422  -2.581  -3.803  1.00  0.00     0.169 HD
HETATM    5  C5  UNL     1      15.432  -2.378  -1.987  1.00  0.00     0.156 A 
HETATM    6  N8  UNL     1      15.724  -1.615  -0.922  1.00  0.00    -0.332 N 
ATOM      7  H8  UNL     1      15.176  -1.578  -0.063  1.00  0.00     0.168 HD
HETATM    8  C10 UNL     1      16.857  -0.900  -1.156  1.00  0.00     0.152 A 
HETATM    9  C11 UNL     1      17.758   0.014  -0.670  1.00  0.00     0.312 A 
HETATM   10  O4  UNL     1      17.683   0.543   0.468  1.00  0.00    -0.262 OA
HETATM   11  N9  UNL     1      18.703   0.234  -1.596  1.00  0.00    -0.156 N 
ENDROOT
BRANCH   5  12
HETATM   12  C6  UNL     1      14.271  -3.267  -2.054  1.00  0.00     0.210 A 
HETATM   13  N3  UNL     1      14.349  -4.563  -1.719  1.00  0.00    -0.170 N 
HETATM   14  C7  UNL     1      13.298  -5.401  -1.771  1.00  0.00     0.692 A 
ATOM     15  H3  UNL     1      15.248  -4.932  -1.409  1.00  0.00     0.186 HD
HETATM   16  N5  UNL     1      12.136  -4.885  -2.181  1.00  0.00    -0.020 N 
HETATM   17  C8  UNL     1      12.003  -3.595  -2.529  1.00  0.00     0.726 A 
ATOM     18  H5  UNL     1      11.319  -5.494  -2.233  1.00  0.00     0.203 HD
HETATM   19  N7  UNL     1      13.081  -2.798  -2.459  1.00  0.00    -0.030 N 
BRANCH  14  20
HETATM   20  N4  UNL     1      13.391  -6.643  -1.445  1.00  0.00    -0.234 N 
ATOM     21  H42 UNL     1      14.272  -7.031  -1.108  1.00  0.00     0.174 HD
ATOM     22  H41 UNL     1      12.600  -7.283  -1.509  1.00  0.00     0.174 HD
ENDBRANCH  14  20
BRANCH  17  23
HETATM   23  N6  UNL     1      10.782  -3.018  -2.969  1.00  0.00    -0.179 N 
HETATM   24  C9  UNL     1      10.193  -3.380  -4.047  1.00  0.00     0.240 C 
ATOM     25  H6  UNL     1      10.356  -2.284  -2.402  1.00  0.00     0.185 HD
BRANCH  24  26
HETATM   26  O2  UNL     1      10.666  -4.357  -4.895  1.00  0.00    -0.356 OA
ATOM     27  H2  UNL     1      10.809  -5.260  -4.638  1.00  0.00     0.218 HD
ENDBRANCH  24  26
ENDBRANCH  17  23
BRANCH  19  28
HETATM   28  O3  UNL     1      12.998  -1.467  -2.805  1.00  0.00    -0.268 OA
ATOM     29  H3  UNL     1      12.416  -0.912  -2.299  1.00  0.00     0.246 HD
ENDBRANCH  19  28
ENDBRANCH   5  12
BRANCH   1  30
HETATM   30  C3  UNL     1      19.169  -0.590  -3.862  1.00  0.00     0.320 C 
BRANCH  30  31
HETATM   31  O1  UNL     1      19.029  -1.835  -4.508  1.00  0.00    -0.371 OA
BRANCH  31  32
HETATM   32  C2  UNL     1      18.594  -1.568  -5.798  1.00  0.00     0.165 C 
HETATM   33  C1  UNL     1      17.645  -2.626  -6.312  1.00  0.00     0.033 C 
ENDBRANCH  31  32
ENDBRANCH  30  31
ENDBRANCH   1  30
BRANCH  11  34
HETATM   34  N10 UNL     1      19.802   1.093  -1.499  1.00  0.00    -0.321 N 
ATOM     35 2H10 UNL     1      20.139   1.749  -2.204  1.00  0.00     0.179 HD
ATOM     36 1H10 UNL     1      20.426   1.183  -0.698  1.00  0.00     0.179 HD
ENDBRANCH  11  34
TORSDOF 9
ENDMDL
MODEL 2
REMARK VINA RESULT: -7.813919092      1.087      3.083
REMARK  9 active torsions:
REMARK  status: ('A' for Active; 'I' for Inactive)
REMARK    1  A    between atoms: C2_2  and  O1_3 
REMARK    2  A    between atoms: O1_3  and  C3_4 
REMARK    3  A    between atoms: C3_4  and  N1_5 
REMARK    4  A    between atoms: C5_9  and  C6_10 
REMARK    5  A    between atoms: C7_13  and  N4_14 
REMARK    6  A    between atoms: C8_19  and  N6_20 
REMARK    7  A    between atoms: C9_22  and  O2_23 
REMARK    8  A    between atoms: N7_25  and  O3_26 
REMARK    9  A    between atoms: N9_33  and  N10_34 
ROOT
HETATM    1  N1  UNL     1      18.552   0.002  -2.091  1.00  0.00    -0.226 N 
HETATM    2  C4  UNL     1      17.535  -0.851  -2.251  1.00  0.00     0.161 A 
HETATM    3  N2  UNL     1      16.357  -1.330  -1.773  1.00  0.00    -0.322 N 
ATOM      4  H2  UNL     1      15.903  -0.999  -0.922  1.00  0.00     0.169 HD
HETATM    5  C5  UNL     1      15.876  -2.280  -2.557  1.00  0.00     0.156 A 
HETATM    6  N8  UNL     1      16.757  -2.422  -3.560  1.00  0.00    -0.332 N 
ATOM      7  H8  UNL     1      16.663  -3.084  -4.331  1.00  0.00     0.168 HD
HETATM    8  C10 UNL     1      17.793  -1.555  -3.400  1.00  0.00     0.152 A 
HETATM    9  C11 UNL     1      18.982  -1.084  -3.897  1.00  0.00     0.312 A 
HETATM   10  O4  UNL     1      19.525  -1.506  -4.948  1.00  0.00    -0.262 OA
HETATM   11  N9  UNL     1      19.447  -0.124  -3.084  1.00  0.00    -0.156 N 
ENDROOT
BRANCH   5  12
HETATM   12  C6  UNL     1      14.649  -3.070  -2.438  1.00  0.00     0.210 A 
HETATM   13  N3  UNL     1      14.643  -4.293  -1.888  1.00  0.00    -0.170 N 
HETATM   14  C7  UNL     1      13.530  -5.038  -1.766  1.00  0.00     0.692 A 
ATOM     15  H3  UNL     1      15.524  -4.676  -1.546  1.00  0.00     0.186 HD
HETATM   16  N5  UNL     1      12.394  -4.506  -2.225  1.00  0.00    -0.020 N 
HETATM   17  C8  UNL     1      12.345  -3.286  -2.785  1.00  0.00     0.726 A 
ATOM     18  H5  UNL     1      11.532  -5.046  -2.148  1.00  0.00     0.203 HD
HETATM   19  N7  UNL     1      13.483  -2.580  -2.883  1.00  0.00    -0.030 N 
BRANCH  14  20
HETATM   20  N4  UNL     1      13.543  -6.211  -1.235  1.00  0.00    -0.234 N 
ATOM     21  H42 UNL     1      14.175  -6.935  -1.579  1.00  0.00     0.174 HD
ATOM     22  H41 UNL     1      12.932  -6.464  -0.459  1.00  0.00     0.174 HD
ENDBRANCH  14  20
BRANCH  17  23
HETATM   23  N6  UNL     1      11.154  -2.693  -3.282  1.00  0.00    -0.179 N 
HETATM   24  C9  UNL     1      10.252  -3.362  -3.899  1.00  0.00     0.240 C 
ATOM     25  H6  UNL     1      11.010  -1.694  -3.141  1.00  0.00     0.185 HD
BRANCH  24  26
HETATM   26  O2  UNL     1      10.331  -4.714  -4.151  1.00  0.00    -0.356 OA
ATOM     27  H2  UNL     1      10.505  -5.086  -5.008  1.00  0.00     0.218 HD
ENDBRANCH  24  26
ENDBRANCH  17  23
BRANCH  19  28
HETATM   28  O3  UNL     1      13.486  -1.324  -3.449  1.00  0.00    -0.268 OA
ATOM     29  H3  UNL     1      12.648  -0.912  -3.622  1.00  0.00     0.246 HD
ENDBRANCH  19  28
ENDBRANCH   5  12
BRANCH   1  30
HETATM   30  C3  UNL     1      18.687   0.940  -1.004  1.00  0.00     0.320 C 
BRANCH  30  31
HETATM   31  O1  UNL     1      17.446   1.188  -0.384  1.00  0.00    -0.371 OA
BRANCH  31  32
HETATM   32  C2  UNL     1      17.615   0.922   0.968  1.00  0.00     0.165 C 
HETATM   33  C1  UNL     1      16.763  -0.234   1.434  1.00  0.00     0.033 C 
ENDBRANCH  31  32
ENDBRANCH  30  31
ENDBRANCH   1  30
BRANCH  11  34
HETATM   34  N10 UNL     1      20.627   0.613  -3.229  1.00  0.00    -0.321 N 
ATOM     35 2H10 UNL     1      20.958   1.374  -2.636  1.00  0.00     0.179 HD
ATOM     36 1H10 UNL     1      21.328   0.487  -3.958  1.00  0.00     0.179 HD
ENDBRANCH  11  34
TORSDOF 9
ENDMDL
MODEL 3
REMARK VINA RESULT: -7.747479866      2.417      4.214
REMARK  9 active torsions:
REMARK  status: ('A' for Active; 'I' for Inactive)
REMARK    1  A    between atoms: C2_2  and  O1_3 
REMARK    2  A    between atoms: O1_3  and  C3_4 
REMARK    3  A    between atoms: C3_4  and  N1_5 
REMARK    4  A    between atoms: C5_9  and  C6_10 
REMARK    5  A    between atoms: C7_13  and  N4_14 
REMARK    6  A    between atoms: C8_19  and  N6_20 
REMARK    7  A    between atoms: C9_22  and  O2_23 
REMARK    8  A    between atoms: N7_25  and  O3_26 
REMARK    9  A    between atoms: N9_33  and  N10_34 
ROOT
HETATM    1  N1  UNL     1      16.864  -2.096  -2.793  1.00  0.00    -0.226 N 
HETATM    2  C4  UNL     1      15.631  -2.422  -3.192  1.00  0.00     0.161 A 
HETATM    3  N2  UNL     1      14.293  -2.264  -3.019  1.00  0.00    -0.322 N 
ATOM      4  H2  UNL     1      13.870  -1.663  -2.312  1.00  0.00     0.169 HD
HETATM    5  C5  UNL     1      13.611  -2.992  -3.888  1.00  0.00     0.156 A 
HETATM    6  N8  UNL     1      14.521  -3.634  -4.637  1.00  0.00    -0.332 N 
ATOM      7  H8  UNL     1      14.302  -4.276  -5.399  1.00  0.00     0.168 HD
HETATM    8  C10 UNL     1      15.777  -3.305  -4.233  1.00  0.00     0.152 A 
HETATM    9  C11 UNL     1      17.126  -3.476  -4.421  1.00  0.00     0.312 A 
HETATM   10  O4  UNL     1      17.626  -4.223  -5.299  1.00  0.00    -0.262 OA
HETATM   11  N9  UNL     1      17.792  -2.728  -3.530  1.00  0.00    -0.156 N 
ENDROOT
BRANCH   5  12
HETATM   12  C6  UNL     1      12.165  -3.134  -4.070  1.00  0.00     0.210 A 
HETATM   13  N3  UNL     1      11.375  -3.632  -3.108  1.00  0.00    -0.170 N 
HETATM   14  C7  UNL     1      10.045  -3.772  -3.250  1.00  0.00     0.692 A 
ATOM     15  H3  UNL     1      11.802  -3.917  -2.227  1.00  0.00     0.186 HD
HETATM   16  N5  UNL     1       9.518  -3.389  -4.416  1.00  0.00    -0.020 N 
HETATM   17  C8  UNL     1      10.265  -2.885  -5.412  1.00  0.00     0.726 A 
ATOM     18  H5  UNL     1       8.512  -3.482  -4.556  1.00  0.00     0.203 HD
HETATM   19  N7  UNL     1      11.589  -2.763  -5.222  1.00  0.00    -0.030 N 
BRANCH  14  20
HETATM   20  N4  UNL     1       9.300  -4.252  -2.315  1.00  0.00    -0.234 N 
ATOM     21  H42 UNL     1       9.700  -4.817  -1.566  1.00  0.00     0.174 HD
ATOM     22  H41 UNL     1       8.294  -4.090  -2.283  1.00  0.00     0.174 HD
ENDBRANCH  14  20
BRANCH  17  23
HETATM   23  N6  UNL     1       9.736  -2.468  -6.663  1.00  0.00    -0.179 N 
HETATM   24  C9  UNL     1       8.993  -3.221  -7.386  1.00  0.00     0.240 C 
ATOM     25  H6  UNL     1       9.956  -1.531  -6.999  1.00  0.00     0.185 HD
BRANCH  24  26
HETATM   26  O2  UNL     1       8.626  -4.503  -7.042  1.00  0.00    -0.356 OA
ATOM     27  H2  UNL     1       8.594  -5.230  -7.654  1.00  0.00     0.218 HD
ENDBRANCH  24  26
ENDBRANCH  17  23
BRANCH  19  28
HETATM   28  O3  UNL     1      12.399  -2.252  -6.212  1.00  0.00    -0.268 OA
ATOM     29  H3  UNL     1      12.094  -1.486  -6.685  1.00  0.00     0.246 HD
ENDBRANCH  19  28
ENDBRANCH   5  12
BRANCH   1  30
HETATM   30  C3  UNL     1      17.177  -1.188  -1.717  1.00  0.00     0.320 C 
BRANCH  30  31
HETATM   31  O1  UNL     1      16.048  -0.941  -0.911  1.00  0.00    -0.371 OA
BRANCH  31  32
HETATM   32  C2  UNL     1      16.521  -0.662   0.363  1.00  0.00     0.165 C 
HETATM   33  C1  UNL     1      17.405   0.563   0.388  1.00  0.00     0.033 C 
ENDBRANCH  31  32
ENDBRANCH  30  31
ENDBRANCH   1  30
BRANCH  11  34
HETATM   34  N10 UNL     1      19.178  -2.616  -3.383  1.00  0.00    -0.321 N 
ATOM     35 2H10 UNL     1      19.687  -2.226  -2.590  1.00  0.00     0.179 HD
ATOM     36 1H10 UNL     1      19.880  -2.915  -4.060  1.00  0.00     0.179 HD
ENDBRANCH  11  34
TORSDOF 9
ENDMDL
MODEL 4
REMARK VINA RESULT: -7.622665877      1.460      3.155
REMARK  9 active torsions:
REMARK  status: ('A' for Active; 'I' for Inactive)
REMARK    1  A    between atoms: C2_2  and  O1_3 
REMARK    2  A    between atoms: O1_3  and  C3_4 
REMARK    3  A    between atoms: C3_4  and  N1_5 
REMARK    4  A    between atoms: C5_9  and  C6_10 
REMARK    5  A    between atoms: C7_13  and  N4_14 
REMARK    6  A    between atoms: C8_19  and  N6_20 
REMARK    7  A    between atoms: C9_22  and  O2_23 
REMARK    8  A    between atoms: N7_25  and  O3_26 
REMARK    9  A    between atoms: N9_33  and  N10_34 
ROOT
HETATM    1  N1  UNL     1      18.954  -0.559  -3.411  1.00  0.00    -0.226 N 
HETATM    2  C4  UNL     1      17.795  -1.218  -3.310  1.00  0.00     0.161 A 
HETATM    3  N2  UNL     1      16.831  -1.720  -2.495  1.00  0.00    -0.322 N 
ATOM      4  H2  UNL     1      16.842  -1.650  -1.477  1.00  0.00     0.169 HD
HETATM    5  C5  UNL     1      15.877  -2.312  -3.194  1.00  0.00     0.156 A 
HETATM    6  N8  UNL     1      16.227  -2.193  -4.484  1.00  0.00    -0.332 N 
ATOM      7  H8  UNL     1      15.687  -2.552  -5.271  1.00  0.00     0.168 HD
HETATM    8  C10 UNL     1      17.406  -1.523  -4.590  1.00  0.00     0.152 A 
HETATM    9  C11 UNL     1      18.371  -1.022  -5.428  1.00  0.00     0.312 A 
HETATM   10  O4  UNL     1      18.337  -1.120  -6.680  1.00  0.00    -0.262 OA
HETATM   11  N9  UNL     1      19.323  -0.429  -4.695  1.00  0.00    -0.156 N 
ENDROOT
BRANCH   5  12
HETATM   12  C6  UNL     1      14.657  -2.984  -2.743  1.00  0.00     0.210 A 
HETATM   13  N3  UNL     1      14.694  -4.062  -1.946  1.00  0.00    -0.170 N 
HETATM   14  C7  UNL     1      13.589  -4.698  -1.519  1.00  0.00     0.692 A 
ATOM     15  H3  UNL     1      15.603  -4.416  -1.650  1.00  0.00     0.186 HD
HETATM   16  N5  UNL     1      12.415  -4.207  -1.925  1.00  0.00    -0.020 N 
HETATM   17  C8  UNL     1      12.322  -3.132  -2.724  1.00  0.00     0.726 A 
ATOM     18  H5  UNL     1      11.557  -4.666  -1.619  1.00  0.00     0.203 HD
HETATM   19  N7  UNL     1      13.454  -2.530  -3.124  1.00  0.00    -0.030 N 
BRANCH  14  20
HETATM   20  N4  UNL     1      13.643  -5.731  -0.753  1.00  0.00    -0.234 N 
ATOM     21  H42 UNL     1      14.308  -6.483  -0.934  1.00  0.00     0.174 HD
ATOM     22  H41 UNL     1      13.033  -5.842   0.057  1.00  0.00     0.174 HD
ENDBRANCH  14  20
BRANCH  17  23
HETATM   23  N6  UNL     1      11.090  -2.586  -3.173  1.00  0.00    -0.179 N 
HETATM   24  C9  UNL     1      10.220  -3.275  -3.814  1.00  0.00     0.240 C 
ATOM     25  H6  UNL     1      10.889  -1.606  -2.978  1.00  0.00     0.185 HD
BRANCH  24  26
HETATM   26  O2  UNL     1      10.374  -4.605  -4.138  1.00  0.00    -0.356 OA
ATOM     27  H2  UNL     1       9.689  -5.143  -4.517  1.00  0.00     0.218 HD
ENDBRANCH  24  26
ENDBRANCH  17  23
BRANCH  19  28
HETATM   28  O3  UNL     1      13.413  -1.424  -3.943  1.00  0.00    -0.268 OA
ATOM     29  H3  UNL     1      13.331  -1.567  -4.879  1.00  0.00     0.246 HD
ENDBRANCH  19  28
ENDBRANCH   5  12
BRANCH   1  30
HETATM   30  C3  UNL     1      19.719  -0.049  -2.300  1.00  0.00     0.320 C 
BRANCH  30  31
HETATM   31  O1  UNL     1      18.946  -0.005  -1.123  1.00  0.00    -0.371 OA
BRANCH  31  32
HETATM   32  C2  UNL     1      18.946   1.316  -0.695  1.00  0.00     0.165 C 
HETATM   33  C1  UNL     1      17.572   1.780  -0.274  1.00  0.00     0.033 C 
ENDBRANCH  31  32
ENDBRANCH  30  31
ENDBRANCH   1  30
BRANCH  11  34
HETATM   34  N10 UNL     1      20.480   0.206  -5.160  1.00  0.00    -0.321 N 
ATOM     35 2H10 UNL     1      21.316  -0.234  -5.544  1.00  0.00     0.179 HD
ATOM     36 1H10 UNL     1      20.646   1.212  -5.179  1.00  0.00     0.179 HD
ENDBRANCH  11  34
TORSDOF 9
ENDMDL
MODEL 5
REMARK VINA RESULT: -7.411676871      2.472      4.366
REMARK  9 active torsions:
REMARK  status: ('A' for Active; 'I' for Inactive)
REMARK    1  A    between atoms: C2_2  and  O1_3 
REMARK    2  A    between atoms: O1_3  and  C3_4 
REMARK    3  A    between atoms: C3_4  and  N1_5 
REMARK    4  A    between atoms: C5_9  and  C6_10 
REMARK    5  A    between atoms: C7_13  and  N4_14 
REMARK    6  A    between atoms: C8_19  and  N6_20 
REMARK    7  A    between atoms: C9_22  and  O2_23 
REMARK    8  A    between atoms: N7_25  and  O3_26 
REMARK    9  A    between atoms: N9_33  and  N10_34 
ROOT
HETATM    1  N1  UNL     1      16.637  -2.148  -2.727  1.00  0.00    -0.226 N 
HETATM    2  C4  UNL     1      15.394  -2.427  -3.131  1.00  0.00     0.161 A 
HETATM    3  N2  UNL     1      14.062  -2.226  -2.957  1.00  0.00    -0.322 N 
ATOM      4  H2  UNL     1      13.658  -1.620  -2.244  1.00  0.00     0.169 HD
HETATM    5  C5  UNL     1      13.357  -2.920  -3.835  1.00  0.00     0.156 A 
HETATM    6  N8  UNL     1      14.245  -3.584  -4.591  1.00  0.00    -0.332 N 
ATOM      7  H8  UNL     1      14.006  -4.208  -5.361  1.00  0.00     0.168 HD
HETATM    8  C10 UNL     1      15.511  -3.302  -4.182  1.00  0.00     0.152 A 
HETATM    9  C11 UNL     1      16.854  -3.516  -4.372  1.00  0.00     0.312 A 
HETATM   10  O4  UNL     1      17.330  -4.269  -5.258  1.00  0.00    -0.262 OA
HETATM   11  N9  UNL     1      17.544  -2.802  -3.471  1.00  0.00    -0.156 N 
ENDROOT
BRANCH   5  12
HETATM   12  C6  UNL     1      11.907  -3.010  -4.020  1.00  0.00     0.210 A 
HETATM   13  N3  UNL     1      11.110  -3.582  -3.106  1.00  0.00    -0.170 N 
HETATM   14  C7  UNL     1       9.776  -3.678  -3.252  1.00  0.00     0.692 A 
ATOM     15  H3  UNL     1      11.534  -3.962  -2.261  1.00  0.00     0.186 HD
HETATM   16  N5  UNL     1       9.253  -3.170  -4.371  1.00  0.00    -0.020 N 
HETATM   17  C8  UNL     1      10.007  -2.588  -5.318  1.00  0.00     0.726 A 
ATOM     18  H5  UNL     1       8.245  -3.226  -4.513  1.00  0.00     0.203 HD
HETATM   19  N7  UNL     1      11.334  -2.515  -5.127  1.00  0.00    -0.030 N 
BRANCH  14  20
HETATM   20  N4  UNL     1       9.025  -4.230  -2.363  1.00  0.00    -0.234 N 
ATOM     21  H42 UNL     1       8.099  -4.581  -2.605  1.00  0.00     0.174 HD
ATOM     22  H41 UNL     1       9.320  -4.340  -1.393  1.00  0.00     0.174 HD
ENDBRANCH  14  20
BRANCH  17  23
HETATM   23  N6  UNL     1       9.481  -2.039  -6.518  1.00  0.00    -0.179 N 
HETATM   24  C9  UNL     1       8.584  -1.124  -6.527  1.00  0.00     0.240 C 
ATOM     25  H6  UNL     1       9.832  -2.387  -7.410  1.00  0.00     0.185 HD
BRANCH  24  26
HETATM   26  O2  UNL     1       8.032  -0.573  -5.391  1.00  0.00    -0.356 OA
ATOM     27  H2  UNL     1       8.456   0.092  -4.862  1.00  0.00     0.218 HD
ENDBRANCH  24  26
ENDBRANCH  17  23
BRANCH  19  28
HETATM   28  O3  UNL     1      12.151  -1.928  -6.068  1.00  0.00    -0.268 OA
ATOM     29  H3  UNL     1      11.750  -1.613  -6.869  1.00  0.00     0.246 HD
ENDBRANCH  19  28
ENDBRANCH   5  12
BRANCH   1  30
HETATM   30  C3  UNL     1      16.979  -1.264  -1.640  1.00  0.00     0.320 C 
BRANCH  30  31
HETATM   31  O1  UNL     1      15.904  -1.120  -0.740  1.00  0.00    -0.371 OA
BRANCH  31  32
HETATM   32  C2  UNL     1      16.441  -0.641   0.447  1.00  0.00     0.165 C 
HETATM   33  C1  UNL     1      17.301   0.582   0.233  1.00  0.00     0.033 C 
ENDBRANCH  31  32
ENDBRANCH  30  31
ENDBRANCH   1  30
BRANCH  11  34
HETATM   34  N10 UNL     1      18.933  -2.739  -3.322  1.00  0.00    -0.321 N 
ATOM     35 2H10 UNL     1      19.483  -3.031  -2.514  1.00  0.00     0.179 HD
ATOM     36 1H10 UNL     1      19.596  -2.387  -4.012  1.00  0.00     0.179 HD
ENDBRANCH  11  34
TORSDOF 9
ENDMDL
