MODEL 1
REMARK VINA RESULT: -7.492949898      0.000      0.000
REMARK  9 active torsions:
REMARK  status: ('A' for Active; 'I' for Inactive)
REMARK    1  A    between atoms: C1_2  and  C2_4 
REMARK    2  A    between atoms: C3_5  and  S1_6 
REMARK    3  A    between atoms: S1_6  and  N2_7 
REMARK    4  A    between atoms: C4_13  and  N3_14 
REMARK    5  A    between atoms: N3_14  and  N4_16 
REMARK    6  A    between atoms: C5_18  and  C6_19 
REMARK    7  A    between atoms: C5_18  and  C7_22 
REMARK    8  A    between atoms: C7_22  and  O6_23 
REMARK    9  A    between atoms: C7_22  and  O7_25 
ROOT
HETATM    1  C2  UNL     1      14.196  -2.664  -5.185  1.00  0.00     0.127 A 
HETATM    2  C3  UNL     1      13.392  -3.219  -4.240  1.00  0.00     0.144 A 
HETATM    3  S2  UNL     1      11.696  -3.029  -4.544  1.00  0.00    -0.038 SA
HETATM    4  C4  UNL     1      11.366  -2.183  -5.975  1.00  0.00     0.167 A 
HETATM    5  N5  UNL     1      12.466  -1.791  -6.651  1.00  0.00    -0.302 N 
ATOM      6  H5  UNL     1      12.310  -1.279  -7.520  1.00  0.00     0.171 HD
HETATM    7  C8  UNL     1      13.717  -2.001  -6.306  1.00  0.00     0.264 A 
HETATM    8  O8  UNL     1      14.592  -1.529  -7.114  1.00  0.00    -0.267 OA
ENDROOT
BRANCH   4   9
HETATM    9  N3  UNL     1      10.165  -1.928  -6.394  1.00  0.00    -0.279 N 
ATOM     10  H3  UNL     1       9.857  -0.968  -6.553  1.00  0.00     0.189 HD
BRANCH   9  11
HETATM   11  N4  UNL     1       9.314  -2.994  -6.622  1.00  0.00    -0.292 N 
HETATM   12  C5  UNL     1       8.813  -3.195  -7.786  1.00  0.00     0.157 C 
ATOM     13  H4  UNL     1       9.082  -3.626  -5.857  1.00  0.00     0.187 HD
BRANCH  12  14
HETATM   14  C6  UNL     1       9.122  -2.318  -8.890  1.00  0.00     0.229 C 
HETATM   15  O4  UNL     1       8.256  -2.041  -9.769  1.00  0.00    -0.643 OA
HETATM   16  O5  UNL     1      10.369  -1.728  -9.058  1.00  0.00    -0.643 OA
ENDBRANCH  12  14
BRANCH  12  17
HETATM   17  C7  UNL     1       7.906  -4.344  -7.992  1.00  0.00     0.313 C 
BRANCH  17  18
HETATM   18  O6  UNL     1       6.632  -3.842  -8.280  1.00  0.00    -0.366 OA
ATOM     19  H6  UNL     1       6.152  -4.514  -8.751  1.00  0.00     0.213 HD
ENDBRANCH  17  18
BRANCH  17  20
HETATM   20  O7  UNL     1       7.828  -5.077  -6.827  1.00  0.00    -0.366 OA
ATOM     21  H7  UNL     1       7.200  -5.781  -6.940  1.00  0.00     0.213 HD
ENDBRANCH  17  20
ENDBRANCH  12  17
ENDBRANCH   9  11
ENDBRANCH   4   9
BRANCH   2  22
HETATM   22  S1  UNL     1      13.884  -4.146  -2.851  1.00  0.00     0.264 S 
HETATM   23  O2  UNL     1      12.604  -4.634  -2.117  1.00  0.00    -0.200 OA
HETATM   24  O3  UNL     1      14.712  -5.328  -3.175  1.00  0.00    -0.200 OA
BRANCH  22  25
HETATM   25  N2  UNL     1      14.695  -3.151  -1.702  1.00  0.00    -0.324 N 
ATOM     26  H22 UNL     1      15.652  -2.816  -1.819  1.00  0.00     0.169 HD
ATOM     27  H21 UNL     1      14.093  -2.949  -0.904  1.00  0.00     0.169 HD
ENDBRANCH  22  25
ENDBRANCH   2  22
BRANCH   1  28
HETATM   28  C1  UNL     1      15.633  -2.682  -4.995  1.00  0.00     0.272 C 
HETATM   29  N1  UNL     1      16.453  -3.663  -5.677  1.00  0.00    -0.057 NA
HETATM   30  O1  UNL     1      16.220  -1.888  -4.263  1.00  0.00    -0.271 OA
ENDBRANCH   1  28
TORSDOF 9
ENDMDL
MODEL 2
REMARK VINA RESULT: -7.467416976      2.848      4.695
REMARK  9 active torsions:
REMARK  status: ('A' for Active; 'I' for Inactive)
REMARK    1  A    between atoms: C1_2  and  C2_4 
REMARK    2  A    between atoms: C3_5  and  S1_6 
REMARK    3  A    between atoms: S1_6  and  N2_7 
REMARK    4  A    between atoms: C4_13  and  N3_14 
REMARK    5  A    between atoms: N3_14  and  N4_16 
REMARK    6  A    between atoms: C5_18  and  C6_19 
REMARK    7  A    between atoms: C5_18  and  C7_22 
REMARK    8  A    between atoms: C7_22  and  O6_23 
REMARK    9  A    between atoms: C7_22  and  O7_25 
ROOT
HETATM    1  C2  UNL     1      16.061  -1.828  -2.852  1.00  0.00     0.127 A 
HETATM    2  C3  UNL     1      16.105  -2.113  -4.182  1.00  0.00     0.144 A 
HETATM    3  S2  UNL     1      14.787  -3.084  -4.748  1.00  0.00    -0.038 SA
HETATM    4  C4  UNL     1      13.686  -3.493  -3.526  1.00  0.00     0.167 A 
HETATM    5  N5  UNL     1      14.003  -3.001  -2.310  1.00  0.00    -0.302 N 
ATOM      6  H5  UNL     1      13.364  -3.223  -1.546  1.00  0.00     0.171 HD
HETATM    7  C8  UNL     1      15.051  -2.267  -2.008  1.00  0.00     0.264 A 
HETATM    8  O8  UNL     1      15.138  -1.920  -0.778  1.00  0.00    -0.267 OA
ENDROOT
BRANCH   4   9
HETATM    9  N3  UNL     1      12.626  -4.213  -3.729  1.00  0.00    -0.279 N 
ATOM     10  H3  UNL     1      12.299  -4.875  -3.025  1.00  0.00     0.189 HD
BRANCH   9  11
HETATM   11  N4  UNL     1      11.952  -4.058  -4.927  1.00  0.00    -0.292 N 
HETATM   12  C5  UNL     1      10.678  -3.905  -4.946  1.00  0.00     0.157 C 
ATOM     13  H4  UNL     1      12.472  -4.065  -5.804  1.00  0.00     0.187 HD
BRANCH  12  14
HETATM   14  C6  UNL     1       9.913  -3.890  -3.722  1.00  0.00     0.229 C 
HETATM   15  O4  UNL     1      10.142  -3.038  -2.816  1.00  0.00    -0.643 OA
HETATM   16  O5  UNL     1       8.889  -4.793  -3.461  1.00  0.00    -0.643 OA
ENDBRANCH  12  14
BRANCH  12  17
HETATM   17  C7  UNL     1       9.991  -3.743  -6.245  1.00  0.00     0.313 C 
BRANCH  17  18
HETATM   18  O6  UNL     1       9.582  -2.408  -6.352  1.00  0.00    -0.366 OA
ATOM     19  H6  UNL     1       9.605  -2.169  -7.271  1.00  0.00     0.213 HD
ENDBRANCH  17  18
BRANCH  17  20
HETATM   20  O7  UNL     1       8.868  -4.542  -6.269  1.00  0.00    -0.366 OA
ATOM     21  H7  UNL     1       8.838  -5.017  -7.092  1.00  0.00     0.213 HD
ENDBRANCH  17  20
ENDBRANCH  12  17
ENDBRANCH   9  11
ENDBRANCH   4   9
BRANCH   2  22
HETATM   22  S1  UNL     1      17.271  -1.542  -5.343  1.00  0.00     0.264 S 
HETATM   23  O2  UNL     1      16.857  -2.071  -6.743  1.00  0.00    -0.200 OA
HETATM   24  O3  UNL     1      17.378  -0.068  -5.416  1.00  0.00    -0.200 OA
BRANCH  22  25
HETATM   25  N2  UNL     1      18.821  -2.234  -5.052  1.00  0.00    -0.324 N 
ATOM     26  H22 UNL     1      18.995  -3.239  -5.023  1.00  0.00     0.169 HD
ATOM     27  H21 UNL     1      19.525  -1.509  -4.916  1.00  0.00     0.169 HD
ENDBRANCH  22  25
ENDBRANCH   2  22
BRANCH   1  28
HETATM   28  C1  UNL     1      17.155  -1.096  -2.246  1.00  0.00     0.272 C 
HETATM   29  N1  UNL     1      16.978   0.279  -1.828  1.00  0.00    -0.057 NA
HETATM   30  O1  UNL     1      18.265  -1.589  -2.059  1.00  0.00    -0.271 OA
ENDBRANCH   1  28
TORSDOF 9
ENDMDL
MODEL 3
REMARK VINA RESULT: -7.429725281      1.585      2.763
REMARK  9 active torsions:
REMARK  status: ('A' for Active; 'I' for Inactive)
REMARK    1  A    between atoms: C1_2  and  C2_4 
REMARK    2  A    between atoms: C3_5  and  S1_6 
REMARK    3  A    between atoms: S1_6  and  N2_7 
REMARK    4  A    between atoms: C4_13  and  N3_14 
REMARK    5  A    between atoms: N3_14  and  N4_16 
REMARK    6  A    between atoms: C5_18  and  C6_19 
REMARK    7  A    between atoms: C5_18  and  C7_22 
REMARK    8  A    between atoms: C7_22  and  O6_23 
REMARK    9  A    between atoms: C7_22  and  O7_25 
ROOT
HETATM    1  C2  UNL     1      13.145  -3.636  -3.542  1.00  0.00     0.127 A 
HETATM    2  C3  UNL     1      13.775  -3.070  -4.607  1.00  0.00     0.144 A 
HETATM    3  S2  UNL     1      12.707  -2.474  -5.834  1.00  0.00    -0.038 SA
HETATM    4  C4  UNL     1      11.069  -2.712  -5.466  1.00  0.00     0.167 A 
HETATM    5  N5  UNL     1      10.852  -3.323  -4.283  1.00  0.00    -0.302 N 
ATOM      6  H5  UNL     1       9.879  -3.484  -4.023  1.00  0.00     0.171 HD
HETATM    7  C8  UNL     1      11.766  -3.734  -3.431  1.00  0.00     0.264 A 
HETATM    8  O8  UNL     1      11.312  -4.290  -2.370  1.00  0.00    -0.267 OA
ENDROOT
BRANCH   4   9
HETATM    9  N3  UNL     1      10.099  -2.342  -6.245  1.00  0.00    -0.279 N 
ATOM     10  H3  UNL     1      10.022  -1.376  -6.564  1.00  0.00     0.189 HD
BRANCH   9  11
HETATM   11  N4  UNL     1       9.174  -3.295  -6.631  1.00  0.00    -0.292 N 
HETATM   12  C5  UNL     1       8.714  -3.312  -7.829  1.00  0.00     0.157 C 
ATOM     13  H4  UNL     1       8.855  -3.990  -5.958  1.00  0.00     0.187 HD
BRANCH  12  14
HETATM   14  C6  UNL     1       9.147  -2.342  -8.806  1.00  0.00     0.229 C 
HETATM   15  O4  UNL     1       8.394  -1.991  -9.759  1.00  0.00    -0.643 OA
HETATM   16  O5  UNL     1      10.398  -1.738  -8.766  1.00  0.00    -0.643 OA
ENDBRANCH  12  14
BRANCH  12  17
HETATM   17  C7  UNL     1       7.725  -4.345  -8.206  1.00  0.00     0.313 C 
BRANCH  17  18
HETATM   18  O6  UNL     1       6.485  -3.716  -8.368  1.00  0.00    -0.366 OA
ATOM     19  H6  UNL     1       5.879  -4.103  -7.747  1.00  0.00     0.213 HD
ENDBRANCH  17  18
BRANCH  17  20
HETATM   20  O7  UNL     1       7.614  -5.264  -7.185  1.00  0.00    -0.366 OA
ATOM     21  H7  UNL     1       8.454  -5.686  -7.049  1.00  0.00     0.213 HD
ENDBRANCH  17  20
ENDBRANCH  12  17
ENDBRANCH   9  11
ENDBRANCH   4   9
BRANCH   2  22
HETATM   22  S1  UNL     1      15.486  -2.816  -4.806  1.00  0.00     0.264 S 
HETATM   23  O2  UNL     1      16.181  -4.205  -4.825  1.00  0.00    -0.200 OA
HETATM   24  O3  UNL     1      15.850  -2.097  -6.047  1.00  0.00    -0.200 OA
BRANCH  22  25
HETATM   25  N2  UNL     1      16.153  -2.010  -3.437  1.00  0.00    -0.324 N 
ATOM     26  H22 UNL     1      16.037  -1.013  -3.256  1.00  0.00     0.169 HD
ATOM     27  H21 UNL     1      16.670  -2.661  -2.847  1.00  0.00     0.169 HD
ENDBRANCH  22  25
ENDBRANCH   2  22
BRANCH   1  28
HETATM   28  C1  UNL     1      13.936  -4.249  -2.493  1.00  0.00     0.272 C 
HETATM   29  N1  UNL     1      14.060  -5.689  -2.411  1.00  0.00    -0.057 NA
HETATM   30  O1  UNL     1      14.528  -3.596  -1.636  1.00  0.00    -0.271 OA
ENDBRANCH   1  28
TORSDOF 9
ENDMDL
MODEL 4
REMARK VINA RESULT: -7.340896852      2.829      4.009
REMARK  9 active torsions:
REMARK  status: ('A' for Active; 'I' for Inactive)
REMARK    1  A    between atoms: C1_2  and  C2_4 
REMARK    2  A    between atoms: C3_5  and  S1_6 
REMARK    3  A    between atoms: S1_6  and  N2_7 
REMARK    4  A    between atoms: C4_13  and  N3_14 
REMARK    5  A    between atoms: N3_14  and  N4_16 
REMARK    6  A    between atoms: C5_18  and  C6_19 
REMARK    7  A    between atoms: C5_18  and  C7_22 
REMARK    8  A    between atoms: C7_22  and  O6_23 
REMARK    9  A    between atoms: C7_22  and  O7_25 
ROOT
HETATM    1  C2  UNL     1      16.468  -2.063  -3.593  1.00  0.00     0.127 A 
HETATM    2  C3  UNL     1      15.790  -1.866  -2.430  1.00  0.00     0.144 A 
HETATM    3  S2  UNL     1      14.233  -2.624  -2.374  1.00  0.00    -0.038 SA
HETATM    4  C4  UNL     1      13.854  -3.475  -3.790  1.00  0.00     0.167 A 
HETATM    5  N5  UNL     1      14.816  -3.432  -4.735  1.00  0.00    -0.302 N 
ATOM      6  H5  UNL     1      14.628  -3.933  -5.603  1.00  0.00     0.171 HD
HETATM    7  C8  UNL     1      15.971  -2.809  -4.652  1.00  0.00     0.264 A 
HETATM    8  O8  UNL     1      16.722  -2.912  -5.685  1.00  0.00    -0.267 OA
ENDROOT
BRANCH   4   9
HETATM    9  N3  UNL     1      12.740  -4.118  -3.962  1.00  0.00    -0.279 N 
ATOM     10  H3  UNL     1      12.401  -4.778  -3.262  1.00  0.00     0.189 HD
BRANCH   9  11
HETATM   11  N4  UNL     1      12.024  -3.882  -5.122  1.00  0.00    -0.292 N 
HETATM   12  C5  UNL     1      10.741  -3.894  -5.113  1.00  0.00     0.157 C 
ATOM     13  H4  UNL     1      12.521  -3.698  -5.993  1.00  0.00     0.187 HD
BRANCH  12  14
HETATM   14  C6  UNL     1      10.009  -4.151  -3.897  1.00  0.00     0.229 C 
HETATM   15  O4  UNL     1       9.270  -5.171  -3.780  1.00  0.00    -0.643 OA
HETATM   16  O5  UNL     1      10.065  -3.311  -2.791  1.00  0.00    -0.643 OA
ENDBRANCH  12  14
BRANCH  12  17
HETATM   17  C7  UNL     1      10.010  -3.638  -6.373  1.00  0.00     0.313 C 
BRANCH  17  18
HETATM   18  O6  UNL     1       9.572  -2.309  -6.354  1.00  0.00    -0.366 OA
ATOM     19  H6  UNL     1      10.294  -1.760  -6.640  1.00  0.00     0.213 HD
ENDBRANCH  17  18
BRANCH  17  20
HETATM   20  O7  UNL     1       8.902  -4.457  -6.429  1.00  0.00    -0.366 OA
ATOM     21  H7  UNL     1       8.820  -4.933  -5.611  1.00  0.00     0.213 HD
ENDBRANCH  17  20
ENDBRANCH  12  17
ENDBRANCH   9  11
ENDBRANCH   4   9
BRANCH   2  22
HETATM   22  S1  UNL     1      16.354  -1.028  -1.012  1.00  0.00     0.264 S 
HETATM   23  O2  UNL     1      15.379  -1.345   0.156  1.00  0.00    -0.200 OA
HETATM   24  O3  UNL     1      17.721  -1.406  -0.591  1.00  0.00    -0.200 OA
BRANCH  22  25
HETATM   25  N2  UNL     1      16.249   0.678  -1.221  1.00  0.00    -0.324 N 
ATOM     26  H22 UNL     1      15.829   1.124  -2.037  1.00  0.00     0.169 HD
ATOM     27  H21 UNL     1      16.658   1.169  -0.426  1.00  0.00     0.169 HD
ENDBRANCH  22  25
ENDBRANCH   2  22
BRANCH   1  28
HETATM   28  C1  UNL     1      17.745  -1.406  -3.791  1.00  0.00     0.272 C 
HETATM   29  N1  UNL     1      18.983  -2.134  -3.611  1.00  0.00    -0.057 NA
HETATM   30  O1  UNL     1      17.843  -0.224  -4.114  1.00  0.00    -0.271 OA
ENDBRANCH   1  28
TORSDOF 9
ENDMDL
MODEL 5
REMARK VINA RESULT: -7.340538511      3.059      4.686
REMARK  9 active torsions:
REMARK  status: ('A' for Active; 'I' for Inactive)
REMARK    1  A    between atoms: C1_2  and  C2_4 
REMARK    2  A    between atoms: C3_5  and  S1_6 
REMARK    3  A    between atoms: S1_6  and  N2_7 
REMARK    4  A    between atoms: C4_13  and  N3_14 
REMARK    5  A    between atoms: N3_14  and  N4_16 
REMARK    6  A    between atoms: C5_18  and  C6_19 
REMARK    7  A    between atoms: C5_18  and  C7_22 
REMARK    8  A    between atoms: C7_22  and  O6_23 
REMARK    9  A    between atoms: C7_22  and  O7_25 
ROOT
HETATM    1  C2  UNL     1      16.088  -1.862  -3.033  1.00  0.00     0.127 A 
HETATM    2  C3  UNL     1      16.194  -2.091  -4.370  1.00  0.00     0.144 A 
HETATM    3  S2  UNL     1      14.924  -3.067  -5.031  1.00  0.00    -0.038 SA
HETATM    4  C4  UNL     1      13.784  -3.552  -3.873  1.00  0.00     0.167 A 
HETATM    5  N5  UNL     1      14.039  -3.105  -2.626  1.00  0.00    -0.302 N 
ATOM      6  H5  UNL     1      13.375  -3.373  -1.899  1.00  0.00     0.171 HD
HETATM    7  C8  UNL     1      15.055  -2.359  -2.251  1.00  0.00     0.264 A 
HETATM    8  O8  UNL     1      15.083  -2.062  -1.005  1.00  0.00    -0.267 OA
ENDROOT
BRANCH   4   9
HETATM    9  N3  UNL     1      12.752  -4.288  -4.150  1.00  0.00    -0.279 N 
ATOM     10  H3  UNL     1      12.785  -4.977  -4.901  1.00  0.00     0.189 HD
BRANCH   9  11
HETATM   11  N4  UNL     1      11.605  -4.111  -3.398  1.00  0.00    -0.292 N 
HETATM   12  C5  UNL     1      10.476  -3.893  -3.967  1.00  0.00     0.157 C 
ATOM     13  H4  UNL     1      11.657  -4.154  -2.380  1.00  0.00     0.187 HD
BRANCH  12  14
HETATM   14  C6  UNL     1      10.368  -3.828  -5.404  1.00  0.00     0.229 C 
HETATM   15  O4  UNL     1       9.542  -4.550  -6.033  1.00  0.00    -0.643 OA
HETATM   16  O5  UNL     1      11.150  -2.982  -6.182  1.00  0.00    -0.643 OA
ENDBRANCH  12  14
BRANCH  12  17
HETATM   17  C7  UNL     1       9.271  -3.708  -3.130  1.00  0.00     0.313 C 
BRANCH  17  18
HETATM   18  O6  UNL     1       9.635  -3.924  -1.796  1.00  0.00    -0.366 OA
ATOM     19  H6  UNL     1       8.923  -3.619  -1.245  1.00  0.00     0.213 HD
ENDBRANCH  17  18
BRANCH  17  20
HETATM   20  O7  UNL     1       8.327  -4.651  -3.477  1.00  0.00    -0.366 OA
ATOM     21  H7  UNL     1       8.753  -5.490  -3.606  1.00  0.00     0.213 HD
ENDBRANCH  17  20
ENDBRANCH  12  17
ENDBRANCH   9  11
ENDBRANCH   4   9
BRANCH   2  22
HETATM   22  S1  UNL     1      17.391  -1.445  -5.457  1.00  0.00     0.264 S 
HETATM   23  O2  UNL     1      17.049  -1.926  -6.894  1.00  0.00    -0.200 OA
HETATM   24  O3  UNL     1      17.463   0.033  -5.467  1.00  0.00    -0.200 OA
BRANCH  22  25
HETATM   25  N2  UNL     1      18.945  -2.112  -5.129  1.00  0.00    -0.324 N 
ATOM     26  H22 UNL     1      19.097  -2.927  -4.535  1.00  0.00     0.169 HD
ATOM     27  H21 UNL     1      19.676  -1.584  -5.605  1.00  0.00     0.169 HD
ENDBRANCH  22  25
ENDBRANCH   2  22
BRANCH   1  28
HETATM   28  C1  UNL     1      17.138  -1.131  -2.352  1.00  0.00     0.272 C 
HETATM   29  N1  UNL     1      16.912   0.224  -1.894  1.00  0.00    -0.057 NA
HETATM   30  O1  UNL     1      18.249  -1.609  -2.132  1.00  0.00    -0.271 OA
ENDBRANCH   1  28
TORSDOF 9
ENDMDL
