MODEL 1
REMARK VINA RESULT: -9.348541515      0.000      0.000
REMARK  6 active torsions:
REMARK  status: ('A' for Active; 'I' for Inactive)
REMARK    1  A    between atoms: N1_2  and  C2_4 
REMARK    2  A    between atoms: N3_7  and  C3_8 
REMARK    3  A    between atoms: C3_8  and  C4_9 
REMARK    4  A    between atoms: C4_9  and  N4_10 
REMARK    5  A    between atoms: N5_13  and  C7_14 
REMARK    6  A    between atoms: C8_17  and  N7_18 
ROOT
HETATM    1  N4  UNL     1      13.815  -2.813  -2.532  1.00  0.00     0.109 N 
HETATM    2  C5  UNL     1      14.402  -4.060  -2.150  1.00  0.00     0.294 C 
HETATM    3  C6  UNL     1      15.911  -3.893  -2.295  1.00  0.00     0.156 C 
HETATM    4  N5  UNL     1      16.001  -2.463  -2.632  1.00  0.00    -0.338 N 
HETATM    5  C11 UNL     1      14.774  -2.252  -3.425  1.00  0.00     0.399 C 
ENDROOT
BRANCH   1   6
HETATM    6  C4  UNL     1      12.474  -2.886  -2.969  1.00  0.00     0.296 C 
BRANCH   6   7
HETATM    7  C3  UNL     1      12.113  -4.064  -3.803  1.00  0.00     0.184 C 
BRANCH   7   8
HETATM    8  N3  UNL     1      11.348  -3.601  -4.940  1.00  0.00    -0.239 N 
HETATM    9  N2  UNL     1      11.869  -2.750  -5.805  1.00  0.00    -0.275 N 
HETATM   10  C2  UNL     1      11.187  -2.315  -6.866  1.00  0.00     0.185 A 
ATOM     11  H2  UNL     1      12.821  -2.415  -5.657  1.00  0.00     0.189 HD
HETATM   12  C13 UNL     1       9.897  -2.785  -7.042  1.00  0.00     0.294 A 
HETATM   13  N10 UNL     1       9.362  -3.650  -6.168  1.00  0.00    -0.271 N 
HETATM   14  O3  UNL     1       9.229  -2.396  -8.032  1.00  0.00    -0.264 OA
HETATM   15  C12 UNL     1      10.102  -4.058  -5.107  1.00  0.00     0.344 A 
ATOM     16  H10 UNL     1       8.412  -3.997  -6.300  1.00  0.00     0.174 HD
HETATM   17  O2  UNL     1       9.634  -4.867  -4.269  1.00  0.00    -0.245 OA
BRANCH  10  18
HETATM   18  N1  UNL     1      11.737  -1.391  -7.819  1.00  0.00    -0.375 N 
HETATM   19  C1  UNL     1      13.175  -1.244  -7.900  1.00  0.00     0.148 C 
ATOM     20  H1  UNL     1      11.125  -0.847  -8.428  1.00  0.00     0.160 HD
ENDBRANCH  10  18
ENDBRANCH   7   8
ENDBRANCH   6   7
ENDBRANCH   1   6
BRANCH   4  21
HETATM   21  C7  UNL     1      16.991  -1.531  -2.280  1.00  0.00     0.150 A 
HETATM   22  N6  UNL     1      18.083  -1.253  -3.009  1.00  0.00    -0.175 N 
HETATM   23  C8  UNL     1      19.006  -0.362  -2.646  1.00  0.00     0.680 A 
ATOM     24  H6  UNL     1      18.214  -1.752  -3.889  1.00  0.00     0.186 HD
HETATM   25  N8  UNL     1      18.849   0.312  -1.478  1.00  0.00    -0.155 N 
HETATM   26  C9  UNL     1      17.786   0.098  -0.682  1.00  0.00     0.287 A 
ATOM     27  H8  UNL     1      19.552   0.996  -1.197  1.00  0.00     0.187 HD
HETATM   28  O1  UNL     1      17.627   0.719   0.406  1.00  0.00    -0.265 OA
HETATM   29  C10 UNL     1      16.851  -0.835  -1.095  1.00  0.00     0.159 A 
HETATM   30  N9  UNL     1      15.718  -1.080  -0.289  1.00  0.00    -0.092 NA
BRANCH  23  31
HETATM   31  N7  UNL     1      20.068  -0.095  -3.357  1.00  0.00    -0.234 N 
ATOM     32  H72 UNL     1      20.652   0.685  -3.057  1.00  0.00     0.174 HD
ATOM     33  H71 UNL     1      20.338  -0.626  -4.186  1.00  0.00     0.174 HD
ENDBRANCH  23  31
ENDBRANCH   4  21
TORSDOF 6
ENDMDL
MODEL 2
REMARK VINA RESULT: -9.267288895      1.537      1.699
REMARK  6 active torsions:
REMARK  status: ('A' for Active; 'I' for Inactive)
REMARK    1  A    between atoms: N1_2  and  C2_4 
REMARK    2  A    between atoms: N3_7  and  C3_8 
REMARK    3  A    between atoms: C3_8  and  C4_9 
REMARK    4  A    between atoms: C4_9  and  N4_10 
REMARK    5  A    between atoms: N5_13  and  C7_14 
REMARK    6  A    between atoms: C8_17  and  N7_18 
ROOT
HETATM    1  N4  UNL     1      14.256  -3.402  -4.700  1.00  0.00     0.109 N 
HETATM    2  C5  UNL     1      15.106  -4.549  -4.614  1.00  0.00     0.294 C 
HETATM    3  C6  UNL     1      16.445  -4.058  -4.074  1.00  0.00     0.156 C 
HETATM    4  N5  UNL     1      16.129  -2.650  -3.786  1.00  0.00    -0.338 N 
HETATM    5  C11 UNL     1      15.169  -2.320  -4.858  1.00  0.00     0.399 C 
ENDROOT
BRANCH   1   6
HETATM    6  C4  UNL     1      13.193  -3.506  -5.626  1.00  0.00     0.296 C 
BRANCH   6   7
HETATM    7  C3  UNL     1      11.818  -3.407  -5.069  1.00  0.00     0.184 C 
BRANCH   7   8
HETATM    8  N3  UNL     1      10.907  -3.112  -6.154  1.00  0.00    -0.239 N 
HETATM    9  N2  UNL     1      11.220  -2.220  -7.076  1.00  0.00    -0.275 N 
HETATM   10  C2  UNL     1      10.401  -1.937  -8.091  1.00  0.00     0.185 A 
ATOM     11  H2  UNL     1      12.114  -1.734  -7.012  1.00  0.00     0.189 HD
HETATM   12  C13 UNL     1       9.194  -2.612  -8.155  1.00  0.00     0.294 A 
HETATM   13  N10 UNL     1       8.871  -3.518  -7.222  1.00  0.00    -0.271 N 
HETATM   14  O3  UNL     1       8.401  -2.369  -9.099  1.00  0.00    -0.264 OA
HETATM   15  C12 UNL     1       9.742  -3.765  -6.212  1.00  0.00     0.344 A 
ATOM     16  H10 UNL     1       7.981  -4.015  -7.270  1.00  0.00     0.174 HD
HETATM   17  O2  UNL     1       9.472  -4.608  -5.321  1.00  0.00    -0.245 OA
BRANCH  10  18
HETATM   18  N1  UNL     1      10.725  -0.973  -9.106  1.00  0.00    -0.375 N 
HETATM   19  C1  UNL     1      12.113  -0.771  -9.460  1.00  0.00     0.148 C 
ATOM     20  H1  UNL     1       9.988  -0.439  -9.569  1.00  0.00     0.160 HD
ENDBRANCH  10  18
ENDBRANCH   7   8
ENDBRANCH   6   7
ENDBRANCH   1   6
BRANCH   4  21
HETATM   21  C7  UNL     1      16.604  -1.831  -2.749  1.00  0.00     0.150 A 
HETATM   22  N6  UNL     1      17.731  -1.104  -2.795  1.00  0.00    -0.175 N 
HETATM   23  C8  UNL     1      18.156  -0.335  -1.792  1.00  0.00     0.680 A 
ATOM     24  H6  UNL     1      18.295  -1.143  -3.644  1.00  0.00     0.186 HD
HETATM   25  N8  UNL     1      17.420  -0.271  -0.652  1.00  0.00    -0.155 N 
HETATM   26  C9  UNL     1      16.276  -0.965  -0.516  1.00  0.00     0.287 A 
ATOM     27  H8  UNL     1      17.741   0.317   0.117  1.00  0.00     0.187 HD
HETATM   28  O1  UNL     1      15.582  -0.914   0.537  1.00  0.00    -0.265 OA
HETATM   29  C10 UNL     1      15.871  -1.751  -1.581  1.00  0.00     0.159 A 
HETATM   30  N9  UNL     1      14.671  -2.488  -1.477  1.00  0.00    -0.092 NA
BRANCH  23  31
HETATM   31  N7  UNL     1      19.255   0.369  -1.839  1.00  0.00    -0.234 N 
ATOM     32  H72 UNL     1      20.130  -0.134  -1.990  1.00  0.00     0.174 HD
ATOM     33  H71 UNL     1      19.278   1.383  -1.737  1.00  0.00     0.174 HD
ENDBRANCH  23  31
ENDBRANCH   4  21
TORSDOF 6
ENDMDL
MODEL 3
REMARK VINA RESULT: -8.876185393      1.523      2.282
REMARK  6 active torsions:
REMARK  status: ('A' for Active; 'I' for Inactive)
REMARK    1  A    between atoms: N1_2  and  C2_4 
REMARK    2  A    between atoms: N3_7  and  C3_8 
REMARK    3  A    between atoms: C3_8  and  C4_9 
REMARK    4  A    between atoms: C4_9  and  N4_10 
REMARK    5  A    between atoms: N5_13  and  C7_14 
REMARK    6  A    between atoms: C8_17  and  N7_18 
ROOT
HETATM    1  N4  UNL     1      14.045  -3.404  -4.416  1.00  0.00     0.109 N 
HETATM    2  C5  UNL     1      14.853  -4.566  -4.211  1.00  0.00     0.294 C 
HETATM    3  C6  UNL     1      16.178  -4.077  -3.634  1.00  0.00     0.156 C 
HETATM    4  N5  UNL     1      15.891  -2.645  -3.454  1.00  0.00    -0.338 N 
HETATM    5  C11 UNL     1      14.998  -2.360  -4.594  1.00  0.00     0.399 C 
ENDROOT
BRANCH   1   6
HETATM    6  C4  UNL     1      13.029  -3.540  -5.388  1.00  0.00     0.296 C 
BRANCH   6   7
HETATM    7  C3  UNL     1      11.629  -3.380  -4.911  1.00  0.00     0.184 C 
BRANCH   7   8
HETATM    8  N3  UNL     1      10.787  -3.101  -6.053  1.00  0.00    -0.239 N 
HETATM    9  N2  UNL     1      11.148  -2.211  -6.959  1.00  0.00    -0.275 N 
HETATM   10  C2  UNL     1      10.393  -1.943  -8.027  1.00  0.00     0.185 A 
ATOM     11  H2  UNL     1      12.030  -1.714  -6.841  1.00  0.00     0.189 HD
HETATM   12  C13 UNL     1       9.200  -2.632  -8.163  1.00  0.00     0.294 A 
HETATM   13  N10 UNL     1       8.827  -3.537  -7.247  1.00  0.00    -0.271 N 
HETATM   14  O3  UNL     1       8.466  -2.403  -9.157  1.00  0.00    -0.264 OA
HETATM   15  C12 UNL     1       9.635  -3.768  -6.182  1.00  0.00     0.344 A 
ATOM     16  H10 UNL     1       7.948  -4.044  -7.349  1.00  0.00     0.174 HD
HETATM   17  O2  UNL     1       9.318  -4.608  -5.305  1.00  0.00    -0.245 OA
BRANCH  10  18
HETATM   18  N1  UNL     1      10.769  -0.980  -9.024  1.00  0.00    -0.375 N 
HETATM   19  C1  UNL     1      12.170  -0.835  -9.361  1.00  0.00     0.148 C 
ATOM     20  H1  UNL     1      10.063  -0.408  -9.488  1.00  0.00     0.160 HD
ENDBRANCH  10  18
ENDBRANCH   7   8
ENDBRANCH   6   7
ENDBRANCH   1   6
BRANCH   4  21
HETATM   21  C7  UNL     1      16.337  -1.772  -2.448  1.00  0.00     0.150 A 
HETATM   22  N6  UNL     1      15.744  -1.604  -1.256  1.00  0.00    -0.175 N 
HETATM   23  C8  UNL     1      16.192  -0.766  -0.320  1.00  0.00     0.680 A 
ATOM     24  H6  UNL     1      14.904  -2.146  -1.054  1.00  0.00     0.186 HD
HETATM   25  N8  UNL     1      17.309  -0.035  -0.569  1.00  0.00    -0.155 N 
HETATM   26  C9  UNL     1      17.969  -0.138  -1.737  1.00  0.00     0.287 A 
ATOM     27  H8  UNL     1      17.655   0.607   0.144  1.00  0.00     0.187 HD
HETATM   28  O1  UNL     1      19.008   0.536  -1.981  1.00  0.00    -0.265 OA
HETATM   29  C10 UNL     1      17.471  -1.019  -2.681  1.00  0.00     0.159 A 
HETATM   30  N9  UNL     1      18.142  -1.160  -3.915  1.00  0.00    -0.092 NA
BRANCH  23  31
HETATM   31  N7  UNL     1      15.611  -0.603   0.839  1.00  0.00    -0.234 N 
ATOM     32  H72 UNL     1      16.211  -0.437   1.647  1.00  0.00     0.174 HD
ATOM     33  H71 UNL     1      14.600  -0.630   0.969  1.00  0.00     0.174 HD
ENDBRANCH  23  31
ENDBRANCH   4  21
TORSDOF 6
ENDMDL
MODEL 4
REMARK VINA RESULT: -8.741913315      2.369      8.163
REMARK  6 active torsions:
REMARK  status: ('A' for Active; 'I' for Inactive)
REMARK    1  A    between atoms: N1_2  and  C2_4 
REMARK    2  A    between atoms: N3_7  and  C3_8 
REMARK    3  A    between atoms: C3_8  and  C4_9 
REMARK    4  A    between atoms: C4_9  and  N4_10 
REMARK    5  A    between atoms: N5_13  and  C7_14 
REMARK    6  A    between atoms: C8_17  and  N7_18 
ROOT
HETATM    1  N4  UNL     1      12.164  -3.494  -3.953  1.00  0.00     0.109 N 
HETATM    2  C5  UNL     1      11.344  -2.604  -3.190  1.00  0.00     0.294 C 
HETATM    3  C6  UNL     1      10.785  -1.579  -4.173  1.00  0.00     0.156 C 
HETATM    4  N5  UNL     1      11.278  -2.121  -5.450  1.00  0.00    -0.338 N 
HETATM    5  C11 UNL     1      12.579  -2.700  -5.061  1.00  0.00     0.399 C 
ENDROOT
BRANCH   1   6
HETATM    6  C4  UNL     1      13.162  -4.172  -3.218  1.00  0.00     0.296 C 
BRANCH   6   7
HETATM    7  C3  UNL     1      14.441  -4.439  -3.930  1.00  0.00     0.184 C 
BRANCH   7   8
HETATM    8  N3  UNL     1      15.440  -3.518  -3.433  1.00  0.00    -0.239 N 
HETATM    9  N2  UNL     1      15.149  -2.654  -2.478  1.00  0.00    -0.275 N 
HETATM   10  C2  UNL     1      16.055  -1.801  -1.997  1.00  0.00     0.185 A 
ATOM     11  H2  UNL     1      14.203  -2.638  -2.097  1.00  0.00     0.189 HD
HETATM   12  C13 UNL     1      17.331  -1.844  -2.532  1.00  0.00     0.294 A 
HETATM   13  N10 UNL     1      17.634  -2.720  -3.502  1.00  0.00    -0.271 N 
HETATM   14  O3  UNL     1      18.208  -1.055  -2.100  1.00  0.00    -0.264 OA
HETATM   15  C12 UNL     1      16.672  -3.563  -3.952  1.00  0.00     0.344 A 
ATOM     16  H10 UNL     1      18.574  -2.751  -3.895  1.00  0.00     0.174 HD
HETATM   17  O2  UNL     1      16.920  -4.396  -4.858  1.00  0.00    -0.245 OA
BRANCH  10  18
HETATM   18  N1  UNL     1      15.758  -0.855  -0.957  1.00  0.00    -0.375 N 
HETATM   19  C1  UNL     1      15.947  -1.250   0.422  1.00  0.00     0.148 C 
ATOM     20  H1  UNL     1      15.420   0.080  -1.187  1.00  0.00     0.160 HD
ENDBRANCH  10  18
ENDBRANCH   7   8
ENDBRANCH   6   7
ENDBRANCH   1   6
BRANCH   4  21
HETATM   21  C7  UNL     1      10.665  -2.107  -6.713  1.00  0.00     0.150 A 
HETATM   22  N6  UNL     1       9.478  -2.663  -6.999  1.00  0.00    -0.175 N 
HETATM   23  C8  UNL     1       8.921  -2.633  -8.211  1.00  0.00     0.680 A 
ATOM     24  H6  UNL     1       8.974  -3.136  -6.249  1.00  0.00     0.186 HD
HETATM   25  N8  UNL     1       9.577  -2.009  -9.223  1.00  0.00    -0.155 N 
HETATM   26  C9  UNL     1      10.772  -1.423  -9.028  1.00  0.00     0.287 A 
ATOM     27  H8  UNL     1       9.154  -1.983 -10.151  1.00  0.00     0.187 HD
HETATM   28  O1  UNL     1      11.392  -0.839  -9.960  1.00  0.00    -0.265 OA
HETATM   29  C10 UNL     1      11.314  -1.477  -7.756  1.00  0.00     0.159 A 
HETATM   30  N9  UNL     1      12.564  -0.866  -7.513  1.00  0.00    -0.092 NA
BRANCH  23  31
HETATM   31  N7  UNL     1       7.767  -3.179  -8.487  1.00  0.00    -0.234 N 
ATOM     32  H72 UNL     1       7.753  -4.180  -8.680  1.00  0.00     0.174 HD
ATOM     33  H71 UNL     1       6.891  -2.657  -8.515  1.00  0.00     0.174 HD
ENDBRANCH  23  31
ENDBRANCH   4  21
TORSDOF 6
ENDMDL
MODEL 5
REMARK VINA RESULT: -8.740806139      1.787      3.061
REMARK  6 active torsions:
REMARK  status: ('A' for Active; 'I' for Inactive)
REMARK    1  A    between atoms: N1_2  and  C2_4 
REMARK    2  A    between atoms: N3_7  and  C3_8 
REMARK    3  A    between atoms: C3_8  and  C4_9 
REMARK    4  A    between atoms: C4_9  and  N4_10 
REMARK    5  A    between atoms: N5_13  and  C7_14 
REMARK    6  A    between atoms: C8_17  and  N7_18 
ROOT
HETATM    1  N4  UNL     1      14.581  -2.556  -5.706  1.00  0.00     0.109 N 
HETATM    2  C5  UNL     1      14.318  -3.826  -5.103  1.00  0.00     0.294 C 
HETATM    3  C6  UNL     1      15.373  -4.018  -4.019  1.00  0.00     0.156 C 
HETATM    4  N5  UNL     1      16.054  -2.714  -4.058  1.00  0.00    -0.338 N 
HETATM    5  C11 UNL     1      15.977  -2.365  -5.491  1.00  0.00     0.399 C 
ENDROOT
BRANCH   1   6
HETATM    6  C4  UNL     1      14.092  -2.401  -7.023  1.00  0.00     0.296 C 
BRANCH   6   7
HETATM    7  C3  UNL     1      13.261  -1.195  -7.283  1.00  0.00     0.184 C 
BRANCH   7   8
HETATM    8  N3  UNL     1      11.916  -1.626  -7.596  1.00  0.00    -0.239 N 
HETATM    9  N2  UNL     1      11.269  -2.458  -6.799  1.00  0.00    -0.275 N 
HETATM   10  C2  UNL     1      10.025  -2.863  -7.062  1.00  0.00     0.185 A 
ATOM     11  H2  UNL     1      11.734  -2.801  -5.959  1.00  0.00     0.189 HD
HETATM   12  C13 UNL     1       9.418  -2.383  -8.209  1.00  0.00     0.294 A 
HETATM   13  N10 UNL     1      10.069  -1.538  -9.021  1.00  0.00    -0.271 N 
HETATM   14  O3  UNL     1       8.247  -2.744  -8.484  1.00  0.00    -0.264 OA
HETATM   15  C12 UNL     1      11.332  -1.160  -8.705  1.00  0.00     0.344 A 
ATOM     16  H10 UNL     1       9.619  -1.184  -9.866  1.00  0.00     0.174 HD
HETATM   17  O2  UNL     1      11.971  -0.370  -9.442  1.00  0.00    -0.245 OA
BRANCH  10  18
HETATM   18  N1  UNL     1       9.305  -3.766  -6.207  1.00  0.00    -0.375 N 
HETATM   19  C1  UNL     1       9.961  -4.282  -5.025  1.00  0.00     0.148 C 
ATOM     20  H1  UNL     1       8.347  -4.038  -6.429  1.00  0.00     0.160 HD
ENDBRANCH  10  18
ENDBRANCH   7   8
ENDBRANCH   6   7
ENDBRANCH   1   6
BRANCH   4  21
HETATM   21  C7  UNL     1      16.619  -1.978  -3.004  1.00  0.00     0.150 A 
HETATM   22  N6  UNL     1      17.870  -1.492  -2.988  1.00  0.00    -0.175 N 
HETATM   23  C8  UNL     1      18.379  -0.796  -1.970  1.00  0.00     0.680 A 
ATOM     24  H6  UNL     1      18.465  -1.665  -3.798  1.00  0.00     0.186 HD
HETATM   25  N8  UNL     1      17.603  -0.556  -0.882  1.00  0.00    -0.155 N 
HETATM   26  C9  UNL     1      16.337  -1.005  -0.810  1.00  0.00     0.287 A 
ATOM     27  H8  UNL     1      17.987  -0.023  -0.102  1.00  0.00     0.187 HD
HETATM   28  O1  UNL     1      15.604  -0.788   0.195  1.00  0.00    -0.265 OA
HETATM   29  C10 UNL     1      15.848  -1.723  -1.888  1.00  0.00     0.159 A 
HETATM   30  N9  UNL     1      14.520  -2.203  -1.851  1.00  0.00    -0.092 NA
BRANCH  23  31
HETATM   31  N7  UNL     1      19.597  -0.326  -1.957  1.00  0.00    -0.234 N 
ATOM     32  H72 UNL     1      19.932   0.140  -2.800  1.00  0.00     0.174 HD
ATOM     33  H71 UNL     1      20.220  -0.401  -1.152  1.00  0.00     0.174 HD
ENDBRANCH  23  31
ENDBRANCH   4  21
TORSDOF 6
ENDMDL
