MODEL 1
REMARK VINA RESULT: -7.805071009      0.000      0.000
REMARK  10 active torsions:
REMARK  status: ('A' for Active; 'I' for Inactive)
REMARK    1  A    between atoms: N1_1  and  C1_4 
REMARK    2  A    between atoms: C3_8  and  C4_9 
REMARK    3  A    between atoms: C5_10  and  C6_11 
REMARK    4  A    between atoms: C7_12  and  N3_13 
REMARK    5  A    between atoms: N3_13  and  O1_15 
REMARK    6  A    between atoms: O1_15  and  C8_16 
REMARK    7  A    between atoms: C8_16  and  C9_18 
REMARK    8  A    between atoms: N4_20  and  C10_21 
REMARK    9  A    between atoms: C10_21  and  C11_22 
REMARK   10  A    between atoms: C11_22  and  O4_23 
ROOT
HETATM    1  C6  UNL     1      14.727  -2.162  -5.610  1.00  0.00     0.132 A 
HETATM    2  C7  UNL     1      14.926  -2.464  -4.250  1.00  0.00     0.156 A 
HETATM    3  N4  UNL     1      16.170  -2.285  -3.806  1.00  0.00    -0.280 N 
HETATM    4  C12 UNL     1      17.175  -1.836  -4.644  1.00  0.00     0.331 A 
HETATM    5  O5  UNL     1      18.341  -1.688  -4.156  1.00  0.00    -0.246 OA
HETATM    6  N5  UNL     1      16.986  -1.552  -5.927  1.00  0.00    -0.274 N 
ATOM      7  H5  UNL     1      17.751  -1.223  -6.516  1.00  0.00     0.173 HD
HETATM    8  C13 UNL     1      15.753  -1.715  -6.416  1.00  0.00     0.272 A 
HETATM    9  O6  UNL     1      15.488  -1.469  -7.626  1.00  0.00    -0.266 OA
ENDROOT
BRANCH   1  10
HETATM   10  C5  UNL     1      13.392  -2.343  -6.129  1.00  0.00    -0.051 C 
HETATM   11  C4  UNL     1      12.278  -2.517  -6.564  1.00  0.00    -0.054 C 
BRANCH  11  12
HETATM   12  C3  UNL     1      10.949  -2.737  -7.059  1.00  0.00     0.102 A 
HETATM   13  C2  UNL     1      10.131  -3.736  -6.556  1.00  0.00     0.132 A 
HETATM   14  N2  UNL     1       8.877  -3.932  -7.031  1.00  0.00    -0.201 N 
HETATM   15  C1  UNL     1       8.405  -3.154  -8.006  1.00  0.00     0.678 A 
ATOM     16  H2  UNL     1       8.295  -4.675  -6.643  1.00  0.00     0.183 HD
HETATM   17  N6  UNL     1       9.175  -2.181  -8.510  1.00  0.00    -0.155 N 
HETATM   18  C14 UNL     1      10.425  -1.953  -8.066  1.00  0.00     0.279 A 
ATOM     19  H6  UNL     1       8.802  -1.592  -9.255  1.00  0.00     0.187 HD
HETATM   20  O7  UNL     1      11.145  -1.027  -8.554  1.00  0.00    -0.266 OA
BRANCH  15  21
HETATM   21  N1  UNL     1       7.200  -3.344  -8.461  1.00  0.00    -0.234 N 
ATOM     22  H12 UNL     1       6.404  -2.877  -8.027  1.00  0.00     0.174 HD
ATOM     23  H11 UNL     1       7.048  -3.966  -9.256  1.00  0.00     0.174 HD
ENDBRANCH  15  21
ENDBRANCH  11  12
ENDBRANCH   1  10
BRANCH   2  24
HETATM   24  N3  UNL     1      13.859  -2.904  -3.482  1.00  0.00    -0.239 N 
ATOM     25  H3  UNL     1      13.830  -3.917  -3.364  1.00  0.00     0.196 HD
BRANCH  24  26
HETATM   26  O1  UNL     1      12.858  -2.261  -2.864  1.00  0.00    -0.191 OA
BRANCH  26  27
HETATM   27  C8  UNL     1      11.537  -2.274  -3.203  1.00  0.00     0.342 C 
HETATM   28  O2  UNL     1      11.035  -1.196  -3.639  1.00  0.00    -0.255 OA
BRANCH  27  29
HETATM   29  C9  UNL     1      10.730  -3.491  -3.067  1.00  0.00     0.342 C 
HETATM   30  O3  UNL     1      11.315  -4.573  -2.825  1.00  0.00    -0.296 OA
ENDBRANCH  27  29
ENDBRANCH  26  27
ENDBRANCH  24  26
ENDBRANCH   2  24
BRANCH   3  31
HETATM   31  C10 UNL     1      16.521  -2.548  -2.453  1.00  0.00     0.161 C 
BRANCH  31  32
HETATM   32  C11 UNL     1      16.273  -1.264  -1.657  1.00  0.00     0.184 C 
BRANCH  32  33
HETATM   33  O4  UNL     1      15.051  -1.325  -0.986  1.00  0.00    -0.399 OA
ATOM     34  H4  UNL     1      15.048  -0.744  -0.234  1.00  0.00     0.209 HD
ENDBRANCH  32  33
ENDBRANCH  31  32
ENDBRANCH   3  31
TORSDOF 10
ENDMDL
MODEL 2
REMARK VINA RESULT: -7.750317343      2.504      4.304
REMARK  10 active torsions:
REMARK  status: ('A' for Active; 'I' for Inactive)
REMARK    1  A    between atoms: N1_1  and  C1_4 
REMARK    2  A    between atoms: C3_8  and  C4_9 
REMARK    3  A    between atoms: C5_10  and  C6_11 
REMARK    4  A    between atoms: C7_12  and  N3_13 
REMARK    5  A    between atoms: N3_13  and  O1_15 
REMARK    6  A    between atoms: O1_15  and  C8_16 
REMARK    7  A    between atoms: C8_16  and  C9_18 
REMARK    8  A    between atoms: N4_20  and  C10_21 
REMARK    9  A    between atoms: C10_21  and  C11_22 
REMARK   10  A    between atoms: C11_22  and  O4_23 
ROOT
HETATM    1  C6  UNL     1      15.827  -2.406  -5.093  1.00  0.00     0.132 A 
HETATM    2  C7  UNL     1      16.738  -2.177  -4.045  1.00  0.00     0.156 A 
HETATM    3  N4  UNL     1      17.989  -1.922  -4.428  1.00  0.00    -0.280 N 
HETATM    4  C12 UNL     1      18.340  -1.892  -5.766  1.00  0.00     0.331 A 
HETATM    5  O5  UNL     1      19.552  -1.644  -6.063  1.00  0.00    -0.246 OA
HETATM    6  N5  UNL     1      17.479  -2.109  -6.754  1.00  0.00    -0.274 N 
ATOM      7  H5  UNL     1      17.772  -2.079  -7.730  1.00  0.00     0.173 HD
HETATM    8  C13 UNL     1      16.212  -2.367  -6.416  1.00  0.00     0.272 A 
HETATM    9  O6  UNL     1      15.330  -2.586  -7.293  1.00  0.00    -0.266 OA
ENDROOT
BRANCH   1  10
HETATM   10  C5  UNL     1      14.461  -2.686  -4.718  1.00  0.00    -0.051 C 
HETATM   11  C4  UNL     1      13.314  -2.898  -4.403  1.00  0.00    -0.054 C 
BRANCH  11  12
HETATM   12  C3  UNL     1      11.943  -3.139  -4.051  1.00  0.00     0.102 A 
HETATM   13  C2  UNL     1      10.893  -2.521  -4.710  1.00  0.00     0.132 A 
HETATM   14  N2  UNL     1       9.603  -2.758  -4.370  1.00  0.00    -0.201 N 
HETATM   15  C1  UNL     1       9.321  -3.604  -3.378  1.00  0.00     0.678 A 
ATOM     16  H2  UNL     1       8.848  -2.289  -4.871  1.00  0.00     0.183 HD
HETATM   17  N6  UNL     1      10.318  -4.217  -2.725  1.00  0.00    -0.155 N 
HETATM   18  C14 UNL     1      11.611  -4.008  -3.032  1.00  0.00     0.279 A 
ATOM     19  H6  UNL     1      10.089  -4.862  -1.969  1.00  0.00     0.187 HD
HETATM   20  O7  UNL     1      12.547  -4.595  -2.403  1.00  0.00    -0.266 OA
BRANCH  15  21
HETATM   21  N1  UNL     1       8.081  -3.831  -3.053  1.00  0.00    -0.234 N 
ATOM     22  H12 UNL     1       7.364  -3.128  -3.227  1.00  0.00     0.174 HD
ATOM     23  H11 UNL     1       7.824  -4.719  -2.620  1.00  0.00     0.174 HD
ENDBRANCH  15  21
ENDBRANCH  11  12
ENDBRANCH   1  10
BRANCH   2  24
HETATM   24  N3  UNL     1      16.298  -2.222  -2.731  1.00  0.00    -0.239 N 
ATOM     25  H3  UNL     1      16.498  -3.106  -2.262  1.00  0.00     0.196 HD
BRANCH  24  26
HETATM   26  O1  UNL     1      15.663  -1.331  -1.955  1.00  0.00    -0.191 OA
BRANCH  26  27
HETATM   27  C8  UNL     1      16.021  -0.925  -0.704  1.00  0.00     0.342 C 
HETATM   28  O2  UNL     1      15.618  -1.622   0.274  1.00  0.00    -0.255 OA
BRANCH  27  29
HETATM   29  C9  UNL     1      16.843   0.272  -0.500  1.00  0.00     0.342 C 
HETATM   30  O3  UNL     1      17.166   0.583   0.670  1.00  0.00    -0.296 OA
ENDBRANCH  27  29
ENDBRANCH  26  27
ENDBRANCH  24  26
ENDBRANCH   2  24
BRANCH   3  31
HETATM   31  C10 UNL     1      19.020  -1.670  -3.481  1.00  0.00     0.161 C 
BRANCH  31  32
HETATM   32  C11 UNL     1      19.134  -0.151  -3.320  1.00  0.00     0.184 C 
BRANCH  32  33
HETATM   33  O4  UNL     1      20.320   0.320  -3.886  1.00  0.00    -0.399 OA
ATOM     34  H4  UNL     1      20.979   0.464  -3.218  1.00  0.00     0.209 HD
ENDBRANCH  32  33
ENDBRANCH  31  32
ENDBRANCH   3  31
TORSDOF 10
ENDMDL
MODEL 3
REMARK VINA RESULT: -7.693136116      2.359      3.935
REMARK  10 active torsions:
REMARK  status: ('A' for Active; 'I' for Inactive)
REMARK    1  A    between atoms: N1_1  and  C1_4 
REMARK    2  A    between atoms: C3_8  and  C4_9 
REMARK    3  A    between atoms: C5_10  and  C6_11 
REMARK    4  A    between atoms: C7_12  and  N3_13 
REMARK    5  A    between atoms: N3_13  and  O1_15 
REMARK    6  A    between atoms: O1_15  and  C8_16 
REMARK    7  A    between atoms: C8_16  and  C9_18 
REMARK    8  A    between atoms: N4_20  and  C10_21 
REMARK    9  A    between atoms: C10_21  and  C11_22 
REMARK   10  A    between atoms: C11_22  and  O4_23 
ROOT
HETATM    1  C6  UNL     1      15.707  -2.545  -5.129  1.00  0.00     0.132 A 
HETATM    2  C7  UNL     1      16.595  -2.293  -4.067  1.00  0.00     0.156 A 
HETATM    3  N4  UNL     1      17.849  -2.020  -4.430  1.00  0.00    -0.280 N 
HETATM    4  C12 UNL     1      18.223  -1.994  -5.761  1.00  0.00     0.331 A 
HETATM    5  O5  UNL     1      19.437  -1.728  -6.038  1.00  0.00    -0.246 OA
HETATM    6  N5  UNL     1      17.384  -2.234  -6.762  1.00  0.00    -0.274 N 
ATOM      7  H5  UNL     1      17.695  -2.207  -7.733  1.00  0.00     0.173 HD
HETATM    8  C13 UNL     1      16.115  -2.511  -6.445  1.00  0.00     0.272 A 
HETATM    9  O6  UNL     1      15.254  -2.751  -7.337  1.00  0.00    -0.266 OA
ENDROOT
BRANCH   1  10
HETATM   10  C5  UNL     1      14.340  -2.845  -4.777  1.00  0.00    -0.051 C 
HETATM   11  C4  UNL     1      13.192  -3.105  -4.503  1.00  0.00    -0.054 C 
BRANCH  11  12
HETATM   12  C3  UNL     1      11.833  -3.438  -4.180  1.00  0.00     0.102 A 
HETATM   13  C2  UNL     1      11.443  -3.782  -2.897  1.00  0.00     0.132 A 
HETATM   14  N2  UNL     1      10.157  -4.093  -2.605  1.00  0.00    -0.201 N 
HETATM   15  C1  UNL     1       9.232  -4.073  -3.566  1.00  0.00     0.678 A 
ATOM     16  H2  UNL     1       9.896  -4.343  -1.651  1.00  0.00     0.183 HD
HETATM   17  N6  UNL     1       9.583  -3.743  -4.817  1.00  0.00    -0.155 N 
HETATM   18  C14 UNL     1      10.849  -3.427  -5.147  1.00  0.00     0.279 A 
ATOM     19  H6  UNL     1       8.866  -3.730  -5.543  1.00  0.00     0.187 HD
HETATM   20  O7  UNL     1      11.167  -3.117  -6.338  1.00  0.00    -0.266 OA
BRANCH  15  21
HETATM   21  N1  UNL     1       7.997  -4.371  -3.284  1.00  0.00    -0.234 N 
ATOM     22  H12 UNL     1       7.613  -5.279  -3.543  1.00  0.00     0.174 HD
ATOM     23  H11 UNL     1       7.407  -3.693  -2.802  1.00  0.00     0.174 HD
ENDBRANCH  15  21
ENDBRANCH  11  12
ENDBRANCH   1  10
BRANCH   2  24
HETATM   24  N3  UNL     1      16.133  -2.334  -2.761  1.00  0.00    -0.239 N 
ATOM     25  H3  UNL     1      16.310  -3.222  -2.291  1.00  0.00     0.196 HD
BRANCH  24  26
HETATM   26  O1  UNL     1      15.497  -1.436  -1.994  1.00  0.00    -0.191 OA
BRANCH  26  27
HETATM   27  C8  UNL     1      15.903  -0.952  -0.785  1.00  0.00     0.342 C 
HETATM   28  O2  UNL     1      15.588  -1.617   0.246  1.00  0.00    -0.255 OA
BRANCH  27  29
HETATM   29  C9  UNL     1      16.673   0.292  -0.684  1.00  0.00     0.342 C 
HETATM   30  O3  UNL     1      16.951   0.732   0.455  1.00  0.00    -0.296 OA
ENDBRANCH  27  29
ENDBRANCH  26  27
ENDBRANCH  24  26
ENDBRANCH   2  24
BRANCH   3  31
HETATM   31  C10 UNL     1      18.857  -1.742  -3.466  1.00  0.00     0.161 C 
BRANCH  31  32
HETATM   32  C11 UNL     1      19.008  -0.221  -3.384  1.00  0.00     0.184 C 
BRANCH  32  33
HETATM   33  O4  UNL     1      20.277   0.176  -3.810  1.00  0.00    -0.399 OA
ATOM     34  H4  UNL     1      20.873  -0.564  -3.830  1.00  0.00     0.209 HD
ENDBRANCH  32  33
ENDBRANCH  31  32
ENDBRANCH   3  31
TORSDOF 10
ENDMDL
MODEL 4
REMARK VINA RESULT: -7.687436529      2.291      7.703
REMARK  10 active torsions:
REMARK  status: ('A' for Active; 'I' for Inactive)
REMARK    1  A    between atoms: N1_1  and  C1_4 
REMARK    2  A    between atoms: C3_8  and  C4_9 
REMARK    3  A    between atoms: C5_10  and  C6_11 
REMARK    4  A    between atoms: C7_12  and  N3_13 
REMARK    5  A    between atoms: N3_13  and  O1_15 
REMARK    6  A    between atoms: O1_15  and  C8_16 
REMARK    7  A    between atoms: C8_16  and  C9_18 
REMARK    8  A    between atoms: N4_20  and  C10_21 
REMARK    9  A    between atoms: C10_21  and  C11_22 
REMARK   10  A    between atoms: C11_22  and  O4_23 
ROOT
HETATM    1  C6  UNL     1      12.494  -3.419  -4.042  1.00  0.00     0.132 A 
HETATM    2  C7  UNL     1      11.957  -3.056  -5.290  1.00  0.00     0.156 A 
HETATM    3  N4  UNL     1      10.746  -3.551  -5.551  1.00  0.00    -0.280 N 
HETATM    4  C12 UNL     1      10.089  -4.361  -4.642  1.00  0.00     0.331 A 
HETATM    5  O5  UNL     1       8.936  -4.800  -4.955  1.00  0.00    -0.246 OA
HETATM    6  N5  UNL     1      10.598  -4.703  -3.465  1.00  0.00    -0.274 N 
ATOM      7  H5  UNL     1      10.085  -5.302  -2.819  1.00  0.00     0.173 HD
HETATM    8  C13 UNL     1      11.810  -4.228  -3.160  1.00  0.00     0.272 A 
HETATM    9  O6  UNL     1      12.366  -4.506  -2.061  1.00  0.00    -0.266 OA
ENDROOT
BRANCH   1  10
HETATM   10  C5  UNL     1      13.804  -2.903  -3.722  1.00  0.00    -0.051 C 
HETATM   11  C4  UNL     1      14.891  -2.458  -3.440  1.00  0.00    -0.054 C 
BRANCH  11  12
HETATM   12  C3  UNL     1      16.180  -1.938  -3.080  1.00  0.00     0.102 A 
HETATM   13  C2  UNL     1      17.285  -2.070  -3.906  1.00  0.00     0.132 A 
HETATM   14  N2  UNL     1      18.496  -1.574  -3.556  1.00  0.00    -0.201 N 
HETATM   15  C1  UNL     1      18.645  -0.940  -2.391  1.00  0.00     0.678 A 
ATOM     16  H2  UNL     1      19.294  -1.684  -4.182  1.00  0.00     0.183 HD
HETATM   17  N6  UNL     1      17.592  -0.798  -1.574  1.00  0.00    -0.155 N 
HETATM   18  C14 UNL     1      16.373  -1.277  -1.885  1.00  0.00     0.279 A 
ATOM     19  H6  UNL     1      17.719  -0.311  -0.686  1.00  0.00     0.187 HD
HETATM   20  O7  UNL     1      15.384  -1.135  -1.100  1.00  0.00    -0.266 OA
BRANCH  15  21
HETATM   21  N1  UNL     1      19.809  -0.463  -2.057  1.00  0.00    -0.234 N 
ATOM     22  H12 UNL     1      20.414  -0.037  -2.758  1.00  0.00     0.174 HD
ATOM     23  H11 UNL     1      20.121  -0.517  -1.087  1.00  0.00     0.174 HD
ENDBRANCH  15  21
ENDBRANCH  11  12
ENDBRANCH   1  10
BRANCH   2  24
HETATM   24  N3  UNL     1      12.684  -2.235  -6.138  1.00  0.00    -0.239 N 
ATOM     25  H3  UNL     1      12.723  -1.263  -5.832  1.00  0.00     0.196 HD
BRANCH  24  26
HETATM   26  O1  UNL     1      13.345  -2.468  -7.282  1.00  0.00    -0.191 OA
BRANCH  26  27
HETATM   27  C8  UNL     1      13.825  -1.541  -8.158  1.00  0.00     0.342 C 
HETATM   28  O2  UNL     1      13.255  -0.409  -8.182  1.00  0.00    -0.255 OA
BRANCH  27  29
HETATM   29  C9  UNL     1      14.957  -1.842  -9.040  1.00  0.00     0.342 C 
HETATM   30  O3  UNL     1      15.297  -3.039  -9.189  1.00  0.00    -0.296 OA
ENDBRANCH  27  29
ENDBRANCH  26  27
ENDBRANCH  24  26
ENDBRANCH   2  24
BRANCH   3  31
HETATM   31  C10 UNL     1      10.076  -3.269  -6.774  1.00  0.00     0.161 C 
BRANCH  31  32
HETATM   32  C11 UNL     1       9.771  -1.768  -6.795  1.00  0.00     0.184 C 
BRANCH  32  33
HETATM   33  O4  UNL     1      10.437  -1.141  -7.849  1.00  0.00    -0.399 OA
ATOM     34  H4  UNL     1       9.884  -1.100  -8.621  1.00  0.00     0.209 HD
ENDBRANCH  32  33
ENDBRANCH  31  32
ENDBRANCH   3  31
TORSDOF 10
ENDMDL
MODEL 5
REMARK VINA RESULT: -7.575827792      2.414      4.370
REMARK  10 active torsions:
REMARK  status: ('A' for Active; 'I' for Inactive)
REMARK    1  A    between atoms: N1_1  and  C1_4 
REMARK    2  A    between atoms: C3_8  and  C4_9 
REMARK    3  A    between atoms: C5_10  and  C6_11 
REMARK    4  A    between atoms: C7_12  and  N3_13 
REMARK    5  A    between atoms: N3_13  and  O1_15 
REMARK    6  A    between atoms: O1_15  and  C8_16 
REMARK    7  A    between atoms: C8_16  and  C9_18 
REMARK    8  A    between atoms: N4_20  and  C10_21 
REMARK    9  A    between atoms: C10_21  and  C11_22 
REMARK   10  A    between atoms: C11_22  and  O4_23 
ROOT
HETATM    1  C6  UNL     1      15.698  -1.926  -2.699  1.00  0.00     0.132 A 
HETATM    2  C7  UNL     1      16.519  -1.961  -3.841  1.00  0.00     0.156 A 
HETATM    3  N4  UNL     1      17.772  -1.547  -3.651  1.00  0.00    -0.280 N 
HETATM    4  C12 UNL     1      18.208  -1.118  -2.411  1.00  0.00     0.331 A 
HETATM    5  O5  UNL     1      19.417  -0.735  -2.300  1.00  0.00    -0.246 OA
HETATM    6  N5  UNL     1      17.432  -1.085  -1.334  1.00  0.00    -0.274 N 
ATOM      7  H5  UNL     1      17.787  -0.762  -0.434  1.00  0.00     0.173 HD
HETATM    8  C13 UNL     1      16.167  -1.492  -1.477  1.00  0.00     0.272 A 
HETATM    9  O6  UNL     1      15.363  -1.491  -0.503  1.00  0.00    -0.266 OA
ENDROOT
BRANCH   1  10
HETATM   10  C5  UNL     1      14.333  -2.366  -2.864  1.00  0.00    -0.051 C 
HETATM   11  C4  UNL     1      13.195  -2.738  -3.024  1.00  0.00    -0.054 C 
BRANCH  11  12
HETATM   12  C3  UNL     1      11.851  -3.203  -3.221  1.00  0.00     0.102 A 
HETATM   13  C2  UNL     1      11.497  -4.530  -3.043  1.00  0.00     0.132 A 
HETATM   14  N2  UNL     1      10.224  -4.956  -3.230  1.00  0.00    -0.201 N 
HETATM   15  C1  UNL     1       9.278  -4.090  -3.596  1.00  0.00     0.678 A 
ATOM     16  H2  UNL     1       9.990  -5.940  -3.092  1.00  0.00     0.183 HD
HETATM   17  N6  UNL     1       9.594  -2.800  -3.775  1.00  0.00    -0.155 N 
HETATM   18  C14 UNL     1      10.846  -2.337  -3.599  1.00  0.00     0.279 A 
ATOM     19  H6  UNL     1       8.862  -2.146  -4.054  1.00  0.00     0.187 HD
HETATM   20  O7  UNL     1      11.131  -1.111  -3.772  1.00  0.00    -0.266 OA
BRANCH  15  21
HETATM   21  N1  UNL     1       8.057  -4.501  -3.775  1.00  0.00    -0.234 N 
ATOM     22  H12 UNL     1       7.324  -3.843  -4.041  1.00  0.00     0.174 HD
ATOM     23  H11 UNL     1       7.828  -5.487  -3.648  1.00  0.00     0.174 HD
ENDBRANCH  15  21
ENDBRANCH  11  12
ENDBRANCH   1  10
BRANCH   2  24
HETATM   24  N3  UNL     1      16.000  -2.411  -5.045  1.00  0.00    -0.239 N 
ATOM     25  H3  UNL     1      16.034  -3.425  -5.153  1.00  0.00     0.196 HD
BRANCH  24  26
HETATM   26  O1  UNL     1      15.462  -1.776  -6.097  1.00  0.00    -0.191 OA
BRANCH  26  27
HETATM   27  C8  UNL     1      14.520  -2.258  -6.957  1.00  0.00     0.342 C 
HETATM   28  O2  UNL     1      14.928  -2.766  -8.044  1.00  0.00    -0.255 OA
BRANCH  27  29
HETATM   29  C9  UNL     1      13.092  -2.192  -6.636  1.00  0.00     0.342 C 
HETATM   30  O3  UNL     1      12.471  -1.132  -6.883  1.00  0.00    -0.296 OA
ENDBRANCH  27  29
ENDBRANCH  26  27
ENDBRANCH  24  26
ENDBRANCH   2  24
BRANCH   3  31
HETATM   31  C10 UNL     1      18.717  -1.528  -4.715  1.00  0.00     0.161 C 
BRANCH  31  32
HETATM   32  C11 UNL     1      18.559  -0.192  -5.445  1.00  0.00     0.184 C 
BRANCH  32  33
HETATM   33  O4  UNL     1      17.865  -0.361  -6.644  1.00  0.00    -0.399 OA
ATOM     34  H4  UNL     1      18.455  -0.618  -7.343  1.00  0.00     0.209 HD
ENDBRANCH  32  33
ENDBRANCH  31  32
ENDBRANCH   3  31
TORSDOF 10
ENDMDL
