MODEL 1
REMARK VINA RESULT: -8.210204600      0.000      0.000
REMARK  10 active torsions:
REMARK  status: ('A' for Active; 'I' for Inactive)
REMARK    1  A    between atoms: O1_1  and  C1_3 
REMARK    2  A    between atoms: C3_6  and  O3_7 
REMARK    3  A    between atoms: O3_7  and  C4_8 
REMARK    4  A    between atoms: C6_11  and  O5_12 
REMARK    5  A    between atoms: O5_12  and  C7_13 
REMARK    6  A    between atoms: C7_13  and  C8_14 
REMARK    7  A    between atoms: C10_17  and  O7_18 
REMARK    8  A    between atoms: C11_20  and  O8_21 
REMARK    9  A    between atoms: C12_23  and  O9_24 
REMARK   10  A    between atoms: C14_27  and  O10_28 
ROOT
HETATM    1  C4  UNL     1      11.098  -4.928   8.254  1.00  0.00     0.153 C 
HETATM    2  C5  UNL     1      10.993  -4.829   6.751  1.00  0.00     0.203 C 
HETATM    3  O4  UNL     1      10.593  -3.514   6.529  1.00  0.00    -0.359 OA
HETATM    4  C6  UNL     1       9.560  -3.317   7.474  1.00  0.00     0.262 C 
HETATM    5  C13 UNL     1      10.050  -3.963   8.746  1.00  0.00     0.095 C 
ENDROOT
BRANCH   4   6
HETATM    6  O5  UNL     1       9.347  -1.939   7.653  1.00  0.00    -0.359 OA
BRANCH   6   7
HETATM    7  C7  UNL     1       9.727  -1.315   6.483  1.00  0.00     0.205 C 
BRANCH   7   8
HETATM    8  C8  UNL     1       9.584   0.170   6.504  1.00  0.00     0.176 C 
HETATM    9  O6  UNL     1       8.565   0.583   5.677  1.00  0.00    -0.378 OA
HETATM   10  C9  UNL     1       8.603   1.914   5.342  1.00  0.00     0.202 C 
HETATM   11  C10 UNL     1       9.510   2.744   6.202  1.00  0.00     0.173 C 
HETATM   12  C11 UNL     1      10.911   2.247   6.072  1.00  0.00     0.180 C 
HETATM   13  C12 UNL     1      10.900   0.746   5.971  1.00  0.00     0.180 C 
BRANCH  11  14
HETATM   14  O7  UNL     1       9.473   4.054   5.695  1.00  0.00    -0.391 OA
ATOM     15  H7  UNL     1      10.316   4.220   5.291  1.00  0.00     0.210 HD
ENDBRANCH  11  14
BRANCH  12  16
HETATM   16  O8  UNL     1      11.586   2.824   4.997  1.00  0.00    -0.390 OA
ATOM     17  H8  UNL     1      11.794   2.194   4.317  1.00  0.00     0.210 HD
ENDBRANCH  12  16
BRANCH  13  18
HETATM   18  O9  UNL     1      11.018   0.301   4.657  1.00  0.00    -0.390 OA
ATOM     19  H9  UNL     1      11.003   1.078   4.110  1.00  0.00     0.210 HD
ENDBRANCH  13  18
ENDBRANCH   7   8
ENDBRANCH   6   7
ENDBRANCH   4   6
BRANCH   1  20
HETATM   20  O3  UNL     1      12.378  -4.573   8.628  1.00  0.00    -0.351 OA
BRANCH  20  21
HETATM   21  C3  UNL     1      13.273  -5.184   7.782  1.00  0.00     0.291 C 
HETATM   22  O2  UNL     1      14.506  -4.570   7.730  1.00  0.00    -0.356 OA
HETATM   23  C2  UNL     1      15.276  -5.497   7.027  1.00  0.00     0.205 C 
HETATM   24  C1  UNL     1      14.965  -6.817   7.677  1.00  0.00     0.175 C 
HETATM   25  C14 UNL     1      13.609  -6.566   8.299  1.00  0.00     0.204 C 
BRANCH  24  26
HETATM   26  O1  UNL     1      14.811  -7.844   6.755  1.00  0.00    -0.391 OA
ATOM     27  H1  UNL     1      14.286  -8.561   7.091  1.00  0.00     0.210 HD
ENDBRANCH  24  26
BRANCH  25  28
HETATM   28  O10 UNL     1      13.719  -6.474   9.687  1.00  0.00    -0.388 OA
ATOM     29  H10 UNL     1      14.164  -5.671   9.931  1.00  0.00     0.210 HD
ENDBRANCH  25  28
ENDBRANCH  20  21
ENDBRANCH   1  20
TORSDOF 10
ENDMDL
MODEL 2
REMARK VINA RESULT: -7.952471208      1.568      8.403
REMARK  10 active torsions:
REMARK  status: ('A' for Active; 'I' for Inactive)
REMARK    1  A    between atoms: O1_1  and  C1_3 
REMARK    2  A    between atoms: C3_6  and  O3_7 
REMARK    3  A    between atoms: O3_7  and  C4_8 
REMARK    4  A    between atoms: C6_11  and  O5_12 
REMARK    5  A    between atoms: O5_12  and  C7_13 
REMARK    6  A    between atoms: C7_13  and  C8_14 
REMARK    7  A    between atoms: C10_17  and  O7_18 
REMARK    8  A    between atoms: C11_20  and  O8_21 
REMARK    9  A    between atoms: C12_23  and  O9_24 
REMARK   10  A    between atoms: C14_27  and  O10_28 
ROOT
HETATM    1  C4  UNL     1       9.603  -2.283   5.786  1.00  0.00     0.153 C 
HETATM    2  C5  UNL     1       9.291  -3.547   6.551  1.00  0.00     0.203 C 
HETATM    3  O4  UNL     1      10.541  -4.112   6.788  1.00  0.00    -0.359 OA
HETATM    4  C6  UNL     1      11.195  -4.007   5.540  1.00  0.00     0.262 C 
HETATM    5  C13 UNL     1      10.853  -2.633   5.020  1.00  0.00     0.095 C 
ENDROOT
BRANCH   4   6
HETATM    6  O5  UNL     1      12.581  -4.150   5.725  1.00  0.00    -0.359 OA
BRANCH   6   7
HETATM    7  C7  UNL     1      12.794  -4.317   7.077  1.00  0.00     0.205 C 
BRANCH   7   8
HETATM    8  C8  UNL     1      13.351  -5.651   7.451  1.00  0.00     0.176 C 
HETATM    9  O6  UNL     1      13.336  -5.831   8.815  1.00  0.00    -0.378 OA
HETATM   10  C9  UNL     1      14.155  -6.835   9.268  1.00  0.00     0.202 C 
HETATM   11  C10 UNL     1      14.633  -7.775   8.202  1.00  0.00     0.173 C 
HETATM   12  C11 UNL     1      15.431  -7.018   7.193  1.00  0.00     0.180 C 
HETATM   13  C12 UNL     1      14.809  -5.665   6.980  1.00  0.00     0.180 C 
BRANCH  11  14
HETATM   14  O7  UNL     1      15.493  -8.698   8.821  1.00  0.00    -0.391 OA
ATOM     15  H7  UNL     1      16.166  -8.919   8.188  1.00  0.00     0.210 HD
ENDBRANCH  11  14
BRANCH  12  16
HETATM   16  O8  UNL     1      16.775  -6.911   7.545  1.00  0.00    -0.390 OA
ATOM     17  H8  UNL     1      17.288  -6.453   6.889  1.00  0.00     0.210 HD
ENDBRANCH  12  16
BRANCH  13  18
HETATM   18  O9  UNL     1      15.461  -4.663   7.694  1.00  0.00    -0.390 OA
ATOM     19  H9  UNL     1      16.349  -4.631   7.359  1.00  0.00     0.210 HD
ENDBRANCH  13  18
ENDBRANCH   7   8
ENDBRANCH   6   7
ENDBRANCH   4   6
BRANCH   1  20
HETATM   20  O3  UNL     1       9.793  -1.258   6.691  1.00  0.00    -0.351 OA
BRANCH  20  21
HETATM   21  C3  UNL     1       8.813  -0.312   6.502  1.00  0.00     0.291 C 
HETATM   22  O2  UNL     1       8.272   0.179   7.671  1.00  0.00    -0.356 OA
HETATM   23  C2  UNL     1       7.516   1.262   7.224  1.00  0.00     0.205 C 
HETATM   24  C1  UNL     1       8.433   2.000   6.288  1.00  0.00     0.175 C 
HETATM   25  C14 UNL     1       9.408   0.925   5.864  1.00  0.00     0.204 C 
BRANCH  24  26
HETATM   26  O1  UNL     1       7.784   2.442   5.142  1.00  0.00    -0.391 OA
ATOM     27  H1  UNL     1       8.034   1.951   4.368  1.00  0.00     0.210 HD
ENDBRANCH  24  26
BRANCH  25  28
HETATM   28  O10 UNL     1      10.654   1.137   6.454  1.00  0.00    -0.388 OA
ATOM     29  H10 UNL     1      11.180   0.348   6.411  1.00  0.00     0.210 HD
ENDBRANCH  25  28
ENDBRANCH  20  21
ENDBRANCH   1  20
TORSDOF 10
ENDMDL
MODEL 3
REMARK VINA RESULT: -7.863407117      1.025      1.676
REMARK  10 active torsions:
REMARK  status: ('A' for Active; 'I' for Inactive)
REMARK    1  A    between atoms: O1_1  and  C1_3 
REMARK    2  A    between atoms: C3_6  and  O3_7 
REMARK    3  A    between atoms: O3_7  and  C4_8 
REMARK    4  A    between atoms: C6_11  and  O5_12 
REMARK    5  A    between atoms: O5_12  and  C7_13 
REMARK    6  A    between atoms: C7_13  and  C8_14 
REMARK    7  A    between atoms: C10_17  and  O7_18 
REMARK    8  A    between atoms: C11_20  and  O8_21 
REMARK    9  A    between atoms: C12_23  and  O9_24 
REMARK   10  A    between atoms: C14_27  and  O10_28 
ROOT
HETATM    1  C4  UNL     1      11.273  -4.784   7.288  1.00  0.00     0.153 C 
HETATM    2  C5  UNL     1      11.340  -4.843   5.781  1.00  0.00     0.203 C 
HETATM    3  O4  UNL     1      10.866  -3.599   5.375  1.00  0.00    -0.359 OA
HETATM    4  C6  UNL     1       9.716  -3.406   6.173  1.00  0.00     0.262 C 
HETATM    5  C13 UNL     1      10.100  -3.876   7.554  1.00  0.00     0.095 C 
ENDROOT
BRANCH   4   6
HETATM    6  O5  UNL     1       9.373  -2.042   6.178  1.00  0.00    -0.359 OA
BRANCH   6   7
HETATM    7  C7  UNL     1      10.497  -1.341   5.794  1.00  0.00     0.205 C 
BRANCH   7   8
HETATM    8  C8  UNL     1      10.254   0.106   5.520  1.00  0.00     0.176 C 
HETATM    9  O6  UNL     1      11.240   0.889   6.075  1.00  0.00    -0.378 OA
HETATM   10  C9  UNL     1      10.912   2.216   6.204  1.00  0.00     0.202 C 
HETATM   11  C10 UNL     1       9.713   2.639   5.408  1.00  0.00     0.173 C 
HETATM   12  C11 UNL     1       8.517   1.873   5.868  1.00  0.00     0.180 C 
HETATM   13  C12 UNL     1       8.923   0.462   6.192  1.00  0.00     0.180 C 
BRANCH  11  14
HETATM   14  O7  UNL     1       9.487   3.996   5.694  1.00  0.00    -0.391 OA
ATOM     15  H7  UNL     1       9.273   4.422   4.872  1.00  0.00     0.210 HD
ENDBRANCH  11  14
BRANCH  12  16
HETATM   16  O8  UNL     1       7.876   2.479   6.947  1.00  0.00    -0.390 OA
ATOM     17  H8  UNL     1       7.614   3.373   6.760  1.00  0.00     0.210 HD
ENDBRANCH  12  16
BRANCH  13  18
HETATM   18  O9  UNL     1       9.108   0.263   7.558  1.00  0.00    -0.390 OA
ATOM     19  H9  UNL     1      10.033   0.403   7.725  1.00  0.00     0.210 HD
ENDBRANCH  13  18
ENDBRANCH   7   8
ENDBRANCH   6   7
ENDBRANCH   4   6
BRANCH   1  20
HETATM   20  O3  UNL     1      12.467  -4.278   7.760  1.00  0.00    -0.351 OA
BRANCH  20  21
HETATM   21  C3  UNL     1      13.501  -5.022   7.242  1.00  0.00     0.291 C 
HETATM   22  O2  UNL     1      14.751  -4.500   7.495  1.00  0.00    -0.356 OA
HETATM   23  C2  UNL     1      15.597  -5.536   7.100  1.00  0.00     0.205 C 
HETATM   24  C1  UNL     1      15.003  -6.768   7.726  1.00  0.00     0.175 C 
HETATM   25  C14 UNL     1      13.557  -6.371   7.926  1.00  0.00     0.204 C 
BRANCH  24  26
HETATM   26  O1  UNL     1      15.015  -7.861   6.870  1.00  0.00    -0.391 OA
ATOM     27  H1  UNL     1      15.143  -7.614   5.962  1.00  0.00     0.210 HD
ENDBRANCH  24  26
BRANCH  25  28
HETATM   28  O10 UNL     1      13.292  -6.161   9.279  1.00  0.00    -0.388 OA
ATOM     29  H10 UNL     1      13.941  -6.600   9.816  1.00  0.00     0.210 HD
ENDBRANCH  25  28
ENDBRANCH  20  21
ENDBRANCH   1  20
TORSDOF 10
ENDMDL
MODEL 4
REMARK VINA RESULT: -7.836409484      1.130      1.866
REMARK  10 active torsions:
REMARK  status: ('A' for Active; 'I' for Inactive)
REMARK    1  A    between atoms: O1_1  and  C1_3 
REMARK    2  A    between atoms: C3_6  and  O3_7 
REMARK    3  A    between atoms: O3_7  and  C4_8 
REMARK    4  A    between atoms: C6_11  and  O5_12 
REMARK    5  A    between atoms: O5_12  and  C7_13 
REMARK    6  A    between atoms: C7_13  and  C8_14 
REMARK    7  A    between atoms: C10_17  and  O7_18 
REMARK    8  A    between atoms: C11_20  and  O8_21 
REMARK    9  A    between atoms: C12_23  and  O9_24 
REMARK   10  A    between atoms: C14_27  and  O10_28 
ROOT
HETATM    1  C4  UNL     1      11.190  -4.866   8.435  1.00  0.00     0.153 C 
HETATM    2  C5  UNL     1      11.183  -4.954   6.927  1.00  0.00     0.203 C 
HETATM    3  O4  UNL     1      11.086  -3.627   6.516  1.00  0.00    -0.359 OA
HETATM    4  C6  UNL     1      10.074  -3.095   7.346  1.00  0.00     0.262 C 
HETATM    5  C13 UNL     1      10.350  -3.648   8.722  1.00  0.00     0.095 C 
ENDROOT
BRANCH   4   6
HETATM    6  O5  UNL     1      10.153  -1.692   7.337  1.00  0.00    -0.359 OA
BRANCH   6   7
HETATM    7  C7  UNL     1       9.603  -1.262   6.148  1.00  0.00     0.205 C 
BRANCH   7   8
HETATM    8  C8  UNL     1      10.541  -0.488   5.282  1.00  0.00     0.176 C 
HETATM    9  O6  UNL     1      11.851  -0.743   5.615  1.00  0.00    -0.378 OA
HETATM   10  C9  UNL     1      12.751   0.183   5.149  1.00  0.00     0.202 C 
HETATM   11  C10 UNL     1      12.213   1.086   4.080  1.00  0.00     0.173 C 
HETATM   12  C11 UNL     1      11.063   1.868   4.622  1.00  0.00     0.180 C 
HETATM   13  C12 UNL     1      10.257   0.994   5.544  1.00  0.00     0.180 C 
BRANCH  11  14
HETATM   14  O7  UNL     1      13.233   1.997   3.757  1.00  0.00    -0.391 OA
ATOM     15  H7  UNL     1      12.844   2.863   3.755  1.00  0.00     0.210 HD
ENDBRANCH  11  14
BRANCH  12  16
HETATM   16  O8  UNL     1      11.466   3.042   5.256  1.00  0.00    -0.390 OA
ATOM     17  H8  UNL     1      12.376   3.016   5.527  1.00  0.00     0.210 HD
ENDBRANCH  12  16
BRANCH  13  18
HETATM   18  O9  UNL     1      10.557   1.220   6.885  1.00  0.00    -0.390 OA
ATOM     19  H9  UNL     1      11.250   0.610   7.109  1.00  0.00     0.210 HD
ENDBRANCH  13  18
ENDBRANCH   7   8
ENDBRANCH   6   7
ENDBRANCH   4   6
BRANCH   1  20
HETATM   20  O3  UNL     1      12.497  -4.734   8.860  1.00  0.00    -0.351 OA
BRANCH  20  21
HETATM   21  C3  UNL     1      13.329  -5.291   7.918  1.00  0.00     0.291 C 
HETATM   22  O2  UNL     1      14.533  -4.636   7.774  1.00  0.00    -0.356 OA
HETATM   23  C2  UNL     1      15.263  -5.516   6.975  1.00  0.00     0.205 C 
HETATM   24  C1  UNL     1      15.051  -6.864   7.608  1.00  0.00     0.175 C 
HETATM   25  C14 UNL     1      13.751  -6.676   8.358  1.00  0.00     0.204 C 
BRANCH  24  26
HETATM   26  O1  UNL     1      14.845  -7.869   6.672  1.00  0.00    -0.391 OA
ATOM     27  H1  UNL     1      14.906  -8.739   7.049  1.00  0.00     0.210 HD
ENDBRANCH  24  26
BRANCH  25  28
HETATM   28  O10 UNL     1      13.985  -6.621   9.733  1.00  0.00    -0.388 OA
ATOM     29  H10 UNL     1      14.096  -7.496  10.085  1.00  0.00     0.210 HD
ENDBRANCH  25  28
ENDBRANCH  20  21
ENDBRANCH   1  20
TORSDOF 10
ENDMDL
MODEL 5
REMARK VINA RESULT: -7.826324178      1.634      2.419
REMARK  10 active torsions:
REMARK  status: ('A' for Active; 'I' for Inactive)
REMARK    1  A    between atoms: O1_1  and  C1_3 
REMARK    2  A    between atoms: C3_6  and  O3_7 
REMARK    3  A    between atoms: O3_7  and  C4_8 
REMARK    4  A    between atoms: C6_11  and  O5_12 
REMARK    5  A    between atoms: O5_12  and  C7_13 
REMARK    6  A    between atoms: C7_13  and  C8_14 
REMARK    7  A    between atoms: C10_17  and  O7_18 
REMARK    8  A    between atoms: C11_20  and  O8_21 
REMARK    9  A    between atoms: C12_23  and  O9_24 
REMARK   10  A    between atoms: C14_27  and  O10_28 
ROOT
HETATM    1  C4  UNL     1       9.231  -5.100   8.308  1.00  0.00     0.153 C 
HETATM    2  C5  UNL     1       8.092  -4.667   7.416  1.00  0.00     0.203 C 
HETATM    3  O4  UNL     1       8.345  -3.318   7.182  1.00  0.00    -0.359 OA
HETATM    4  C6  UNL     1       8.669  -2.813   8.462  1.00  0.00     0.262 C 
HETATM    5  C13 UNL     1       9.560  -3.855   9.091  1.00  0.00     0.095 C 
ENDROOT
BRANCH   4   6
HETATM    6  O5  UNL     1       9.341  -1.586   8.324  1.00  0.00    -0.359 OA
BRANCH   6   7
HETATM    7  C7  UNL     1       9.203  -1.195   7.009  1.00  0.00     0.205 C 
BRANCH   7   8
HETATM    8  C8  UNL     1       9.205   0.284   6.805  1.00  0.00     0.176 C 
HETATM    9  O6  UNL     1       8.305   0.653   5.831  1.00  0.00    -0.378 OA
HETATM   10  C9  UNL     1       8.502   1.910   5.317  1.00  0.00     0.202 C 
HETATM   11  C10 UNL     1       9.410   2.780   6.135  1.00  0.00     0.173 C 
HETATM   12  C11 UNL     1      10.762   2.152   6.214  1.00  0.00     0.180 C 
HETATM   13  C12 UNL     1      10.612   0.660   6.328  1.00  0.00     0.180 C 
BRANCH  11  14
HETATM   14  O7  UNL     1       9.545   3.998   5.446  1.00  0.00    -0.391 OA
ATOM     15  H7  UNL     1       8.861   4.575   5.764  1.00  0.00     0.210 HD
ENDBRANCH  11  14
BRANCH  12  16
HETATM   16  O8  UNL     1      11.578   2.501   5.140  1.00  0.00    -0.390 OA
ATOM     17  H8  UNL     1      11.082   2.688   4.351  1.00  0.00     0.210 HD
ENDBRANCH  12  16
BRANCH  13  18
HETATM   18  O9  UNL     1      10.796   0.014   5.107  1.00  0.00    -0.390 OA
ATOM     19  H9  UNL     1      11.661  -0.378   5.142  1.00  0.00     0.210 HD
ENDBRANCH  13  18
ENDBRANCH   7   8
ENDBRANCH   6   7
ENDBRANCH   4   6
BRANCH   1  20
HETATM   20  O3  UNL     1      10.273  -5.529   7.511  1.00  0.00    -0.351 OA
BRANCH  20  21
HETATM   21  C3  UNL     1      11.254  -4.564   7.505  1.00  0.00     0.291 C 
HETATM   22  O2  UNL     1      12.498  -5.026   7.875  1.00  0.00    -0.356 OA
HETATM   23  C2  UNL     1      13.328  -3.953   7.551  1.00  0.00     0.205 C 
HETATM   24  C1  UNL     1      12.903  -3.552   6.165  1.00  0.00     0.175 C 
HETATM   25  C14 UNL     1      11.485  -4.075   6.091  1.00  0.00     0.204 C 
BRANCH  24  26
HETATM   26  O1  UNL     1      12.842  -2.174   6.002  1.00  0.00    -0.391 OA
ATOM     27  H1  UNL     1      11.964  -1.867   5.810  1.00  0.00     0.210 HD
ENDBRANCH  24  26
BRANCH  25  28
HETATM   28  O10 UNL     1      11.419  -5.187   5.251  1.00  0.00    -0.388 OA
ATOM     29  H10 UNL     1      10.708  -5.758   5.514  1.00  0.00     0.210 HD
ENDBRANCH  25  28
ENDBRANCH  20  21
ENDBRANCH   1  20
TORSDOF 10
ENDMDL
