MODEL 1
REMARK VINA RESULT: -8.546750510      0.000      0.000
REMARK  7 active torsions:
REMARK  status: ('A' for Active; 'I' for Inactive)
REMARK    1  A    between atoms: N1_2  and  C3_4 
REMARK    2  A    between atoms: C4_5  and  O1_6 
REMARK    3  A    between atoms: N3_13  and  C7_14 
REMARK    4  A    between atoms: C7_14  and  C8_15 
REMARK       I    between atoms: C8_15  and  N4_17 
REMARK    5  A    between atoms: N4_17  and  C9_19 
REMARK    6  A    between atoms: C9_19  and  C10_20 
REMARK       I    between atoms: C10_20  and  N5_22 
REMARK    7  A    between atoms: N5_22  and  N6_24 
ROOT
HETATM    1  C3  UNL     1       7.733  -0.069   7.786  1.00  0.00     0.143 A 
HETATM    2  C4  UNL     1       8.376   0.804   6.930  1.00  0.00     0.163 A 
HETATM    3  C5  UNL     1       9.412   0.407   6.111  1.00  0.00     0.239 A 
HETATM    4  O2  UNL     1       9.996   1.197   5.334  1.00  0.00    -0.283 OA
HETATM    5  C6  UNL     1       9.824  -0.910   6.146  1.00  0.00     0.134 A 
HETATM    6  N2  UNL     1      10.767  -1.630   5.513  1.00  0.00    -0.289 N 
ATOM      7  H2  UNL     1      11.407  -1.251   4.814  1.00  0.00     0.187 HD
HETATM    8  N3  UNL     1      10.758  -2.889   5.911  1.00  0.00    -0.246 N 
HETATM    9  C11 UNL     1       9.784  -3.000   6.832  1.00  0.00     0.291 A 
HETATM   10  O5  UNL     1       9.440  -4.042   7.469  1.00  0.00    -0.264 OA
HETATM   11  C12 UNL     1       9.172  -1.766   7.005  1.00  0.00     0.138 A 
HETATM   12  N7  UNL     1       8.149  -1.348   7.805  1.00  0.00    -0.329 N 
HETATM   13  C13 UNL     1       7.519  -2.313   8.679  1.00  0.00     0.158 C 
ENDROOT
BRANCH   8  14
HETATM   14  C7  UNL     1      11.639  -3.937   5.437  1.00  0.00     0.255 C 
BRANCH  14  15
HETATM   15  C8  UNL     1      12.822  -4.042   6.349  1.00  0.00     0.237 C 
HETATM   16  O3  UNL     1      13.333  -3.000   6.823  1.00  0.00    -0.272 OA
HETATM   17  N4  UNL     1      13.367  -5.303   6.681  1.00  0.00    -0.351 N 
ATOM     18  H4  UNL     1      12.960  -6.158   6.302  1.00  0.00     0.163 HD
BRANCH  17  19
HETATM   19  C9  UNL     1      14.505  -5.365   7.562  1.00  0.00     0.227 C 
BRANCH  19  20
HETATM   20  C10 UNL     1      15.122  -6.710   7.592  1.00  0.00     0.253 C 
HETATM   21  O4  UNL     1      14.398  -7.707   7.908  1.00  0.00    -0.270 OA
HETATM   22  N5  UNL     1      16.489  -6.908   7.279  1.00  0.00    -0.275 N 
ATOM     23  H5  UNL     1      17.072  -6.110   7.027  1.00  0.00     0.189 HD
BRANCH  22  24
HETATM   24  N6  UNL     1      17.042  -8.188   7.316  1.00  0.00    -0.343 N 
ATOM     25  H62 UNL     1      17.315  -8.581   8.217  1.00  0.00     0.176 HD
ATOM     26  H61 UNL     1      17.170  -8.719   6.455  1.00  0.00     0.176 HD
ENDBRANCH  22  24
ENDBRANCH  19  20
ENDBRANCH  17  19
ENDBRANCH  14  15
ENDBRANCH   8  14
BRANCH   2  27
HETATM   27  O1  UNL     1       7.931   2.116   6.927  1.00  0.00    -0.354 OA
ATOM     28  H1  UNL     1       8.580   2.787   6.754  1.00  0.00     0.218 HD
ENDBRANCH   2  27
BRANCH   1  29
HETATM   29  N1  UNL     1       6.664   0.341   8.631  1.00  0.00    -0.373 N 
HETATM   30  C1  UNL     1       5.327   0.330   8.070  1.00  0.00     0.150 C 
HETATM   31  C2  UNL     1       6.832   0.761   9.997  1.00  0.00     0.150 C 
ENDBRANCH   1  29
TORSDOF 7
ENDMDL
MODEL 2
REMARK VINA RESULT: -8.109479358      1.368      1.686
REMARK  7 active torsions:
REMARK  status: ('A' for Active; 'I' for Inactive)
REMARK    1  A    between atoms: N1_2  and  C3_4 
REMARK    2  A    between atoms: C4_5  and  O1_6 
REMARK    3  A    between atoms: N3_13  and  C7_14 
REMARK    4  A    between atoms: C7_14  and  C8_15 
REMARK       I    between atoms: C8_15  and  N4_17 
REMARK    5  A    between atoms: N4_17  and  C9_19 
REMARK    6  A    between atoms: C9_19  and  C10_20 
REMARK       I    between atoms: C10_20  and  N5_22 
REMARK    7  A    between atoms: N5_22  and  N6_24 
ROOT
HETATM    1  C3  UNL     1       7.171  -1.839   8.794  1.00  0.00     0.143 A 
HETATM    2  C4  UNL     1       7.620  -0.654   8.245  1.00  0.00     0.163 A 
HETATM    3  C5  UNL     1       8.676  -0.603   7.360  1.00  0.00     0.239 A 
HETATM    4  O2  UNL     1       9.085   0.471   6.861  1.00  0.00    -0.283 OA
HETATM    5  C6  UNL     1       9.310  -1.778   7.008  1.00  0.00     0.134 A 
HETATM    6  N2  UNL     1      10.338  -2.101   6.203  1.00  0.00    -0.289 N 
ATOM      7  H2  UNL     1      10.876  -1.427   5.658  1.00  0.00     0.187 HD
HETATM    8  N3  UNL     1      10.561  -3.403   6.210  1.00  0.00    -0.246 N 
HETATM    9  C11 UNL     1       9.657  -3.950   7.043  1.00  0.00     0.291 A 
HETATM   10  O5  UNL     1       9.523  -5.177   7.336  1.00  0.00    -0.264 OA
HETATM   11  C12 UNL     1       8.849  -2.950   7.565  1.00  0.00     0.138 A 
HETATM   12  N7  UNL     1       7.802  -2.973   8.438  1.00  0.00    -0.329 N 
HETATM   13  C13 UNL     1       7.382  -4.248   8.978  1.00  0.00     0.158 C 
ENDROOT
BRANCH   8  14
HETATM   14  C7  UNL     1      11.590  -4.092   5.458  1.00  0.00     0.255 C 
BRANCH  14  15
HETATM   15  C8  UNL     1      12.847  -4.147   6.273  1.00  0.00     0.237 C 
HETATM   16  O3  UNL     1      13.306  -3.095   6.774  1.00  0.00    -0.272 OA
HETATM   17  N4  UNL     1      13.518  -5.374   6.480  1.00  0.00    -0.351 N 
ATOM     18  H4  UNL     1      13.153  -6.238   6.078  1.00  0.00     0.163 HD
BRANCH  17  19
HETATM   19  C9  UNL     1      14.723  -5.389   7.269  1.00  0.00     0.227 C 
BRANCH  19  20
HETATM   20  C10 UNL     1      15.296  -6.747   7.397  1.00  0.00     0.253 C 
HETATM   21  O4  UNL     1      14.509  -7.724   7.608  1.00  0.00    -0.270 OA
HETATM   22  N5  UNL     1      16.689  -6.979   7.292  1.00  0.00    -0.275 N 
ATOM     23  H5  UNL     1      17.322  -6.197   7.124  1.00  0.00     0.189 HD
BRANCH  22  24
HETATM   24  N6  UNL     1      17.200  -8.271   7.417  1.00  0.00    -0.343 N 
ATOM     25  H62 UNL     1      18.188  -8.390   7.638  1.00  0.00     0.176 HD
ATOM     26  H61 UNL     1      16.592  -9.080   7.290  1.00  0.00     0.176 HD
ENDBRANCH  22  24
ENDBRANCH  19  20
ENDBRANCH  17  19
ENDBRANCH  14  15
ENDBRANCH   8  14
BRANCH   2  27
HETATM   27  O1  UNL     1       6.956   0.501   8.625  1.00  0.00    -0.354 OA
ATOM     28  H1  UNL     1       7.494   1.228   8.913  1.00  0.00     0.218 HD
ENDBRANCH   2  27
BRANCH   1  29
HETATM   29  N1  UNL     1       6.081  -1.891   9.707  1.00  0.00    -0.373 N 
HETATM   30  C1  UNL     1       6.381  -1.733  11.117  1.00  0.00     0.150 C 
HETATM   31  C2  UNL     1       4.710  -2.090   9.316  1.00  0.00     0.150 C 
ENDBRANCH   1  29
TORSDOF 7
ENDMDL
MODEL 3
REMARK VINA RESULT: -7.836900066      1.526      2.720
REMARK  7 active torsions:
REMARK  status: ('A' for Active; 'I' for Inactive)
REMARK    1  A    between atoms: N1_2  and  C3_4 
REMARK    2  A    between atoms: C4_5  and  O1_6 
REMARK    3  A    between atoms: N3_13  and  C7_14 
REMARK    4  A    between atoms: C7_14  and  C8_15 
REMARK       I    between atoms: C8_15  and  N4_17 
REMARK    5  A    between atoms: N4_17  and  C9_19 
REMARK    6  A    between atoms: C9_19  and  C10_20 
REMARK       I    between atoms: C10_20  and  N5_22 
REMARK    7  A    between atoms: N5_22  and  N6_24 
ROOT
HETATM    1  C3  UNL     1       7.287  -0.674   8.401  1.00  0.00     0.143 A 
HETATM    2  C4  UNL     1       7.340  -1.774   9.235  1.00  0.00     0.163 A 
HETATM    3  C5  UNL     1       8.324  -2.734   9.129  1.00  0.00     0.239 A 
HETATM    4  O2  UNL     1       8.374  -3.732   9.884  1.00  0.00    -0.283 OA
HETATM    5  C6  UNL     1       9.293  -2.594   8.155  1.00  0.00     0.134 A 
HETATM    6  N2  UNL     1      10.366  -3.307   7.771  1.00  0.00    -0.289 N 
ATOM      7  H2  UNL     1      10.662  -4.181   8.206  1.00  0.00     0.187 HD
HETATM    8  N3  UNL     1      10.987  -2.730   6.757  1.00  0.00    -0.246 N 
HETATM    9  C11 UNL     1      10.303  -1.608   6.468  1.00  0.00     0.291 A 
HETATM   10  O5  UNL     1      10.561  -0.761   5.560  1.00  0.00    -0.264 OA
HETATM   11  C12 UNL     1       9.224  -1.491   7.333  1.00  0.00     0.138 A 
HETATM   12  N7  UNL     1       8.241  -0.555   7.459  1.00  0.00    -0.329 N 
HETATM   13  C13 UNL     1       8.242   0.573   6.552  1.00  0.00     0.158 C 
ENDROOT
BRANCH   8  14
HETATM   14  C7  UNL     1      12.177  -3.226   6.097  1.00  0.00     0.255 C 
BRANCH  14  15
HETATM   15  C8  UNL     1      12.989  -4.024   7.071  1.00  0.00     0.237 C 
HETATM   16  O3  UNL     1      13.561  -3.443   8.021  1.00  0.00    -0.272 OA
HETATM   17  N4  UNL     1      13.114  -5.425   6.927  1.00  0.00    -0.351 N 
ATOM     18  H4  UNL     1      12.652  -5.910   6.158  1.00  0.00     0.163 HD
BRANCH  17  19
HETATM   19  C9  UNL     1      13.903  -6.160   7.883  1.00  0.00     0.227 C 
BRANCH  19  20
HETATM   20  C10 UNL     1      15.159  -6.677   7.297  1.00  0.00     0.253 C 
HETATM   21  O4  UNL     1      15.583  -6.167   6.213  1.00  0.00    -0.270 OA
HETATM   22  N5  UNL     1      15.892  -7.721   7.914  1.00  0.00    -0.275 N 
ATOM     23  H5  UNL     1      15.553  -8.133   8.784  1.00  0.00     0.189 HD
BRANCH  22  24
HETATM   24  N6  UNL     1      17.074  -8.188   7.338  1.00  0.00    -0.343 N 
ATOM     25  H62 UNL     1      17.073  -9.103   6.888  1.00  0.00     0.176 HD
ATOM     26  H61 UNL     1      17.921  -7.622   7.369  1.00  0.00     0.176 HD
ENDBRANCH  22  24
ENDBRANCH  19  20
ENDBRANCH  17  19
ENDBRANCH  14  15
ENDBRANCH   8  14
BRANCH   2  27
HETATM   27  O1  UNL     1       6.349  -1.875  10.197  1.00  0.00    -0.354 OA
ATOM     28  H1  UNL     1       5.824  -2.666  10.187  1.00  0.00     0.218 HD
ENDBRANCH   2  27
BRANCH   1  29
HETATM   29  N1  UNL     1       6.272   0.317   8.510  1.00  0.00    -0.373 N 
HETATM   30  C1  UNL     1       6.539   1.457   9.367  1.00  0.00     0.150 C 
HETATM   31  C2  UNL     1       5.008   0.255   7.825  1.00  0.00     0.150 C 
ENDBRANCH   1  29
TORSDOF 7
ENDMDL
MODEL 4
REMARK VINA RESULT: -7.807686030      1.280      2.551
REMARK  7 active torsions:
REMARK  status: ('A' for Active; 'I' for Inactive)
REMARK    1  A    between atoms: N1_2  and  C3_4 
REMARK    2  A    between atoms: C4_5  and  O1_6 
REMARK    3  A    between atoms: N3_13  and  C7_14 
REMARK    4  A    between atoms: C7_14  and  C8_15 
REMARK       I    between atoms: C8_15  and  N4_17 
REMARK    5  A    between atoms: N4_17  and  C9_19 
REMARK    6  A    between atoms: C9_19  and  C10_20 
REMARK       I    between atoms: C10_20  and  N5_22 
REMARK    7  A    between atoms: N5_22  and  N6_24 
ROOT
HETATM    1  C3  UNL     1       7.355  -0.794   8.320  1.00  0.00     0.143 A 
HETATM    2  C4  UNL     1       7.190  -2.039   8.895  1.00  0.00     0.163 A 
HETATM    3  C5  UNL     1       8.002  -3.109   8.587  1.00  0.00     0.239 A 
HETATM    4  O2  UNL     1       7.854  -4.239   9.107  1.00  0.00    -0.283 OA
HETATM    5  C6  UNL     1       9.019  -2.933   7.669  1.00  0.00     0.134 A 
HETATM    6  N2  UNL     1       9.972  -3.721   7.142  1.00  0.00    -0.289 N 
ATOM      7  H2  UNL     1      10.100  -4.706   7.378  1.00  0.00     0.187 HD
HETATM    8  N3  UNL     1      10.722  -3.057   6.280  1.00  0.00    -0.246 N 
HETATM    9  C11 UNL     1      10.246  -1.799   6.239  1.00  0.00     0.291 A 
HETATM   10  O5  UNL     1      10.679  -0.835   5.537  1.00  0.00    -0.264 OA
HETATM   11  C12 UNL     1       9.169  -1.686   7.106  1.00  0.00     0.138 A 
HETATM   12  N7  UNL     1       8.351  -0.643   7.429  1.00  0.00    -0.329 N 
HETATM   13  C13 UNL     1       8.578   0.635   6.789  1.00  0.00     0.158 C 
ENDROOT
BRANCH   8  14
HETATM   14  C7  UNL     1      11.837  -3.598   5.531  1.00  0.00     0.255 C 
BRANCH  14  15
HETATM   15  C8  UNL     1      12.979  -3.864   6.463  1.00  0.00     0.237 C 
HETATM   16  O3  UNL     1      13.187  -3.087   7.423  1.00  0.00    -0.272 OA
HETATM   17  N4  UNL     1      13.821  -4.983   6.270  1.00  0.00    -0.351 N 
ATOM     18  H4  UNL     1      13.661  -5.623   5.492  1.00  0.00     0.163 HD
BRANCH  17  19
HETATM   19  C9  UNL     1      14.909  -5.207   7.187  1.00  0.00     0.227 C 
BRANCH  19  20
HETATM   20  C10 UNL     1      15.387  -6.608   7.163  1.00  0.00     0.253 C 
HETATM   21  O4  UNL     1      14.548  -7.535   6.935  1.00  0.00    -0.270 OA
HETATM   22  N5  UNL     1      16.747  -6.932   7.387  1.00  0.00    -0.275 N 
ATOM     23  H5  UNL     1      17.423  -6.190   7.571  1.00  0.00     0.189 HD
BRANCH  22  24
HETATM   24  N6  UNL     1      17.169  -8.262   7.357  1.00  0.00    -0.343 N 
ATOM     25  H62 UNL     1      17.451  -8.669   6.466  1.00  0.00     0.176 HD
ATOM     26  H61 UNL     1      17.193  -8.814   8.214  1.00  0.00     0.176 HD
ENDBRANCH  22  24
ENDBRANCH  19  20
ENDBRANCH  17  19
ENDBRANCH  14  15
ENDBRANCH   8  14
BRANCH   2  27
HETATM   27  O1  UNL     1       6.158  -2.171   9.810  1.00  0.00    -0.354 OA
ATOM     28  H1  UNL     1       6.332  -2.702  10.578  1.00  0.00     0.218 HD
ENDBRANCH   2  27
BRANCH   1  29
HETATM   29  N1  UNL     1       6.516   0.311   8.639  1.00  0.00    -0.373 N 
HETATM   30  C1  UNL     1       5.410   0.591   7.743  1.00  0.00     0.150 C 
HETATM   31  C2  UNL     1       6.700   1.157   9.788  1.00  0.00     0.150 C 
ENDBRANCH   1  29
TORSDOF 7
ENDMDL
MODEL 5
REMARK VINA RESULT: -7.712256342      1.864      2.801
REMARK  7 active torsions:
REMARK  status: ('A' for Active; 'I' for Inactive)
REMARK    1  A    between atoms: N1_2  and  C3_4 
REMARK    2  A    between atoms: C4_5  and  O1_6 
REMARK    3  A    between atoms: N3_13  and  C7_14 
REMARK    4  A    between atoms: C7_14  and  C8_15 
REMARK       I    between atoms: C8_15  and  N4_17 
REMARK    5  A    between atoms: N4_17  and  C9_19 
REMARK    6  A    between atoms: C9_19  and  C10_20 
REMARK       I    between atoms: C10_20  and  N5_22 
REMARK    7  A    between atoms: N5_22  and  N6_24 
ROOT
HETATM    1  C3  UNL     1       9.044   0.271   6.652  1.00  0.00     0.143 A 
HETATM    2  C4  UNL     1       8.114  -0.033   7.628  1.00  0.00     0.163 A 
HETATM    3  C5  UNL     1       8.055  -1.270   8.233  1.00  0.00     0.239 A 
HETATM    4  O2  UNL     1       7.212  -1.547   9.117  1.00  0.00    -0.283 OA
HETATM    5  C6  UNL     1       8.957  -2.244   7.852  1.00  0.00     0.134 A 
HETATM    6  N2  UNL     1       9.189  -3.519   8.211  1.00  0.00    -0.289 N 
ATOM      7  H2  UNL     1       8.654  -4.024   8.918  1.00  0.00     0.187 HD
HETATM    8  N3  UNL     1      10.198  -4.032   7.530  1.00  0.00    -0.246 N 
HETATM    9  C11 UNL     1      10.640  -3.069   6.701  1.00  0.00     0.291 A 
HETATM   10  O5  UNL     1      11.596  -3.146   5.871  1.00  0.00    -0.264 OA
HETATM   11  C12 UNL     1       9.877  -1.924   6.879  1.00  0.00     0.138 A 
HETATM   12  N7  UNL     1       9.914  -0.691   6.296  1.00  0.00    -0.329 N 
HETATM   13  C13 UNL     1      10.913  -0.439   5.280  1.00  0.00     0.158 C 
ENDROOT
BRANCH   8  14
HETATM   14  C7  UNL     1      10.714  -5.379   7.664  1.00  0.00     0.255 C 
BRANCH  14  15
HETATM   15  C8  UNL     1      12.150  -5.320   8.088  1.00  0.00     0.237 C 
HETATM   16  O3  UNL     1      12.433  -5.045   9.277  1.00  0.00    -0.272 OA
HETATM   17  N4  UNL     1      13.187  -5.574   7.161  1.00  0.00    -0.351 N 
ATOM     18  H4  UNL     1      12.969  -5.800   6.190  1.00  0.00     0.163 HD
BRANCH  17  19
HETATM   19  C9  UNL     1      14.556  -5.508   7.605  1.00  0.00     0.227 C 
BRANCH  19  20
HETATM   20  C10 UNL     1      15.218  -6.831   7.584  1.00  0.00     0.253 C 
HETATM   21  O4  UNL     1      14.513  -7.871   7.779  1.00  0.00    -0.270 OA
HETATM   22  N5  UNL     1      16.610  -6.961   7.353  1.00  0.00    -0.275 N 
ATOM     23  H5  UNL     1      17.178  -6.128   7.197  1.00  0.00     0.189 HD
BRANCH  22  24
HETATM   24  N6  UNL     1      17.207  -8.222   7.338  1.00  0.00    -0.343 N 
ATOM     25  H62 UNL     1      16.613  -9.048   7.405  1.00  0.00     0.176 HD
ATOM     26  H61 UNL     1      18.220  -8.311   7.261  1.00  0.00     0.176 HD
ENDBRANCH  22  24
ENDBRANCH  19  20
ENDBRANCH  17  19
ENDBRANCH  14  15
ENDBRANCH   8  14
BRANCH   2  27
HETATM   27  O1  UNL     1       7.228   0.973   7.979  1.00  0.00    -0.354 OA
ATOM     28  H1  UNL     1       7.233   1.248   8.888  1.00  0.00     0.218 HD
ENDBRANCH   2  27
BRANCH   1  29
HETATM   29  N1  UNL     1       9.105   1.548   6.028  1.00  0.00    -0.373 N 
HETATM   30  C1  UNL     1       8.036   1.895   5.111  1.00  0.00     0.150 C 
HETATM   31  C2  UNL     1      10.155   2.506   6.252  1.00  0.00     0.150 C 
ENDBRANCH   1  29
TORSDOF 7
ENDMDL
