MODEL 1
REMARK VINA RESULT: -6.841130515      0.000      0.000
REMARK  9 active torsions:
REMARK  status: ('A' for Active; 'I' for Inactive)
REMARK    1  A    between atoms: O1_2  and  C2_3 
REMARK    2  A    between atoms: C3_4  and  N1_5 
REMARK    3  A    between atoms: C5_10  and  O2_11 
REMARK    4  A    between atoms: C6_13  and  O3_14 
REMARK    5  A    between atoms: O3_14  and  C7_15 
REMARK    6  A    between atoms: C9_20  and  O4_21 
REMARK    7  A    between atoms: C10_23  and  O5_24 
REMARK    8  A    between atoms: C11_26  and  O6_27 
REMARK    9  A    between atoms: O6_27  and  S1_28 
ROOT
HETATM    1  C7  UNL     1      10.381  -2.391   6.441  1.00  0.00     0.354 C 
HETATM    2  N2  UNL     1      11.786  -2.163   6.197  1.00  0.00    -0.044 N 
ATOM      3  H21 UNL     1      12.255  -1.852   7.048  1.00  0.00     0.280 HD
ATOM      4  H22 UNL     1      11.923  -1.336   5.617  1.00  0.00     0.280 HD
HETATM    5  C8  UNL     1      12.460  -3.298   5.631  1.00  0.00     0.269 C 
HETATM    6  C9  UNL     1      12.060  -4.599   6.271  1.00  0.00     0.175 C 
HETATM    7  C10 UNL     1      11.401  -4.384   7.616  1.00  0.00     0.183 C 
HETATM    8  C11 UNL     1      10.236  -3.436   7.502  1.00  0.00     0.232 C 
ENDROOT
BRANCH   1   9
HETATM    9  O3  UNL     1       9.878  -1.193   6.951  1.00  0.00    -0.346 OA
BRANCH   9  10
HETATM   10  C6  UNL     1       9.350  -0.371   5.993  1.00  0.00     0.184 C 
HETATM   11  C2  UNL     1      10.131   0.922   5.850  1.00  0.00     0.182 C 
HETATM   12  C3  UNL     1       9.129   1.954   5.410  1.00  0.00     0.217 C 
HETATM   13  C4  UNL     1       7.750   1.416   5.708  1.00  0.00     0.070 C 
HETATM   14  C5  UNL     1       8.025   0.152   6.498  1.00  0.00     0.151 C 
BRANCH  11  15
HETATM   15  O1  UNL     1      11.206   0.811   5.005  1.00  0.00    -0.386 OA
HETATM   16  C1  UNL     1      12.339   1.478   5.459  1.00  0.00     0.202 C 
ENDBRANCH  11  15
BRANCH  12  17
HETATM   17  N1  UNL     1       9.365   3.232   6.056  1.00  0.00    -0.072 N 
ATOM     18  H13 UNL     1      10.163   3.189   6.690  1.00  0.00     0.274 HD
ATOM     19  H12 UNL     1       9.725   3.922   5.397  1.00  0.00     0.274 HD
ATOM     20  H11 UNL     1       8.528   3.570   6.531  1.00  0.00     0.274 HD
ENDBRANCH  12  17
BRANCH  14  21
HETATM   21  O2  UNL     1       8.264   0.571   7.828  1.00  0.00    -0.393 OA
ATOM     22  H2  UNL     1       7.700   0.037   8.375  1.00  0.00     0.210 HD
ENDBRANCH  14  21
ENDBRANCH   9  10
ENDBRANCH   1   9
BRANCH   8  23
HETATM   23  O6  UNL     1       9.026  -4.105   7.373  1.00  0.00    -0.244 OA
BRANCH  23  24
HETATM   24  S1  UNL     1       7.998  -4.000   8.647  1.00  0.00     0.252 S 
HETATM   25  O7  UNL     1       8.400  -4.794   9.851  1.00  0.00    -0.572 OA
HETATM   26  O8  UNL     1       6.642  -4.490   8.220  1.00  0.00    -0.572 OA
HETATM   27  O9  UNL     1       7.773  -2.366   9.052  1.00  0.00    -0.572 OA
ENDBRANCH  23  24
ENDBRANCH   8  23
BRANCH   7  28
HETATM   28  O5  UNL     1      12.326  -3.815   8.488  1.00  0.00    -0.390 OA
ATOM     29  H5  UNL     1      12.659  -3.012   8.106  1.00  0.00     0.210 HD
ENDBRANCH   7  28
BRANCH   6  30
HETATM   30  O4  UNL     1      11.272  -5.350   5.406  1.00  0.00    -0.391 OA
ATOM     31  H4  UNL     1      10.574  -5.787   5.881  1.00  0.00     0.210 HD
ENDBRANCH   6  30
TORSDOF 9
ENDMDL
MODEL 2
REMARK VINA RESULT: -6.713158267      3.772      5.303
REMARK  9 active torsions:
REMARK  status: ('A' for Active; 'I' for Inactive)
REMARK    1  A    between atoms: O1_2  and  C2_3 
REMARK    2  A    between atoms: C3_4  and  N1_5 
REMARK    3  A    between atoms: C5_10  and  O2_11 
REMARK    4  A    between atoms: C6_13  and  O3_14 
REMARK    5  A    between atoms: O3_14  and  C7_15 
REMARK    6  A    between atoms: C9_20  and  O4_21 
REMARK    7  A    between atoms: C10_23  and  O5_24 
REMARK    8  A    between atoms: C11_26  and  O6_27 
REMARK    9  A    between atoms: O6_27  and  S1_28 
ROOT
HETATM    1  C7  UNL     1      11.681  -4.445   7.888  1.00  0.00     0.354 C 
HETATM    2  N2  UNL     1      12.155  -5.800   8.046  1.00  0.00    -0.044 N 
ATOM      3  H21 UNL     1      11.780  -6.402   7.313  1.00  0.00     0.280 HD
ATOM      4  H22 UNL     1      11.728  -6.239   8.861  1.00  0.00     0.280 HD
HETATM    5  C8  UNL     1      13.587  -5.902   8.105  1.00  0.00     0.269 C 
HETATM    6  C9  UNL     1      14.281  -5.027   7.098  1.00  0.00     0.175 C 
HETATM    7  C10 UNL     1      13.344  -4.595   5.990  1.00  0.00     0.183 C 
HETATM    8  C11 UNL     1      12.113  -3.933   6.551  1.00  0.00     0.232 C 
ENDROOT
BRANCH   1   9
HETATM    9  O3  UNL     1      10.287  -4.521   7.886  1.00  0.00    -0.346 OA
BRANCH   9  10
HETATM   10  C6  UNL     1       9.690  -3.629   8.735  1.00  0.00     0.184 C 
HETATM   11  C2  UNL     1       9.345  -4.252  10.074  1.00  0.00     0.182 C 
HETATM   12  C3  UNL     1       8.128  -3.515  10.563  1.00  0.00     0.217 C 
HETATM   13  C4  UNL     1       7.516  -2.800   9.381  1.00  0.00     0.070 C 
HETATM   14  C5  UNL     1       8.311  -3.320   8.201  1.00  0.00     0.151 C 
BRANCH  11  15
HETATM   15  O1  UNL     1      10.389  -4.232  10.964  1.00  0.00    -0.386 OA
HETATM   16  C1  UNL     1      10.849  -2.952  11.250  1.00  0.00     0.202 C 
ENDBRANCH  11  15
BRANCH  12  17
HETATM   17  N1  UNL     1       7.185  -4.412  11.204  1.00  0.00    -0.072 N 
ATOM     18  H13 UNL     1       6.399  -4.628  10.591  1.00  0.00     0.274 HD
ATOM     19  H12 UNL     1       7.571  -5.351  11.301  1.00  0.00     0.274 HD
ATOM     20  H11 UNL     1       6.869  -4.043  12.101  1.00  0.00     0.274 HD
ENDBRANCH  12  17
BRANCH  14  21
HETATM   21  O2  UNL     1       7.741  -4.573   7.872  1.00  0.00    -0.393 OA
ATOM     22  H2  UNL     1       8.086  -5.190   8.507  1.00  0.00     0.210 HD
ENDBRANCH  14  21
ENDBRANCH   9  10
ENDBRANCH   1   9
BRANCH   8  23
HETATM   23  O6  UNL     1      12.223  -2.548   6.565  1.00  0.00    -0.244 OA
BRANCH  23  24
HETATM   24  S1  UNL     1      11.233  -1.729   5.546  1.00  0.00     0.252 S 
HETATM   25  O7  UNL     1      10.034  -1.106   6.192  1.00  0.00    -0.572 OA
HETATM   26  O8  UNL     1      10.732  -2.675   4.490  1.00  0.00    -0.572 OA
HETATM   27  O9  UNL     1      12.136  -0.563   4.704  1.00  0.00    -0.572 OA
ENDBRANCH  23  24
ENDBRANCH   8  23
BRANCH   7  28
HETATM   28  O5  UNL     1      12.933  -5.720   5.279  1.00  0.00    -0.390 OA
ATOM     29  H5  UNL     1      13.679  -6.292   5.146  1.00  0.00     0.210 HD
ENDBRANCH   7  28
BRANCH   6  30
HETATM   30  O4  UNL     1      14.898  -3.951   7.724  1.00  0.00    -0.391 OA
ATOM     31  H4  UNL     1      14.272  -3.461   8.245  1.00  0.00     0.210 HD
ENDBRANCH   6  30
TORSDOF 9
ENDMDL
MODEL 3
REMARK VINA RESULT: -6.666000194      1.018      1.401
REMARK  9 active torsions:
REMARK  status: ('A' for Active; 'I' for Inactive)
REMARK    1  A    between atoms: O1_2  and  C2_3 
REMARK    2  A    between atoms: C3_4  and  N1_5 
REMARK    3  A    between atoms: C5_10  and  O2_11 
REMARK    4  A    between atoms: C6_13  and  O3_14 
REMARK    5  A    between atoms: O3_14  and  C7_15 
REMARK    6  A    between atoms: C9_20  and  O4_21 
REMARK    7  A    between atoms: C10_23  and  O5_24 
REMARK    8  A    between atoms: C11_26  and  O6_27 
REMARK    9  A    between atoms: O6_27  and  S1_28 
ROOT
HETATM    1  C7  UNL     1      10.316  -2.410   6.425  1.00  0.00     0.354 C 
HETATM    2  N2  UNL     1      11.368  -2.122   5.478  1.00  0.00    -0.044 N 
ATOM      3  H21 UNL     1      12.118  -1.592   5.921  1.00  0.00     0.280 HD
ATOM      4  H22 UNL     1      11.057  -1.434   4.792  1.00  0.00     0.280 HD
HETATM    5  C8  UNL     1      11.888  -3.291   4.826  1.00  0.00     0.269 C 
HETATM    6  C9  UNL     1      12.086  -4.449   5.765  1.00  0.00     0.175 C 
HETATM    7  C10 UNL     1      12.119  -4.000   7.210  1.00  0.00     0.183 C 
HETATM    8  C11 UNL     1      10.888  -3.204   7.557  1.00  0.00     0.232 C 
ENDROOT
BRANCH   1   9
HETATM    9  O3  UNL     1       9.904  -1.178   6.934  1.00  0.00    -0.346 OA
BRANCH   9  10
HETATM   10  C6  UNL     1       9.363  -0.350   5.989  1.00  0.00     0.184 C 
HETATM   11  C2  UNL     1      10.144   0.942   5.839  1.00  0.00     0.182 C 
HETATM   12  C3  UNL     1       9.137   1.979   5.421  1.00  0.00     0.217 C 
HETATM   13  C4  UNL     1       7.762   1.441   5.739  1.00  0.00     0.070 C 
HETATM   14  C5  UNL     1       8.047   0.173   6.518  1.00  0.00     0.151 C 
BRANCH  11  15
HETATM   15  O1  UNL     1      11.205   0.834   4.977  1.00  0.00    -0.386 OA
HETATM   16  C1  UNL     1      12.358   1.462   5.434  1.00  0.00     0.202 C 
ENDBRANCH  11  15
BRANCH  12  17
HETATM   17  N1  UNL     1       9.386   3.253   6.069  1.00  0.00    -0.072 N 
ATOM     18  H13 UNL     1      10.313   3.282   6.493  1.00  0.00     0.274 HD
ATOM     19  H12 UNL     1       9.501   4.002   5.387  1.00  0.00     0.274 HD
ATOM     20  H11 UNL     1       8.658   3.475   6.748  1.00  0.00     0.274 HD
ENDBRANCH  12  17
BRANCH  14  21
HETATM   21  O2  UNL     1       8.309   0.585   7.847  1.00  0.00    -0.393 OA
ATOM     22  H2  UNL     1       7.699   1.291   8.026  1.00  0.00     0.210 HD
ENDBRANCH  14  21
ENDBRANCH   9  10
ENDBRANCH   1   9
BRANCH   8  23
HETATM   23  O6  UNL     1       9.908  -3.988   8.154  1.00  0.00    -0.244 OA
BRANCH  23  24
HETATM   24  S1  UNL     1       9.703  -3.789   9.769  1.00  0.00     0.252 S 
HETATM   25  O7  UNL     1       8.523  -4.504  10.350  1.00  0.00    -0.572 OA
HETATM   26  O8  UNL     1       9.527  -2.324  10.061  1.00  0.00    -0.572 OA
HETATM   27  O9  UNL     1      11.131  -4.234  10.573  1.00  0.00    -0.572 OA
ENDBRANCH  23  24
ENDBRANCH   8  23
BRANCH   7  28
HETATM   28  O5  UNL     1      13.225  -3.176   7.404  1.00  0.00    -0.390 OA
ATOM     29  H5  UNL     1      13.156  -2.424   6.827  1.00  0.00     0.210 HD
ENDBRANCH   7  28
BRANCH   6  30
HETATM   30  O4  UNL     1      11.135  -5.436   5.535  1.00  0.00    -0.391 OA
ATOM     31  H4  UNL     1      10.715  -5.694   6.348  1.00  0.00     0.210 HD
ENDBRANCH   6  30
TORSDOF 9
ENDMDL
MODEL 4
REMARK VINA RESULT: -6.477604124      2.167      4.109
REMARK  9 active torsions:
REMARK  status: ('A' for Active; 'I' for Inactive)
REMARK    1  A    between atoms: O1_2  and  C2_3 
REMARK    2  A    between atoms: C3_4  and  N1_5 
REMARK    3  A    between atoms: C5_10  and  O2_11 
REMARK    4  A    between atoms: C6_13  and  O3_14 
REMARK    5  A    between atoms: O3_14  and  C7_15 
REMARK    6  A    between atoms: C9_20  and  O4_21 
REMARK    7  A    between atoms: C10_23  and  O5_24 
REMARK    8  A    between atoms: C11_26  and  O6_27 
REMARK    9  A    between atoms: O6_27  and  S1_28 
ROOT
HETATM    1  C7  UNL     1      10.885  -2.416   6.124  1.00  0.00     0.354 C 
HETATM    2  N2  UNL     1       9.685  -3.011   5.585  1.00  0.00    -0.044 N 
ATOM      3  H21 UNL     1       9.835  -3.323   4.627  1.00  0.00     0.280 HD
ATOM      4  H22 UNL     1       8.972  -2.300   5.422  1.00  0.00     0.280 HD
HETATM    5  C8  UNL     1       9.163  -4.078   6.393  1.00  0.00     0.269 C 
HETATM    6  C9  UNL     1      10.233  -5.000   6.911  1.00  0.00     0.175 C 
HETATM    7  C10 UNL     1      11.520  -4.863   6.127  1.00  0.00     0.183 C 
HETATM    8  C11 UNL     1      11.984  -3.431   6.096  1.00  0.00     0.232 C 
ENDROOT
BRANCH   1   9
HETATM    9  O3  UNL     1      11.234  -1.386   5.248  1.00  0.00    -0.346 OA
BRANCH   9  10
HETATM   10  C6  UNL     1      11.577  -0.223   5.882  1.00  0.00     0.184 C 
HETATM   11  C2  UNL     1      10.476   0.818   5.813  1.00  0.00     0.182 C 
HETATM   12  C3  UNL     1      11.175   2.150   5.827  1.00  0.00     0.217 C 
HETATM   13  C4  UNL     1      12.625   1.914   5.472  1.00  0.00     0.070 C 
HETATM   14  C5  UNL     1      12.659   0.454   5.072  1.00  0.00     0.151 C 
BRANCH  11  15
HETATM   15  O1  UNL     1       9.542   0.681   6.808  1.00  0.00    -0.386 OA
HETATM   16  C1  UNL     1       8.279   0.337   6.340  1.00  0.00     0.202 C 
ENDBRANCH  11  15
BRANCH  12  17
HETATM   17  N1  UNL     1      10.541   3.093   4.926  1.00  0.00    -0.072 N 
ATOM     18  H13 UNL     1      10.032   2.615   4.183  1.00  0.00     0.274 HD
ATOM     19  H12 UNL     1       9.756   3.567   5.374  1.00  0.00     0.274 HD
ATOM     20  H11 UNL     1      11.214   3.760   4.549  1.00  0.00     0.274 HD
ENDBRANCH  12  17
BRANCH  14  21
HETATM   21  O2  UNL     1      12.213   0.408   3.730  1.00  0.00    -0.393 OA
ATOM     22  H2  UNL     1      12.508  -0.427   3.385  1.00  0.00     0.210 HD
ENDBRANCH  14  21
ENDBRANCH   9  10
ENDBRANCH   1   9
BRANCH   8  23
HETATM   23  O6  UNL     1      12.928  -3.163   7.080  1.00  0.00    -0.244 OA
BRANCH  23  24
HETATM   24  S1  UNL     1      13.886  -4.417   7.528  1.00  0.00     0.252 S 
HETATM   25  O7  UNL     1      13.377  -5.219   8.686  1.00  0.00    -0.572 OA
HETATM   26  O8  UNL     1      15.238  -3.883   7.913  1.00  0.00    -0.572 OA
HETATM   27  O9  UNL     1      14.167  -5.415   6.184  1.00  0.00    -0.572 OA
ENDBRANCH  23  24
ENDBRANCH   8  23
BRANCH   7  28
HETATM   28  O5  UNL     1      11.295  -5.264   4.813  1.00  0.00    -0.390 OA
ATOM     29  H5  UNL     1      11.878  -4.782   4.238  1.00  0.00     0.210 HD
ENDBRANCH   7  28
BRANCH   6  30
HETATM   30  O4  UNL     1      10.419  -4.817   8.277  1.00  0.00    -0.391 OA
ATOM     31  H4  UNL     1      10.878  -5.559   8.656  1.00  0.00     0.210 HD
ENDBRANCH   6  30
TORSDOF 9
ENDMDL
MODEL 5
REMARK VINA RESULT: -6.466626228      0.723      1.054
REMARK  9 active torsions:
REMARK  status: ('A' for Active; 'I' for Inactive)
REMARK    1  A    between atoms: O1_2  and  C2_3 
REMARK    2  A    between atoms: C3_4  and  N1_5 
REMARK    3  A    between atoms: C5_10  and  O2_11 
REMARK    4  A    between atoms: C6_13  and  O3_14 
REMARK    5  A    between atoms: O3_14  and  C7_15 
REMARK    6  A    between atoms: C9_20  and  O4_21 
REMARK    7  A    between atoms: C10_23  and  O5_24 
REMARK    8  A    between atoms: C11_26  and  O6_27 
REMARK    9  A    between atoms: O6_27  and  S1_28 
ROOT
HETATM    1  C7  UNL     1      10.174  -2.337   6.510  1.00  0.00     0.354 C 
HETATM    2  N2  UNL     1      11.336  -2.109   5.683  1.00  0.00    -0.044 N 
ATOM      3  H21 UNL     1      12.059  -1.615   6.206  1.00  0.00     0.280 HD
ATOM      4  H22 UNL     1      11.139  -1.411   4.967  1.00  0.00     0.280 HD
HETATM    5  C8  UNL     1      11.863  -3.308   5.094  1.00  0.00     0.269 C 
HETATM    6  C9  UNL     1      11.897  -4.468   6.051  1.00  0.00     0.175 C 
HETATM    7  C10 UNL     1      11.794  -4.011   7.490  1.00  0.00     0.183 C 
HETATM    8  C11 UNL     1      10.575  -3.151   7.698  1.00  0.00     0.232 C 
ENDROOT
BRANCH   1   9
HETATM    9  O3  UNL     1       9.773  -1.081   6.969  1.00  0.00    -0.346 OA
BRANCH   9  10
HETATM   10  C6  UNL     1       9.303  -0.262   5.978  1.00  0.00     0.184 C 
HETATM   11  C2  UNL     1      10.115   1.014   5.852  1.00  0.00     0.182 C 
HETATM   12  C3  UNL     1       9.153   2.059   5.357  1.00  0.00     0.217 C 
HETATM   13  C4  UNL     1       7.752   1.551   5.602  1.00  0.00     0.070 C 
HETATM   14  C5  UNL     1       7.968   0.293   6.419  1.00  0.00     0.151 C 
BRANCH  11  15
HETATM   15  O1  UNL     1      11.223   0.871   5.057  1.00  0.00    -0.386 OA
HETATM   16  C1  UNL     1      12.329   1.578   5.514  1.00  0.00     0.202 C 
ENDBRANCH  11  15
BRANCH  12  17
HETATM   17  N1  UNL     1       9.386   3.341   5.996  1.00  0.00    -0.072 N 
ATOM     18  H13 UNL     1       8.553   3.673   6.482  1.00  0.00     0.274 HD
ATOM     19  H12 UNL     1      10.010   3.250   6.798  1.00  0.00     0.274 HD
ATOM     20  H11 UNL     1       9.731   4.032   5.331  1.00  0.00     0.274 HD
ENDBRANCH  12  17
BRANCH  14  21
HETATM   21  O2  UNL     1       8.158   0.725   7.753  1.00  0.00    -0.393 OA
ATOM     22  H2  UNL     1       8.138   1.674   7.725  1.00  0.00     0.210 HD
ENDBRANCH  14  21
ENDBRANCH   9  10
ENDBRANCH   1   9
BRANCH   8  23
HETATM   23  O6  UNL     1       9.497  -3.879   8.185  1.00  0.00    -0.244 OA
BRANCH  23  24
HETATM   24  S1  UNL     1       8.794  -3.310   9.554  1.00  0.00     0.252 S 
HETATM   25  O7  UNL     1       9.475  -2.127  10.170  1.00  0.00    -0.572 OA
HETATM   26  O8  UNL     1       8.780  -4.404  10.585  1.00  0.00    -0.572 OA
HETATM   27  O9  UNL     1       7.160  -2.969   9.244  1.00  0.00    -0.572 OA
ENDBRANCH  23  24
ENDBRANCH   8  23
BRANCH   7  28
HETATM   28  O5  UNL     1      12.913  -3.243   7.804  1.00  0.00    -0.390 OA
ATOM     29  H5  UNL     1      12.746  -2.767   8.608  1.00  0.00     0.210 HD
ENDBRANCH   7  28
BRANCH   6  30
HETATM   30  O4  UNL     1      10.928  -5.407   5.720  1.00  0.00    -0.391 OA
ATOM     31  H4  UNL     1      11.256  -6.290   5.848  1.00  0.00     0.210 HD
ENDBRANCH   6  30
TORSDOF 9
ENDMDL
