MODEL 1
REMARK VINA RESULT: -7.319110978      0.000      0.000
REMARK  9 active torsions:
REMARK  status: ('A' for Active; 'I' for Inactive)
REMARK    1  A    between atoms: O1_2  and  C2_3 
REMARK    2  A    between atoms: C3_4  and  N1_5 
REMARK    3  A    between atoms: C4_9  and  O2_10 
REMARK    4  A    between atoms: O2_10  and  S1_11 
REMARK    5  A    between atoms: C5_15  and  O6_16 
REMARK    6  A    between atoms: C6_18  and  O7_19 
REMARK    7  A    between atoms: O7_19  and  C7_20 
REMARK    8  A    between atoms: C9_25  and  O8_26 
REMARK    9  A    between atoms: C10_28  and  O9_29 
ROOT
HETATM    1  C2  UNL     1      10.994  -2.785   7.253  1.00  0.00     0.185 C 
HETATM    2  C3  UNL     1      12.002  -3.675   7.879  1.00  0.00     0.247 C 
HETATM    3  C4  UNL     1      12.960  -4.139   6.809  1.00  0.00     0.209 C 
HETATM    4  C5  UNL     1      12.439  -3.601   5.493  1.00  0.00     0.182 C 
HETATM    5  C6  UNL     1      11.470  -2.497   5.836  1.00  0.00     0.186 C 
ENDROOT
BRANCH   5   6
HETATM    6  O7  UNL     1      12.174  -1.295   5.762  1.00  0.00    -0.346 OA
BRANCH   6   7
HETATM    7  C7  UNL     1      11.591  -0.384   4.895  1.00  0.00     0.353 C 
HETATM    8  N2  UNL     1      12.607   0.178   4.065  1.00  0.00    -0.044 N 
HETATM    9  C8  UNL     1      12.537   1.598   4.127  1.00  0.00     0.269 C 
ATOM     10  H22 UNL     1      13.536  -0.173   4.300  1.00  0.00     0.280 HD
ATOM     11  H21 UNL     1      12.558  -0.170   3.107  1.00  0.00     0.280 HD
HETATM   12  C9  UNL     1      11.460   1.996   5.075  1.00  0.00     0.176 C 
HETATM   13  C10 UNL     1      10.961   0.717   5.693  1.00  0.00     0.205 C 
BRANCH  12  14
HETATM   14  O8  UNL     1      11.990   2.862   6.044  1.00  0.00    -0.391 OA
ATOM     15  H8  UNL     1      12.857   2.564   6.291  1.00  0.00     0.210 HD
ENDBRANCH  12  14
BRANCH  13  16
HETATM   16  O9  UNL     1       9.577   0.633   5.650  1.00  0.00    -0.389 OA
ATOM     17  H9  UNL     1       9.244   0.118   6.375  1.00  0.00     0.210 HD
ENDBRANCH  13  16
ENDBRANCH   6   7
ENDBRANCH   5   6
BRANCH   1  18
HETATM   18  O1  UNL     1       9.699  -3.172   7.331  1.00  0.00    -0.386 OA
HETATM   19  C1  UNL     1       8.776  -2.227   7.695  1.00  0.00     0.202 C 
ENDBRANCH   1  18
BRANCH   4  20
HETATM   20  O6  UNL     1      11.816  -4.597   4.740  1.00  0.00    -0.390 OA
ATOM     21  H6  UNL     1      11.846  -4.404   3.810  1.00  0.00     0.210 HD
ENDBRANCH   4  20
BRANCH   2  22
HETATM   22  N1  UNL     1      11.431  -4.815   8.567  1.00  0.00    -0.070 N 
ATOM     23  H13 UNL     1      10.641  -5.191   8.043  1.00  0.00     0.274 HD
ATOM     24  H12 UNL     1      12.063  -5.614   8.522  1.00  0.00     0.274 HD
ATOM     25  H11 UNL     1      11.163  -4.623   9.532  1.00  0.00     0.274 HD
ENDBRANCH   2  22
BRANCH   3  26
HETATM   26  O2  UNL     1      13.046  -5.529   6.753  1.00  0.00    -0.247 OA
BRANCH  26  27
HETATM   27  S1  UNL     1      14.320  -6.113   7.634  1.00  0.00     0.252 S 
HETATM   28  O3  UNL     1      15.458  -5.106   7.699  1.00  0.00    -0.572 OA
HETATM   29  O4  UNL     1      13.935  -6.534   9.024  1.00  0.00    -0.572 OA
HETATM   30  O5  UNL     1      14.968  -7.463   6.827  1.00  0.00    -0.572 OA
ENDBRANCH  26  27
ENDBRANCH   3  26
TORSDOF 9
ENDMDL
MODEL 2
REMARK VINA RESULT: -6.616949563      1.316      1.781
REMARK  9 active torsions:
REMARK  status: ('A' for Active; 'I' for Inactive)
REMARK    1  A    between atoms: O1_2  and  C2_3 
REMARK    2  A    between atoms: C3_4  and  N1_5 
REMARK    3  A    between atoms: C4_9  and  O2_10 
REMARK    4  A    between atoms: O2_10  and  S1_11 
REMARK    5  A    between atoms: C5_15  and  O6_16 
REMARK    6  A    between atoms: C6_18  and  O7_19 
REMARK    7  A    between atoms: O7_19  and  C7_20 
REMARK    8  A    between atoms: C9_25  and  O8_26 
REMARK    9  A    between atoms: C10_28  and  O9_29 
ROOT
HETATM    1  C2  UNL     1      11.293  -2.933   6.875  1.00  0.00     0.185 C 
HETATM    2  C3  UNL     1      12.535  -3.591   7.348  1.00  0.00     0.247 C 
HETATM    3  C4  UNL     1      13.150  -4.340   6.191  1.00  0.00     0.209 C 
HETATM    4  C5  UNL     1      12.187  -4.215   5.029  1.00  0.00     0.182 C 
HETATM    5  C6  UNL     1      11.264  -3.068   5.360  1.00  0.00     0.186 C 
ENDROOT
BRANCH   5   6
HETATM    6  O7  UNL     1      11.778  -1.934   4.730  1.00  0.00    -0.346 OA
BRANCH   6   7
HETATM    7  C7  UNL     1      11.763  -0.814   5.544  1.00  0.00     0.353 C 
HETATM    8  N2  UNL     1      10.408  -0.426   5.773  1.00  0.00    -0.044 N 
HETATM    9  C8  UNL     1      10.248   0.950   5.449  1.00  0.00     0.269 C 
ATOM     10  H22 UNL     1       9.747  -1.020   5.271  1.00  0.00     0.280 HD
ATOM     11  H21 UNL     1      10.102  -0.637   6.723  1.00  0.00     0.280 HD
HETATM   12  C9  UNL     1      11.540   1.488   4.938  1.00  0.00     0.176 C 
HETATM   13  C10 UNL     1      12.471   0.308   4.847  1.00  0.00     0.205 C 
BRANCH  12  14
HETATM   14  O8  UNL     1      11.334   2.078   3.681  1.00  0.00    -0.391 OA
ATOM     15  H8  UNL     1      11.923   1.684   3.049  1.00  0.00     0.210 HD
ENDBRANCH  12  14
BRANCH  13  16
HETATM   16  O9  UNL     1      13.694   0.573   5.445  1.00  0.00    -0.389 OA
ATOM     17  H9  UNL     1      14.188  -0.227   5.580  1.00  0.00     0.210 HD
ENDBRANCH  13  16
ENDBRANCH   6   7
ENDBRANCH   5   6
BRANCH   1  18
HETATM   18  O1  UNL     1      10.138  -3.291   7.483  1.00  0.00    -0.386 OA
HETATM   19  C1  UNL     1       9.079  -3.628   6.681  1.00  0.00     0.202 C 
ENDBRANCH   1  18
BRANCH   4  20
HETATM   20  O6  UNL     1      11.466  -5.394   4.829  1.00  0.00    -0.390 OA
ATOM     21  H6  UNL     1      11.859  -6.127   5.289  1.00  0.00     0.210 HD
ENDBRANCH   4  20
BRANCH   2  22
HETATM   22  N1  UNL     1      12.334  -4.485   8.471  1.00  0.00    -0.070 N 
ATOM     23  H13 UNL     1      12.629  -5.431   8.233  1.00  0.00     0.274 HD
ATOM     24  H12 UNL     1      13.000  -4.280   9.216  1.00  0.00     0.274 HD
ATOM     25  H11 UNL     1      11.381  -4.486   8.832  1.00  0.00     0.274 HD
ENDBRANCH   2  22
BRANCH   3  26
HETATM   26  O2  UNL     1      13.359  -5.685   6.491  1.00  0.00    -0.247 OA
BRANCH  26  27
HETATM   27  S1  UNL     1      14.755  -5.923   7.349  1.00  0.00     0.252 S 
HETATM   28  O3  UNL     1      15.701  -6.867   6.620  1.00  0.00    -0.572 OA
HETATM   29  O4  UNL     1      15.471  -4.645   7.682  1.00  0.00    -0.572 OA
HETATM   30  O5  UNL     1      14.373  -6.717   8.804  1.00  0.00    -0.572 OA
ENDBRANCH  26  27
ENDBRANCH   3  26
TORSDOF 9
ENDMDL
MODEL 3
REMARK VINA RESULT: -6.586072487      2.492      4.432
REMARK  9 active torsions:
REMARK  status: ('A' for Active; 'I' for Inactive)
REMARK    1  A    between atoms: O1_2  and  C2_3 
REMARK    2  A    between atoms: C3_4  and  N1_5 
REMARK    3  A    between atoms: C4_9  and  O2_10 
REMARK    4  A    between atoms: O2_10  and  S1_11 
REMARK    5  A    between atoms: C5_15  and  O6_16 
REMARK    6  A    between atoms: C6_18  and  O7_19 
REMARK    7  A    between atoms: O7_19  and  C7_20 
REMARK    8  A    between atoms: C9_25  and  O8_26 
REMARK    9  A    between atoms: C10_28  and  O9_29 
ROOT
HETATM    1  C2  UNL     1      11.064  -3.554   5.807  1.00  0.00     0.185 C 
HETATM    2  C3  UNL     1      11.623  -4.909   5.580  1.00  0.00     0.247 C 
HETATM    3  C4  UNL     1      12.626  -5.200   6.669  1.00  0.00     0.209 C 
HETATM    4  C5  UNL     1      12.749  -3.940   7.500  1.00  0.00     0.182 C 
HETATM    5  C6  UNL     1      11.538  -3.098   7.180  1.00  0.00     0.186 C 
ENDROOT
BRANCH   5   6
HETATM    6  O7  UNL     1      10.587  -3.356   8.167  1.00  0.00    -0.346 OA
BRANCH   6   7
HETATM    7  C7  UNL     1       9.299  -3.036   7.769  1.00  0.00     0.353 C 
HETATM    8  N2  UNL     1       8.888  -1.847   8.444  1.00  0.00    -0.044 N 
HETATM    9  C8  UNL     1       7.639  -2.075   9.086  1.00  0.00     0.269 C 
ATOM     10  H22 UNL     1       9.598  -1.507   9.092  1.00  0.00     0.280 HD
ATOM     11  H21 UNL     1       8.860  -1.040   7.820  1.00  0.00     0.280 HD
HETATM   12  C9  UNL     1       7.225  -3.490   8.869  1.00  0.00     0.176 C 
HETATM   13  C10 UNL     1       8.375  -4.151   8.158  1.00  0.00     0.205 C 
BRANCH  12  14
HETATM   14  O8  UNL     1       6.971  -4.095  10.109  1.00  0.00    -0.391 OA
ATOM     15  H8  UNL     1       7.752  -4.549  10.404  1.00  0.00     0.210 HD
ENDBRANCH  12  14
BRANCH  13  16
HETATM   16  O9  UNL     1       7.950  -4.857   7.043  1.00  0.00    -0.389 OA
ATOM     17  H9  UNL     1       7.127  -4.513   6.715  1.00  0.00     0.210 HD
ENDBRANCH  13  16
ENDBRANCH   6   7
ENDBRANCH   5   6
BRANCH   1  18
HETATM   18  O1  UNL     1      11.252  -2.639   4.828  1.00  0.00    -0.386 OA
HETATM   19  C1  UNL     1      11.527  -1.352   5.207  1.00  0.00     0.202 C 
ENDBRANCH   1  18
BRANCH   4  20
HETATM   20  O6  UNL     1      13.927  -3.248   7.215  1.00  0.00    -0.390 OA
ATOM     21  H6  UNL     1      14.691  -3.807   7.301  1.00  0.00     0.210 HD
ENDBRANCH   4  20
BRANCH   2  22
HETATM   22  N1  UNL     1      12.235  -5.080   4.279  1.00  0.00    -0.070 N 
ATOM     23  H13 UNL     1      12.150  -4.226   3.727  1.00  0.00     0.274 HD
ATOM     24  H12 UNL     1      13.250  -5.129   4.363  1.00  0.00     0.274 HD
ATOM     25  H11 UNL     1      11.879  -5.881   3.757  1.00  0.00     0.274 HD
ENDBRANCH   2  22
BRANCH   3  26
HETATM   26  O2  UNL     1      13.872  -5.550   6.151  1.00  0.00    -0.247 OA
BRANCH  26  27
HETATM   27  S1  UNL     1      14.794  -6.382   7.247  1.00  0.00     0.252 S 
HETATM   28  O3  UNL     1      15.699  -5.446   8.035  1.00  0.00    -0.572 OA
HETATM   29  O4  UNL     1      13.978  -7.215   8.194  1.00  0.00    -0.572 OA
HETATM   30  O5  UNL     1      15.849  -7.412   6.401  1.00  0.00    -0.572 OA
ENDBRANCH  26  27
ENDBRANCH   3  26
TORSDOF 9
ENDMDL
MODEL 4
REMARK VINA RESULT: -6.510149700      1.300      1.666
REMARK  9 active torsions:
REMARK  status: ('A' for Active; 'I' for Inactive)
REMARK    1  A    between atoms: O1_2  and  C2_3 
REMARK    2  A    between atoms: C3_4  and  N1_5 
REMARK    3  A    between atoms: C4_9  and  O2_10 
REMARK    4  A    between atoms: O2_10  and  S1_11 
REMARK    5  A    between atoms: C5_15  and  O6_16 
REMARK    6  A    between atoms: C6_18  and  O7_19 
REMARK    7  A    between atoms: O7_19  and  C7_20 
REMARK    8  A    between atoms: C9_25  and  O8_26 
REMARK    9  A    between atoms: C10_28  and  O9_29 
ROOT
HETATM    1  C2  UNL     1       9.438  -2.728   8.088  1.00  0.00     0.185 C 
HETATM    2  C3  UNL     1      10.597  -3.478   8.633  1.00  0.00     0.247 C 
HETATM    3  C4  UNL     1      11.647  -3.585   7.554  1.00  0.00     0.209 C 
HETATM    4  C5  UNL     1      11.049  -2.981   6.300  1.00  0.00     0.182 C 
HETATM    5  C6  UNL     1       9.868  -2.154   6.746  1.00  0.00     0.186 C 
ENDROOT
BRANCH   5   6
HETATM    6  O7  UNL     1      10.312  -0.837   6.866  1.00  0.00    -0.346 OA
BRANCH   6   7
HETATM    7  C7  UNL     1      10.366  -0.175   5.650  1.00  0.00     0.353 C 
HETATM    8  N2  UNL     1      11.691  -0.274   5.128  1.00  0.00    -0.044 N 
HETATM    9  C8  UNL     1      12.171   1.025   4.803  1.00  0.00     0.269 C 
ATOM     10  H22 UNL     1      12.319  -0.770   5.761  1.00  0.00     0.280 HD
ATOM     11  H21 UNL     1      11.746  -0.915   4.336  1.00  0.00     0.280 HD
HETATM   12  C9  UNL     1      11.139   2.036   5.170  1.00  0.00     0.176 C 
HETATM   13  C10 UNL     1      10.044   1.273   5.865  1.00  0.00     0.205 C 
BRANCH  12  14
HETATM   14  O8  UNL     1      11.711   2.999   6.015  1.00  0.00    -0.391 OA
ATOM     15  H8  UNL     1      11.024   3.532   6.395  1.00  0.00     0.210 HD
ENDBRANCH  12  14
BRANCH  13  16
HETATM   16  O9  UNL     1       8.795   1.587   5.350  1.00  0.00    -0.389 OA
ATOM     17  H9  UNL     1       8.716   2.520   5.190  1.00  0.00     0.210 HD
ENDBRANCH  13  16
ENDBRANCH   6   7
ENDBRANCH   5   6
BRANCH   1  18
HETATM   18  O1  UNL     1       8.249  -3.374   8.056  1.00  0.00    -0.386 OA
HETATM   19  C1  UNL     1       7.249  -2.901   8.864  1.00  0.00     0.202 C 
ENDBRANCH   1  18
BRANCH   4  20
HETATM   20  O6  UNL     1      10.655  -3.966   5.393  1.00  0.00    -0.390 OA
ATOM     21  H6  UNL     1      10.106  -4.623   5.805  1.00  0.00     0.210 HD
ENDBRANCH   4  20
BRANCH   2  22
HETATM   22  N1  UNL     1      10.260  -4.794   9.134  1.00  0.00    -0.070 N 
ATOM     23  H13 UNL     1       9.889  -4.733  10.082  1.00  0.00     0.274 HD
ATOM     24  H12 UNL     1       9.441  -5.163   8.652  1.00  0.00     0.274 HD
ATOM     25  H11 UNL     1      11.031  -5.461   9.094  1.00  0.00     0.274 HD
ENDBRANCH   2  22
BRANCH   3  26
HETATM   26  O2  UNL     1      12.016  -4.907   7.314  1.00  0.00    -0.247 OA
BRANCH  26  27
HETATM   27  S1  UNL     1      13.641  -5.149   7.517  1.00  0.00     0.252 S 
HETATM   28  O3  UNL     1      14.255  -5.844   6.310  1.00  0.00    -0.572 OA
HETATM   29  O4  UNL     1      14.396  -3.883   7.811  1.00  0.00    -0.572 OA
HETATM   30  O5  UNL     1      13.875  -6.224   8.814  1.00  0.00    -0.572 OA
ENDBRANCH  26  27
ENDBRANCH   3  26
TORSDOF 9
ENDMDL
MODEL 5
REMARK VINA RESULT: -6.429781306      3.856      6.515
REMARK  9 active torsions:
REMARK  status: ('A' for Active; 'I' for Inactive)
REMARK    1  A    between atoms: O1_2  and  C2_3 
REMARK    2  A    between atoms: C3_4  and  N1_5 
REMARK    3  A    between atoms: C4_9  and  O2_10 
REMARK    4  A    between atoms: O2_10  and  S1_11 
REMARK    5  A    between atoms: C5_15  and  O6_16 
REMARK    6  A    between atoms: C6_18  and  O7_19 
REMARK    7  A    between atoms: O7_19  and  C7_20 
REMARK    8  A    between atoms: C9_25  and  O8_26 
REMARK    9  A    between atoms: C10_28  and  O9_29 
ROOT
HETATM    1  C2  UNL     1      11.474  -3.993   6.353  1.00  0.00     0.185 C 
HETATM    2  C3  UNL     1      10.183  -3.431   6.821  1.00  0.00     0.247 C 
HETATM    3  C4  UNL     1       9.801  -4.120   8.108  1.00  0.00     0.209 C 
HETATM    4  C5  UNL     1      10.835  -5.198   8.351  1.00  0.00     0.182 C 
HETATM    5  C6  UNL     1      12.019  -4.859   7.479  1.00  0.00     0.186 C 
ENDROOT
BRANCH   5   6
HETATM    6  O7  UNL     1      12.927  -4.160   8.275  1.00  0.00    -0.346 OA
BRANCH   6   7
HETATM    7  C7  UNL     1      14.132  -4.828   8.428  1.00  0.00     0.353 C 
HETATM    8  N2  UNL     1      14.993  -4.482   7.343  1.00  0.00    -0.044 N 
HETATM    9  C8  UNL     1      15.477  -5.668   6.725  1.00  0.00     0.269 C 
ATOM     10  H22 UNL     1      14.541  -3.857   6.676  1.00  0.00     0.280 HD
ATOM     11  H21 UNL     1      15.749  -3.862   7.634  1.00  0.00     0.280 HD
HETATM   12  C9  UNL     1      14.875  -6.853   7.399  1.00  0.00     0.176 C 
HETATM   13  C10 UNL     1      13.882  -6.305   8.388  1.00  0.00     0.205 C 
BRANCH  12  14
HETATM   14  O8  UNL     1      14.249  -7.664   6.439  1.00  0.00    -0.391 OA
ATOM     15  H8  UNL     1      14.584  -7.448   5.578  1.00  0.00     0.210 HD
ENDBRANCH  12  14
BRANCH  13  16
HETATM   16  O9  UNL     1      14.046  -6.871   9.644  1.00  0.00    -0.389 OA
ATOM     17  H9  UNL     1      13.779  -7.783   9.645  1.00  0.00     0.210 HD
ENDBRANCH  13  16
ENDBRANCH   6   7
ENDBRANCH   5   6
BRANCH   1  18
HETATM   18  O1  UNL     1      11.478  -4.597   5.142  1.00  0.00    -0.386 OA
HETATM   19  C1  UNL     1      12.694  -4.858   4.568  1.00  0.00     0.202 C 
ENDBRANCH   1  18
BRANCH   4  20
HETATM   20  O6  UNL     1      10.338  -6.467   8.046  1.00  0.00    -0.390 OA
ATOM     21  H6  UNL     1       9.530  -6.647   8.513  1.00  0.00     0.210 HD
ENDBRANCH   4  20
BRANCH   2  22
HETATM   22  N1  UNL     1       9.109  -3.545   5.856  1.00  0.00    -0.070 N 
ATOM     23  H13 UNL     1       8.501  -2.728   5.898  1.00  0.00     0.274 HD
ATOM     24  H12 UNL     1       9.468  -3.443   4.906  1.00  0.00     0.274 HD
ATOM     25  H11 UNL     1       8.565  -4.403   5.943  1.00  0.00     0.274 HD
ENDBRANCH   2  22
BRANCH   3  26
HETATM   26  O2  UNL     1       8.530  -4.688   8.039  1.00  0.00    -0.247 OA
BRANCH  26  27
HETATM   27  S1  UNL     1       7.533  -4.140   9.242  1.00  0.00     0.252 S 
HETATM   28  O3  UNL     1       6.075  -4.163   8.809  1.00  0.00    -0.572 OA
HETATM   29  O4  UNL     1       7.692  -4.894  10.532  1.00  0.00    -0.572 OA
HETATM   30  O5  UNL     1       7.882  -2.501   9.534  1.00  0.00    -0.572 OA
ENDBRANCH  26  27
ENDBRANCH   3  26
TORSDOF 9
ENDMDL
