MODEL 1
REMARK VINA RESULT: -8.046139466      0.000      0.000
REMARK  10 active torsions:
REMARK  status: ('A' for Active; 'I' for Inactive)
REMARK    1  A    between atoms: O1_1  and  C1_3 
REMARK    2  A    between atoms: C2_4  and  O2_5 
REMARK    3  A    between atoms: C3_7  and  O3_8 
REMARK    4  A    between atoms: C4_10  and  O4_11 
REMARK    5  A    between atoms: O4_11  and  C5_12 
REMARK    6  A    between atoms: C8_16  and  S1_17 
REMARK    7  A    between atoms: S1_17  and  C9_18 
REMARK    8  A    between atoms: C9_18  and  C10_19 
REMARK    9  A    between atoms: C13_26  and  O7_27 
REMARK   10  A    between atoms: C14_29  and  O8_30 
ROOT
HETATM    1  C1  UNL     1      -6.363   3.769  47.224  1.00  0.00     0.180 C 
HETATM    2  C2  UNL     1      -6.975   5.146  47.063  1.00  0.00     0.180 C 
HETATM    3  C3  UNL     1      -6.307   5.872  45.926  1.00  0.00     0.181 C 
HETATM    4  C4  UNL     1      -4.799   5.729  45.935  1.00  0.00     0.184 C 
HETATM    5  C13 UNL     1      -4.414   5.271  47.318  1.00  0.00     0.181 C 
HETATM    6  C14 UNL     1      -4.887   3.813  47.431  1.00  0.00     0.180 C 
ENDROOT
BRANCH   4   7
HETATM    7  O4  UNL     1      -4.165   6.889  45.519  1.00  0.00    -0.372 OA
BRANCH   7   8
HETATM    8  C5  UNL     1      -4.814   7.388  44.419  1.00  0.00     0.161 C 
HETATM    9  C6  UNL     1      -5.261   8.817  44.584  1.00  0.00     0.200 C 
HETATM   10  O5  UNL     1      -5.359   9.368  43.340  1.00  0.00    -0.387 OA
HETATM   11  C7  UNL     1      -4.543   8.670  42.472  1.00  0.00     0.185 C 
HETATM   12  C8  UNL     1      -3.906   7.520  43.186  1.00  0.00     0.102 C 
BRANCH  12  13
HETATM   13  S1  UNL     1      -2.199   7.547  43.515  1.00  0.00    -0.157 SA
BRANCH  13  14
HETATM   14  C9  UNL     1      -1.020   8.470  42.654  1.00  0.00     0.109 C 
BRANCH  14  15
HETATM   15  C10 UNL     1      -0.576   8.044  41.279  1.00  0.00     0.221 C 
HETATM   16  C11 UNL     1       0.800   8.713  40.980  1.00  0.00     0.203 C 
HETATM   17  O6  UNL     1       0.379  10.036  40.778  1.00  0.00    -0.362 OA
HETATM   18  C12 UNL     1      -0.687   9.898  39.887  1.00  0.00     0.399 C 
HETATM   19  N1  UNL     1      -1.332   8.657  40.217  1.00  0.00    -0.047 N 
ATOM     20  H12 UNL     1      -1.451   8.045  39.410  1.00  0.00     0.280 HD
ATOM     21  H11 UNL     1      -2.319   8.771  40.446  1.00  0.00     0.280 HD
ENDBRANCH  14  15
ENDBRANCH  13  14
ENDBRANCH  12  13
ENDBRANCH   7   8
ENDBRANCH   4   7
BRANCH   3  22
HETATM   22  O3  UNL     1      -6.811   5.358  44.735  1.00  0.00    -0.390 OA
ATOM     23  H3  UNL     1      -7.707   5.658  44.643  1.00  0.00     0.210 HD
ENDBRANCH   3  22
BRANCH   5  24
HETATM   24  O7  UNL     1      -3.063   5.341  47.587  1.00  0.00    -0.390 OA
ATOM     25  H7  UNL     1      -2.848   5.388  48.510  1.00  0.00     0.210 HD
ENDBRANCH   5  24
BRANCH   2  26
HETATM   26  O2  UNL     1      -8.323   4.936  46.705  1.00  0.00    -0.390 OA
ATOM     27  H2  UNL     1      -8.764   4.644  47.495  1.00  0.00     0.210 HD
ENDBRANCH   2  26
BRANCH   6  28
HETATM   28  O8  UNL     1      -4.266   3.093  46.397  1.00  0.00    -0.390 OA
ATOM     29  H8  UNL     1      -3.391   2.852  46.677  1.00  0.00     0.210 HD
ENDBRANCH   6  28
BRANCH   1  30
HETATM   30  O1  UNL     1      -6.945   3.113  48.299  1.00  0.00    -0.390 OA
ATOM     31  H1  UNL     1      -6.446   2.334  48.514  1.00  0.00     0.210 HD
ENDBRANCH   1  30
TORSDOF 10
ENDMDL
MODEL 2
REMARK VINA RESULT: -7.991106803      2.875      7.842
REMARK  10 active torsions:
REMARK  status: ('A' for Active; 'I' for Inactive)
REMARK    1  A    between atoms: O1_1  and  C1_3 
REMARK    2  A    between atoms: C2_4  and  O2_5 
REMARK    3  A    between atoms: C3_7  and  O3_8 
REMARK    4  A    between atoms: C4_10  and  O4_11 
REMARK    5  A    between atoms: O4_11  and  C5_12 
REMARK    6  A    between atoms: C8_16  and  S1_17 
REMARK    7  A    between atoms: S1_17  and  C9_18 
REMARK    8  A    between atoms: C9_18  and  C10_19 
REMARK    9  A    between atoms: C13_26  and  O7_27 
REMARK   10  A    between atoms: C14_29  and  O8_30 
ROOT
HETATM    1  C1  UNL     1      -0.724   8.502  39.642  1.00  0.00     0.180 C 
HETATM    2  C2  UNL     1      -1.279   9.347  40.771  1.00  0.00     0.180 C 
HETATM    3  C3  UNL     1      -1.225   8.573  42.062  1.00  0.00     0.181 C 
HETATM    4  C4  UNL     1      -1.689   7.139  41.913  1.00  0.00     0.184 C 
HETATM    5  C13 UNL     1      -2.466   7.064  40.624  1.00  0.00     0.181 C 
HETATM    6  C14 UNL     1      -1.430   7.197  39.496  1.00  0.00     0.180 C 
ENDROOT
BRANCH   4   7
HETATM    7  O4  UNL     1      -2.388   6.701  43.028  1.00  0.00    -0.372 OA
BRANCH   7   8
HETATM    8  C5  UNL     1      -3.179   7.720  43.493  1.00  0.00     0.161 C 
HETATM    9  C6  UNL     1      -4.596   7.657  42.987  1.00  0.00     0.200 C 
HETATM   10  O5  UNL     1      -5.389   8.305  43.889  1.00  0.00    -0.387 OA
HETATM   11  C7  UNL     1      -4.766   8.302  45.121  1.00  0.00     0.185 C 
HETATM   12  C8  UNL     1      -3.421   7.657  45.010  1.00  0.00     0.102 C 
BRANCH  12  13
HETATM   13  S1  UNL     1      -3.142   6.108  45.747  1.00  0.00    -0.157 SA
BRANCH  13  14
HETATM   14  C9  UNL     1      -4.213   5.300  46.835  1.00  0.00     0.109 C 
BRANCH  14  15
HETATM   15  C10 UNL     1      -5.084   4.172  46.349  1.00  0.00     0.221 C 
HETATM   16  C11 UNL     1      -6.414   4.779  45.809  1.00  0.00     0.203 C 
HETATM   17  O6  UNL     1      -7.018   5.141  47.022  1.00  0.00    -0.362 OA
HETATM   18  C12 UNL     1      -6.888   3.987  47.798  1.00  0.00     0.399 C 
HETATM   19  N1  UNL     1      -5.644   3.380  47.414  1.00  0.00    -0.047 N 
ATOM     20  H12 UNL     1      -5.742   2.395  47.167  1.00  0.00     0.280 HD
ATOM     21  H11 UNL     1      -5.003   3.258  48.198  1.00  0.00     0.280 HD
ENDBRANCH  14  15
ENDBRANCH  13  14
ENDBRANCH  12  13
ENDBRANCH   7   8
ENDBRANCH   4   7
BRANCH   3  22
HETATM   22  O3  UNL     1       0.090   8.586  42.514  1.00  0.00    -0.390 OA
ATOM     23  H3  UNL     1       0.265   9.444  42.882  1.00  0.00     0.210 HD
ENDBRANCH   3  22
BRANCH   5  24
HETATM   24  O7  UNL     1      -3.184   5.898  40.457  1.00  0.00    -0.390 OA
ATOM     25  H7  UNL     1      -4.062   6.023  40.118  1.00  0.00     0.210 HD
ENDBRANCH   5  24
BRANCH   2  26
HETATM   26  O2  UNL     1      -0.411  10.452  40.897  1.00  0.00    -0.390 OA
ATOM     27  H2  UNL     1      -0.952  11.226  40.790  1.00  0.00     0.210 HD
ENDBRANCH   2  26
BRANCH   6  28
HETATM   28  O8  UNL     1      -0.498   6.160  39.662  1.00  0.00    -0.390 OA
ATOM     29  H8  UNL     1      -0.361   6.020  40.591  1.00  0.00     0.210 HD
ENDBRANCH   6  28
BRANCH   1  30
HETATM   30  O1  UNL     1      -0.812   9.195  38.443  1.00  0.00    -0.390 OA
ATOM     31  H1  UNL     1       0.052   9.295  38.061  1.00  0.00     0.210 HD
ENDBRANCH   1  30
TORSDOF 10
ENDMDL
MODEL 3
REMARK VINA RESULT: -7.782853864      2.616      7.669
REMARK  10 active torsions:
REMARK  status: ('A' for Active; 'I' for Inactive)
REMARK    1  A    between atoms: O1_1  and  C1_3 
REMARK    2  A    between atoms: C2_4  and  O2_5 
REMARK    3  A    between atoms: C3_7  and  O3_8 
REMARK    4  A    between atoms: C4_10  and  O4_11 
REMARK    5  A    between atoms: O4_11  and  C5_12 
REMARK    6  A    between atoms: C8_16  and  S1_17 
REMARK    7  A    between atoms: S1_17  and  C9_18 
REMARK    8  A    between atoms: C9_18  and  C10_19 
REMARK    9  A    between atoms: C13_26  and  O7_27 
REMARK   10  A    between atoms: C14_29  and  O8_30 
ROOT
HETATM    1  C1  UNL     1       0.382   9.473  40.743  1.00  0.00     0.180 C 
HETATM    2  C2  UNL     1      -0.709   9.374  39.696  1.00  0.00     0.180 C 
HETATM    3  C3  UNL     1      -2.054   9.279  40.368  1.00  0.00     0.181 C 
HETATM    4  C4  UNL     1      -2.064   8.321  41.541  1.00  0.00     0.184 C 
HETATM    5  C13 UNL     1      -0.849   7.442  41.395  1.00  0.00     0.181 C 
HETATM    6  C14 UNL     1       0.362   8.336  41.708  1.00  0.00     0.180 C 
ENDROOT
BRANCH   4   7
HETATM    7  O4  UNL     1      -3.262   7.630  41.635  1.00  0.00    -0.372 OA
BRANCH   7   8
HETATM    8  C5  UNL     1      -4.204   8.438  42.218  1.00  0.00     0.161 C 
HETATM    9  C6  UNL     1      -5.612   7.924  42.064  1.00  0.00     0.200 C 
HETATM   10  O5  UNL     1      -6.354   8.431  43.091  1.00  0.00    -0.387 OA
HETATM   11  C7  UNL     1      -5.515   8.747  44.141  1.00  0.00     0.185 C 
HETATM   12  C8  UNL     1      -4.093   8.492  43.750  1.00  0.00     0.102 C 
BRANCH  12  13
HETATM   13  S1  UNL     1      -3.219   7.181  44.483  1.00  0.00    -0.157 SA
BRANCH  13  14
HETATM   14  C9  UNL     1      -3.736   6.262  45.851  1.00  0.00     0.109 C 
BRANCH  14  15
HETATM   15  C10 UNL     1      -3.002   5.008  46.248  1.00  0.00     0.221 C 
HETATM   16  C11 UNL     1      -4.055   3.922  46.624  1.00  0.00     0.203 C 
HETATM   17  O6  UNL     1      -4.491   4.433  47.856  1.00  0.00    -0.362 OA
HETATM   18  C12 UNL     1      -3.297   4.699  48.529  1.00  0.00     0.399 C 
HETATM   19  N1  UNL     1      -2.349   5.107  47.529  1.00  0.00    -0.047 N 
ATOM     20  H12 UNL     1      -1.476   4.581  47.571  1.00  0.00     0.280 HD
ATOM     21  H11 UNL     1      -1.958   6.032  47.705  1.00  0.00     0.280 HD
ENDBRANCH  14  15
ENDBRANCH  13  14
ENDBRANCH  12  13
ENDBRANCH   7   8
ENDBRANCH   4   7
BRANCH   3  22
HETATM   22  O3  UNL     1      -2.402  10.551  40.810  1.00  0.00    -0.390 OA
ATOM     23  H3  UNL     1      -3.250  10.491  41.235  1.00  0.00     0.210 HD
ENDBRANCH   3  22
BRANCH   5  24
HETATM   24  O7  UNL     1      -0.837   6.342  42.227  1.00  0.00    -0.390 OA
ATOM     25  H7  UNL     1      -0.032   5.840  42.203  1.00  0.00     0.210 HD
ENDBRANCH   5  24
BRANCH   2  26
HETATM   26  O2  UNL     1      -0.674  10.588  38.978  1.00  0.00    -0.390 OA
ATOM     27  H2  UNL     1      -1.510  10.654  38.530  1.00  0.00     0.210 HD
ENDBRANCH   2  26
BRANCH   6  28
HETATM   28  O8  UNL     1       0.179   8.848  43.003  1.00  0.00    -0.390 OA
ATOM     29  H8  UNL     1      -0.061   8.134  43.581  1.00  0.00     0.210 HD
ENDBRANCH   6  28
BRANCH   1  30
HETATM   30  O1  UNL     1       1.625   9.517  40.129  1.00  0.00    -0.390 OA
ATOM     31  H1  UNL     1       1.587  10.065  39.354  1.00  0.00     0.210 HD
ENDBRANCH   1  30
TORSDOF 10
ENDMDL
MODEL 4
REMARK VINA RESULT: -7.772961656      2.810      7.670
REMARK  10 active torsions:
REMARK  status: ('A' for Active; 'I' for Inactive)
REMARK    1  A    between atoms: O1_1  and  C1_3 
REMARK    2  A    between atoms: C2_4  and  O2_5 
REMARK    3  A    between atoms: C3_7  and  O3_8 
REMARK    4  A    between atoms: C4_10  and  O4_11 
REMARK    5  A    between atoms: O4_11  and  C5_12 
REMARK    6  A    between atoms: C8_16  and  S1_17 
REMARK    7  A    between atoms: S1_17  and  C9_18 
REMARK    8  A    between atoms: C9_18  and  C10_19 
REMARK    9  A    between atoms: C13_26  and  O7_27 
REMARK   10  A    between atoms: C14_29  and  O8_30 
ROOT
HETATM    1  C1  UNL     1      -1.158   8.833  39.096  1.00  0.00     0.180 C 
HETATM    2  C2  UNL     1      -2.206   9.608  39.868  1.00  0.00     0.180 C 
HETATM    3  C3  UNL     1      -2.240   9.137  41.298  1.00  0.00     0.181 C 
HETATM    4  C4  UNL     1      -2.190   7.629  41.427  1.00  0.00     0.184 C 
HETATM    5  C13 UNL     1      -2.561   7.065  40.080  1.00  0.00     0.181 C 
HETATM    6  C14 UNL     1      -1.370   7.358  39.153  1.00  0.00     0.180 C 
ENDROOT
BRANCH   4   7
HETATM    7  O4  UNL     1      -2.973   7.172  42.474  1.00  0.00    -0.372 OA
BRANCH   7   8
HETATM    8  C5  UNL     1      -4.013   8.044  42.674  1.00  0.00     0.161 C 
HETATM    9  C6  UNL     1      -5.368   7.415  42.483  1.00  0.00     0.200 C 
HETATM   10  O5  UNL     1      -6.267   8.133  43.216  1.00  0.00    -0.387 OA
HETATM   11  C7  UNL     1      -5.601   8.780  44.237  1.00  0.00     0.185 C 
HETATM   12  C8  UNL     1      -4.131   8.523  44.130  1.00  0.00     0.102 C 
BRANCH  12  13
HETATM   13  S1  UNL     1      -3.341   7.525  45.313  1.00  0.00    -0.157 SA
BRANCH  13  14
HETATM   14  C9  UNL     1      -3.967   6.059  45.978  1.00  0.00     0.109 C 
BRANCH  14  15
HETATM   15  C10 UNL     1      -3.045   4.911  46.293  1.00  0.00     0.221 C 
HETATM   16  C11 UNL     1      -3.915   3.660  46.622  1.00  0.00     0.203 C 
HETATM   17  O6  UNL     1      -4.395   4.033  47.886  1.00  0.00    -0.362 OA
HETATM   18  C12 UNL     1      -3.240   4.439  48.557  1.00  0.00     0.399 C 
HETATM   19  N1  UNL     1      -2.386   5.037  47.568  1.00  0.00    -0.047 N 
ATOM     20  H12 UNL     1      -1.444   4.648  47.569  1.00  0.00     0.280 HD
ATOM     21  H11 UNL     1      -2.134   6.000  47.791  1.00  0.00     0.280 HD
ENDBRANCH  14  15
ENDBRANCH  13  14
ENDBRANCH  12  13
ENDBRANCH   7   8
ENDBRANCH   4   7
BRANCH   3  22
HETATM   22  O3  UNL     1      -1.147   9.692  41.957  1.00  0.00    -0.390 OA
ATOM     23  H3  UNL     1      -1.153   9.375  42.852  1.00  0.00     0.210 HD
ENDBRANCH   3  22
BRANCH   5  24
HETATM   24  O7  UNL     1      -2.822   5.710  40.081  1.00  0.00    -0.390 OA
ATOM     25  H7  UNL     1      -3.367   5.415  39.361  1.00  0.00     0.210 HD
ENDBRANCH   5  24
BRANCH   2  26
HETATM   26  O2  UNL     1      -1.779  10.952  39.869  1.00  0.00    -0.390 OA
ATOM     27  H2  UNL     1      -0.949  10.966  39.406  1.00  0.00     0.210 HD
ENDBRANCH   2  26
BRANCH   6  28
HETATM   28  O8  UNL     1      -0.237   6.763  39.729  1.00  0.00    -0.390 OA
ATOM     29  H8  UNL     1      -0.504   5.966  40.173  1.00  0.00     0.210 HD
ENDBRANCH   6  28
BRANCH   1  30
HETATM   30  O1  UNL     1      -1.154   9.233  37.768  1.00  0.00    -0.390 OA
ATOM     31  H1  UNL     1      -1.889   9.813  37.600  1.00  0.00     0.210 HD
ENDBRANCH   1  30
TORSDOF 10
ENDMDL
MODEL 5
REMARK VINA RESULT: -7.659774919      3.573      7.566
REMARK  10 active torsions:
REMARK  status: ('A' for Active; 'I' for Inactive)
REMARK    1  A    between atoms: O1_1  and  C1_3 
REMARK    2  A    between atoms: C2_4  and  O2_5 
REMARK    3  A    between atoms: C3_7  and  O3_8 
REMARK    4  A    between atoms: C4_10  and  O4_11 
REMARK    5  A    between atoms: O4_11  and  C5_12 
REMARK    6  A    between atoms: C8_16  and  S1_17 
REMARK    7  A    between atoms: S1_17  and  C9_18 
REMARK    8  A    between atoms: C9_18  and  C10_19 
REMARK    9  A    between atoms: C13_26  and  O7_27 
REMARK   10  A    between atoms: C14_29  and  O8_30 
ROOT
HETATM    1  C1  UNL     1       0.346   9.362  40.740  1.00  0.00     0.180 C 
HETATM    2  C2  UNL     1      -0.473   9.458  39.469  1.00  0.00     0.180 C 
HETATM    3  C3  UNL     1      -1.940   9.483  39.807  1.00  0.00     0.181 C 
HETATM    4  C4  UNL     1      -2.323   8.462  40.860  1.00  0.00     0.184 C 
HETATM    5  C13 UNL     1      -1.203   7.456  40.917  1.00  0.00     0.181 C 
HETATM    6  C14 UNL     1      -0.016   8.178  41.573  1.00  0.00     0.180 C 
ENDROOT
BRANCH   4   7
HETATM    7  O4  UNL     1      -3.573   7.915  40.619  1.00  0.00    -0.372 OA
BRANCH   7   8
HETATM    8  C5  UNL     1      -4.097   8.469  39.479  1.00  0.00     0.161 C 
HETATM    9  C6  UNL     1      -4.428   7.453  38.417  1.00  0.00     0.200 C 
HETATM   10  O5  UNL     1      -5.406   7.983  37.626  1.00  0.00    -0.387 OA
HETATM   11  C7  UNL     1      -6.095   8.942  38.341  1.00  0.00     0.185 C 
HETATM   12  C8  UNL     1      -5.479   9.108  39.695  1.00  0.00     0.102 C 
BRANCH  12  13
HETATM   13  S1  UNL     1      -6.339   8.571  41.106  1.00  0.00    -0.157 SA
BRANCH  13  14
HETATM   14  C9  UNL     1      -5.834   8.796  42.743  1.00  0.00     0.109 C 
BRANCH  14  15
HETATM   15  C10 UNL     1      -5.351   7.626  43.558  1.00  0.00     0.221 C 
HETATM   16  C11 UNL     1      -5.520   7.977  45.067  1.00  0.00     0.203 C 
HETATM   17  O6  UNL     1      -4.481   8.909  45.210  1.00  0.00    -0.362 OA
HETATM   18  C12 UNL     1      -3.391   8.260  44.627  1.00  0.00     0.399 C 
HETATM   19  N1  UNL     1      -3.918   7.471  43.548  1.00  0.00    -0.047 N 
ATOM     20  H12 UNL     1      -3.624   6.496  43.587  1.00  0.00     0.280 HD
ATOM     21  H11 UNL     1      -3.501   7.702  42.646  1.00  0.00     0.280 HD
ENDBRANCH  14  15
ENDBRANCH  13  14
ENDBRANCH  12  13
ENDBRANCH   7   8
ENDBRANCH   4   7
BRANCH   3  22
HETATM   22  O3  UNL     1      -2.251  10.758  40.269  1.00  0.00    -0.390 OA
ATOM     23  H3  UNL     1      -3.191  10.876  40.191  1.00  0.00     0.210 HD
ENDBRANCH   3  22
BRANCH   5  24
HETATM   24  O7  UNL     1      -1.500   6.313  41.631  1.00  0.00    -0.390 OA
ATOM     25  H7  UNL     1      -0.867   5.613  41.531  1.00  0.00     0.210 HD
ENDBRANCH   5  24
BRANCH   2  26
HETATM   26  O2  UNL     1      -0.146  10.700  38.886  1.00  0.00    -0.390 OA
ATOM     27  H2  UNL     1       0.341  10.501  38.095  1.00  0.00     0.210 HD
ENDBRANCH   2  26
BRANCH   6  28
HETATM   28  O8  UNL     1      -0.445   8.629  42.832  1.00  0.00    -0.390 OA
ATOM     29  H8  UNL     1       0.091   9.370  43.088  1.00  0.00     0.210 HD
ENDBRANCH   6  28
BRANCH   1  30
HETATM   30  O1  UNL     1       1.697   9.294  40.431  1.00  0.00    -0.390 OA
ATOM     31  H1  UNL     1       2.211   9.241  41.228  1.00  0.00     0.210 HD
ENDBRANCH   1  30
TORSDOF 10
ENDMDL
