MODEL 1
REMARK VINA RESULT: -7.630947593      0.000      0.000
REMARK  7 active torsions:
REMARK  status: ('A' for Active; 'I' for Inactive)
REMARK    1  A    between atoms: C2_2  and  C3_3 
REMARK    2  A    between atoms: C3_3  and  C4_4 
REMARK    3  A    between atoms: C4_4  and  C5_5 
REMARK    4  A    between atoms: C10_11  and  C11_12 
REMARK    5  A    between atoms: C11_12  and  C12_14 
REMARK    6  A    between atoms: C12_14  and  C13_15 
REMARK    7  A    between atoms: C13_15  and  C15_17 
ROOT
HETATM    1  C5  UNL     1     -34.388 125.074   5.294  1.00  0.00    -0.012 A 
HETATM    2  C6  UNL     1     -35.015 125.607   4.213  1.00  0.00     0.056 A 
HETATM    3  C7  UNL     1     -35.147 127.036   3.863  1.00  0.00     0.077 C 
HETATM    4  O1  UNL     1     -35.547 124.649   3.439  1.00  0.00    -0.319 OA
HETATM    5  C8  UNL     1     -35.303 123.485   3.960  1.00  0.00     0.064 A 
HETATM    6  C9  UNL     1     -35.725 122.146   3.406  1.00  0.00     0.077 C 
HETATM    7  C10 UNL     1     -34.579 123.674   5.126  1.00  0.00     0.048 A 
ENDROOT
BRANCH   7   8
HETATM    8  C11 UNL     1     -34.108 122.623   6.004  1.00  0.00     0.163 C 
HETATM    9  O2  UNL     1     -34.860 122.235   6.914  1.00  0.00    -0.292 OA
BRANCH   8  10
HETATM   10  C12 UNL     1     -32.776 122.055   5.787  1.00  0.00     0.088 C 
BRANCH  10  11
HETATM   11  C13 UNL     1     -32.002 121.803   7.052  1.00  0.00    -0.012 C 
HETATM   12  C14 UNL     1     -31.838 122.991   7.936  1.00  0.00     0.010 C 
BRANCH  11  13
HETATM   13  C15 UNL     1     -30.708 121.053   6.808  1.00  0.00     0.000 C 
HETATM   14  C16 UNL     1     -29.556 121.893   7.352  1.00  0.00     0.005 C 
ENDBRANCH  11  13
ENDBRANCH  10  11
ENDBRANCH   8  10
ENDBRANCH   7   8
BRANCH   1  15
HETATM   15  C4  UNL     1     -33.651 125.622   6.421  1.00  0.00     0.042 C 
BRANCH  15  16
HETATM   16  C3  UNL     1     -32.654 126.672   6.227  1.00  0.00     0.004 C 
BRANCH  16  17
HETATM   17  C2  UNL     1     -32.913 128.065   6.706  1.00  0.00    -0.004 C 
HETATM   18  C1  UNL     1     -32.236 129.124   5.863  1.00  0.00     0.005 C 
ENDBRANCH  16  17
ENDBRANCH  15  16
ENDBRANCH   1  15
TORSDOF 7
ENDMDL
MODEL 2
REMARK VINA RESULT: -7.515914976      1.265      5.103
REMARK  7 active torsions:
REMARK  status: ('A' for Active; 'I' for Inactive)
REMARK    1  A    between atoms: C2_2  and  C3_3 
REMARK    2  A    between atoms: C3_3  and  C4_4 
REMARK    3  A    between atoms: C4_4  and  C5_5 
REMARK    4  A    between atoms: C10_11  and  C11_12 
REMARK    5  A    between atoms: C11_12  and  C12_14 
REMARK    6  A    between atoms: C12_14  and  C13_15 
REMARK    7  A    between atoms: C13_15  and  C15_17 
ROOT
HETATM    1  C5  UNL     1     -33.744 122.606   6.562  1.00  0.00    -0.012 A 
HETATM    2  C6  UNL     1     -34.298 121.379   6.745  1.00  0.00     0.056 A 
HETATM    3  C7  UNL     1     -34.020 120.420   7.834  1.00  0.00     0.077 C 
HETATM    4  O1  UNL     1     -35.179 121.095   5.775  1.00  0.00    -0.319 OA
HETATM    5  C8  UNL     1     -35.240 122.087   4.940  1.00  0.00     0.064 A 
HETATM    6  C9  UNL     1     -36.108 122.173   3.707  1.00  0.00     0.077 C 
HETATM    7  C10 UNL     1     -34.366 123.072   5.370  1.00  0.00     0.048 A 
ENDROOT
BRANCH   7   8
HETATM    8  C11 UNL     1     -34.140 124.343   4.713  1.00  0.00     0.163 C 
HETATM    9  O2  UNL     1     -33.559 124.342   3.615  1.00  0.00    -0.292 OA
BRANCH   8  10
HETATM   10  C12 UNL     1     -34.605 125.572   5.358  1.00  0.00     0.088 C 
BRANCH  10  11
HETATM   11  C13 UNL     1     -33.626 126.712   5.285  1.00  0.00    -0.012 C 
HETATM   12  C14 UNL     1     -32.816 126.923   6.517  1.00  0.00     0.010 C 
BRANCH  11  13
HETATM   13  C15 UNL     1     -34.248 127.986   4.750  1.00  0.00     0.000 C 
HETATM   14  C16 UNL     1     -34.633 127.756   3.291  1.00  0.00     0.005 C 
ENDBRANCH  11  13
ENDBRANCH  10  11
ENDBRANCH   8  10
ENDBRANCH   7   8
BRANCH   1  15
HETATM   15  C4  UNL     1     -32.771 123.407   7.287  1.00  0.00     0.042 C 
BRANCH  15  16
HETATM   16  C3  UNL     1     -31.664 122.777   8.002  1.00  0.00     0.004 C 
BRANCH  16  17
HETATM   17  C2  UNL     1     -30.680 121.917   7.276  1.00  0.00    -0.004 C 
HETATM   18  C1  UNL     1     -29.247 122.375   7.439  1.00  0.00     0.005 C 
ENDBRANCH  16  17
ENDBRANCH  15  16
ENDBRANCH   1  15
TORSDOF 7
ENDMDL
MODEL 3
REMARK VINA RESULT: -7.474566988      1.409      5.220
REMARK  7 active torsions:
REMARK  status: ('A' for Active; 'I' for Inactive)
REMARK    1  A    between atoms: C2_2  and  C3_3 
REMARK    2  A    between atoms: C3_3  and  C4_4 
REMARK    3  A    between atoms: C4_4  and  C5_5 
REMARK    4  A    between atoms: C10_11  and  C11_12 
REMARK    5  A    between atoms: C11_12  and  C12_14 
REMARK    6  A    between atoms: C12_14  and  C13_15 
REMARK    7  A    between atoms: C13_15  and  C15_17 
ROOT
HETATM    1  C5  UNL     1     -33.761 122.581   6.526  1.00  0.00    -0.012 A 
HETATM    2  C6  UNL     1     -34.360 121.391   6.793  1.00  0.00     0.056 A 
HETATM    3  C7  UNL     1     -34.155 120.526   7.973  1.00  0.00     0.077 C 
HETATM    4  O1  UNL     1     -35.212 121.046   5.816  1.00  0.00    -0.319 OA
HETATM    5  C8  UNL     1     -35.209 121.961   4.895  1.00  0.00     0.064 A 
HETATM    6  C9  UNL     1     -36.025 121.960   3.624  1.00  0.00     0.077 C 
HETATM    7  C10 UNL     1     -34.321 122.955   5.273  1.00  0.00     0.048 A 
ENDROOT
BRANCH   7   8
HETATM    8  C11 UNL     1     -34.030 124.155   4.516  1.00  0.00     0.163 C 
HETATM    9  O2  UNL     1     -33.469 124.035   3.414  1.00  0.00    -0.292 OA
BRANCH   8  10
HETATM   10  C12 UNL     1     -34.407 125.458   5.069  1.00  0.00     0.088 C 
BRANCH  10  11
HETATM   11  C13 UNL     1     -35.303 126.269   4.174  1.00  0.00    -0.012 C 
HETATM   12  C14 UNL     1     -36.158 125.471   3.252  1.00  0.00     0.010 C 
BRANCH  11  13
HETATM   13  C15 UNL     1     -34.572 127.403   3.485  1.00  0.00     0.000 C 
HETATM   14  C16 UNL     1     -33.416 127.843   4.380  1.00  0.00     0.005 C 
ENDBRANCH  11  13
ENDBRANCH  10  11
ENDBRANCH   8  10
ENDBRANCH   7   8
BRANCH   1  15
HETATM   15  C4  UNL     1     -32.793 123.416   7.217  1.00  0.00     0.042 C 
BRANCH  15  16
HETATM   16  C3  UNL     1     -31.674 122.822   7.945  1.00  0.00     0.004 C 
BRANCH  16  17
HETATM   17  C2  UNL     1     -30.726 121.893   7.257  1.00  0.00    -0.004 C 
HETATM   18  C1  UNL     1     -29.272 122.275   7.440  1.00  0.00     0.005 C 
ENDBRANCH  16  17
ENDBRANCH  15  16
ENDBRANCH   1  15
TORSDOF 7
ENDMDL
MODEL 4
REMARK VINA RESULT: -7.455114300      1.230      4.949
REMARK  7 active torsions:
REMARK  status: ('A' for Active; 'I' for Inactive)
REMARK    1  A    between atoms: C2_2  and  C3_3 
REMARK    2  A    between atoms: C3_3  and  C4_4 
REMARK    3  A    between atoms: C4_4  and  C5_5 
REMARK    4  A    between atoms: C10_11  and  C11_12 
REMARK    5  A    between atoms: C11_12  and  C12_14 
REMARK    6  A    between atoms: C12_14  and  C13_15 
REMARK    7  A    between atoms: C13_15  and  C15_17 
ROOT
HETATM    1  C5  UNL     1     -33.906 122.791   6.219  1.00  0.00    -0.012 A 
HETATM    2  C6  UNL     1     -34.426 121.542   6.352  1.00  0.00     0.056 A 
HETATM    3  C7  UNL     1     -34.118 120.548   7.400  1.00  0.00     0.077 C 
HETATM    4  O1  UNL     1     -35.303 121.275   5.373  1.00  0.00    -0.319 OA
HETATM    5  C8  UNL     1     -35.393 122.298   4.580  1.00  0.00     0.064 A 
HETATM    6  C9  UNL     1     -36.267 122.411   3.354  1.00  0.00     0.077 C 
HETATM    7  C10 UNL     1     -34.545 123.288   5.049  1.00  0.00     0.048 A 
ENDROOT
BRANCH   7   8
HETATM    8  C11 UNL     1     -34.355 124.591   4.444  1.00  0.00     0.163 C 
HETATM    9  O2  UNL     1     -33.527 124.698   3.524  1.00  0.00    -0.292 OA
BRANCH   8  10
HETATM   10  C12 UNL     1     -35.143 125.725   4.931  1.00  0.00     0.088 C 
BRANCH  10  11
HETATM   11  C13 UNL     1     -34.359 127.000   5.078  1.00  0.00    -0.012 C 
HETATM   12  C14 UNL     1     -34.146 127.755   3.812  1.00  0.00     0.010 C 
BRANCH  11  13
HETATM   13  C15 UNL     1     -33.092 126.819   5.889  1.00  0.00     0.000 C 
HETATM   14  C16 UNL     1     -32.651 128.187   6.403  1.00  0.00     0.005 C 
ENDBRANCH  11  13
ENDBRANCH  10  11
ENDBRANCH   8  10
ENDBRANCH   7   8
BRANCH   1  15
HETATM   15  C4  UNL     1     -32.953 123.587   6.974  1.00  0.00     0.042 C 
BRANCH  15  16
HETATM   16  C3  UNL     1     -32.069 122.967   7.958  1.00  0.00     0.004 C 
BRANCH  16  17
HETATM   17  C2  UNL     1     -30.660 122.618   7.602  1.00  0.00    -0.004 C 
HETATM   18  C1  UNL     1     -30.531 121.280   6.905  1.00  0.00     0.005 C 
ENDBRANCH  16  17
ENDBRANCH  15  16
ENDBRANCH   1  15
TORSDOF 7
ENDMDL
MODEL 5
REMARK VINA RESULT: -7.396713953      1.552      5.088
REMARK  7 active torsions:
REMARK  status: ('A' for Active; 'I' for Inactive)
REMARK    1  A    between atoms: C2_2  and  C3_3 
REMARK    2  A    between atoms: C3_3  and  C4_4 
REMARK    3  A    between atoms: C4_4  and  C5_5 
REMARK    4  A    between atoms: C10_11  and  C11_12 
REMARK    5  A    between atoms: C11_12  and  C12_14 
REMARK    6  A    between atoms: C12_14  and  C13_15 
REMARK    7  A    between atoms: C13_15  and  C15_17 
ROOT
HETATM    1  C5  UNL     1     -34.274 123.121   5.369  1.00  0.00    -0.012 A 
HETATM    2  C6  UNL     1     -35.029 122.024   5.097  1.00  0.00     0.056 A 
HETATM    3  C7  UNL     1     -35.068 120.752   5.846  1.00  0.00     0.077 C 
HETATM    4  O1  UNL     1     -35.784 122.215   4.005  1.00  0.00    -0.319 OA
HETATM    5  C8  UNL     1     -35.567 123.402   3.528  1.00  0.00     0.064 A 
HETATM    6  C9  UNL     1     -36.214 124.013   2.308  1.00  0.00     0.077 C 
HETATM    7  C10 UNL     1     -34.630 124.029   4.333  1.00  0.00     0.048 A 
ENDROOT
BRANCH   7   8
HETATM    8  C11 UNL     1     -34.117 125.370   4.140  1.00  0.00     0.163 C 
HETATM    9  O2  UNL     1     -33.267 125.553   3.252  1.00  0.00    -0.292 OA
BRANCH   8  10
HETATM   10  C12 UNL     1     -34.617 126.454   4.987  1.00  0.00     0.088 C 
BRANCH  10  11
HETATM   11  C13 UNL     1     -33.563 127.441   5.408  1.00  0.00    -0.012 C 
HETATM   12  C14 UNL     1     -32.676 126.979   6.512  1.00  0.00     0.010 C 
BRANCH  11  13
HETATM   13  C15 UNL     1     -34.118 128.834   5.628  1.00  0.00     0.000 C 
HETATM   14  C16 UNL     1     -33.281 129.520   6.705  1.00  0.00     0.005 C 
ENDBRANCH  11  13
ENDBRANCH  10  11
ENDBRANCH   8  10
ENDBRANCH   7   8
BRANCH   1  15
HETATM   15  C4  UNL     1     -33.314 123.470   6.403  1.00  0.00     0.042 C 
BRANCH  15  16
HETATM   16  C3  UNL     1     -32.370 122.480   6.916  1.00  0.00     0.004 C 
BRANCH  16  17
HETATM   17  C2  UNL     1     -31.943 122.507   8.348  1.00  0.00    -0.004 C 
HETATM   18  C1  UNL     1     -32.333 121.261   9.115  1.00  0.00     0.005 C 
ENDBRANCH  16  17
ENDBRANCH  15  16
ENDBRANCH   1  15
TORSDOF 7
ENDMDL
