MODEL 1
REMARK VINA RESULT: -7.522711121      0.000      0.000
REMARK  7 active torsions:
REMARK  status: ('A' for Active; 'I' for Inactive)
REMARK    1  A    between atoms: C2_2  and  C3_3 
REMARK    2  A    between atoms: C3_3  and  C4_4 
REMARK    3  A    between atoms: C4_4  and  C5_5 
REMARK    4  A    between atoms: C5_5  and  C6_6 
REMARK    5  A    between atoms: C6_6  and  C7_8 
REMARK    6  A    between atoms: C12_14  and  C13_15 
REMARK    7  A    between atoms: C13_15  and  C14_16 
ROOT
HETATM    1  C7  UNL     1     -34.143 122.966   5.200  1.00  0.00     0.048 A 
HETATM    2  C8  UNL     1     -35.096 121.946   5.013  1.00  0.00     0.064 A 
HETATM    3  C9  UNL     1     -35.202 120.676   5.819  1.00  0.00     0.077 C 
HETATM    4  O2  UNL     1     -35.837 122.334   4.025  1.00  0.00    -0.319 OA
HETATM    5  C10 UNL     1     -35.485 123.483   3.545  1.00  0.00     0.056 A 
HETATM    6  C11 UNL     1     -36.122 124.222   2.404  1.00  0.00     0.077 C 
HETATM    7  C12 UNL     1     -34.369 123.940   4.290  1.00  0.00    -0.012 A 
ENDROOT
BRANCH   1   8
HETATM    8  C6  UNL     1     -33.086 122.820   6.158  1.00  0.00     0.162 C 
HETATM    9  O1  UNL     1     -33.042 123.746   7.068  1.00  0.00    -0.292 OA
BRANCH   8  10
HETATM   10  C5  UNL     1     -32.049 121.805   6.273  1.00  0.00     0.084 C 
BRANCH  10  11
HETATM   11  C4  UNL     1     -31.211 122.016   7.540  1.00  0.00     0.008 C 
BRANCH  11  12
HETATM   12  C3  UNL     1     -31.427 120.852   8.455  1.00  0.00     0.000 C 
BRANCH  12  13
HETATM   13  C2  UNL     1     -32.501 121.077   9.472  1.00  0.00    -0.005 C 
HETATM   14  C1  UNL     1     -33.767 120.320   9.195  1.00  0.00     0.005 C 
ENDBRANCH  12  13
ENDBRANCH  11  12
ENDBRANCH  10  11
ENDBRANCH   8  10
ENDBRANCH   1   8
BRANCH   7  15
HETATM   15  C13 UNL     1     -33.750 125.254   4.032  1.00  0.00     0.046 C 
BRANCH  15  16
HETATM   16  C14 UNL     1     -34.253 126.414   4.789  1.00  0.00    -0.018 C 
HETATM   17  C15 UNL     1     -33.335 127.043   5.777  1.00  0.00     0.010 C 
HETATM   18  C16 UNL     1     -34.659 127.544   3.811  1.00  0.00     0.010 C 
ENDBRANCH  15  16
ENDBRANCH   7  15
TORSDOF 7
ENDMDL
MODEL 2
REMARK VINA RESULT: -7.281789916      1.649      5.308
REMARK  7 active torsions:
REMARK  status: ('A' for Active; 'I' for Inactive)
REMARK    1  A    between atoms: C2_2  and  C3_3 
REMARK    2  A    between atoms: C3_3  and  C4_4 
REMARK    3  A    between atoms: C4_4  and  C5_5 
REMARK    4  A    between atoms: C5_5  and  C6_6 
REMARK    5  A    between atoms: C6_6  and  C7_8 
REMARK    6  A    between atoms: C12_14  and  C13_15 
REMARK    7  A    between atoms: C13_15  and  C14_16 
ROOT
HETATM    1  C7  UNL     1     -34.424 124.135   4.651  1.00  0.00     0.048 A 
HETATM    2  C8  UNL     1     -35.671 123.983   4.015  1.00  0.00     0.064 A 
HETATM    3  C9  UNL     1     -36.442 125.071   3.309  1.00  0.00     0.077 C 
HETATM    4  O2  UNL     1     -35.995 122.740   4.167  1.00  0.00    -0.319 OA
HETATM    5  C10 UNL     1     -35.112 122.060   4.825  1.00  0.00     0.056 A 
HETATM    6  C11 UNL     1     -35.169 120.603   5.180  1.00  0.00     0.077 C 
HETATM    7  C12 UNL     1     -34.054 122.940   5.165  1.00  0.00    -0.012 A 
ENDROOT
BRANCH   1   8
HETATM    8  C6  UNL     1     -33.807 125.424   4.765  1.00  0.00     0.162 C 
HETATM    9  O1  UNL     1     -33.357 125.915   3.649  1.00  0.00    -0.292 OA
BRANCH   8  10
HETATM   10  C5  UNL     1     -33.595 126.271   5.930  1.00  0.00     0.084 C 
BRANCH  10  11
HETATM   11  C4  UNL     1     -33.396 127.734   5.517  1.00  0.00     0.008 C 
BRANCH  11  12
HETATM   12  C3  UNL     1     -32.293 128.318   6.343  1.00  0.00     0.000 C 
BRANCH  12  13
HETATM   13  C2  UNL     1     -32.771 129.230   7.428  1.00  0.00    -0.005 C 
HETATM   14  C1  UNL     1     -33.896 130.133   7.010  1.00  0.00     0.005 C 
ENDBRANCH  12  13
ENDBRANCH  11  12
ENDBRANCH  10  11
ENDBRANCH   8  10
ENDBRANCH   1   8
BRANCH   7  15
HETATM   15  C13 UNL     1     -32.852 122.469   5.877  1.00  0.00     0.046 C 
BRANCH  15  16
HETATM   16  C14 UNL     1     -32.867 122.494   7.351  1.00  0.00    -0.018 C 
HETATM   17  C15 UNL     1     -33.166 121.220   8.059  1.00  0.00     0.010 C 
HETATM   18  C16 UNL     1     -31.490 122.961   7.884  1.00  0.00     0.010 C 
ENDBRANCH  15  16
ENDBRANCH   7  15
TORSDOF 7
ENDMDL
MODEL 3
REMARK VINA RESULT: -7.229315000      1.594      5.328
REMARK  7 active torsions:
REMARK  status: ('A' for Active; 'I' for Inactive)
REMARK    1  A    between atoms: C2_2  and  C3_3 
REMARK    2  A    between atoms: C3_3  and  C4_4 
REMARK    3  A    between atoms: C4_4  and  C5_5 
REMARK    4  A    between atoms: C5_5  and  C6_6 
REMARK    5  A    between atoms: C6_6  and  C7_8 
REMARK    6  A    between atoms: C12_14  and  C13_15 
REMARK    7  A    between atoms: C13_15  and  C14_16 
ROOT
HETATM    1  C7  UNL     1     -34.159 122.954   5.520  1.00  0.00     0.048 A 
HETATM    2  C8  UNL     1     -35.164 122.032   5.171  1.00  0.00     0.064 A 
HETATM    3  C9  UNL     1     -36.060 122.115   3.959  1.00  0.00     0.077 C 
HETATM    4  O2  UNL     1     -35.146 121.125   6.094  1.00  0.00    -0.319 OA
HETATM    5  C10 UNL     1     -34.252 121.343   7.004  1.00  0.00     0.056 A 
HETATM    6  C11 UNL     1     -33.963 120.498   8.211  1.00  0.00     0.077 C 
HETATM    7  C12 UNL     1     -33.574 122.541   6.666  1.00  0.00    -0.012 A 
ENDROOT
BRANCH   1   8
HETATM    8  C6  UNL     1     -33.967 124.156   4.762  1.00  0.00     0.162 C 
HETATM    9  O1  UNL     1     -33.579 123.972   3.536  1.00  0.00    -0.292 OA
BRANCH   8  10
HETATM   10  C5  UNL     1     -34.129 125.551   5.146  1.00  0.00     0.084 C 
BRANCH  10  11
HETATM   11  C4  UNL     1     -33.622 126.487   4.041  1.00  0.00     0.008 C 
BRANCH  11  12
HETATM   12  C3  UNL     1     -32.991 127.684   4.681  1.00  0.00     0.000 C 
BRANCH  12  13
HETATM   13  C2  UNL     1     -32.752 127.524   6.149  1.00  0.00    -0.005 C 
HETATM   14  C1  UNL     1     -32.516 128.821   6.870  1.00  0.00     0.005 C 
ENDBRANCH  12  13
ENDBRANCH  11  12
ENDBRANCH  10  11
ENDBRANCH   8  10
ENDBRANCH   1   8
BRANCH   7  15
HETATM   15  C13 UNL     1     -32.449 123.049   7.474  1.00  0.00     0.046 C 
BRANCH  15  16
HETATM   16  C14 UNL     1     -31.246 122.206   7.590  1.00  0.00    -0.018 C 
HETATM   17  C15 UNL     1     -30.913 121.318   6.443  1.00  0.00     0.010 C 
HETATM   18  C16 UNL     1     -29.998 123.097   7.809  1.00  0.00     0.010 C 
ENDBRANCH  15  16
ENDBRANCH   7  15
TORSDOF 7
ENDMDL
MODEL 4
REMARK VINA RESULT: -7.222809504      1.116      1.865
REMARK  7 active torsions:
REMARK  status: ('A' for Active; 'I' for Inactive)
REMARK    1  A    between atoms: C2_2  and  C3_3 
REMARK    2  A    between atoms: C3_3  and  C4_4 
REMARK    3  A    between atoms: C4_4  and  C5_5 
REMARK    4  A    between atoms: C5_5  and  C6_6 
REMARK    5  A    between atoms: C6_6  and  C7_8 
REMARK    6  A    between atoms: C12_14  and  C13_15 
REMARK    7  A    between atoms: C13_15  and  C14_16 
ROOT
HETATM    1  C7  UNL     1     -34.157 123.112   5.128  1.00  0.00     0.048 A 
HETATM    2  C8  UNL     1     -35.049 122.056   4.862  1.00  0.00     0.064 A 
HETATM    3  C9  UNL     1     -35.208 120.803   5.687  1.00  0.00     0.077 C 
HETATM    4  O2  UNL     1     -35.681 122.392   3.784  1.00  0.00    -0.319 OA
HETATM    5  C10 UNL     1     -35.311 123.539   3.314  1.00  0.00     0.056 A 
HETATM    6  C11 UNL     1     -35.833 124.226   2.085  1.00  0.00     0.077 C 
HETATM    7  C12 UNL     1     -34.305 124.054   4.169  1.00  0.00    -0.012 A 
ENDROOT
BRANCH   1   8
HETATM    8  C6  UNL     1     -33.216 123.028   6.207  1.00  0.00     0.162 C 
HETATM    9  O1  UNL     1     -33.186 124.066   6.988  1.00  0.00    -0.292 OA
BRANCH   8  10
HETATM   10  C5  UNL     1     -32.282 121.970   6.565  1.00  0.00     0.084 C 
BRANCH  10  11
HETATM   11  C4  UNL     1     -31.313 122.439   7.658  1.00  0.00     0.008 C 
BRANCH  11  12
HETATM   12  C3  UNL     1     -30.126 121.528   7.666  1.00  0.00     0.000 C 
BRANCH  12  13
HETATM   13  C2  UNL     1     -28.818 122.244   7.539  1.00  0.00    -0.005 C 
HETATM   14  C1  UNL     1     -27.653 121.484   8.106  1.00  0.00     0.005 C 
ENDBRANCH  12  13
ENDBRANCH  11  12
ENDBRANCH  10  11
ENDBRANCH   8  10
ENDBRANCH   1   8
BRANCH   7  15
HETATM   15  C13 UNL     1     -33.703 125.382   3.946  1.00  0.00     0.046 C 
BRANCH  15  16
HETATM   16  C14 UNL     1     -34.298 126.536   4.643  1.00  0.00    -0.018 C 
HETATM   17  C15 UNL     1     -33.443 127.272   5.613  1.00  0.00     0.010 C 
HETATM   18  C16 UNL     1     -34.767 127.590   3.609  1.00  0.00     0.010 C 
ENDBRANCH  15  16
ENDBRANCH   7  15
TORSDOF 7
ENDMDL
MODEL 5
REMARK VINA RESULT: -7.203094185      1.880      5.594
REMARK  7 active torsions:
REMARK  status: ('A' for Active; 'I' for Inactive)
REMARK    1  A    between atoms: C2_2  and  C3_3 
REMARK    2  A    between atoms: C3_3  and  C4_4 
REMARK    3  A    between atoms: C4_4  and  C5_5 
REMARK    4  A    between atoms: C5_5  and  C6_6 
REMARK    5  A    between atoms: C6_6  and  C7_8 
REMARK    6  A    between atoms: C12_14  and  C13_15 
REMARK    7  A    between atoms: C13_15  and  C14_16 
ROOT
HETATM    1  C7  UNL     1     -34.247 125.273   5.014  1.00  0.00     0.048 A 
HETATM    2  C8  UNL     1     -34.795 125.581   3.753  1.00  0.00     0.064 A 
HETATM    3  C9  UNL     1     -34.717 126.916   3.056  1.00  0.00     0.077 C 
HETATM    4  O2  UNL     1     -35.362 124.493   3.341  1.00  0.00    -0.319 OA
HETATM    5  C10 UNL     1     -35.251 123.512   4.178  1.00  0.00     0.056 A 
HETATM    6  C11 UNL     1     -35.789 122.119   4.019  1.00  0.00     0.077 C 
HETATM    7  C12 UNL     1     -34.520 123.980   5.299  1.00  0.00    -0.012 A 
ENDROOT
BRANCH   1   8
HETATM    8  C6  UNL     1     -33.624 126.288   5.813  1.00  0.00     0.162 C 
HETATM    9  O1  UNL     1     -33.187 125.882   6.967  1.00  0.00    -0.292 OA
BRANCH   8  10
HETATM   10  C5  UNL     1     -33.408 127.702   5.543  1.00  0.00     0.084 C 
BRANCH  10  11
HETATM   11  C4  UNL     1     -32.269 128.258   6.408  1.00  0.00     0.008 C 
BRANCH  11  12
HETATM   12  C3  UNL     1     -32.832 129.287   7.337  1.00  0.00     0.000 C 
BRANCH  12  13
HETATM   13  C2  UNL     1     -33.973 130.062   6.755  1.00  0.00    -0.005 C 
HETATM   14  C1  UNL     1     -34.674 130.945   7.747  1.00  0.00     0.005 C 
ENDBRANCH  12  13
ENDBRANCH  11  12
ENDBRANCH  10  11
ENDBRANCH   8  10
ENDBRANCH   1   8
BRANCH   7  15
HETATM   15  C13 UNL     1     -34.169 123.091   6.422  1.00  0.00     0.046 C 
BRANCH  15  16
HETATM   16  C14 UNL     1     -32.796 122.555   6.475  1.00  0.00    -0.018 C 
HETATM   17  C15 UNL     1     -32.049 122.699   7.753  1.00  0.00     0.010 C 
HETATM   18  C16 UNL     1     -32.812 121.038   6.162  1.00  0.00     0.010 C 
ENDBRANCH  15  16
ENDBRANCH   7  15
TORSDOF 7
ENDMDL
