MODEL 1
REMARK VINA RESULT: -8.165275588      0.000      0.000
REMARK  6 active torsions:
REMARK  status: ('A' for Active; 'I' for Inactive)
REMARK    1  A    between atoms: C2_2  and  C3_3 
REMARK    2  A    between atoms: C3_3  and  C4_4 
REMARK    3  A    between atoms: C10_10  and  O1_11 
REMARK    4  A    between atoms: C10_10  and  C11_13 
REMARK    5  A    between atoms: C11_13  and  C12_14 
REMARK    6  A    between atoms: C12_14  and  C13_15 
ROOT
HETATM    1  C3  UNL     1     -35.237 123.108   4.068  1.00  0.00    -0.041 C 
HETATM    2  C6  UNL     1     -34.293 122.874   2.909  1.00  0.00     0.009 C 
HETATM    3  C7  UNL     1     -33.201 123.848   2.692  1.00  0.00     0.001 C 
HETATM    4  C8  UNL     1     -33.587 125.271   2.480  1.00  0.00     0.003 C 
HETATM    5  C9  UNL     1     -33.321 126.145   3.671  1.00  0.00     0.038 C 
HETATM    6  C10 UNL     1     -34.630 126.552   4.361  1.00  0.00     0.058 C 
HETATM    7  C15 UNL     1     -35.248 125.439   5.124  1.00  0.00     0.038 C 
HETATM    8  C16 UNL     1     -34.676 124.098   5.070  1.00  0.00     0.012 C 
ENDROOT
BRANCH   6   9
HETATM    9  O1  UNL     1     -35.438 127.046   3.334  1.00  0.00    -0.390 OA
ATOM     10  H1  UNL     1     -35.868 126.280   2.972  1.00  0.00     0.210 HD
ENDBRANCH   6   9
BRANCH   6  11
HETATM   11  C11 UNL     1     -34.250 127.748   5.206  1.00  0.00     0.045 C 
BRANCH  11  12
HETATM   12  C12 UNL     1     -32.972 127.649   5.953  1.00  0.00     0.081 C 
BRANCH  12  13
HETATM   13  C13 UNL     1     -32.561 129.046   6.319  1.00  0.00     0.123 C 
HETATM   14  C14 UNL     1     -32.758 129.600   7.677  1.00  0.00     0.091 C 
HETATM   15  O2  UNL     1     -32.046 129.721   5.422  1.00  0.00    -0.298 OA
ENDBRANCH  12  13
ENDBRANCH  11  12
ENDBRANCH   6  11
BRANCH   1  16
HETATM   16  C2  UNL     1     -36.616 123.421   3.643  1.00  0.00     0.005 C 
HETATM   17  C1  UNL     1     -36.892 123.938   2.284  1.00  0.00     0.006 C 
ENDBRANCH   1  16
BRANCH   1  18
HETATM   18  C4  UNL     1     -35.245 121.786   4.799  1.00  0.00     0.005 C 
HETATM   19  C5  UNL     1     -34.264 121.556   5.866  1.00  0.00     0.006 C 
ENDBRANCH   1  18
TORSDOF 6
ENDMDL
MODEL 2
REMARK VINA RESULT: -7.771930285      1.726      3.333
REMARK  6 active torsions:
REMARK  status: ('A' for Active; 'I' for Inactive)
REMARK    1  A    between atoms: C2_2  and  C3_3 
REMARK    2  A    between atoms: C3_3  and  C4_4 
REMARK    3  A    between atoms: C10_10  and  O1_11 
REMARK    4  A    between atoms: C10_10  and  C11_13 
REMARK    5  A    between atoms: C11_13  and  C12_14 
REMARK    6  A    between atoms: C12_14  and  C13_15 
ROOT
HETATM    1  C3  UNL     1     -34.903 125.682   4.047  1.00  0.00    -0.041 C 
HETATM    2  C6  UNL     1     -34.453 124.622   5.028  1.00  0.00     0.009 C 
HETATM    3  C7  UNL     1     -33.955 125.061   6.350  1.00  0.00     0.001 C 
HETATM    4  C8  UNL     1     -32.795 125.995   6.366  1.00  0.00     0.003 C 
HETATM    5  C9  UNL     1     -33.170 127.408   6.706  1.00  0.00     0.038 C 
HETATM    6  C10 UNL     1     -33.075 128.317   5.472  1.00  0.00     0.058 C 
HETATM    7  C15 UNL     1     -34.180 128.093   4.508  1.00  0.00     0.038 C 
HETATM    8  C16 UNL     1     -35.143 127.018   4.721  1.00  0.00     0.012 C 
ENDROOT
BRANCH   6   9
HETATM    9  O1  UNL     1     -31.807 128.069   4.942  1.00  0.00    -0.390 OA
ATOM     10  H1  UNL     1     -31.639 127.153   5.128  1.00  0.00     0.210 HD
ENDBRANCH   6   9
BRANCH   6  11
HETATM   11  C11 UNL     1     -33.024 129.716   6.044  1.00  0.00     0.045 C 
BRANCH  11  12
HETATM   12  C12 UNL     1     -33.324 129.851   7.491  1.00  0.00     0.081 C 
BRANCH  12  13
HETATM   13  C13 UNL     1     -34.588 130.651   7.611  1.00  0.00     0.123 C 
HETATM   14  C14 UNL     1     -34.886 131.488   8.794  1.00  0.00     0.091 C 
HETATM   15  O2  UNL     1     -35.379 130.576   6.666  1.00  0.00    -0.298 OA
ENDBRANCH  12  13
ENDBRANCH  11  12
ENDBRANCH   6  11
BRANCH   1  16
HETATM   16  C2  UNL     1     -34.040 125.774   2.852  1.00  0.00     0.005 C 
HETATM   17  C1  UNL     1     -33.117 124.673   2.496  1.00  0.00     0.006 C 
ENDBRANCH   1  16
BRANCH   1  18
HETATM   18  C4  UNL     1     -36.274 125.217   3.618  1.00  0.00     0.005 C 
HETATM   19  C5  UNL     1     -36.531 123.779   3.489  1.00  0.00     0.006 C 
ENDBRANCH   1  18
TORSDOF 6
ENDMDL
MODEL 3
REMARK VINA RESULT: -7.519224402      3.316      5.686
REMARK  6 active torsions:
REMARK  status: ('A' for Active; 'I' for Inactive)
REMARK    1  A    between atoms: C2_2  and  C3_3 
REMARK    2  A    between atoms: C3_3  and  C4_4 
REMARK    3  A    between atoms: C10_10  and  O1_11 
REMARK    4  A    between atoms: C10_10  and  C11_13 
REMARK    5  A    between atoms: C11_13  and  C12_14 
REMARK    6  A    between atoms: C12_14  and  C13_15 
ROOT
HETATM    1  C3  UNL     1     -32.545 121.424   7.703  1.00  0.00    -0.041 C 
HETATM    2  C6  UNL     1     -32.118 122.817   8.111  1.00  0.00     0.009 C 
HETATM    3  C7  UNL     1     -32.975 123.954   7.709  1.00  0.00     0.001 C 
HETATM    4  C8  UNL     1     -33.230 124.134   6.253  1.00  0.00     0.003 C 
HETATM    5  C9  UNL     1     -34.611 123.724   5.834  1.00  0.00     0.038 C 
HETATM    6  C10 UNL     1     -34.577 122.421   5.022  1.00  0.00     0.058 C 
HETATM    7  C15 UNL     1     -34.310 121.227   5.861  1.00  0.00     0.038 C 
HETATM    8  C16 UNL     1     -33.999 121.373   7.279  1.00  0.00     0.012 C 
ENDROOT
BRANCH   6   9
HETATM    9  O1  UNL     1     -33.614 122.640   4.033  1.00  0.00    -0.390 OA
ATOM     10  H1  UNL     1     -33.156 123.426   4.309  1.00  0.00     0.210 HD
ENDBRANCH   6   9
BRANCH   6  11
HETATM   11  C11 UNL     1     -35.910 122.393   4.307  1.00  0.00     0.045 C 
BRANCH  11  12
HETATM   12  C12 UNL     1     -35.870 122.494   2.828  1.00  0.00     0.081 C 
BRANCH  12  13
HETATM   13  C13 UNL     1     -36.082 123.938   2.475  1.00  0.00     0.123 C 
HETATM   14  C14 UNL     1     -36.945 124.831   3.278  1.00  0.00     0.091 C 
HETATM   15  O2  UNL     1     -35.496 124.350   1.469  1.00  0.00    -0.298 OA
ENDBRANCH  12  13
ENDBRANCH  11  12
ENDBRANCH   6  11
BRANCH   1  16
HETATM   16  C2  UNL     1     -31.628 120.795   6.731  1.00  0.00     0.005 C 
HETATM   17  C1  UNL     1     -30.205 121.199   6.659  1.00  0.00     0.006 C 
ENDBRANCH   1  16
BRANCH   1  18
HETATM   18  C4  UNL     1     -32.494 120.639   8.992  1.00  0.00     0.005 C 
HETATM   19  C5  UNL     1     -33.541 119.648   9.264  1.00  0.00     0.006 C 
ENDBRANCH   1  18
TORSDOF 6
ENDMDL
MODEL 4
REMARK VINA RESULT: -7.382230763      1.384      2.766
REMARK  6 active torsions:
REMARK  status: ('A' for Active; 'I' for Inactive)
REMARK    1  A    between atoms: C2_2  and  C3_3 
REMARK    2  A    between atoms: C3_3  and  C4_4 
REMARK    3  A    between atoms: C10_10  and  O1_11 
REMARK    4  A    between atoms: C10_10  and  C11_13 
REMARK    5  A    between atoms: C11_13  and  C12_14 
REMARK    6  A    between atoms: C12_14  and  C13_15 
ROOT
HETATM    1  C3  UNL     1     -34.240 122.045   5.456  1.00  0.00    -0.041 C 
HETATM    2  C6  UNL     1     -35.373 121.417   4.674  1.00  0.00     0.009 C 
HETATM    3  C7  UNL     1     -35.850 122.111   3.458  1.00  0.00     0.001 C 
HETATM    4  C8  UNL     1     -36.336 123.510   3.618  1.00  0.00     0.003 C 
HETATM    5  C9  UNL     1     -35.374 124.539   3.100  1.00  0.00     0.038 C 
HETATM    6  C10 UNL     1     -34.714 125.308   4.254  1.00  0.00     0.058 C 
HETATM    7  C15 UNL     1     -33.702 124.501   4.978  1.00  0.00     0.038 C 
HETATM    8  C16 UNL     1     -33.502 123.094   4.648  1.00  0.00     0.012 C 
ENDROOT
BRANCH   6   9
HETATM    9  O1  UNL     1     -35.777 125.728   5.058  1.00  0.00    -0.390 OA
ATOM     10  H1  UNL     1     -36.551 125.355   4.653  1.00  0.00     0.210 HD
ENDBRANCH   6   9
BRANCH   6  11
HETATM   11  C11 UNL     1     -34.163 126.556   3.602  1.00  0.00     0.045 C 
BRANCH  11  12
HETATM   12  C12 UNL     1     -34.344 127.826   4.348  1.00  0.00     0.081 C 
BRANCH  12  13
HETATM   13  C13 UNL     1     -33.028 128.157   4.990  1.00  0.00     0.123 C 
HETATM   14  C14 UNL     1     -32.672 127.697   6.350  1.00  0.00     0.091 C 
HETATM   15  O2  UNL     1     -32.246 128.841   4.321  1.00  0.00    -0.298 OA
ENDBRANCH  12  13
ENDBRANCH  11  12
ENDBRANCH   6  11
BRANCH   1  16
HETATM   16  C2  UNL     1     -34.646 122.515   6.796  1.00  0.00     0.005 C 
HETATM   17  C1  UNL     1     -34.928 121.551   7.884  1.00  0.00     0.006 C 
ENDBRANCH   1  16
BRANCH   1  18
HETATM   18  C4  UNL     1     -33.247 120.918   5.619  1.00  0.00     0.005 C 
HETATM   19  C5  UNL     1     -31.939 121.203   6.218  1.00  0.00     0.006 C 
ENDBRANCH   1  18
TORSDOF 6
ENDMDL
MODEL 5
REMARK VINA RESULT: -7.382034353      3.222      5.395
REMARK  6 active torsions:
REMARK  status: ('A' for Active; 'I' for Inactive)
REMARK    1  A    between atoms: C2_2  and  C3_3 
REMARK    2  A    between atoms: C3_3  and  C4_4 
REMARK    3  A    between atoms: C10_10  and  O1_11 
REMARK    4  A    between atoms: C10_10  and  C11_13 
REMARK    5  A    between atoms: C11_13  and  C12_14 
REMARK    6  A    between atoms: C12_14  and  C13_15 
ROOT
HETATM    1  C3  UNL     1     -34.897 125.253   4.110  1.00  0.00    -0.041 C 
HETATM    2  C6  UNL     1     -35.941 124.470   3.345  1.00  0.00     0.009 C 
HETATM    3  C7  UNL     1     -36.423 123.198   3.927  1.00  0.00     0.001 C 
HETATM    4  C8  UNL     1     -35.405 122.147   4.206  1.00  0.00     0.003 C 
HETATM    5  C9  UNL     1     -35.085 121.998   5.665  1.00  0.00     0.038 C 
HETATM    6  C10 UNL     1     -33.686 122.544   5.981  1.00  0.00     0.058 C 
HETATM    7  C15 UNL     1     -33.629 124.026   5.963  1.00  0.00     0.038 C 
HETATM    8  C16 UNL     1     -34.792 124.806   5.554  1.00  0.00     0.012 C 
ENDROOT
BRANCH   6   9
HETATM    9  O1  UNL     1     -32.844 121.937   5.045  1.00  0.00    -0.390 OA
ATOM     10  H1  UNL     1     -32.030 122.424   5.097  1.00  0.00     0.210 HD
ENDBRANCH   6   9
BRANCH   6  11
HETATM   11  C11 UNL     1     -33.339 121.925   7.318  1.00  0.00     0.045 C 
BRANCH  11  12
HETATM   12  C12 UNL     1     -32.162 122.491   8.022  1.00  0.00     0.081 C 
BRANCH  12  13
HETATM   13  C13 UNL     1     -31.101 121.429   8.040  1.00  0.00     0.123 C 
HETATM   14  C14 UNL     1     -29.893 121.503   7.189  1.00  0.00     0.091 C 
HETATM   15  O2  UNL     1     -31.286 120.479   8.808  1.00  0.00    -0.298 OA
ENDBRANCH  12  13
ENDBRANCH  11  12
ENDBRANCH   6  11
BRANCH   1  16
HETATM   16  C2  UNL     1     -33.593 125.316   3.418  1.00  0.00     0.005 C 
HETATM   17  C1  UNL     1     -33.211 124.287   2.425  1.00  0.00     0.006 C 
ENDBRANCH   1  16
BRANCH   1  18
HETATM   18  C4  UNL     1     -35.473 126.648   4.181  1.00  0.00     0.005 C 
HETATM   19  C5  UNL     1     -34.704 127.765   3.623  1.00  0.00     0.006 C 
ENDBRANCH   1  18
TORSDOF 6
ENDMDL
