MODEL 1
REMARK VINA RESULT: -8.459037379      0.000      0.000
REMARK  7 active torsions:
REMARK  status: ('A' for Active; 'I' for Inactive)
REMARK    1  A    between atoms: C2_2  and  C3_3 
REMARK    2  A    between atoms: C3_3  and  C4_4 
REMARK    3  A    between atoms: C4_4  and  O1_6 
REMARK    4  A    between atoms: O1_6  and  C6_7 
REMARK    5  A    between atoms: C6_7  and  C7_8 
REMARK    6  A    between atoms: C11_12  and  O2_13 
REMARK    7  A    between atoms: C12_15  and  C13_16 
ROOT
HETATM    1  C7  UNL     1     -33.630 124.621   6.167  1.00  0.00    -0.033 A 
HETATM    2  C8  UNL     1     -33.160 125.868   6.517  1.00  0.00     0.019 A 
HETATM    3  C9  UNL     1     -33.483 127.010   5.811  1.00  0.00    -0.028 A 
HETATM    4  C10 UNL     1     -32.991 128.365   6.162  1.00  0.00     0.051 C 
HETATM    5  C11 UNL     1     -34.312 126.871   4.711  1.00  0.00     0.078 A 
HETATM    6  C12 UNL     1     -34.813 125.661   4.309  1.00  0.00    -0.021 A 
HETATM    7  C16 UNL     1     -34.466 124.544   5.045  1.00  0.00     0.019 A 
ENDROOT
BRANCH   1   8
HETATM    8  C6  UNL     1     -33.247 123.435   6.938  1.00  0.00     0.206 C 
BRANCH   8   9
HETATM    9  O1  UNL     1     -32.638 122.418   6.275  1.00  0.00    -0.382 OA
BRANCH   9  10
HETATM   10  C4  UNL     1     -32.000 121.457   7.075  1.00  0.00     0.117 C 
HETATM   11  C5  UNL     1     -30.594 121.366   6.592  1.00  0.00     0.039 C 
BRANCH  10  12
HETATM   12  C3  UNL     1     -32.129 121.903   8.486  1.00  0.00     0.031 C 
BRANCH  12  13
HETATM   13  C2  UNL     1     -32.639 120.980   9.513  1.00  0.00    -0.002 C 
HETATM   14  C1  UNL     1     -33.839 120.216   9.129  1.00  0.00     0.005 C 
ENDBRANCH  12  13
ENDBRANCH  10  12
ENDBRANCH   9  10
ENDBRANCH   8   9
ENDBRANCH   1   8
BRANCH   6  15
HETATM   15  C13 UNL     1     -35.670 125.491   3.148  1.00  0.00     0.013 C 
HETATM   16  C14 UNL     1     -36.963 124.747   3.496  1.00  0.00     0.015 C 
HETATM   17  C15 UNL     1     -35.036 124.768   1.995  1.00  0.00     0.015 C 
ENDBRANCH   6  15
BRANCH   5  18
HETATM   18  O2  UNL     1     -34.648 127.985   3.998  1.00  0.00    -0.360 OA
ATOM     19  H2  UNL     1     -34.240 128.127   3.152  1.00  0.00     0.217 HD
ENDBRANCH   5  18
TORSDOF 7
ENDMDL
MODEL 2
REMARK VINA RESULT: -8.432451575      1.193      1.818
REMARK  7 active torsions:
REMARK  status: ('A' for Active; 'I' for Inactive)
REMARK    1  A    between atoms: C2_2  and  C3_3 
REMARK    2  A    between atoms: C3_3  and  C4_4 
REMARK    3  A    between atoms: C4_4  and  O1_6 
REMARK    4  A    between atoms: O1_6  and  C6_7 
REMARK    5  A    between atoms: C6_7  and  C7_8 
REMARK    6  A    between atoms: C11_12  and  O2_13 
REMARK    7  A    between atoms: C12_15  and  C13_16 
ROOT
HETATM    1  C7  UNL     1     -33.730 124.767   6.088  1.00  0.00    -0.033 A 
HETATM    2  C8  UNL     1     -33.256 126.023   6.402  1.00  0.00     0.019 A 
HETATM    3  C9  UNL     1     -33.583 127.146   5.669  1.00  0.00    -0.028 A 
HETATM    4  C10 UNL     1     -33.087 128.509   5.981  1.00  0.00     0.051 C 
HETATM    5  C11 UNL     1     -34.420 126.980   4.579  1.00  0.00     0.078 A 
HETATM    6  C12 UNL     1     -34.924 125.760   4.212  1.00  0.00    -0.021 A 
HETATM    7  C16 UNL     1     -34.573 124.662   4.974  1.00  0.00     0.019 A 
ENDROOT
BRANCH   1   8
HETATM    8  C6  UNL     1     -33.343 123.601   6.888  1.00  0.00     0.206 C 
BRANCH   8   9
HETATM    9  O1  UNL     1     -34.249 122.598   7.021  1.00  0.00    -0.382 OA
BRANCH   9  10
HETATM   10  C4  UNL     1     -33.826 121.328   6.596  1.00  0.00     0.117 C 
HETATM   11  C5  UNL     1     -34.756 120.911   5.509  1.00  0.00     0.039 C 
BRANCH  10  12
HETATM   12  C3  UNL     1     -32.410 121.456   6.168  1.00  0.00     0.031 C 
BRANCH  12  13
HETATM   13  C2  UNL     1     -31.343 120.773   6.916  1.00  0.00    -0.002 C 
HETATM   14  C1  UNL     1     -30.133 121.578   7.158  1.00  0.00     0.005 C 
ENDBRANCH  12  13
ENDBRANCH  10  12
ENDBRANCH   9  10
ENDBRANCH   8   9
ENDBRANCH   1   8
BRANCH   6  15
HETATM   15  C13 UNL     1     -35.789 125.561   3.061  1.00  0.00     0.013 C 
HETATM   16  C14 UNL     1     -37.040 124.753   3.420  1.00  0.00     0.015 C 
HETATM   17  C15 UNL     1     -35.139 124.879   1.892  1.00  0.00     0.015 C 
ENDBRANCH   6  15
BRANCH   5  18
HETATM   18  O2  UNL     1     -34.759 128.075   3.839  1.00  0.00    -0.360 OA
ATOM     19  H2  UNL     1     -34.072 128.556   3.393  1.00  0.00     0.217 HD
ENDBRANCH   5  18
TORSDOF 7
ENDMDL
MODEL 3
REMARK VINA RESULT: -8.382284240      1.247      1.881
REMARK  7 active torsions:
REMARK  status: ('A' for Active; 'I' for Inactive)
REMARK    1  A    between atoms: C2_2  and  C3_3 
REMARK    2  A    between atoms: C3_3  and  C4_4 
REMARK    3  A    between atoms: C4_4  and  O1_6 
REMARK    4  A    between atoms: O1_6  and  C6_7 
REMARK    5  A    between atoms: C6_7  and  C7_8 
REMARK    6  A    between atoms: C11_12  and  O2_13 
REMARK    7  A    between atoms: C12_15  and  C13_16 
ROOT
HETATM    1  C7  UNL     1     -33.624 125.116   6.231  1.00  0.00    -0.033 A 
HETATM    2  C8  UNL     1     -33.157 126.391   6.468  1.00  0.00     0.019 A 
HETATM    3  C9  UNL     1     -33.466 127.460   5.651  1.00  0.00    -0.028 A 
HETATM    4  C10 UNL     1     -32.976 128.842   5.879  1.00  0.00     0.051 C 
HETATM    5  C11 UNL     1     -34.276 127.217   4.555  1.00  0.00     0.078 A 
HETATM    6  C12 UNL     1     -34.772 125.974   4.263  1.00  0.00    -0.021 A 
HETATM    7  C16 UNL     1     -34.441 124.932   5.107  1.00  0.00     0.019 A 
ENDROOT
BRANCH   1   8
HETATM    8  C6  UNL     1     -33.258 124.009   7.119  1.00  0.00     0.206 C 
BRANCH   8   9
HETATM    9  O1  UNL     1     -32.568 122.969   6.582  1.00  0.00    -0.382 OA
BRANCH   9  10
HETATM   10  C4  UNL     1     -32.885 121.697   7.085  1.00  0.00     0.117 C 
HETATM   11  C5  UNL     1     -32.508 121.702   8.527  1.00  0.00     0.039 C 
BRANCH  10  12
HETATM   12  C3  UNL     1     -34.332 121.474   6.837  1.00  0.00     0.031 C 
BRANCH  12  13
HETATM   13  C2  UNL     1     -34.781 120.827   5.593  1.00  0.00    -0.002 C 
HETATM   14  C1  UNL     1     -35.436 121.721   4.623  1.00  0.00     0.005 C 
ENDBRANCH  12  13
ENDBRANCH  10  12
ENDBRANCH   9  10
ENDBRANCH   8   9
ENDBRANCH   1   8
BRANCH   6  15
HETATM   15  C13 UNL     1     -35.610 125.695   3.108  1.00  0.00     0.013 C 
HETATM   16  C14 UNL     1     -36.875 124.922   3.494  1.00  0.00     0.015 C 
HETATM   17  C15 UNL     1     -34.936 124.925   2.009  1.00  0.00     0.015 C 
ENDBRANCH   6  15
BRANCH   5  18
HETATM   18  O2  UNL     1     -34.597 128.258   3.733  1.00  0.00    -0.360 OA
ATOM     19  H2  UNL     1     -34.442 129.145   4.037  1.00  0.00     0.217 HD
ENDBRANCH   5  18
TORSDOF 7
ENDMDL
MODEL 4
REMARK VINA RESULT: -8.298886206      0.958      1.989
REMARK  7 active torsions:
REMARK  status: ('A' for Active; 'I' for Inactive)
REMARK    1  A    between atoms: C2_2  and  C3_3 
REMARK    2  A    between atoms: C3_3  and  C4_4 
REMARK    3  A    between atoms: C4_4  and  O1_6 
REMARK    4  A    between atoms: O1_6  and  C6_7 
REMARK    5  A    between atoms: C6_7  and  C7_8 
REMARK    6  A    between atoms: C11_12  and  O2_13 
REMARK    7  A    between atoms: C12_15  and  C13_16 
ROOT
HETATM    1  C7  UNL     1     -33.818 124.284   6.197  1.00  0.00    -0.033 A 
HETATM    2  C8  UNL     1     -33.237 125.457   6.628  1.00  0.00     0.019 A 
HETATM    3  C9  UNL     1     -33.415 126.659   5.974  1.00  0.00    -0.028 A 
HETATM    4  C10 UNL     1     -32.800 127.937   6.413  1.00  0.00     0.051 C 
HETATM    5  C11 UNL     1     -34.211 126.663   4.843  1.00  0.00     0.078 A 
HETATM    6  C12 UNL     1     -34.817 125.533   4.361  1.00  0.00    -0.021 A 
HETATM    7  C16 UNL     1     -34.614 124.350   5.046  1.00  0.00     0.019 A 
ENDROOT
BRANCH   1   8
HETATM    8  C6  UNL     1     -33.588 123.027   6.916  1.00  0.00     0.206 C 
BRANCH   8   9
HETATM    9  O1  UNL     1     -32.432 122.360   6.669  1.00  0.00    -0.382 OA
BRANCH   9  10
HETATM   10  C4  UNL     1     -31.566 122.206   7.763  1.00  0.00     0.117 C 
HETATM   11  C5  UNL     1     -32.292 121.381   8.769  1.00  0.00     0.039 C 
BRANCH  10  12
HETATM   12  C3  UNL     1     -30.318 121.582   7.254  1.00  0.00     0.031 C 
BRANCH  12  13
HETATM   13  C2  UNL     1     -29.025 122.266   7.419  1.00  0.00    -0.002 C 
HETATM   14  C1  UNL     1     -27.989 121.486   8.118  1.00  0.00     0.005 C 
ENDBRANCH  12  13
ENDBRANCH  10  12
ENDBRANCH   9  10
ENDBRANCH   8   9
ENDBRANCH   1   8
BRANCH   6  15
HETATM   15  C13 UNL     1     -35.643 125.511   3.164  1.00  0.00     0.013 C 
HETATM   16  C14 UNL     1     -36.982 124.809   3.408  1.00  0.00     0.015 C 
HETATM   17  C15 UNL     1     -35.009 124.858   1.970  1.00  0.00     0.015 C 
ENDBRANCH   6  15
BRANCH   5  18
HETATM   18  O2  UNL     1     -34.404 127.840   4.179  1.00  0.00    -0.360 OA
ATOM     19  H2  UNL     1     -34.347 128.654   4.666  1.00  0.00     0.217 HD
ENDBRANCH   5  18
TORSDOF 7
ENDMDL
MODEL 5
REMARK VINA RESULT: -8.258597292      1.507      6.324
REMARK  7 active torsions:
REMARK  status: ('A' for Active; 'I' for Inactive)
REMARK    1  A    between atoms: C2_2  and  C3_3 
REMARK    2  A    between atoms: C3_3  and  C4_4 
REMARK    3  A    between atoms: C4_4  and  O1_6 
REMARK    4  A    between atoms: O1_6  and  C6_7 
REMARK    5  A    between atoms: C6_7  and  C7_8 
REMARK    6  A    between atoms: C11_12  and  O2_13 
REMARK    7  A    between atoms: C12_15  and  C13_16 
ROOT
HETATM    1  C7  UNL     1     -33.621 124.369   6.368  1.00  0.00    -0.033 A 
HETATM    2  C8  UNL     1     -34.566 123.939   5.461  1.00  0.00     0.019 A 
HETATM    3  C9  UNL     1     -34.789 122.603   5.196  1.00  0.00    -0.028 A 
HETATM    4  C10 UNL     1     -35.797 122.111   4.225  1.00  0.00     0.051 C 
HETATM    5  C11 UNL     1     -34.020 121.676   5.879  1.00  0.00     0.078 A 
HETATM    6  C12 UNL     1     -33.064 122.036   6.791  1.00  0.00    -0.021 A 
HETATM    7  C16 UNL     1     -32.874 123.384   7.028  1.00  0.00     0.019 A 
ENDROOT
BRANCH   1   8
HETATM    8  C6  UNL     1     -33.410 125.800   6.605  1.00  0.00     0.206 C 
BRANCH   8   9
HETATM    9  O1  UNL     1     -33.117 126.583   5.535  1.00  0.00    -0.382 OA
BRANCH   9  10
HETATM   10  C4  UNL     1     -33.938 127.707   5.354  1.00  0.00     0.117 C 
HETATM   11  C5  UNL     1     -33.163 128.883   5.842  1.00  0.00     0.039 C 
BRANCH  10  12
HETATM   12  C3  UNL     1     -34.289 127.768   3.912  1.00  0.00     0.031 C 
BRANCH  12  13
HETATM   13  C2  UNL     1     -35.097 126.702   3.299  1.00  0.00    -0.002 C 
HETATM   14  C1  UNL     1     -34.377 125.839   2.346  1.00  0.00     0.005 C 
ENDBRANCH  12  13
ENDBRANCH  10  12
ENDBRANCH   9  10
ENDBRANCH   8   9
ENDBRANCH   1   8
BRANCH   6  15
HETATM   15  C13 UNL     1     -32.234 121.080   7.505  1.00  0.00     0.013 C 
HETATM   16  C14 UNL     1     -32.300 121.287   9.021  1.00  0.00     0.015 C 
HETATM   17  C15 UNL     1     -30.783 121.090   7.117  1.00  0.00     0.015 C 
ENDBRANCH   6  15
BRANCH   5  18
HETATM   18  O2  UNL     1     -34.223 120.349   5.635  1.00  0.00    -0.360 OA
ATOM     19  H2  UNL     1     -34.581 119.806   6.328  1.00  0.00     0.217 HD
ENDBRANCH   5  18
TORSDOF 7
ENDMDL
