MODEL 1
REMARK VINA RESULT: -7.666413722      0.000      0.000
REMARK  3 active torsions:
REMARK  status: ('A' for Active; 'I' for Inactive)
REMARK    1  A    between atoms: C2_7  and  C3_8 
REMARK    2  A    between atoms: C3_8  and  N3_9 
REMARK    3  A    between atoms: C12_22  and  O3_23 
ROOT
HETATM    1  N1  UNL     1     -31.408 128.901   6.244  1.00  0.00    -0.384 N 
ATOM      2  H11 UNL     1     -31.231 129.596   6.969  1.00  0.00     0.157 HD
ATOM      3  H12 UNL     1     -30.494 128.499   6.039  1.00  0.00     0.157 HD
HETATM    4  C1  UNL     1     -32.448 128.573   5.700  1.00  0.00     0.129 A 
HETATM    5  N2  UNL     1     -32.695 127.608   4.694  1.00  0.00    -0.329 N 
ATOM      6  H2  UNL     1     -32.000 127.010   4.248  1.00  0.00     0.168 HD
HETATM    7  C2  UNL     1     -34.095 127.628   4.418  1.00  0.00     0.112 A 
HETATM    8  N4  UNL     1     -34.703 128.493   5.145  1.00  0.00    -0.340 N 
ATOM      9  H4  UNL     1     -35.705 128.679   5.118  1.00  0.00     0.167 HD
HETATM   10  C11 UNL     1     -33.770 129.155   5.996  1.00  0.00     0.099 A 
HETATM   11  C12 UNL     1     -34.044 130.103   6.877  1.00  0.00     0.164 C 
ENDROOT
BRANCH   7  12
HETATM   12  C3  UNL     1     -34.710 126.736   3.408  1.00  0.00     0.348 C 
BRANCH  12  13
HETATM   13  N3  UNL     1     -35.329 125.571   4.024  1.00  0.00     0.098 N 
HETATM   14  C4  UNL     1     -35.829 124.741   2.979  1.00  0.00     0.275 C 
HETATM   15  C5  UNL     1     -36.293 123.388   3.399  1.00  0.00     0.065 C 
HETATM   16  C6  UNL     1     -35.201 122.765   4.267  1.00  0.00     0.153 C 
HETATM   17  O1  UNL     1     -35.550 121.513   4.720  1.00  0.00    -0.381 OA
HETATM   18  C9  UNL     1     -35.003 123.675   5.430  1.00  0.00     0.178 C 
HETATM   19  C7  UNL     1     -34.443 121.017   5.412  1.00  0.00     0.194 C 
HETATM   20  C8  UNL     1     -34.014 121.877   6.539  1.00  0.00     0.194 C 
HETATM   21  O2  UNL     1     -34.366 123.177   6.503  1.00  0.00    -0.379 OA
HETATM   22  C10 UNL     1     -34.359 124.954   4.876  1.00  0.00     0.307 C 
ENDBRANCH  12  13
ENDBRANCH   7  12
BRANCH  11  23
HETATM   23  O3  UNL     1     -35.359 130.521   7.012  1.00  0.00    -0.370 OA
ATOM     24  H3  UNL     1     -36.032 129.865   7.154  1.00  0.00     0.216 HD
ENDBRANCH  11  23
TORSDOF 3
ENDMDL
MODEL 2
REMARK VINA RESULT: -7.655683797      3.519      6.471
REMARK  3 active torsions:
REMARK  status: ('A' for Active; 'I' for Inactive)
REMARK    1  A    between atoms: C2_7  and  C3_8 
REMARK    2  A    between atoms: C3_8  and  N3_9 
REMARK    3  A    between atoms: C12_22  and  O3_23 
ROOT
HETATM    1  N1  UNL     1     -33.297 119.603   9.144  1.00  0.00    -0.384 N 
ATOM      2  H11 UNL     1     -32.524 119.350   9.758  1.00  0.00     0.157 HD
ATOM      3  H12 UNL     1     -34.110 119.129   9.538  1.00  0.00     0.157 HD
HETATM    4  C1  UNL     1     -33.320 120.305   8.148  1.00  0.00     0.129 A 
HETATM    5  N2  UNL     1     -34.393 120.656   7.294  1.00  0.00    -0.329 N 
ATOM      6  H2  UNL     1     -35.363 120.357   7.389  1.00  0.00     0.168 HD
HETATM    7  C2  UNL     1     -33.867 121.506   6.275  1.00  0.00     0.112 A 
HETATM    8  N4  UNL     1     -32.608 121.696   6.429  1.00  0.00    -0.340 N 
ATOM      9  H4  UNL     1     -32.024 122.268   5.819  1.00  0.00     0.167 HD
HETATM   10  C11 UNL     1     -32.146 120.990   7.578  1.00  0.00     0.099 A 
HETATM   11  C12 UNL     1     -30.905 120.960   8.036  1.00  0.00     0.164 C 
ENDROOT
BRANCH   7  12
HETATM   12  C3  UNL     1     -34.720 122.066   5.201  1.00  0.00     0.348 C 
BRANCH  12  13
HETATM   13  N3  UNL     1     -34.100 123.223   4.570  1.00  0.00     0.098 N 
HETATM   14  C4  UNL     1     -34.574 123.292   3.228  1.00  0.00     0.275 C 
HETATM   15  C5  UNL     1     -34.232 124.541   2.489  1.00  0.00     0.065 C 
HETATM   16  C6  UNL     1     -34.598 125.728   3.378  1.00  0.00     0.153 C 
HETATM   17  O1  UNL     1     -34.298 126.933   2.783  1.00  0.00    -0.381 OA
HETATM   18  C9  UNL     1     -33.809 125.587   4.634  1.00  0.00     0.178 C 
HETATM   19  C7  UNL     1     -34.765 127.929   3.643  1.00  0.00     0.194 C 
HETATM   20  C8  UNL     1     -34.179 127.860   5.002  1.00  0.00     0.194 C 
HETATM   21  O2  UNL     1     -33.683 126.676   5.411  1.00  0.00    -0.379 OA
HETATM   22  C10 UNL     1     -34.385 124.372   5.374  1.00  0.00     0.307 C 
ENDBRANCH  12  13
ENDBRANCH   7  12
BRANCH  11  23
HETATM   23  O3  UNL     1     -29.931 121.675   7.356  1.00  0.00    -0.370 OA
ATOM     24  H3  UNL     1     -29.342 122.229   7.855  1.00  0.00     0.216 HD
ENDBRANCH  11  23
TORSDOF 3
ENDMDL
MODEL 3
REMARK VINA RESULT: -7.319322777      3.575      6.565
REMARK  3 active torsions:
REMARK  status: ('A' for Active; 'I' for Inactive)
REMARK    1  A    between atoms: C2_7  and  C3_8 
REMARK    2  A    between atoms: C3_8  and  N3_9 
REMARK    3  A    between atoms: C12_22  and  O3_23 
ROOT
HETATM    1  N1  UNL     1     -30.436 121.292   8.088  1.00  0.00    -0.384 N 
ATOM      2  H11 UNL     1     -29.992 120.735   8.817  1.00  0.00     0.157 HD
ATOM      3  H12 UNL     1     -29.705 121.924   7.761  1.00  0.00     0.157 HD
HETATM    4  C1  UNL     1     -31.574 121.264   7.653  1.00  0.00     0.129 A 
HETATM    5  N2  UNL     1     -32.191 122.037   6.640  1.00  0.00    -0.329 N 
ATOM      6  H2  UNL     1     -31.750 122.776   6.092  1.00  0.00     0.168 HD
HETATM    7  C2  UNL     1     -33.543 121.593   6.528  1.00  0.00     0.112 A 
HETATM    8  N4  UNL     1     -33.794 120.648   7.357  1.00  0.00    -0.340 N 
ATOM      9  H4  UNL     1     -34.695 120.179   7.453  1.00  0.00     0.167 HD
HETATM   10  C11 UNL     1     -32.630 120.350   8.124  1.00  0.00     0.099 A 
HETATM   11  C12 UNL     1     -32.526 119.432   9.070  1.00  0.00     0.164 C 
ENDROOT
BRANCH   7  12
HETATM   12  C3  UNL     1     -34.488 122.190   5.555  1.00  0.00     0.348 C 
BRANCH  12  13
HETATM   13  N3  UNL     1     -33.899 123.326   4.860  1.00  0.00     0.098 N 
HETATM   14  C4  UNL     1     -34.333 123.278   3.504  1.00  0.00     0.275 C 
HETATM   15  C5  UNL     1     -34.022 124.485   2.686  1.00  0.00     0.065 C 
HETATM   16  C6  UNL     1     -34.469 125.714   3.476  1.00  0.00     0.153 C 
HETATM   17  O1  UNL     1     -34.204 126.887   2.804  1.00  0.00    -0.381 OA
HETATM   18  C9  UNL     1     -33.715 125.699   4.761  1.00  0.00     0.178 C 
HETATM   19  C7  UNL     1     -34.740 127.918   3.577  1.00  0.00     0.194 C 
HETATM   20  C8  UNL     1     -34.196 127.973   4.953  1.00  0.00     0.194 C 
HETATM   21  O2  UNL     1     -33.661 126.845   5.460  1.00  0.00    -0.379 OA
HETATM   22  C10 UNL     1     -34.260 124.515   5.570  1.00  0.00     0.307 C 
ENDBRANCH  12  13
ENDBRANCH   7  12
BRANCH  11  23
HETATM   23  O3  UNL     1     -33.640 118.664   9.374  1.00  0.00    -0.370 OA
ATOM     24  H3  UNL     1     -33.789 118.419  10.280  1.00  0.00     0.216 HD
ENDBRANCH  11  23
TORSDOF 3
ENDMDL
MODEL 4
REMARK VINA RESULT: -7.198147946      3.108      6.366
REMARK  3 active torsions:
REMARK  status: ('A' for Active; 'I' for Inactive)
REMARK    1  A    between atoms: C2_7  and  C3_8 
REMARK    2  A    between atoms: C3_8  and  N3_9 
REMARK    3  A    between atoms: C12_22  and  O3_23 
ROOT
HETATM    1  N1  UNL     1     -33.540 120.369   9.021  1.00  0.00    -0.384 N 
ATOM      2  H11 UNL     1     -32.754 119.952   9.521  1.00  0.00     0.157 HD
ATOM      3  H12 UNL     1     -34.352 120.177   9.607  1.00  0.00     0.157 HD
HETATM    4  C1  UNL     1     -33.574 120.972   7.963  1.00  0.00     0.129 A 
HETATM    5  N2  UNL     1     -34.663 121.550   7.269  1.00  0.00    -0.329 N 
ATOM      6  H2  UNL     1     -35.639 121.548   7.567  1.00  0.00     0.168 HD
HETATM    7  C2  UNL     1     -34.147 122.136   6.075  1.00  0.00     0.112 A 
HETATM    8  N4  UNL     1     -32.878 121.970   5.984  1.00  0.00    -0.340 N 
ATOM      9  H4  UNL     1     -32.298 122.305   5.215  1.00  0.00     0.167 HD
HETATM   10  C11 UNL     1     -32.399 121.249   7.117  1.00  0.00     0.099 A 
HETATM   11  C12 UNL     1     -31.145 120.901   7.355  1.00  0.00     0.164 C 
ENDROOT
BRANCH   7  12
HETATM   12  C3  UNL     1     -35.017 122.835   5.101  1.00  0.00     0.348 C 
BRANCH  12  13
HETATM   13  N3  UNL     1     -34.422 124.085   4.648  1.00  0.00     0.098 N 
HETATM   14  C4  UNL     1     -35.368 124.735   3.803  1.00  0.00     0.275 C 
HETATM   15  C5  UNL     1     -35.034 126.138   3.424  1.00  0.00     0.065 C 
HETATM   16  C6  UNL     1     -34.665 126.893   4.700  1.00  0.00     0.153 C 
HETATM   17  O1  UNL     1     -34.322 128.202   4.448  1.00  0.00    -0.381 OA
HETATM   18  C9  UNL     1     -33.501 126.183   5.301  1.00  0.00     0.178 C 
HETATM   19  C7  UNL     1     -34.104 128.803   5.688  1.00  0.00     0.194 C 
HETATM   20  C8  UNL     1     -33.054 128.137   6.494  1.00  0.00     0.194 C 
HETATM   21  O2  UNL     1     -32.776 126.848   6.216  1.00  0.00    -0.379 OA
HETATM   22  C10 UNL     1     -34.028 124.832   5.803  1.00  0.00     0.307 C 
ENDBRANCH  12  13
ENDBRANCH   7  12
BRANCH  11  23
HETATM   23  O3  UNL     1     -30.173 121.255   6.432  1.00  0.00    -0.370 OA
ATOM     24  H3  UNL     1     -29.549 121.933   6.667  1.00  0.00     0.216 HD
ENDBRANCH  11  23
TORSDOF 3
ENDMDL
MODEL 5
REMARK VINA RESULT: -7.151212080      3.004      6.229
REMARK  3 active torsions:
REMARK  status: ('A' for Active; 'I' for Inactive)
REMARK    1  A    between atoms: C2_7  and  C3_8 
REMARK    2  A    between atoms: C3_8  and  N3_9 
REMARK    3  A    between atoms: C12_22  and  O3_23 
ROOT
HETATM    1  N1  UNL     1     -30.782 120.989   6.686  1.00  0.00    -0.384 N 
ATOM      2  H11 UNL     1     -30.308 120.479   7.431  1.00  0.00     0.157 HD
ATOM      3  H12 UNL     1     -30.054 121.182   5.999  1.00  0.00     0.157 HD
HETATM    4  C1  UNL     1     -31.948 121.327   6.576  1.00  0.00     0.129 A 
HETATM    5  N2  UNL     1     -32.606 122.035   5.541  1.00  0.00    -0.329 N 
ATOM      6  H2  UNL     1     -32.179 122.390   4.686  1.00  0.00     0.168 HD
HETATM    7  C2  UNL     1     -33.977 122.162   5.916  1.00  0.00     0.112 A 
HETATM    8  N4  UNL     1     -34.204 121.610   7.052  1.00  0.00    -0.340 N 
ATOM      9  H4  UNL     1     -35.111 121.580   7.516  1.00  0.00     0.167 HD
HETATM   10  C11 UNL     1     -33.000 121.048   7.569  1.00  0.00     0.099 A 
HETATM   11  C12 UNL     1     -32.863 120.403   8.716  1.00  0.00     0.164 C 
ENDROOT
BRANCH   7  12
HETATM   12  C3  UNL     1     -34.966 122.855   5.058  1.00  0.00     0.348 C 
BRANCH  12  13
HETATM   13  N3  UNL     1     -34.454 124.126   4.566  1.00  0.00     0.098 N 
HETATM   14  C4  UNL     1     -35.494 124.754   3.822  1.00  0.00     0.275 C 
HETATM   15  C5  UNL     1     -35.240 126.170   3.431  1.00  0.00     0.065 C 
HETATM   16  C6  UNL     1     -34.775 126.925   4.675  1.00  0.00     0.153 C 
HETATM   17  O1  UNL     1     -34.496 128.246   4.407  1.00  0.00    -0.381 OA
HETATM   18  C9  UNL     1     -33.538 126.245   5.155  1.00  0.00     0.178 C 
HETATM   19  C7  UNL     1     -34.179 128.842   5.629  1.00  0.00     0.194 C 
HETATM   20  C8  UNL     1     -33.039 128.201   6.324  1.00  0.00     0.194 C 
HETATM   21  O2  UNL     1     -32.750 126.924   6.006  1.00  0.00    -0.379 OA
HETATM   22  C10 UNL     1     -33.975 124.874   5.688  1.00  0.00     0.307 C 
ENDBRANCH  12  13
ENDBRANCH   7  12
BRANCH  11  23
HETATM   23  O3  UNL     1     -33.980 120.240   9.521  1.00  0.00    -0.370 OA
ATOM     24  H3  UNL     1     -34.360 119.373   9.601  1.00  0.00     0.216 HD
ENDBRANCH  11  23
TORSDOF 3
ENDMDL
