MODEL 1
REMARK VINA RESULT: -7.777846389      0.000      0.000
REMARK  8 active torsions:
REMARK  status: ('A' for Active; 'I' for Inactive)
REMARK    1  A    between atoms: C2_2  and  C4_4 
REMARK    2  A    between atoms: C4_4  and  C5_5 
REMARK    3  A    between atoms: C5_5  and  C6_6 
REMARK    4  A    between atoms: C5_5  and  C12_15 
REMARK    5  A    between atoms: C6_6  and  C7_7 
REMARK    6  A    between atoms: C10_10  and  C11_11 
REMARK    7  A    between atoms: C11_11  and  O1_12 
REMARK    8  A    between atoms: C12_15  and  C13_16 
ROOT
HETATM    1  C5  UNL     1     -33.683 123.222   5.658  1.00  0.00    -0.007 C 
ENDROOT
BRANCH   1   2
HETATM    2  C4  UNL     1     -33.081 121.995   6.338  1.00  0.00     0.009 C 
BRANCH   2   3
HETATM    3  C2  UNL     1     -32.017 122.313   7.339  1.00  0.00    -0.022 C 
HETATM    4  C1  UNL     1     -30.737 121.670   6.814  1.00  0.00     0.009 C 
HETATM    5  C3  UNL     1     -32.258 121.762   8.702  1.00  0.00     0.009 C 
ENDBRANCH   2   3
ENDBRANCH   1   2
BRANCH   1   6
HETATM    6  C6  UNL     1     -33.654 124.295   6.684  1.00  0.00     0.069 C 
BRANCH   6   7
HETATM    7  C7  UNL     1     -33.597 125.687   6.147  1.00  0.00     0.053 A 
HETATM    8  C8  UNL     1     -34.300 126.325   5.178  1.00  0.00     0.035 A 
HETATM    9  C9  UNL     1     -33.837 127.621   5.083  1.00  0.00     0.037 A 
HETATM   10  C10 UNL     1     -32.839 127.688   6.042  1.00  0.00     0.076 A 
HETATM   11  O2  UNL     1     -32.726 126.543   6.644  1.00  0.00    -0.317 OA
BRANCH  10  12
HETATM   12  C11 UNL     1     -32.030 128.911   6.320  1.00  0.00     0.229 C 
BRANCH  12  13
HETATM   13  O1  UNL     1     -32.010 129.756   5.210  1.00  0.00    -0.394 OA
ATOM     14  H1  UNL     1     -32.092 130.664   5.475  1.00  0.00     0.209 HD
ENDBRANCH  12  13
ENDBRANCH  10  12
ENDBRANCH   6   7
ENDBRANCH   1   6
BRANCH   1  15
HETATM   15  C12 UNL     1     -35.006 122.925   5.101  1.00  0.00     0.013 C 
BRANCH  15  16
HETATM   16  C13 UNL     1     -35.385 123.196   3.711  1.00  0.00    -0.051 C 
HETATM   17  C14 UNL     1     -36.086 121.911   3.123  1.00  0.00     0.014 C 
HETATM   18  C15 UNL     1     -36.411 124.265   3.446  1.00  0.00     0.014 C 
HETATM   19  C16 UNL     1     -34.227 123.438   2.776  1.00  0.00     0.014 C 
ENDBRANCH  15  16
ENDBRANCH   1  15
TORSDOF 8
ENDMDL
MODEL 2
REMARK VINA RESULT: -7.756725305      2.170      4.940
REMARK  8 active torsions:
REMARK  status: ('A' for Active; 'I' for Inactive)
REMARK    1  A    between atoms: C2_2  and  C4_4 
REMARK    2  A    between atoms: C4_4  and  C5_5 
REMARK    3  A    between atoms: C5_5  and  C6_6 
REMARK    4  A    between atoms: C5_5  and  C12_15 
REMARK    5  A    between atoms: C6_6  and  C7_7 
REMARK    6  A    between atoms: C10_10  and  C11_11 
REMARK    7  A    between atoms: C11_11  and  O1_12 
REMARK    8  A    between atoms: C12_15  and  C13_16 
ROOT
HETATM    1  C5  UNL     1     -34.205 125.396   5.637  1.00  0.00    -0.007 C 
ENDROOT
BRANCH   1   2
HETATM    2  C4  UNL     1     -33.109 126.297   6.199  1.00  0.00     0.009 C 
BRANCH   2   3
HETATM    3  C2  UNL     1     -32.979 127.611   5.498  1.00  0.00    -0.022 C 
HETATM    4  C1  UNL     1     -32.353 128.569   6.507  1.00  0.00     0.009 C 
HETATM    5  C3  UNL     1     -34.270 128.214   5.061  1.00  0.00     0.009 C 
ENDBRANCH   2   3
ENDBRANCH   1   2
BRANCH   1   6
HETATM    6  C6  UNL     1     -34.461 124.381   6.691  1.00  0.00     0.069 C 
BRANCH   6   7
HETATM    7  C7  UNL     1     -33.790 123.065   6.484  1.00  0.00     0.053 A 
HETATM    8  C8  UNL     1     -34.202 121.906   5.911  1.00  0.00     0.035 A 
HETATM    9  C9  UNL     1     -33.172 120.991   5.986  1.00  0.00     0.037 A 
HETATM   10  C10 UNL     1     -32.158 121.684   6.628  1.00  0.00     0.076 A 
HETATM   11  O2  UNL     1     -32.551 122.889   6.903  1.00  0.00    -0.317 OA
BRANCH  10  12
HETATM   12  C11 UNL     1     -30.820 121.101   6.942  1.00  0.00     0.229 C 
BRANCH  12  13
HETATM   13  O1  UNL     1     -29.903 122.105   7.257  1.00  0.00    -0.394 OA
ATOM     14  H1  UNL     1     -30.153 122.552   8.057  1.00  0.00     0.209 HD
ENDBRANCH  12  13
ENDBRANCH  10  12
ENDBRANCH   6   7
ENDBRANCH   1   6
BRANCH   1  15
HETATM   15  C12 UNL     1     -33.830 124.855   4.328  1.00  0.00     0.013 C 
BRANCH  15  16
HETATM   16  C13 UNL     1     -34.716 124.857   3.160  1.00  0.00    -0.051 C 
HETATM   17  C14 UNL     1     -34.653 123.436   2.480  1.00  0.00     0.014 C 
HETATM   18  C15 UNL     1     -36.195 125.035   3.385  1.00  0.00     0.014 C 
HETATM   19  C16 UNL     1     -34.309 125.805   2.060  1.00  0.00     0.014 C 
ENDBRANCH  15  16
ENDBRANCH   1  15
TORSDOF 8
ENDMDL
MODEL 3
REMARK VINA RESULT: -7.725516805      1.850      4.372
REMARK  8 active torsions:
REMARK  status: ('A' for Active; 'I' for Inactive)
REMARK    1  A    between atoms: C2_2  and  C4_4 
REMARK    2  A    between atoms: C4_4  and  C5_5 
REMARK    3  A    between atoms: C5_5  and  C6_6 
REMARK    4  A    between atoms: C5_5  and  C12_15 
REMARK    5  A    between atoms: C6_6  and  C7_7 
REMARK    6  A    between atoms: C10_10  and  C11_11 
REMARK    7  A    between atoms: C11_11  and  O1_12 
REMARK    8  A    between atoms: C12_15  and  C13_16 
ROOT
HETATM    1  C5  UNL     1     -34.725 125.855   3.719  1.00  0.00    -0.007 C 
ENDROOT
BRANCH   1   2
HETATM    2  C4  UNL     1     -34.921 125.197   2.356  1.00  0.00     0.009 C 
BRANCH   2   3
HETATM    3  C2  UNL     1     -36.054 124.223   2.305  1.00  0.00    -0.022 C 
HETATM    4  C1  UNL     1     -37.145 124.797   3.205  1.00  0.00     0.009 C 
HETATM    5  C3  UNL     1     -35.730 122.863   2.819  1.00  0.00     0.009 C 
ENDBRANCH   2   3
ENDBRANCH   1   2
BRANCH   1   6
HETATM    6  C6  UNL     1     -34.487 127.292   3.432  1.00  0.00     0.069 C 
BRANCH   6   7
HETATM    7  C7  UNL     1     -33.808 128.055   4.520  1.00  0.00     0.053 A 
HETATM    8  C8  UNL     1     -32.508 128.155   4.896  1.00  0.00     0.035 A 
HETATM    9  C9  UNL     1     -32.431 129.005   5.980  1.00  0.00     0.037 A 
HETATM   10  C10 UNL     1     -33.746 129.381   6.202  1.00  0.00     0.076 A 
HETATM   11  O2  UNL     1     -34.522 128.810   5.333  1.00  0.00    -0.317 OA
BRANCH  10  12
HETATM   12  C11 UNL     1     -34.176 130.310   7.288  1.00  0.00     0.229 C 
BRANCH  12  13
HETATM   13  O1  UNL     1     -35.400 130.904   6.979  1.00  0.00    -0.394 OA
ATOM     14  H1  UNL     1     -35.866 130.396   6.325  1.00  0.00     0.209 HD
ENDBRANCH  12  13
ENDBRANCH  10  12
ENDBRANCH   6   7
ENDBRANCH   1   6
BRANCH   1  15
HETATM   15  C12 UNL     1     -33.669 125.188   4.484  1.00  0.00     0.013 C 
BRANCH  15  16
HETATM   16  C13 UNL     1     -33.892 124.519   5.770  1.00  0.00    -0.051 C 
HETATM   17  C14 UNL     1     -35.429 124.590   6.113  1.00  0.00     0.014 C 
HETATM   18  C15 UNL     1     -33.615 123.042   5.865  1.00  0.00     0.014 C 
HETATM   19  C16 UNL     1     -33.226 125.181   6.951  1.00  0.00     0.014 C 
ENDBRANCH  15  16
ENDBRANCH   1  15
TORSDOF 8
ENDMDL
MODEL 4
REMARK VINA RESULT: -7.664600573      1.051      3.729
REMARK  8 active torsions:
REMARK  status: ('A' for Active; 'I' for Inactive)
REMARK    1  A    between atoms: C2_2  and  C4_4 
REMARK    2  A    between atoms: C4_4  and  C5_5 
REMARK    3  A    between atoms: C5_5  and  C6_6 
REMARK    4  A    between atoms: C5_5  and  C12_15 
REMARK    5  A    between atoms: C6_6  and  C7_7 
REMARK    6  A    between atoms: C10_10  and  C11_11 
REMARK    7  A    between atoms: C11_11  and  O1_12 
REMARK    8  A    between atoms: C12_15  and  C13_16 
ROOT
HETATM    1  C5  UNL     1     -34.541 123.690   5.285  1.00  0.00    -0.007 C 
ENDROOT
BRANCH   1   2
HETATM    2  C4  UNL     1     -33.996 123.756   3.861  1.00  0.00     0.009 C 
BRANCH   2   3
HETATM    3  C2  UNL     1     -34.816 123.009   2.858  1.00  0.00    -0.022 C 
HETATM    4  C1  UNL     1     -35.528 124.069   2.023  1.00  0.00     0.009 C 
HETATM    5  C3  UNL     1     -35.867 122.130   3.443  1.00  0.00     0.009 C 
ENDBRANCH   2   3
ENDBRANCH   1   2
BRANCH   1   6
HETATM    6  C6  UNL     1     -35.286 124.959   5.482  1.00  0.00     0.069 C 
BRANCH   6   7
HETATM    7  C7  UNL     1     -34.560 126.194   5.061  1.00  0.00     0.053 A 
HETATM    8  C8  UNL     1     -34.689 127.012   3.986  1.00  0.00     0.035 A 
HETATM    9  C9  UNL     1     -33.753 128.021   4.090  1.00  0.00     0.037 A 
HETATM   10  C10 UNL     1     -33.089 127.737   5.273  1.00  0.00     0.076 A 
HETATM   11  O2  UNL     1     -33.586 126.667   5.813  1.00  0.00    -0.317 OA
BRANCH  10  12
HETATM   12  C11 UNL     1     -31.972 128.562   5.819  1.00  0.00     0.229 C 
BRANCH  12  13
HETATM   13  O1  UNL     1     -32.015 129.859   5.307  1.00  0.00    -0.394 OA
ATOM     14  H1  UNL     1     -32.880 130.237   5.419  1.00  0.00     0.209 HD
ENDBRANCH  12  13
ENDBRANCH  10  12
ENDBRANCH   6   7
ENDBRANCH   1   6
BRANCH   1  15
HETATM   15  C12 UNL     1     -33.470 123.438   6.253  1.00  0.00     0.013 C 
BRANCH  15  16
HETATM   16  C13 UNL     1     -33.164 122.114   6.804  1.00  0.00    -0.051 C 
HETATM   17  C14 UNL     1     -32.281 122.300   8.097  1.00  0.00     0.014 C 
HETATM   18  C15 UNL     1     -34.302 121.271   7.316  1.00  0.00     0.014 C 
HETATM   19  C16 UNL     1     -32.319 121.238   5.911  1.00  0.00     0.014 C 
ENDBRANCH  15  16
ENDBRANCH   1  15
TORSDOF 8
ENDMDL
MODEL 5
REMARK VINA RESULT: -7.625574823      2.088      4.990
REMARK  8 active torsions:
REMARK  status: ('A' for Active; 'I' for Inactive)
REMARK    1  A    between atoms: C2_2  and  C4_4 
REMARK    2  A    between atoms: C4_4  and  C5_5 
REMARK    3  A    between atoms: C5_5  and  C6_6 
REMARK    4  A    between atoms: C5_5  and  C12_15 
REMARK    5  A    between atoms: C6_6  and  C7_7 
REMARK    6  A    between atoms: C10_10  and  C11_11 
REMARK    7  A    between atoms: C11_11  and  O1_12 
REMARK    8  A    between atoms: C12_15  and  C13_16 
ROOT
HETATM    1  C5  UNL     1     -34.508 125.058   5.381  1.00  0.00    -0.007 C 
ENDROOT
BRANCH   1   2
HETATM    2  C4  UNL     1     -33.579 126.258   5.219  1.00  0.00     0.009 C 
BRANCH   2   3
HETATM    3  C2  UNL     1     -34.290 127.566   5.078  1.00  0.00    -0.022 C 
HETATM    4  C1  UNL     1     -34.427 127.814   3.579  1.00  0.00     0.009 C 
HETATM    5  C3  UNL     1     -33.566 128.734   5.652  1.00  0.00     0.009 C 
ENDBRANCH   2   3
ENDBRANCH   1   2
BRANCH   1   6
HETATM    6  C6  UNL     1     -34.170 124.475   6.705  1.00  0.00     0.069 C 
BRANCH   6   7
HETATM    7  C7  UNL     1     -33.428 123.181   6.659  1.00  0.00     0.053 A 
HETATM    8  C8  UNL     1     -33.771 121.942   6.223  1.00  0.00     0.035 A 
HETATM    9  C9  UNL     1     -32.696 121.099   6.415  1.00  0.00     0.037 A 
HETATM   10  C10 UNL     1     -31.729 121.915   6.978  1.00  0.00     0.076 A 
HETATM   11  O2  UNL     1     -32.189 123.122   7.106  1.00  0.00    -0.317 OA
BRANCH  10  12
HETATM   12  C11 UNL     1     -30.367 121.446   7.370  1.00  0.00     0.229 C 
BRANCH  12  13
HETATM   13  O1  UNL     1     -29.480 122.519   7.461  1.00  0.00    -0.394 OA
ATOM     14  H1  UNL     1     -28.880 122.524   6.725  1.00  0.00     0.209 HD
ENDBRANCH  12  13
ENDBRANCH  10  12
ENDBRANCH   6   7
ENDBRANCH   1   6
BRANCH   1  15
HETATM   15  C12 UNL     1     -34.393 124.139   4.246  1.00  0.00     0.013 C 
BRANCH  15  16
HETATM   16  C13 UNL     1     -35.479 123.875   3.298  1.00  0.00    -0.051 C 
HETATM   17  C14 UNL     1     -36.693 124.817   3.650  1.00  0.00     0.014 C 
HETATM   18  C15 UNL     1     -35.249 124.185   1.842  1.00  0.00     0.014 C 
HETATM   19  C16 UNL     1     -36.063 122.486   3.377  1.00  0.00     0.014 C 
ENDBRANCH  15  16
ENDBRANCH   1  15
TORSDOF 8
ENDMDL
