MODEL 1
REMARK VINA RESULT: -6.495774639      0.000      0.000
REMARK  8 active torsions:
REMARK  status: ('A' for Active; 'I' for Inactive)
REMARK    1  A    between atoms: N1_1  and  C1_4 
REMARK    2  A    between atoms: C2_10  and  C3_11 
REMARK       I    between atoms: C3_11  and  N5_13 
REMARK    3  A    between atoms: N5_13  and  N6_15 
REMARK    4  A    between atoms: N8_22  and  C6_23 
REMARK    5  A    between atoms: C6_23  and  C7_24 
REMARK       I    between atoms: C7_24  and  N9_26 
REMARK    6  A    between atoms: N9_26  and  C8_28 
REMARK    7  A    between atoms: C8_28  and  C9_29 
REMARK    8  A    between atoms: C9_29  and  O3_30 
ROOT
HETATM    1  C1  UNL     1     -20.674  40.516  23.878  1.00  0.00     0.164 A 
HETATM    2  N2  UNL     1     -20.614  39.271  23.375  1.00  0.00    -0.259 N 
ATOM      3  H2  UNL     1     -21.209  38.692  22.783  1.00  0.00     0.191 HD
HETATM    4  N3  UNL     1     -19.450  39.124  23.982  1.00  0.00    -0.173 N 
HETATM    5  N4  UNL     1     -18.433  38.273  24.201  1.00  0.00    -0.270 N 
ATOM      6  H4  UNL     1     -18.245  37.610  23.449  1.00  0.00     0.189 HD
HETATM    7  C2  UNL     1     -17.628  38.175  25.274  1.00  0.00     0.150 C 
HETATM    8  C4  UNL     1     -17.158  39.216  26.039  1.00  0.00     0.112 A 
HETATM    9  N7  UNL     1     -16.143  39.124  26.941  1.00  0.00    -0.347 N 
ATOM     10  H7  UNL     1     -15.610  38.281  27.160  1.00  0.00     0.167 HD
HETATM   11  C5  UNL     1     -15.963  40.333  27.493  1.00  0.00     0.185 A 
HETATM   12  N8  UNL     1     -16.843  41.197  26.961  1.00  0.00    -0.319 N 
HETATM   13  C10 UNL     1     -17.587  40.525  26.063  1.00  0.00     0.140 A 
HETATM   14  N10 UNL     1     -18.587  41.078  25.320  1.00  0.00    -0.321 N 
ATOM     15  H10 UNL     1     -18.673  42.093  25.364  1.00  0.00     0.169 HD
HETATM   16  C11 UNL     1     -19.481  40.435  24.530  1.00  0.00     0.192 A 
ENDROOT
BRANCH  12  17
HETATM   17  C6  UNL     1     -17.035  42.604  27.233  1.00  0.00     0.234 C 
BRANCH  17  18
HETATM   18  C7  UNL     1     -16.493  43.473  26.190  1.00  0.00     0.235 C 
HETATM   19  O2  UNL     1     -15.262  43.683  26.090  1.00  0.00    -0.272 OA
HETATM   20  N9  UNL     1     -17.368  44.092  25.272  1.00  0.00    -0.358 N 
ATOM     21  H9  UNL     1     -18.367  43.906  25.369  1.00  0.00     0.162 HD
BRANCH  20  22
HETATM   22  C8  UNL     1     -16.950  44.968  24.209  1.00  0.00     0.148 C 
BRANCH  22  23
HETATM   23  C9  UNL     1     -17.664  44.672  22.925  1.00  0.00     0.183 C 
BRANCH  23  24
HETATM   24  O3  UNL     1     -18.276  43.426  23.044  1.00  0.00    -0.399 OA
ATOM     25  H3  UNL     1     -18.000  42.888  22.311  1.00  0.00     0.209 HD
ENDBRANCH  23  24
ENDBRANCH  22  23
ENDBRANCH  20  22
ENDBRANCH  17  18
ENDBRANCH  12  17
BRANCH   7  26
HETATM   26  C3  UNL     1     -17.193  36.855  25.696  1.00  0.00     0.290 C 
HETATM   27  O1  UNL     1     -17.539  36.450  26.833  1.00  0.00    -0.264 OA
HETATM   28  N5  UNL     1     -16.390  36.026  24.843  1.00  0.00    -0.271 N 
ATOM     29  H5  UNL     1     -16.110  36.354  23.919  1.00  0.00     0.189 HD
BRANCH  28  30
HETATM   30  N6  UNL     1     -15.998  34.771  25.290  1.00  0.00    -0.342 N 
ATOM     31  H62 UNL     1     -16.040  33.977  24.652  1.00  0.00     0.176 HD
ATOM     32  H61 UNL     1     -15.674  34.663  26.251  1.00  0.00     0.176 HD
ENDBRANCH  28  30
ENDBRANCH   7  26
BRANCH   1  33
HETATM   33  N1  UNL     1     -21.551  41.460  23.780  1.00  0.00    -0.381 N 
ATOM     34  H12 UNL     1     -22.551  41.492  23.975  1.00  0.00     0.157 HD
ATOM     35  H11 UNL     1     -21.490  42.434  23.482  1.00  0.00     0.157 HD
ENDBRANCH   1  33
TORSDOF 8
ENDMDL
MODEL 2
REMARK VINA RESULT: -6.387672988      1.590      1.634
REMARK  8 active torsions:
REMARK  status: ('A' for Active; 'I' for Inactive)
REMARK    1  A    between atoms: N1_1  and  C1_4 
REMARK    2  A    between atoms: C2_10  and  C3_11 
REMARK       I    between atoms: C3_11  and  N5_13 
REMARK    3  A    between atoms: N5_13  and  N6_15 
REMARK    4  A    between atoms: N8_22  and  C6_23 
REMARK    5  A    between atoms: C6_23  and  C7_24 
REMARK       I    between atoms: C7_24  and  N9_26 
REMARK    6  A    between atoms: N9_26  and  C8_28 
REMARK    7  A    between atoms: C8_28  and  C9_29 
REMARK    8  A    between atoms: C9_29  and  O3_30 
ROOT
HETATM    1  C1  UNL     1     -20.883  40.173  23.872  1.00  0.00     0.164 A 
HETATM    2  N2  UNL     1     -20.660  38.986  23.284  1.00  0.00    -0.259 N 
ATOM      3  H2  UNL     1     -21.140  38.409  22.594  1.00  0.00     0.191 HD
HETATM    4  N3  UNL     1     -19.545  38.891  23.987  1.00  0.00    -0.173 N 
HETATM    5  N4  UNL     1     -18.474  38.119  24.237  1.00  0.00    -0.270 N 
ATOM      6  H4  UNL     1     -18.157  37.542  23.459  1.00  0.00     0.189 HD
HETATM    7  C2  UNL     1     -17.763  38.001  25.373  1.00  0.00     0.150 C 
HETATM    8  C4  UNL     1     -17.466  39.011  26.257  1.00  0.00     0.112 A 
HETATM    9  N7  UNL     1     -16.531  38.933  27.244  1.00  0.00    -0.347 N 
ATOM     10  H7  UNL     1     -15.941  38.126  27.448  1.00  0.00     0.167 HD
HETATM   11  C5  UNL     1     -16.519  40.102  27.901  1.00  0.00     0.185 A 
HETATM   12  N8  UNL     1     -17.427  40.927  27.354  1.00  0.00    -0.319 N 
HETATM   13  C10 UNL     1     -18.019  40.270  26.339  1.00  0.00     0.140 A 
HETATM   14  N10 UNL     1     -18.998  40.793  25.548  1.00  0.00    -0.321 N 
ATOM     15  H10 UNL     1     -19.185  41.790  25.661  1.00  0.00     0.169 HD
HETATM   16  C11 UNL     1     -19.752  40.143  24.628  1.00  0.00     0.192 A 
ENDROOT
BRANCH  12  17
HETATM   17  C6  UNL     1     -17.778  42.282  27.713  1.00  0.00     0.234 C 
BRANCH  17  18
HETATM   18  C7  UNL     1     -16.732  43.253  27.392  1.00  0.00     0.235 C 
HETATM   19  O2  UNL     1     -16.002  43.746  28.283  1.00  0.00    -0.272 OA
HETATM   20  N9  UNL     1     -16.536  43.649  26.051  1.00  0.00    -0.358 N 
ATOM     21  H9  UNL     1     -17.139  43.234  25.341  1.00  0.00     0.162 HD
BRANCH  20  22
HETATM   22  C8  UNL     1     -15.544  44.597  25.617  1.00  0.00     0.148 C 
BRANCH  22  23
HETATM   23  C9  UNL     1     -15.958  46.010  25.895  1.00  0.00     0.183 C 
BRANCH  23  24
HETATM   24  O3  UNL     1     -15.295  46.440  27.043  1.00  0.00    -0.399 OA
ATOM     25  H3  UNL     1     -15.569  47.332  27.228  1.00  0.00     0.209 HD
ENDBRANCH  23  24
ENDBRANCH  22  23
ENDBRANCH  20  22
ENDBRANCH  17  18
ENDBRANCH  12  17
BRANCH   7  26
HETATM   26  C3  UNL     1     -17.242  36.694  25.732  1.00  0.00     0.290 C 
HETATM   27  O1  UNL     1     -17.626  36.177  26.810  1.00  0.00    -0.264 OA
HETATM   28  N5  UNL     1     -16.313  36.002  24.886  1.00  0.00    -0.271 N 
ATOM     29  H5  UNL     1     -16.002  36.422  24.010  1.00  0.00     0.189 HD
BRANCH  28  30
HETATM   30  N6  UNL     1     -15.842  34.755  25.272  1.00  0.00    -0.342 N 
ATOM     31  H62 UNL     1     -16.475  34.100  25.729  1.00  0.00     0.176 HD
ATOM     32  H61 UNL     1     -14.868  34.512  25.091  1.00  0.00     0.176 HD
ENDBRANCH  28  30
ENDBRANCH   7  26
BRANCH   1  33
HETATM   33  N1  UNL     1     -21.835  41.040  23.762  1.00  0.00    -0.381 N 
ATOM     34  H12 UNL     1     -22.392  41.353  22.967  1.00  0.00     0.157 HD
ATOM     35  H11 UNL     1     -22.295  41.653  24.436  1.00  0.00     0.157 HD
ENDBRANCH   1  33
TORSDOF 8
ENDMDL
MODEL 3
REMARK VINA RESULT: -6.132883667      2.190      2.414
REMARK  8 active torsions:
REMARK  status: ('A' for Active; 'I' for Inactive)
REMARK    1  A    between atoms: N1_1  and  C1_4 
REMARK    2  A    between atoms: C2_10  and  C3_11 
REMARK       I    between atoms: C3_11  and  N5_13 
REMARK    3  A    between atoms: N5_13  and  N6_15 
REMARK    4  A    between atoms: N8_22  and  C6_23 
REMARK    5  A    between atoms: C6_23  and  C7_24 
REMARK       I    between atoms: C7_24  and  N9_26 
REMARK    6  A    between atoms: N9_26  and  C8_28 
REMARK    7  A    between atoms: C8_28  and  C9_29 
REMARK    8  A    between atoms: C9_29  and  O3_30 
ROOT
HETATM    1  C1  UNL     1     -21.661  38.724  23.778  1.00  0.00     0.164 A 
HETATM    2  N2  UNL     1     -21.363  37.617  23.076  1.00  0.00    -0.259 N 
ATOM      3  H2  UNL     1     -21.855  37.013  22.419  1.00  0.00     0.191 HD
HETATM    4  N3  UNL     1     -20.153  37.655  23.607  1.00  0.00    -0.173 N 
HETATM    5  N4  UNL     1     -18.959  37.040  23.646  1.00  0.00    -0.270 N 
ATOM      6  H4  UNL     1     -18.683  36.561  22.789  1.00  0.00     0.189 HD
HETATM    7  C2  UNL     1     -18.076  36.970  24.658  1.00  0.00     0.150 C 
HETATM    8  C4  UNL     1     -17.795  37.964  25.566  1.00  0.00     0.112 A 
HETATM    9  N7  UNL     1     -16.721  37.975  26.403  1.00  0.00    -0.347 N 
ATOM     10  H7  UNL     1     -16.000  37.256  26.460  1.00  0.00     0.167 HD
HETATM   11  C5  UNL     1     -16.777  39.095  27.138  1.00  0.00     0.185 A 
HETATM   12  N8  UNL     1     -17.864  39.802  26.787  1.00  0.00    -0.319 N 
HETATM   13  C10 UNL     1     -18.502  39.118  25.819  1.00  0.00     0.140 A 
HETATM   14  N10 UNL     1     -19.653  39.530  25.215  1.00  0.00    -0.321 N 
ATOM     15  H10 UNL     1     -19.960  40.479  25.428  1.00  0.00     0.169 HD
HETATM   16  C11 UNL     1     -20.436  38.824  24.363  1.00  0.00     0.192 A 
ENDROOT
BRANCH  12  17
HETATM   17  C6  UNL     1     -18.345  41.067  27.294  1.00  0.00     0.234 C 
BRANCH  17  18
HETATM   18  C7  UNL     1     -17.298  42.084  27.394  1.00  0.00     0.235 C 
HETATM   19  O2  UNL     1     -16.739  42.340  28.485  1.00  0.00    -0.272 OA
HETATM   20  N9  UNL     1     -16.904  42.795  26.240  1.00  0.00    -0.358 N 
ATOM     21  H9  UNL     1     -17.369  42.569  25.361  1.00  0.00     0.162 HD
BRANCH  20  22
HETATM   22  C8  UNL     1     -15.891  43.817  26.218  1.00  0.00     0.148 C 
BRANCH  22  23
HETATM   23  C9  UNL     1     -16.275  45.007  27.045  1.00  0.00     0.183 C 
BRANCH  23  24
HETATM   24  O3  UNL     1     -15.539  44.970  28.229  1.00  0.00    -0.399 OA
ATOM     25  H3  UNL     1     -16.062  45.368  28.915  1.00  0.00     0.209 HD
ENDBRANCH  23  24
ENDBRANCH  22  23
ENDBRANCH  20  22
ENDBRANCH  17  18
ENDBRANCH  12  17
BRANCH   7  26
HETATM   26  C3  UNL     1     -17.328  35.739  24.841  1.00  0.00     0.290 C 
HETATM   27  O1  UNL     1     -16.078  35.779  24.724  1.00  0.00    -0.264 OA
HETATM   28  N5  UNL     1     -17.988  34.503  25.150  1.00  0.00    -0.271 N 
ATOM     29  H5  UNL     1     -19.002  34.470  25.246  1.00  0.00     0.189 HD
BRANCH  28  30
HETATM   30  N6  UNL     1     -17.230  33.352  25.316  1.00  0.00    -0.342 N 
ATOM     31  H62 UNL     1     -17.345  32.794  26.161  1.00  0.00     0.176 HD
ATOM     32  H61 UNL     1     -16.568  33.082  24.589  1.00  0.00     0.176 HD
ENDBRANCH  28  30
ENDBRANCH   7  26
BRANCH   1  33
HETATM   33  N1  UNL     1     -22.732  39.442  23.869  1.00  0.00    -0.381 N 
ATOM     34  H12 UNL     1     -23.712  39.243  23.671  1.00  0.00     0.157 HD
ATOM     35  H11 UNL     1     -22.897  40.405  24.162  1.00  0.00     0.157 HD
ENDBRANCH   1  33
TORSDOF 8
ENDMDL
MODEL 4
REMARK VINA RESULT: -6.057956046      2.271      4.500
REMARK  8 active torsions:
REMARK  status: ('A' for Active; 'I' for Inactive)
REMARK    1  A    between atoms: N1_1  and  C1_4 
REMARK    2  A    between atoms: C2_10  and  C3_11 
REMARK       I    between atoms: C3_11  and  N5_13 
REMARK    3  A    between atoms: N5_13  and  N6_15 
REMARK    4  A    between atoms: N8_22  and  C6_23 
REMARK    5  A    between atoms: C6_23  and  C7_24 
REMARK       I    between atoms: C7_24  and  N9_26 
REMARK    6  A    between atoms: N9_26  and  C8_28 
REMARK    7  A    between atoms: C8_28  and  C9_29 
REMARK    8  A    between atoms: C9_29  and  O3_30 
ROOT
HETATM    1  C1  UNL     1     -16.382  35.148  24.995  1.00  0.00     0.164 A 
HETATM    2  N2  UNL     1     -17.395  34.531  24.364  1.00  0.00    -0.259 N 
ATOM      3  H2  UNL     1     -17.543  33.616  23.939  1.00  0.00     0.191 HD
HETATM    4  N3  UNL     1     -18.116  35.625  24.535  1.00  0.00    -0.173 N 
HETATM    5  N4  UNL     1     -19.316  36.188  24.311  1.00  0.00    -0.270 N 
ATOM      6  H4  UNL     1     -20.106  35.543  24.285  1.00  0.00     0.189 HD
HETATM    7  C2  UNL     1     -19.619  37.483  24.115  1.00  0.00     0.150 C 
HETATM    8  C4  UNL     1     -19.029  38.561  24.731  1.00  0.00     0.112 A 
HETATM    9  N7  UNL     1     -19.523  39.830  24.726  1.00  0.00    -0.347 N 
ATOM     10  H7  UNL     1     -20.383  40.135  24.270  1.00  0.00     0.167 HD
HETATM   11  C5  UNL     1     -18.683  40.608  25.425  1.00  0.00     0.185 A 
HETATM   12  N8  UNL     1     -17.662  39.863  25.878  1.00  0.00    -0.319 N 
HETATM   13  C10 UNL     1     -17.860  38.598  25.459  1.00  0.00     0.140 A 
HETATM   14  N10 UNL     1     -17.023  37.556  25.729  1.00  0.00    -0.321 N 
ATOM     15  H10 UNL     1     -16.278  37.739  26.402  1.00  0.00     0.169 HD
HETATM   16  C11 UNL     1     -17.065  36.307  25.206  1.00  0.00     0.192 A 
ENDROOT
BRANCH  12  17
HETATM   17  C6  UNL     1     -16.518  40.250  26.672  1.00  0.00     0.234 C 
BRANCH  17  18
HETATM   18  C7  UNL     1     -16.586  41.632  27.145  1.00  0.00     0.235 C 
HETATM   19  O2  UNL     1     -16.946  41.904  28.314  1.00  0.00    -0.272 OA
HETATM   20  N9  UNL     1     -16.242  42.686  26.273  1.00  0.00    -0.358 N 
ATOM     21  H9  UNL     1     -15.950  42.443  25.326  1.00  0.00     0.162 HD
BRANCH  20  22
HETATM   22  C8  UNL     1     -16.275  44.081  26.626  1.00  0.00     0.148 C 
BRANCH  22  23
HETATM   23  C9  UNL     1     -15.655  44.943  25.569  1.00  0.00     0.183 C 
BRANCH  23  24
HETATM   24  O3  UNL     1     -14.314  45.139  25.899  1.00  0.00    -0.399 OA
ATOM     25  H3  UNL     1     -13.966  45.820  25.334  1.00  0.00     0.209 HD
ENDBRANCH  23  24
ENDBRANCH  22  23
ENDBRANCH  20  22
ENDBRANCH  17  18
ENDBRANCH  12  17
BRANCH   7  26
HETATM   26  C3  UNL     1     -20.668  37.814  23.167  1.00  0.00     0.290 C 
HETATM   27  O1  UNL     1     -21.780  38.186  23.616  1.00  0.00    -0.264 OA
HETATM   28  N5  UNL     1     -20.451  37.723  21.751  1.00  0.00    -0.271 N 
ATOM     29  H5  UNL     1     -19.548  37.422  21.386  1.00  0.00     0.189 HD
BRANCH  28  30
HETATM   30  N6  UNL     1     -21.484  38.050  20.884  1.00  0.00    -0.342 N 
ATOM     31  H62 UNL     1     -21.767  37.383  20.168  1.00  0.00     0.176 HD
ATOM     32  H61 UNL     1     -21.945  38.956  20.976  1.00  0.00     0.176 HD
ENDBRANCH  28  30
ENDBRANCH   7  26
BRANCH   1  33
HETATM   33  N1  UNL     1     -15.181  34.778  25.297  1.00  0.00    -0.381 N 
ATOM     34  H12 UNL     1     -14.311  34.768  24.766  1.00  0.00     0.157 HD
ATOM     35  H11 UNL     1     -14.769  34.393  26.147  1.00  0.00     0.157 HD
ENDBRANCH   1  33
TORSDOF 8
ENDMDL
MODEL 5
REMARK VINA RESULT: -5.967299897      2.312      6.388
REMARK  8 active torsions:
REMARK  status: ('A' for Active; 'I' for Inactive)
REMARK    1  A    between atoms: N1_1  and  C1_4 
REMARK    2  A    between atoms: C2_10  and  C3_11 
REMARK       I    between atoms: C3_11  and  N5_13 
REMARK    3  A    between atoms: N5_13  and  N6_15 
REMARK    4  A    between atoms: N8_22  and  C6_23 
REMARK    5  A    between atoms: C6_23  and  C7_24 
REMARK       I    between atoms: C7_24  and  N9_26 
REMARK    6  A    between atoms: N9_26  and  C8_28 
REMARK    7  A    between atoms: C8_28  and  C9_29 
REMARK    8  A    between atoms: C9_29  and  O3_30 
ROOT
HETATM    1  C1  UNL     1     -18.951  43.023  22.530  1.00  0.00     0.164 A 
HETATM    2  N2  UNL     1     -18.488  44.258  22.274  1.00  0.00    -0.259 N 
ATOM      3  H2  UNL     1     -18.447  44.870  21.460  1.00  0.00     0.191 HD
HETATM    4  N3  UNL     1     -18.108  44.335  23.538  1.00  0.00    -0.173 N 
HETATM    5  N4  UNL     1     -17.517  45.121  24.454  1.00  0.00    -0.270 N 
ATOM      6  H4  UNL     1     -17.645  46.124  24.320  1.00  0.00     0.189 HD
HETATM    7  C2  UNL     1     -16.781  44.768  25.522  1.00  0.00     0.150 C 
HETATM    8  C4  UNL     1     -16.989  43.676  26.331  1.00  0.00     0.112 A 
HETATM    9  N7  UNL     1     -16.411  43.486  27.549  1.00  0.00    -0.347 N 
ATOM     10  H7  UNL     1     -15.759  44.122  28.008  1.00  0.00     0.167 HD
HETATM   11  C5  UNL     1     -16.847  42.317  28.041  1.00  0.00     0.185 A 
HETATM   12  N8  UNL     1     -17.694  41.755  27.163  1.00  0.00    -0.319 N 
HETATM   13  C10 UNL     1     -17.793  42.580  26.103  1.00  0.00     0.140 A 
HETATM   14  N10 UNL     1     -18.567  42.340  25.007  1.00  0.00    -0.321 N 
ATOM     15  H10 UNL     1     -19.206  41.547  25.071  1.00  0.00     0.169 HD
HETATM   16  C11 UNL     1     -18.587  43.032  23.842  1.00  0.00     0.192 A 
ENDROOT
BRANCH  12  17
HETATM   17  C6  UNL     1     -18.415  40.505  27.245  1.00  0.00     0.234 C 
BRANCH  17  18
HETATM   18  C7  UNL     1     -17.598  39.345  26.892  1.00  0.00     0.235 C 
HETATM   19  O2  UNL     1     -16.642  38.976  27.614  1.00  0.00    -0.272 OA
HETATM   20  N9  UNL     1     -17.885  38.620  25.716  1.00  0.00    -0.358 N 
ATOM     21  H9  UNL     1     -18.669  38.936  25.144  1.00  0.00     0.162 HD
BRANCH  20  22
HETATM   22  C8  UNL     1     -17.149  37.468  25.266  1.00  0.00     0.148 C 
BRANCH  22  23
HETATM   23  C9  UNL     1     -17.758  36.188  25.753  1.00  0.00     0.183 C 
BRANCH  23  24
HETATM   24  O3  UNL     1     -17.318  35.966  27.057  1.00  0.00    -0.399 OA
ATOM     25  H3  UNL     1     -16.801  36.716  27.328  1.00  0.00     0.209 HD
ENDBRANCH  23  24
ENDBRANCH  22  23
ENDBRANCH  20  22
ENDBRANCH  17  18
ENDBRANCH  12  17
BRANCH   7  26
HETATM   26  C3  UNL     1     -15.647  45.598  25.888  1.00  0.00     0.290 C 
HETATM   27  O1  UNL     1     -14.494  45.116  25.769  1.00  0.00    -0.264 OA
HETATM   28  N5  UNL     1     -15.827  46.936  26.374  1.00  0.00    -0.271 N 
ATOM     29  H5  UNL     1     -16.764  47.328  26.470  1.00  0.00     0.189 HD
BRANCH  28  30
HETATM   30  N6  UNL     1     -14.713  47.692  26.712  1.00  0.00    -0.342 N 
ATOM     31  H62 UNL     1     -14.797  48.419  27.421  1.00  0.00     0.176 HD
ATOM     32  H61 UNL     1     -13.825  47.507  26.244  1.00  0.00     0.176 HD
ENDBRANCH  28  30
ENDBRANCH   7  26
BRANCH   1  33
HETATM   33  N1  UNL     1     -19.536  42.136  21.795  1.00  0.00    -0.381 N 
ATOM     34  H12 UNL     1     -19.296  41.173  21.557  1.00  0.00     0.157 HD
ATOM     35  H11 UNL     1     -20.397  42.148  21.248  1.00  0.00     0.157 HD
ENDBRANCH   1  33
TORSDOF 8
ENDMDL
