MODEL 1
REMARK VINA RESULT: -5.931518223      0.000      0.000
REMARK  10 active torsions:
REMARK  status: ('A' for Active; 'I' for Inactive)
REMARK    1  A    between atoms: C2_2  and  O1_3 
REMARK    2  A    between atoms: C2_2  and  C3_5 
REMARK    3  A    between atoms: C3_5  and  N1_6 
REMARK    4  A    between atoms: C4_7  and  C5_8 
REMARK    5  A    between atoms: C6_9  and  N2_10 
REMARK    6  A    between atoms: N2_10  and  N3_11 
REMARK    7  A    between atoms: N2_10  and  O2_14 
REMARK    8  A    between atoms: C8_19  and  C9_20 
REMARK    9  A    between atoms: N5_21  and  N6_23 
REMARK   10  A    between atoms: N6_23  and  C10_25 
ROOT
HETATM    1  N1  UNL     1     -17.715  41.695  27.491  1.00  0.00    -0.301 N 
HETATM    2  C4  UNL     1     -19.031  41.893  27.621  1.00  0.00     0.109 A 
HETATM    3  C7  UNL     1     -19.928  40.979  27.040  1.00  0.00     0.128 A 
HETATM    4  N4  UNL     1     -19.491  39.909  26.355  1.00  0.00    -0.357 N 
ATOM      5  H4  UNL     1     -20.151  39.252  25.938  1.00  0.00     0.165 HD
HETATM    6  C8  UNL     1     -18.167  39.721  26.230  1.00  0.00     0.118 A 
HETATM    7  C13 UNL     1     -17.295  40.623  26.804  1.00  0.00     0.277 A 
HETATM    8  O3  UNL     1     -16.074  40.418  26.668  1.00  0.00    -0.265 OA
ENDROOT
BRANCH   6   9
HETATM    9  C9  UNL     1     -17.708  38.558  25.484  1.00  0.00     0.142 C 
HETATM   10  N5  UNL     1     -17.084  37.591  26.046  1.00  0.00    -0.308 N 
ATOM     11  H5  UNL     1     -16.892  37.617  27.048  1.00  0.00     0.186 HD
BRANCH  10  12
HETATM   12  N6  UNL     1     -16.668  36.505  25.284  1.00  0.00    -0.288 N 
ATOM     13  H6  UNL     1     -15.913  36.622  24.609  1.00  0.00     0.188 HD
BRANCH  12  14
HETATM   14  C10 UNL     1     -17.291  35.220  25.438  1.00  0.00     0.119 C 
HETATM   15  N7  UNL     1     -16.892  34.116  24.910  1.00  0.00    -0.354 N 
HETATM   16  C11 UNL     1     -17.759  33.011  25.276  1.00  0.00     0.356 C 
ATOM     17  H7  UNL     1     -16.071  34.029  24.310  1.00  0.00     0.162 HD
HETATM   18  N8  UNL     1     -18.523  33.490  26.426  1.00  0.00    -0.053 N 
HETATM   19  C12 UNL     1     -18.501  34.915  26.223  1.00  0.00     0.311 C 
ATOM     20  H82 UNL     1     -19.451  33.081  26.529  1.00  0.00     0.279 HD
ATOM     21  H81 UNL     1     -18.179  33.177  27.334  1.00  0.00     0.279 HD
ENDBRANCH  12  14
ENDBRANCH  10  12
ENDBRANCH   6   9
BRANCH   1  22
HETATM   22  C3  UNL     1     -16.763  42.566  28.088  1.00  0.00     0.164 C 
BRANCH  22  23
HETATM   23  C2  UNL     1     -16.562  43.894  27.457  1.00  0.00     0.132 C 
HETATM   24  C1  UNL     1     -16.026  43.903  26.068  1.00  0.00     0.041 C 
BRANCH  23  25
HETATM   25  O1  UNL     1     -15.609  44.577  28.256  1.00  0.00    -0.394 OA
ATOM     26  H1  UNL     1     -15.763  44.299  29.151  1.00  0.00     0.210 HD
ENDBRANCH  23  25
ENDBRANCH  22  23
ENDBRANCH   1  22
BRANCH   2  27
HETATM   27  C5  UNL     1     -19.580  43.034  28.307  1.00  0.00    -0.020 C 
HETATM   28  C6  UNL     1     -20.062  43.977  28.884  1.00  0.00     0.066 C 
BRANCH  28  29
HETATM   29  N2  UNL     1     -20.604  45.087  29.551  1.00  0.00    -0.123 N 
BRANCH  29  30
HETATM   30  N3  UNL     1     -20.594  46.370  29.049  1.00  0.00    -0.311 N 
ATOM     31  H32 UNL     1     -19.711  46.779  28.743  1.00  0.00     0.180 HD
ATOM     32  H31 UNL     1     -21.424  46.955  28.959  1.00  0.00     0.180 HD
ENDBRANCH  29  30
BRANCH  29  33
HETATM   33  O2  UNL     1     -21.165  44.853  30.757  1.00  0.00    -0.261 OA
ATOM     34  H2  UNL     1     -20.614  44.997  31.517  1.00  0.00     0.247 HD
ENDBRANCH  29  33
ENDBRANCH  28  29
ENDBRANCH   2  27
TORSDOF 10
ENDMDL
MODEL 2
REMARK VINA RESULT: -5.780578884      2.510      3.624
REMARK  10 active torsions:
REMARK  status: ('A' for Active; 'I' for Inactive)
REMARK    1  A    between atoms: C2_2  and  O1_3 
REMARK    2  A    between atoms: C2_2  and  C3_5 
REMARK    3  A    between atoms: C3_5  and  N1_6 
REMARK    4  A    between atoms: C4_7  and  C5_8 
REMARK    5  A    between atoms: C6_9  and  N2_10 
REMARK    6  A    between atoms: N2_10  and  N3_11 
REMARK    7  A    between atoms: N2_10  and  O2_14 
REMARK    8  A    between atoms: C8_19  and  C9_20 
REMARK    9  A    between atoms: N5_21  and  N6_23 
REMARK   10  A    between atoms: N6_23  and  C10_25 
ROOT
HETATM    1  N1  UNL     1     -18.129  40.790  26.219  1.00  0.00    -0.301 N 
HETATM    2  C4  UNL     1     -16.955  41.178  26.727  1.00  0.00     0.109 A 
HETATM    3  C7  UNL     1     -16.000  40.208  27.082  1.00  0.00     0.128 A 
HETATM    4  N4  UNL     1     -16.244  38.897  26.922  1.00  0.00    -0.357 N 
ATOM      5  H4  UNL     1     -15.544  38.202  27.182  1.00  0.00     0.165 HD
HETATM    6  C8  UNL     1     -17.426  38.519  26.411  1.00  0.00     0.118 A 
HETATM    7  C13 UNL     1     -18.356  39.477  26.065  1.00  0.00     0.277 A 
HETATM    8  O3  UNL     1     -19.443  39.092  25.595  1.00  0.00    -0.265 OA
ENDROOT
BRANCH   6   9
HETATM    9  C9  UNL     1     -17.676  37.093  26.244  1.00  0.00     0.142 C 
HETATM   10  N5  UNL     1     -16.879  36.334  25.589  1.00  0.00    -0.308 N 
ATOM     11  H5  UNL     1     -16.036  36.721  25.163  1.00  0.00     0.186 HD
BRANCH  10  12
HETATM   12  N6  UNL     1     -17.168  34.981  25.461  1.00  0.00    -0.288 N 
ATOM     13  H6  UNL     1     -16.871  34.331  26.189  1.00  0.00     0.188 HD
BRANCH  12  14
HETATM   14  C10 UNL     1     -17.879  34.488  24.316  1.00  0.00     0.119 C 
HETATM   15  N7  UNL     1     -18.513  35.202  23.452  1.00  0.00    -0.354 N 
HETATM   16  C11 UNL     1     -19.117  34.375  22.424  1.00  0.00     0.356 C 
ATOM     17  H7  UNL     1     -18.583  36.219  23.487  1.00  0.00     0.162 HD
HETATM   18  N8  UNL     1     -18.445  33.082  22.530  1.00  0.00    -0.053 N 
HETATM   19  C12 UNL     1     -18.024  33.079  23.906  1.00  0.00     0.311 C 
ATOM     20  H82 UNL     1     -19.005  32.278  22.246  1.00  0.00     0.279 HD
ATOM     21  H81 UNL     1     -17.701  32.924  21.850  1.00  0.00     0.279 HD
ENDBRANCH  12  14
ENDBRANCH  10  12
ENDBRANCH   6   9
BRANCH   1  22
HETATM   22  C3  UNL     1     -19.115  41.728  25.809  1.00  0.00     0.164 C 
BRANCH  22  23
HETATM   23  C2  UNL     1     -18.950  42.352  24.473  1.00  0.00     0.132 C 
HETATM   24  C1  UNL     1     -20.023  43.284  24.030  1.00  0.00     0.041 C 
BRANCH  23  25
HETATM   25  O1  UNL     1     -18.933  41.289  23.533  1.00  0.00    -0.394 OA
ATOM     26  H1  UNL     1     -18.290  40.665  23.848  1.00  0.00     0.210 HD
ENDBRANCH  23  25
ENDBRANCH  22  23
ENDBRANCH   1  22
BRANCH   2  27
HETATM   27  C5  UNL     1     -16.631  42.561  26.965  1.00  0.00    -0.020 C 
HETATM   28  C6  UNL     1     -16.337  43.713  27.171  1.00  0.00     0.066 C 
BRANCH  28  29
HETATM   29  N2  UNL     1     -16.017  45.059  27.408  1.00  0.00    -0.123 N 
BRANCH  29  30
HETATM   30  N3  UNL     1     -15.462  45.897  26.467  1.00  0.00    -0.311 N 
ATOM     31  H32 UNL     1     -15.408  46.898  26.660  1.00  0.00     0.180 HD
ATOM     32  H31 UNL     1     -15.092  45.585  25.570  1.00  0.00     0.180 HD
ENDBRANCH  29  30
BRANCH  29  33
HETATM   33  O2  UNL     1     -16.281  45.535  28.645  1.00  0.00    -0.261 OA
ATOM     34  H2  UNL     1     -15.680  46.186  28.987  1.00  0.00     0.247 HD
ENDBRANCH  29  33
ENDBRANCH  28  29
ENDBRANCH   2  27
TORSDOF 10
ENDMDL
MODEL 3
REMARK VINA RESULT: -5.751521799      4.695      9.407
REMARK  10 active torsions:
REMARK  status: ('A' for Active; 'I' for Inactive)
REMARK    1  A    between atoms: C2_2  and  O1_3 
REMARK    2  A    between atoms: C2_2  and  C3_5 
REMARK    3  A    between atoms: C3_5  and  N1_6 
REMARK    4  A    between atoms: C4_7  and  C5_8 
REMARK    5  A    between atoms: C6_9  and  N2_10 
REMARK    6  A    between atoms: N2_10  and  N3_11 
REMARK    7  A    between atoms: N2_10  and  O2_14 
REMARK    8  A    between atoms: C8_19  and  C9_20 
REMARK    9  A    between atoms: N5_21  and  N6_23 
REMARK   10  A    between atoms: N6_23  and  C10_25 
ROOT
HETATM    1  N1  UNL     1     -17.183  43.803  26.734  1.00  0.00    -0.301 N 
HETATM    2  C4  UNL     1     -17.625  43.856  25.474  1.00  0.00     0.109 A 
HETATM    3  C7  UNL     1     -17.098  44.821  24.597  1.00  0.00     0.128 A 
HETATM    4  N4  UNL     1     -16.158  45.692  24.999  1.00  0.00    -0.357 N 
ATOM      5  H4  UNL     1     -15.782  46.388  24.354  1.00  0.00     0.165 HD
HETATM    6  C8  UNL     1     -15.722  45.629  26.267  1.00  0.00     0.118 A 
HETATM    7  C13 UNL     1     -16.244  44.680  27.120  1.00  0.00     0.277 A 
HETATM    8  O3  UNL     1     -15.817  44.650  28.290  1.00  0.00    -0.265 OA
ENDROOT
BRANCH   6   9
HETATM    9  C9  UNL     1     -14.703  46.581  26.689  1.00  0.00     0.142 C 
HETATM   10  N5  UNL     1     -13.674  46.841  25.971  1.00  0.00    -0.308 N 
ATOM     11  H5  UNL     1     -13.546  46.377  25.071  1.00  0.00     0.186 HD
BRANCH  10  12
HETATM   12  N6  UNL     1     -12.734  47.759  26.424  1.00  0.00    -0.288 N 
ATOM     13  H6  UNL     1     -11.768  47.463  26.565  1.00  0.00     0.188 HD
BRANCH  12  14
HETATM   14  C10 UNL     1     -13.107  49.119  26.695  1.00  0.00     0.119 C 
HETATM   15  N7  UNL     1     -12.779  50.148  25.996  1.00  0.00    -0.354 N 
HETATM   16  C11 UNL     1     -13.331  51.367  26.560  1.00  0.00     0.356 C 
ATOM     17  H7  UNL     1     -12.204  50.113  25.154  1.00  0.00     0.162 HD
HETATM   18  N8  UNL     1     -14.379  50.923  27.475  1.00  0.00    -0.053 N 
HETATM   19  C12 UNL     1     -13.932  49.599  27.818  1.00  0.00     0.311 C 
ATOM     20  H82 UNL     1     -14.550  51.542  28.269  1.00  0.00     0.279 HD
ATOM     21  H81 UNL     1     -15.328  50.978  27.106  1.00  0.00     0.279 HD
ENDBRANCH  12  14
ENDBRANCH  10  12
ENDBRANCH   6   9
BRANCH   1  22
HETATM   22  C3  UNL     1     -17.653  42.826  27.653  1.00  0.00     0.164 C 
BRANCH  22  23
HETATM   23  C2  UNL     1     -16.792  41.640  27.889  1.00  0.00     0.132 C 
HETATM   24  C1  UNL     1     -17.404  40.306  27.642  1.00  0.00     0.041 C 
BRANCH  23  25
HETATM   25  O1  UNL     1     -16.440  41.668  29.264  1.00  0.00    -0.394 OA
ATOM     26  H1  UNL     1     -16.743  40.847  29.634  1.00  0.00     0.210 HD
ENDBRANCH  23  25
ENDBRANCH  22  23
ENDBRANCH   1  22
BRANCH   2  27
HETATM   27  C5  UNL     1     -18.657  42.984  24.976  1.00  0.00    -0.020 C 
HETATM   28  C6  UNL     1     -19.509  42.252  24.537  1.00  0.00     0.066 C 
BRANCH  28  29
HETATM   29  N2  UNL     1     -20.513  41.403  24.045  1.00  0.00    -0.123 N 
BRANCH  29  30
HETATM   30  N3  UNL     1     -20.353  40.563  22.965  1.00  0.00    -0.311 N 
ATOM     31  H32 UNL     1     -19.428  40.457  22.548  1.00  0.00     0.180 HD
ATOM     32  H31 UNL     1     -21.109  40.027  22.541  1.00  0.00     0.180 HD
ENDBRANCH  29  30
BRANCH  29  33
HETATM   33  O2  UNL     1     -21.700  41.431  24.690  1.00  0.00    -0.261 OA
ATOM     34  H2  UNL     1     -22.147  40.600  24.793  1.00  0.00     0.247 HD
ENDBRANCH  29  33
ENDBRANCH  28  29
ENDBRANCH   2  27
TORSDOF 10
ENDMDL
MODEL 4
REMARK VINA RESULT: -5.729769060      2.615      3.773
REMARK  10 active torsions:
REMARK  status: ('A' for Active; 'I' for Inactive)
REMARK    1  A    between atoms: C2_2  and  O1_3 
REMARK    2  A    between atoms: C2_2  and  C3_5 
REMARK    3  A    between atoms: C3_5  and  N1_6 
REMARK    4  A    between atoms: C4_7  and  C5_8 
REMARK    5  A    between atoms: C6_9  and  N2_10 
REMARK    6  A    between atoms: N2_10  and  N3_11 
REMARK    7  A    between atoms: N2_10  and  O2_14 
REMARK    8  A    between atoms: C8_19  and  C9_20 
REMARK    9  A    between atoms: N5_21  and  N6_23 
REMARK   10  A    between atoms: N6_23  and  C10_25 
ROOT
HETATM    1  N1  UNL     1     -18.371  40.444  26.094  1.00  0.00    -0.301 N 
HETATM    2  C4  UNL     1     -17.184  40.781  26.609  1.00  0.00     0.109 A 
HETATM    3  C7  UNL     1     -16.239  39.776  26.883  1.00  0.00     0.128 A 
HETATM    4  N4  UNL     1     -16.504  38.482  26.639  1.00  0.00    -0.357 N 
ATOM      5  H4  UNL     1     -15.810  37.761  26.841  1.00  0.00     0.165 HD
HETATM    6  C8  UNL     1     -17.699  38.156  26.122  1.00  0.00     0.118 A 
HETATM    7  C13 UNL     1     -18.620  39.148  25.856  1.00  0.00     0.277 A 
HETATM    8  O3  UNL     1     -19.718  38.809  25.377  1.00  0.00    -0.265 OA
ENDROOT
BRANCH   6   9
HETATM    9  C9  UNL     1     -17.972  36.748  25.863  1.00  0.00     0.142 C 
HETATM   10  N5  UNL     1     -17.792  35.844  26.753  1.00  0.00    -0.308 N 
ATOM     11  H5  UNL     1     -17.448  36.098  27.680  1.00  0.00     0.186 HD
BRANCH  10  12
HETATM   12  N6  UNL     1     -18.069  34.517  26.451  1.00  0.00    -0.288 N 
ATOM     13  H6  UNL     1     -17.723  34.115  25.579  1.00  0.00     0.188 HD
BRANCH  12  14
HETATM   14  C10 UNL     1     -18.837  33.704  27.352  1.00  0.00     0.119 C 
HETATM   15  N7  UNL     1     -19.364  32.561  27.080  1.00  0.00    -0.354 N 
HETATM   16  C11 UNL     1     -20.071  32.020  28.226  1.00  0.00     0.356 C 
ATOM     17  H7  UNL     1     -19.294  32.096  26.175  1.00  0.00     0.162 HD
HETATM   18  N8  UNL     1     -19.582  32.783  29.372  1.00  0.00    -0.053 N 
HETATM   19  C12 UNL     1     -19.171  34.015  28.753  1.00  0.00     0.311 C 
ATOM     20  H82 UNL     1     -20.246  32.883  30.140  1.00  0.00     0.279 HD
ATOM     21  H81 UNL     1     -18.864  32.317  29.927  1.00  0.00     0.279 HD
ENDBRANCH  12  14
ENDBRANCH  10  12
ENDBRANCH   6   9
BRANCH   1  22
HETATM   22  C3  UNL     1     -19.350  41.420  25.763  1.00  0.00     0.164 C 
BRANCH  22  23
HETATM   23  C2  UNL     1     -19.207  42.115  24.460  1.00  0.00     0.132 C 
HETATM   24  C1  UNL     1     -20.408  42.827  23.944  1.00  0.00     0.041 C 
BRANCH  23  25
HETATM   25  O1  UNL     1     -18.896  41.114  23.503  1.00  0.00    -0.394 OA
ATOM     26  H1  UNL     1     -18.780  40.306  23.991  1.00  0.00     0.210 HD
ENDBRANCH  23  25
ENDBRANCH  22  23
ENDBRANCH   1  22
BRANCH   2  27
HETATM   27  C5  UNL     1     -16.838  42.140  26.936  1.00  0.00    -0.020 C 
HETATM   28  C6  UNL     1     -16.553  43.285  27.186  1.00  0.00     0.066 C 
BRANCH  28  29
HETATM   29  N2  UNL     1     -16.214  44.611  27.497  1.00  0.00    -0.123 N 
BRANCH  29  30
HETATM   30  N3  UNL     1     -16.648  45.707  26.784  1.00  0.00    -0.311 N 
ATOM     31  H32 UNL     1     -16.430  46.643  27.126  1.00  0.00     0.180 HD
ATOM     32  H31 UNL     1     -17.184  45.650  25.919  1.00  0.00     0.180 HD
ENDBRANCH  29  30
BRANCH  29  33
HETATM   33  O2  UNL     1     -15.411  44.795  28.569  1.00  0.00    -0.261 OA
ATOM     34  H2  UNL     1     -15.407  45.664  28.952  1.00  0.00     0.247 HD
ENDBRANCH  29  33
ENDBRANCH  28  29
ENDBRANCH   2  27
TORSDOF 10
ENDMDL
MODEL 5
REMARK VINA RESULT: -5.707890033      2.270      3.481
REMARK  10 active torsions:
REMARK  status: ('A' for Active; 'I' for Inactive)
REMARK    1  A    between atoms: C2_2  and  O1_3 
REMARK    2  A    between atoms: C2_2  and  C3_5 
REMARK    3  A    between atoms: C3_5  and  N1_6 
REMARK    4  A    between atoms: C4_7  and  C5_8 
REMARK    5  A    between atoms: C6_9  and  N2_10 
REMARK    6  A    between atoms: N2_10  and  N3_11 
REMARK    7  A    between atoms: N2_10  and  O2_14 
REMARK    8  A    between atoms: C8_19  and  C9_20 
REMARK    9  A    between atoms: N5_21  and  N6_23 
REMARK   10  A    between atoms: N6_23  and  C10_25 
ROOT
HETATM    1  N1  UNL     1     -18.388  40.288  25.984  1.00  0.00    -0.301 N 
HETATM    2  C4  UNL     1     -17.286  40.686  26.627  1.00  0.00     0.109 A 
HETATM    3  C7  UNL     1     -16.278  39.749  26.916  1.00  0.00     0.128 A 
HETATM    4  N4  UNL     1     -16.399  38.459  26.561  1.00  0.00    -0.357 N 
ATOM      5  H4  UNL     1     -15.662  37.788  26.775  1.00  0.00     0.165 HD
HETATM    6  C8  UNL     1     -17.511  38.071  25.916  1.00  0.00     0.118 A 
HETATM    7  C13 UNL     1     -18.494  38.997  25.636  1.00  0.00     0.277 A 
HETATM    8  O3  UNL     1     -19.513  38.603  25.037  1.00  0.00    -0.265 OA
ENDROOT
BRANCH   6   9
HETATM    9  C9  UNL     1     -17.629  36.669  25.538  1.00  0.00     0.142 C 
HETATM   10  N5  UNL     1     -16.624  35.875  25.544  1.00  0.00    -0.308 N 
ATOM     11  H5  UNL     1     -15.703  36.216  25.820  1.00  0.00     0.186 HD
BRANCH  10  12
HETATM   12  N6  UNL     1     -16.795  34.546  25.173  1.00  0.00    -0.288 N 
ATOM     13  H6  UNL     1     -16.029  34.046  24.723  1.00  0.00     0.188 HD
BRANCH  12  14
HETATM   14  C10 UNL     1     -18.039  33.871  25.416  1.00  0.00     0.119 C 
HETATM   15  N7  UNL     1     -18.473  33.472  26.561  1.00  0.00    -0.354 N 
HETATM   16  C11 UNL     1     -19.768  32.828  26.439  1.00  0.00     0.356 C 
ATOM     17  H7  UNL     1     -17.971  33.593  27.441  1.00  0.00     0.162 HD
HETATM   18  N8  UNL     1     -20.273  33.231  25.129  1.00  0.00    -0.053 N 
HETATM   19  C12 UNL     1     -19.054  33.505  24.413  1.00  0.00     0.311 C 
ATOM     20  H82 UNL     1     -20.897  32.559  24.681  1.00  0.00     0.279 HD
ATOM     21  H81 UNL     1     -20.949  33.995  25.141  1.00  0.00     0.279 HD
ENDBRANCH  12  14
ENDBRANCH  10  12
ENDBRANCH   6   9
BRANCH   1  22
HETATM   22  C3  UNL     1     -19.422  41.198  25.633  1.00  0.00     0.164 C 
BRANCH  22  23
HETATM   23  C2  UNL     1     -19.203  42.053  24.440  1.00  0.00     0.132 C 
HETATM   24  C1  UNL     1     -20.336  42.923  24.020  1.00  0.00     0.041 C 
BRANCH  23  25
HETATM   25  O1  UNL     1     -18.957  41.170  23.355  1.00  0.00    -0.394 OA
ATOM     26  H1  UNL     1     -18.172  41.489  22.925  1.00  0.00     0.210 HD
ENDBRANCH  23  25
ENDBRANCH  22  23
ENDBRANCH   1  22
BRANCH   2  27
HETATM   27  C5  UNL     1     -17.095  42.041  27.075  1.00  0.00    -0.020 C 
HETATM   28  C6  UNL     1     -16.941  43.184  27.428  1.00  0.00     0.066 C 
BRANCH  28  29
HETATM   29  N2  UNL     1     -16.754  44.507  27.859  1.00  0.00    -0.123 N 
BRANCH  29  30
HETATM   30  N3  UNL     1     -17.761  45.444  27.936  1.00  0.00    -0.311 N 
ATOM     31  H32 UNL     1     -18.454  45.494  27.189  1.00  0.00     0.180 HD
ATOM     32  H31 UNL     1     -17.867  46.107  28.703  1.00  0.00     0.180 HD
ENDBRANCH  29  30
BRANCH  29  33
HETATM   33  O2  UNL     1     -15.498  44.856  28.216  1.00  0.00    -0.261 OA
ATOM     34  H2  UNL     1     -15.416  45.531  28.879  1.00  0.00     0.247 HD
ENDBRANCH  29  33
ENDBRANCH  28  29
ENDBRANCH   2  27
TORSDOF 10
ENDMDL
