MODEL 1
REMARK VINA RESULT: -6.863069615      0.000      0.000
REMARK  5 active torsions:
REMARK  status: ('A' for Active; 'I' for Inactive)
REMARK       I    between atoms: C1_4  and  N3_6 
REMARK       I    between atoms: N3_6  and  C2_8 
REMARK       I    between atoms: C2_8  and  N4_10 
REMARK    1  A    between atoms: N4_10  and  S1_12 
REMARK    2  A    between atoms: S1_12  and  N5_15 
REMARK       I    between atoms: N5_15  and  C3_17 
REMARK    3  A    between atoms: C3_17  and  C4_19 
REMARK    4  A    between atoms: C5_25  and  C6_26 
REMARK    5  A    between atoms: N9_28  and  O6_30 
ROOT
HETATM    1  N5  UNL     1     -17.285  37.931  25.098  1.00  0.00    -0.231 N 
ATOM      2  H5  UNL     1     -16.386  38.350  24.857  1.00  0.00     0.183 HD
HETATM    3  C3  UNL     1     -18.369  38.744  25.510  1.00  0.00     0.287 C 
HETATM    4  O4  UNL     1     -19.428  38.178  25.788  1.00  0.00    -0.265 OA
ENDROOT
BRANCH   1   5
HETATM    5  S1  UNL     1     -17.507  36.226  25.012  1.00  0.00     0.329 S 
HETATM    6  O2  UNL     1     -16.237  35.512  24.627  1.00  0.00    -0.182 OA
HETATM    7  O3  UNL     1     -18.518  35.885  23.931  1.00  0.00    -0.182 OA
BRANCH   5   8
HETATM    8  N4  UNL     1     -18.089  35.653  26.538  1.00  0.00    -0.218 N 
HETATM    9  C2  UNL     1     -18.451  34.304  26.689  1.00  0.00     0.337 C 
HETATM   10  N3  UNL     1     -18.926  33.818  27.933  1.00  0.00    -0.282 N 
HETATM   11  O1  UNL     1     -18.357  33.520  25.716  1.00  0.00    -0.246 OA
HETATM   12  C1  UNL     1     -19.293  32.455  28.090  1.00  0.00     0.189 C 
ATOM     13  H3  UNL     1     -19.004  34.455  28.726  1.00  0.00     0.173 HD
HETATM   14  N1  UNL     1     -19.722  32.010  29.212  1.00  0.00    -0.373 N 
HETATM   15  N2  UNL     1     -19.184  31.577  26.985  1.00  0.00    -0.064 NA
ATOM     16  H12 UNL     1     -19.986  31.031  29.324  1.00  0.00     0.158 HD
ATOM     17  H11 UNL     1     -19.801  32.643  30.008  1.00  0.00     0.158 HD
ATOM     18  H4  UNL     1     -18.168  36.294  27.327  1.00  0.00     0.185 HD
ENDBRANCH   5   8
ENDBRANCH   1   5
BRANCH   3  19
HETATM   19  C4  UNL     1     -18.189  40.170  25.587  1.00  0.00     0.157 A 
HETATM   20  N6  UNL     1     -18.827  41.078  24.766  1.00  0.00    -0.234 N 
HETATM   21  O5  UNL     1     -18.426  42.228  25.101  1.00  0.00    -0.156 OA
ATOM     22  H6  UNL     1     -19.497  40.861  24.028  1.00  0.00     0.197 HD
HETATM   23  N7  UNL     1     -17.588  42.200  26.057  1.00  0.00    -0.236 N 
HETATM   24  C5  UNL     1     -17.393  40.887  26.418  1.00  0.00     0.133 A 
ATOM     25  H7  UNL     1     -17.139  43.011  26.483  1.00  0.00     0.197 HD
BRANCH  24  26
HETATM   26  C6  UNL     1     -16.472  40.532  27.488  1.00  0.00     0.167 C 
HETATM   27  N8  UNL     1     -15.447  39.580  27.459  1.00  0.00    -0.078 NA
HETATM   28  N9  UNL     1     -16.582  41.155  28.631  1.00  0.00    -0.253 N 
ATOM     29  H9  UNL     1     -15.943  40.915  29.388  1.00  0.00     0.195 HD
BRANCH  28  30
HETATM   30  O6  UNL     1     -17.510  42.100  28.839  1.00  0.00    -0.288 OA
ATOM     31  H6  UNL     1     -17.279  43.011  28.977  1.00  0.00     0.244 HD
ENDBRANCH  28  30
ENDBRANCH  24  26
ENDBRANCH   3  19
TORSDOF 5
ENDMDL
MODEL 2
REMARK VINA RESULT: -6.800726323      2.522      7.647
REMARK  5 active torsions:
REMARK  status: ('A' for Active; 'I' for Inactive)
REMARK       I    between atoms: C1_4  and  N3_6 
REMARK       I    between atoms: N3_6  and  C2_8 
REMARK       I    between atoms: C2_8  and  N4_10 
REMARK    1  A    between atoms: N4_10  and  S1_12 
REMARK    2  A    between atoms: S1_12  and  N5_15 
REMARK       I    between atoms: N5_15  and  C3_17 
REMARK    3  A    between atoms: C3_17  and  C4_19 
REMARK    4  A    between atoms: C5_25  and  C6_26 
REMARK    5  A    between atoms: N9_28  and  O6_30 
ROOT
HETATM    1  N5  UNL     1     -17.119  38.442  25.927  1.00  0.00    -0.231 N 
ATOM      2  H5  UNL     1     -16.535  37.619  25.777  1.00  0.00     0.183 HD
HETATM    3  C3  UNL     1     -18.385  38.550  25.302  1.00  0.00     0.287 C 
HETATM    4  O4  UNL     1     -19.043  39.569  25.524  1.00  0.00    -0.265 OA
ENDROOT
BRANCH   1   5
HETATM    5  S1  UNL     1     -16.581  39.721  26.947  1.00  0.00     0.329 S 
HETATM    6  O2  UNL     1     -15.197  39.467  27.486  1.00  0.00    -0.182 OA
HETATM    7  O3  UNL     1     -17.485  39.836  28.162  1.00  0.00    -0.182 OA
BRANCH   5   8
HETATM    8  N4  UNL     1     -16.626  41.208  26.061  1.00  0.00    -0.218 N 
HETATM    9  C2  UNL     1     -16.322  42.418  26.707  1.00  0.00     0.337 C 
HETATM   10  N3  UNL     1     -16.349  43.643  25.995  1.00  0.00    -0.282 N 
HETATM   11  O1  UNL     1     -16.023  42.419  27.924  1.00  0.00    -0.246 OA
HETATM   12  C1  UNL     1     -16.042  44.869  26.644  1.00  0.00     0.189 C 
ATOM     13  H3  UNL     1     -16.593  43.646  25.005  1.00  0.00     0.173 HD
HETATM   14  N1  UNL     1     -16.065  45.980  26.006  1.00  0.00    -0.373 N 
HETATM   15  N2  UNL     1     -15.707  44.860  28.019  1.00  0.00    -0.064 NA
ATOM     16  H12 UNL     1     -15.844  46.860  26.472  1.00  0.00     0.158 HD
ATOM     17  H11 UNL     1     -16.307  45.986  25.015  1.00  0.00     0.158 HD
ATOM     18  H4  UNL     1     -16.873  41.205  25.072  1.00  0.00     0.185 HD
ENDBRANCH   5   8
ENDBRANCH   1   5
BRANCH   3  19
HETATM   19  C4  UNL     1     -18.839  37.486  24.446  1.00  0.00     0.157 A 
HETATM   20  N6  UNL     1     -19.463  37.681  23.230  1.00  0.00    -0.234 N 
HETATM   21  O5  UNL     1     -19.734  36.539  22.764  1.00  0.00    -0.156 OA
ATOM     22  H6  UNL     1     -19.667  38.578  22.790  1.00  0.00     0.197 HD
HETATM   23  N7  UNL     1     -19.363  35.592  23.528  1.00  0.00    -0.236 N 
HETATM   24  C5  UNL     1     -18.772  36.145  24.640  1.00  0.00     0.133 A 
ATOM     25  H7  UNL     1     -19.482  34.595  23.347  1.00  0.00     0.197 HD
BRANCH  24  26
HETATM   26  C6  UNL     1     -18.251  35.306  25.709  1.00  0.00     0.167 C 
HETATM   27  N8  UNL     1     -18.871  34.972  26.919  1.00  0.00    -0.078 NA
HETATM   28  N9  UNL     1     -17.065  34.780  25.560  1.00  0.00    -0.253 N 
ATOM     29  H9  UNL     1     -16.690  34.190  26.303  1.00  0.00     0.195 HD
BRANCH  28  30
HETATM   30  O6  UNL     1     -16.326  34.993  24.463  1.00  0.00    -0.288 OA
ATOM     31  H6  UNL     1     -15.378  35.044  24.496  1.00  0.00     0.244 HD
ENDBRANCH  28  30
ENDBRANCH  24  26
ENDBRANCH   3  19
TORSDOF 5
ENDMDL
MODEL 3
REMARK VINA RESULT: -6.712998737      8.007     10.241
REMARK  5 active torsions:
REMARK  status: ('A' for Active; 'I' for Inactive)
REMARK       I    between atoms: C1_4  and  N3_6 
REMARK       I    between atoms: N3_6  and  C2_8 
REMARK       I    between atoms: C2_8  and  N4_10 
REMARK    1  A    between atoms: N4_10  and  S1_12 
REMARK    2  A    between atoms: S1_12  and  N5_15 
REMARK       I    between atoms: N5_15  and  C3_17 
REMARK    3  A    between atoms: C3_17  and  C4_19 
REMARK    4  A    between atoms: C5_25  and  C6_26 
REMARK    5  A    between atoms: N9_28  and  O6_30 
ROOT
HETATM    1  N5  UNL     1     -16.020  45.960  26.925  1.00  0.00    -0.231 N 
ATOM      2  H5  UNL     1     -16.342  46.812  27.385  1.00  0.00     0.183 HD
HETATM    3  C3  UNL     1     -14.725  45.896  26.356  1.00  0.00     0.287 C 
HETATM    4  O4  UNL     1     -14.395  44.839  25.815  1.00  0.00    -0.265 OA
ENDROOT
BRANCH   1   5
HETATM    5  S1  UNL     1     -17.041  44.578  26.830  1.00  0.00     0.329 S 
HETATM    6  O2  UNL     1     -18.443  44.880  27.294  1.00  0.00    -0.182 OA
HETATM    7  O3  UNL     1     -16.527  43.484  27.750  1.00  0.00    -0.182 OA
BRANCH   5   8
HETATM    8  N4  UNL     1     -17.053  43.993  25.200  1.00  0.00    -0.218 N 
HETATM    9  C2  UNL     1     -17.390  44.860  24.147  1.00  0.00     0.337 C 
HETATM   10  N3  UNL     1     -17.400  44.398  22.807  1.00  0.00    -0.282 N 
HETATM   11  O1  UNL     1     -17.686  46.053  24.390  1.00  0.00    -0.246 OA
HETATM   12  C1  UNL     1     -17.740  45.270  21.739  1.00  0.00     0.189 C 
ATOM     13  H3  UNL     1     -17.160  43.427  22.607  1.00  0.00     0.173 HD
HETATM   14  N1  UNL     1     -17.750  44.858  20.525  1.00  0.00    -0.373 N 
HETATM   15  N2  UNL     1     -18.074  46.616  22.023  1.00  0.00    -0.064 NA
ATOM     16  H12 UNL     1     -17.995  45.485  19.758  1.00  0.00     0.158 HD
ATOM     17  H11 UNL     1     -17.510  43.889  20.321  1.00  0.00     0.158 HD
ATOM     18  H4  UNL     1     -16.815  43.021  25.005  1.00  0.00     0.185 HD
ENDBRANCH   5   8
ENDBRANCH   1   5
BRANCH   3  19
HETATM   19  C4  UNL     1     -13.867  47.050  26.429  1.00  0.00     0.157 A 
HETATM   20  N6  UNL     1     -12.511  47.027  26.168  1.00  0.00    -0.234 N 
HETATM   21  O5  UNL     1     -12.080  48.201  26.342  1.00  0.00    -0.156 OA
ATOM     22  H6  UNL     1     -11.962  46.215  25.888  1.00  0.00     0.197 HD
HETATM   23  N7  UNL     1     -12.991  49.017  26.691  1.00  0.00    -0.236 N 
HETATM   24  C5  UNL     1     -14.178  48.327  26.764  1.00  0.00     0.133 A 
ATOM     25  H7  UNL     1     -12.864  50.011  26.882  1.00  0.00     0.197 HD
BRANCH  24  26
HETATM   26  C6  UNL     1     -15.412  48.996  27.152  1.00  0.00     0.167 C 
HETATM   27  N8  UNL     1     -16.599  49.101  26.418  1.00  0.00    -0.078 NA
HETATM   28  N9  UNL     1     -15.458  49.581  28.318  1.00  0.00    -0.253 N 
ATOM     29  H9  UNL     1     -16.317  50.053  28.600  1.00  0.00     0.195 HD
BRANCH  28  30
HETATM   30  O6  UNL     1     -14.412  49.581  29.156  1.00  0.00    -0.288 OA
ATOM     31  H6  UNL     1     -14.244  50.301  29.752  1.00  0.00     0.244 HD
ENDBRANCH  28  30
ENDBRANCH  24  26
ENDBRANCH   3  19
TORSDOF 5
ENDMDL
MODEL 4
REMARK VINA RESULT: -6.670886646      4.598      8.815
REMARK  5 active torsions:
REMARK  status: ('A' for Active; 'I' for Inactive)
REMARK       I    between atoms: C1_4  and  N3_6 
REMARK       I    between atoms: N3_6  and  C2_8 
REMARK       I    between atoms: C2_8  and  N4_10 
REMARK    1  A    between atoms: N4_10  and  S1_12 
REMARK    2  A    between atoms: S1_12  and  N5_15 
REMARK       I    between atoms: N5_15  and  C3_17 
REMARK    3  A    between atoms: C3_17  and  C4_19 
REMARK    4  A    between atoms: C5_25  and  C6_26 
REMARK    5  A    between atoms: N9_28  and  O6_30 
ROOT
HETATM    1  N5  UNL     1     -15.928  43.430  27.019  1.00  0.00    -0.231 N 
ATOM      2  H5  UNL     1     -15.075  42.959  26.716  1.00  0.00     0.183 HD
HETATM    3  C3  UNL     1     -17.073  42.681  27.383  1.00  0.00     0.287 C 
HETATM    4  O4  UNL     1     -18.072  43.309  27.740  1.00  0.00    -0.265 OA
ENDROOT
BRANCH   1   5
HETATM    5  S1  UNL     1     -15.998  45.149  27.095  1.00  0.00     0.329 S 
HETATM    6  O2  UNL     1     -14.679  45.782  26.731  1.00  0.00    -0.182 OA
HETATM    7  O3  UNL     1     -16.294  45.597  28.516  1.00  0.00    -0.182 OA
BRANCH   5   8
HETATM    8  N4  UNL     1     -17.254  45.712  26.046  1.00  0.00    -0.218 N 
HETATM    9  C2  UNL     1     -17.274  45.313  24.699  1.00  0.00     0.337 C 
HETATM   10  N3  UNL     1     -18.299  45.762  23.828  1.00  0.00    -0.282 N 
HETATM   11  O1  UNL     1     -16.380  44.555  24.258  1.00  0.00    -0.246 OA
HETATM   12  C1  UNL     1     -18.323  45.362  22.466  1.00  0.00     0.189 C 
ATOM     13  H3  UNL     1     -19.028  46.380  24.185  1.00  0.00     0.173 HD
HETATM   14  N1  UNL     1     -19.247  45.764  21.674  1.00  0.00    -0.373 N 
HETATM   15  N2  UNL     1     -17.308  44.506  21.977  1.00  0.00    -0.064 NA
ATOM     16  H12 UNL     1     -19.265  45.477  20.695  1.00  0.00     0.158 HD
ATOM     17  H11 UNL     1     -19.979  46.381  22.027  1.00  0.00     0.158 HD
ATOM     18  H4  UNL     1     -17.979  46.331  26.406  1.00  0.00     0.185 HD
ENDBRANCH   5   8
ENDBRANCH   1   5
BRANCH   3  19
HETATM   19  C4  UNL     1     -17.022  41.244  27.318  1.00  0.00     0.157 A 
HETATM   20  N6  UNL     1     -16.210  40.459  28.113  1.00  0.00    -0.234 N 
HETATM   21  O5  UNL     1     -16.412  39.258  27.779  1.00  0.00    -0.156 OA
ATOM     22  H6  UNL     1     -15.569  40.788  28.835  1.00  0.00     0.197 HD
HETATM   23  N7  UNL     1     -17.269  39.141  26.847  1.00  0.00    -0.236 N 
HETATM   24  C5  UNL     1     -17.704  40.400  26.504  1.00  0.00     0.133 A 
ATOM     25  H7  UNL     1     -17.581  38.265  26.427  1.00  0.00     0.197 HD
BRANCH  24  26
HETATM   26  C6  UNL     1     -18.689  40.592  25.450  1.00  0.00     0.167 C 
HETATM   27  N8  UNL     1     -19.879  41.326  25.510  1.00  0.00    -0.078 NA
HETATM   28  N9  UNL     1     -18.475  40.027  24.293  1.00  0.00    -0.253 N 
ATOM     29  H9  UNL     1     -19.159  40.155  23.547  1.00  0.00     0.195 HD
BRANCH  28  30
HETATM   30  O6  UNL     1     -17.385  39.285  24.054  1.00  0.00    -0.288 OA
ATOM     31  H6  UNL     1     -17.412  38.513  23.502  1.00  0.00     0.244 HD
ENDBRANCH  28  30
ENDBRANCH  24  26
ENDBRANCH   3  19
TORSDOF 5
ENDMDL
MODEL 5
REMARK VINA RESULT: -6.666812886      4.395      8.315
REMARK  5 active torsions:
REMARK  status: ('A' for Active; 'I' for Inactive)
REMARK       I    between atoms: C1_4  and  N3_6 
REMARK       I    between atoms: N3_6  and  C2_8 
REMARK       I    between atoms: C2_8  and  N4_10 
REMARK    1  A    between atoms: N4_10  and  S1_12 
REMARK    2  A    between atoms: S1_12  and  N5_15 
REMARK       I    between atoms: N5_15  and  C3_17 
REMARK    3  A    between atoms: C3_17  and  C4_19 
REMARK    4  A    between atoms: C5_25  and  C6_26 
REMARK    5  A    between atoms: N9_28  and  O6_30 
ROOT
HETATM    1  N5  UNL     1     -16.120  43.092  26.203  1.00  0.00    -0.231 N 
ATOM      2  H5  UNL     1     -15.779  42.603  25.375  1.00  0.00     0.183 HD
HETATM    3  C3  UNL     1     -16.629  42.367  27.308  1.00  0.00     0.287 C 
HETATM    4  O4  UNL     1     -17.026  43.015  28.278  1.00  0.00    -0.265 OA
ENDROOT
BRANCH   1   5
HETATM    5  S1  UNL     1     -16.085  44.811  26.280  1.00  0.00     0.329 S 
HETATM    6  O2  UNL     1     -15.594  45.422  24.993  1.00  0.00    -0.182 OA
HETATM    7  O3  UNL     1     -15.111  45.267  27.353  1.00  0.00    -0.182 OA
BRANCH   5   8
HETATM    8  N4  UNL     1     -17.670  45.393  26.664  1.00  0.00    -0.218 N 
HETATM    9  C2  UNL     1     -18.773  44.982  25.898  1.00  0.00     0.337 C 
HETATM   10  N3  UNL     1     -20.077  45.446  26.203  1.00  0.00    -0.282 N 
HETATM   11  O1  UNL     1     -18.607  44.198  24.935  1.00  0.00    -0.246 OA
HETATM   12  C1  UNL     1     -21.196  45.032  25.430  1.00  0.00     0.189 C 
ATOM     13  H3  UNL     1     -20.215  46.084  26.986  1.00  0.00     0.173 HD
HETATM   14  N1  UNL     1     -22.377  45.448  25.701  1.00  0.00    -0.373 N 
HETATM   15  N2  UNL     1     -20.998  44.148  24.343  1.00  0.00    -0.064 NA
ATOM     16  H12 UNL     1     -23.180  45.151  25.146  1.00  0.00     0.158 HD
ATOM     17  H11 UNL     1     -22.519  46.086  26.485  1.00  0.00     0.158 HD
ATOM     18  H4  UNL     1     -17.802  46.034  27.446  1.00  0.00     0.185 HD
ENDBRANCH   5   8
ENDBRANCH   1   5
BRANCH   3  19
HETATM   19  C4  UNL     1     -16.663  40.929  27.249  1.00  0.00     0.157 A 
HETATM   20  N6  UNL     1     -15.821  40.102  27.965  1.00  0.00    -0.234 N 
HETATM   21  O5  UNL     1     -16.120  38.914  27.661  1.00  0.00    -0.156 OA
ATOM     22  H6  UNL     1     -15.094  40.396  28.618  1.00  0.00     0.197 HD
HETATM   23  N7  UNL     1     -17.071  38.842  26.820  1.00  0.00    -0.236 N 
HETATM   24  C5  UNL     1     -17.468  40.123  26.513  1.00  0.00     0.133 A 
ATOM     25  H7  UNL     1     -17.470  37.984  26.439  1.00  0.00     0.197 HD
BRANCH  24  26
HETATM   26  C6  UNL     1     -18.541  40.367  25.560  1.00  0.00     0.167 C 
HETATM   27  N8  UNL     1     -19.714  41.105  25.758  1.00  0.00    -0.078 NA
HETATM   28  N9  UNL     1     -18.437  39.852  24.365  1.00  0.00    -0.253 N 
ATOM     29  H9  UNL     1     -19.183  40.016  23.689  1.00  0.00     0.195 HD
BRANCH  28  30
HETATM   30  O6  UNL     1     -17.379  39.115  23.998  1.00  0.00    -0.288 OA
ATOM     31  H6  UNL     1     -16.622  39.498  23.572  1.00  0.00     0.244 HD
ENDBRANCH  28  30
ENDBRANCH  24  26
ENDBRANCH   3  19
TORSDOF 5
ENDMDL
