MODEL 1
REMARK VINA RESULT: -4.669486168      0.000      0.000
REMARK  2 active torsions:
REMARK  status: ('A' for Active; 'I' for Inactive)
REMARK    1  A    between atoms: N4_13  and  C5_14 
REMARK    2  A    between atoms: C6_19  and  N7_20 
ROOT
HETATM    1  N1  UNL     1     -63.405 -39.616  55.717  1.00  0.00    -0.387 N 
ATOM      2  H11 UNL     1     -64.379 -39.314  55.762  1.00  0.00     0.157 HD
ATOM      3  H12 UNL     1     -62.898 -38.845  56.152  1.00  0.00     0.157 HD
HETATM    4  C1  UNL     1     -62.978 -40.721  55.216  1.00  0.00     0.098 C 
HETATM    5  N2  UNL     1     -61.608 -41.146  55.152  1.00  0.00    -0.335 N 
ATOM      6  H2  UNL     1     -60.802 -40.658  55.542  1.00  0.00     0.164 HD
HETATM    7  C2  UNL     1     -61.591 -42.404  54.424  1.00  0.00     0.394 C 
HETATM    8  N3  UNL     1     -62.135 -43.404  55.324  1.00  0.00    -0.034 N 
ATOM      9  H31 UNL     1     -61.625 -43.491  56.203  1.00  0.00     0.281 HD
ATOM     10  H32 UNL     1     -61.992 -44.364  55.012  1.00  0.00     0.281 HD
HETATM   11  C3  UNL     1     -63.542 -43.036  55.487  1.00  0.00     0.270 C 
HETATM   12  C4  UNL     1     -63.719 -41.850  54.578  1.00  0.00     0.182 C 
HETATM   13  N4  UNL     1     -62.733 -42.200  53.538  1.00  0.00    -0.304 N 
ENDROOT
BRANCH  13  14
HETATM   14  C5  UNL     1     -62.869 -42.300  52.151  1.00  0.00     0.192 A 
HETATM   15  N5  UNL     1     -63.407 -43.339  51.492  1.00  0.00    -0.267 N 
HETATM   16  N6  UNL     1     -63.513 -43.386  50.175  1.00  0.00    -0.131 N 
ATOM     17  H5  UNL     1     -63.750 -44.132  52.034  1.00  0.00     0.189 HD
HETATM   18  C6  UNL     1     -63.070 -42.356  49.435  1.00  0.00     0.693 A 
ATOM     19  H6  UNL     1     -63.929 -44.200  49.723  1.00  0.00     0.205 HD
HETATM   20  N8  UNL     1     -62.528 -41.301  50.037  1.00  0.00    -0.152 N 
HETATM   21  C7  UNL     1     -62.410 -41.232  51.376  1.00  0.00     0.305 A 
ATOM     22  H8  UNL     1     -62.193 -40.523  49.469  1.00  0.00     0.188 HD
HETATM   23  O1  UNL     1     -61.897 -40.226  51.912  1.00  0.00    -0.263 OA
BRANCH  18  24
HETATM   24  N7  UNL     1     -63.180 -42.414  48.143  1.00  0.00    -0.233 N 
ATOM     25  H72 UNL     1     -64.093 -42.414  47.688  1.00  0.00     0.174 HD
ATOM     26  H71 UNL     1     -62.335 -42.462  47.576  1.00  0.00     0.174 HD
ENDBRANCH  18  24
ENDBRANCH  13  14
TORSDOF 2
ENDMDL
MODEL 2
REMARK VINA RESULT: -4.530114834      0.875      2.086
REMARK  2 active torsions:
REMARK  status: ('A' for Active; 'I' for Inactive)
REMARK    1  A    between atoms: N4_13  and  C5_14 
REMARK    2  A    between atoms: C6_19  and  N7_20 
ROOT
HETATM    1  N1  UNL     1     -63.021 -45.130  55.818  1.00  0.00    -0.387 N 
ATOM      2  H11 UNL     1     -62.392 -45.922  55.680  1.00  0.00     0.157 HD
ATOM      3  H12 UNL     1     -63.745 -45.507  56.430  1.00  0.00     0.157 HD
HETATM    4  C1  UNL     1     -62.880 -43.956  55.312  1.00  0.00     0.098 C 
HETATM    5  N2  UNL     1     -63.764 -42.841  55.506  1.00  0.00    -0.335 N 
ATOM      6  H2  UNL     1     -64.584 -42.814  56.111  1.00  0.00     0.164 HD
HETATM    7  C2  UNL     1     -63.264 -41.759  54.676  1.00  0.00     0.394 C 
HETATM    8  N3  UNL     1     -62.066 -41.262  55.328  1.00  0.00    -0.034 N 
ATOM      9  H31 UNL     1     -62.219 -40.939  56.283  1.00  0.00     0.281 HD
ATOM     10  H32 UNL     1     -61.732 -40.372  54.958  1.00  0.00     0.281 HD
HETATM   11  C3  UNL     1     -61.099 -42.354  55.216  1.00  0.00     0.270 C 
HETATM   12  C4  UNL     1     -61.820 -43.404  54.416  1.00  0.00     0.182 C 
HETATM   13  N4  UNL     1     -62.669 -42.528  53.586  1.00  0.00    -0.304 N 
ENDROOT
BRANCH  13  14
HETATM   14  C5  UNL     1     -62.836 -42.469  52.200  1.00  0.00     0.192 A 
HETATM   15  N5  UNL     1     -63.439 -43.403  51.446  1.00  0.00    -0.267 N 
HETATM   16  N6  UNL     1     -63.572 -43.300  50.135  1.00  0.00    -0.131 N 
ATOM     17  H5  UNL     1     -63.812 -44.232  51.907  1.00  0.00     0.189 HD
HETATM   18  C6  UNL     1     -63.091 -42.217  49.500  1.00  0.00     0.693 A 
ATOM     19  H6  UNL     1     -64.038 -44.038  49.607  1.00  0.00     0.205 HD
HETATM   20  N8  UNL     1     -62.485 -41.262  50.200  1.00  0.00    -0.152 N 
HETATM   21  C7  UNL     1     -62.338 -41.346  51.535  1.00  0.00     0.305 A 
ATOM     22  H8  UNL     1     -62.122 -40.444  49.711  1.00  0.00     0.188 HD
HETATM   23  O1  UNL     1     -61.764 -40.432  52.164  1.00  0.00    -0.263 OA
BRANCH  18  24
HETATM   24  N7  UNL     1     -63.229 -42.128  48.213  1.00  0.00    -0.233 N 
ATOM     25  H72 UNL     1     -62.453 -41.847  47.614  1.00  0.00     0.174 HD
ATOM     26  H71 UNL     1     -64.134 -42.345  47.796  1.00  0.00     0.174 HD
ENDBRANCH  18  24
ENDBRANCH  13  14
TORSDOF 2
ENDMDL
MODEL 3
REMARK VINA RESULT: -4.451297679      6.646      7.789
REMARK  2 active torsions:
REMARK  status: ('A' for Active; 'I' for Inactive)
REMARK    1  A    between atoms: N4_13  and  C5_14 
REMARK    2  A    between atoms: C6_19  and  N7_20 
ROOT
HETATM    1  N1  UNL     1     -64.368 -48.958  52.001  1.00  0.00    -0.387 N 
ATOM      2  H11 UNL     1     -63.795 -49.124  51.173  1.00  0.00     0.157 HD
ATOM      3  H12 UNL     1     -64.077 -49.697  52.642  1.00  0.00     0.157 HD
HETATM    4  C1  UNL     1     -65.237 -48.020  52.144  1.00  0.00     0.098 C 
HETATM    5  N2  UNL     1     -66.043 -47.786  53.308  1.00  0.00    -0.335 N 
ATOM      6  H2  UNL     1     -65.995 -48.293  54.192  1.00  0.00     0.164 HD
HETATM    7  C2  UNL     1     -66.939 -46.689  52.986  1.00  0.00     0.394 C 
HETATM    8  N3  UNL     1     -66.127 -45.486  52.981  1.00  0.00    -0.034 N 
ATOM      9  H31 UNL     1     -65.646 -45.308  53.862  1.00  0.00     0.281 HD
ATOM     10  H32 UNL     1     -66.668 -44.621  52.969  1.00  0.00     0.281 HD
HETATM   11  C3  UNL     1     -65.231 -45.642  51.835  1.00  0.00     0.270 C 
HETATM   12  C4  UNL     1     -65.663 -46.939  51.206  1.00  0.00     0.182 C 
HETATM   13  N4  UNL     1     -67.097 -46.904  51.550  1.00  0.00    -0.304 N 
ENDROOT
BRANCH  13  14
HETATM   14  C5  UNL     1     -68.231 -47.035  50.744  1.00  0.00     0.192 A 
HETATM   15  N5  UNL     1     -68.702 -48.188  50.241  1.00  0.00    -0.267 N 
HETATM   16  N6  UNL     1     -69.782 -48.260  49.482  1.00  0.00    -0.131 N 
ATOM     17  H5  UNL     1     -68.201 -49.051  50.454  1.00  0.00     0.189 HD
HETATM   18  C6  UNL     1     -70.462 -47.139  49.184  1.00  0.00     0.693 A 
ATOM     19  H6  UNL     1     -70.098 -49.161  49.123  1.00  0.00     0.205 HD
HETATM   20  N8  UNL     1     -70.039 -45.970  49.658  1.00  0.00    -0.152 N 
HETATM   21  C7  UNL     1     -68.942 -45.874  50.432  1.00  0.00     0.305 A 
ATOM     22  H8  UNL     1     -70.559 -45.124  49.427  1.00  0.00     0.188 HD
HETATM   23  O1  UNL     1     -68.571 -44.761  50.861  1.00  0.00    -0.263 OA
BRANCH  18  24
HETATM   24  N7  UNL     1     -71.520 -47.224  48.439  1.00  0.00    -0.233 N 
ATOM     25  H72 UNL     1     -71.519 -47.764  47.574  1.00  0.00     0.174 HD
ATOM     26  H71 UNL     1     -72.369 -46.738  48.727  1.00  0.00     0.174 HD
ENDBRANCH  18  24
ENDBRANCH  13  14
TORSDOF 2
ENDMDL
MODEL 4
REMARK VINA RESULT: -4.429941511      2.803      4.471
REMARK  2 active torsions:
REMARK  status: ('A' for Active; 'I' for Inactive)
REMARK    1  A    between atoms: N4_13  and  C5_14 
REMARK    2  A    between atoms: C6_19  and  N7_20 
ROOT
HETATM    1  N1  UNL     1     -62.291 -47.419  51.223  1.00  0.00    -0.387 N 
ATOM      2  H11 UNL     1     -61.305 -47.611  51.408  1.00  0.00     0.157 HD
ATOM      3  H12 UNL     1     -62.513 -48.048  50.450  1.00  0.00     0.157 HD
HETATM    4  C1  UNL     1     -63.028 -46.573  51.851  1.00  0.00     0.098 C 
HETATM    5  N2  UNL     1     -64.414 -46.303  51.591  1.00  0.00    -0.335 N 
ATOM      6  H2  UNL     1     -65.010 -46.783  50.917  1.00  0.00     0.164 HD
HETATM    7  C2  UNL     1     -64.804 -45.216  52.473  1.00  0.00     0.394 C 
HETATM    8  N3  UNL     1     -64.890 -45.782  53.807  1.00  0.00    -0.034 N 
ATOM      9  H31 UNL     1     -65.546 -46.559  53.885  1.00  0.00     0.281 HD
ATOM     10  H32 UNL     1     -65.350 -45.175  54.485  1.00  0.00     0.281 HD
HETATM   11  C3  UNL     1     -63.513 -46.129  54.157  1.00  0.00     0.270 C 
HETATM   12  C4  UNL     1     -62.703 -45.652  52.981  1.00  0.00     0.182 C 
HETATM   13  N4  UNL     1     -63.533 -44.503  52.573  1.00  0.00    -0.304 N 
ENDROOT
BRANCH  13  14
HETATM   14  C5  UNL     1     -63.193 -43.165  52.357  1.00  0.00     0.192 A 
HETATM   15  N5  UNL     1     -62.913 -42.266  53.316  1.00  0.00    -0.267 N 
HETATM   16  N6  UNL     1     -62.596 -41.009  53.060  1.00  0.00    -0.131 N 
ATOM     17  H5  UNL     1     -62.947 -42.569  54.289  1.00  0.00     0.189 HD
HETATM   18  C6  UNL     1     -62.544 -40.582  51.786  1.00  0.00     0.693 A 
ATOM     19  H6  UNL     1     -62.393 -40.365  53.824  1.00  0.00     0.205 HD
HETATM   20  N8  UNL     1     -62.813 -41.431  50.798  1.00  0.00    -0.152 N 
HETATM   21  C7  UNL     1     -63.137 -42.716  51.036  1.00  0.00     0.305 A 
ATOM     22  H8  UNL     1     -62.772 -41.100  49.835  1.00  0.00     0.188 HD
HETATM   23  O1  UNL     1     -63.384 -43.489  50.086  1.00  0.00    -0.263 OA
BRANCH  18  24
HETATM   24  N7  UNL     1     -62.231 -39.345  51.549  1.00  0.00    -0.233 N 
ATOM     25  H72 UNL     1     -62.131 -38.668  52.304  1.00  0.00     0.174 HD
ATOM     26  H71 UNL     1     -62.084 -39.048  50.585  1.00  0.00     0.174 HD
ENDBRANCH  18  24
ENDBRANCH  13  14
TORSDOF 2
ENDMDL
MODEL 5
REMARK VINA RESULT: -4.417395700      1.252      2.283
REMARK  2 active torsions:
REMARK  status: ('A' for Active; 'I' for Inactive)
REMARK    1  A    between atoms: N4_13  and  C5_14 
REMARK    2  A    between atoms: C6_19  and  N7_20 
ROOT
HETATM    1  N1  UNL     1     -60.705 -43.312  56.580  1.00  0.00    -0.387 N 
ATOM      2  H11 UNL     1     -59.824 -43.798  56.412  1.00  0.00     0.157 HD
ATOM      3  H12 UNL     1     -61.083 -43.787  57.401  1.00  0.00     0.157 HD
HETATM    4  C1  UNL     1     -61.176 -42.337  55.887  1.00  0.00     0.098 C 
HETATM    5  N2  UNL     1     -62.416 -41.653  56.124  1.00  0.00    -0.335 N 
ATOM      6  H2  UNL     1     -63.057 -41.810  56.902  1.00  0.00     0.164 HD
HETATM    7  C2  UNL     1     -62.581 -40.694  55.045  1.00  0.00     0.394 C 
HETATM    8  N3  UNL     1     -61.636 -39.623  55.302  1.00  0.00    -0.034 N 
ATOM      9  H31 UNL     1     -61.761 -39.169  56.206  1.00  0.00     0.281 HD
ATOM     10  H32 UNL     1     -61.789 -38.791  54.733  1.00  0.00     0.281 HD
HETATM   11  C3  UNL     1     -60.319 -40.233  55.119  1.00  0.00     0.270 C 
HETATM   12  C4  UNL     1     -60.624 -41.642  54.686  1.00  0.00     0.182 C 
HETATM   13  N4  UNL     1     -61.891 -41.401  53.970  1.00  0.00    -0.304 N 
ENDROOT
BRANCH  13  14
HETATM   14  C5  UNL     1     -62.285 -41.747  52.675  1.00  0.00     0.192 A 
HETATM   15  N5  UNL     1     -62.738 -42.952  52.292  1.00  0.00    -0.267 N 
HETATM   16  N6  UNL     1     -63.100 -43.230  51.051  1.00  0.00    -0.131 N 
ATOM     17  H5  UNL     1     -62.806 -43.690  52.993  1.00  0.00     0.189 HD
HETATM   18  C6  UNL     1     -63.021 -42.277  50.106  1.00  0.00     0.693 A 
ATOM     19  H6  UNL     1     -63.436 -44.162  50.811  1.00  0.00     0.205 HD
HETATM   20  N8  UNL     1     -62.580 -41.065  50.432  1.00  0.00    -0.152 N 
HETATM   21  C7  UNL     1     -62.206 -40.760  51.689  1.00  0.00     0.305 A 
ATOM     22  H8  UNL     1     -62.522 -40.347  49.710  1.00  0.00     0.188 HD
HETATM   23  O1  UNL     1     -61.796 -39.612  51.963  1.00  0.00    -0.263 OA
BRANCH  18  24
HETATM   24  N7  UNL     1     -63.380 -42.562  48.893  1.00  0.00    -0.233 N 
ATOM     25  H72 UNL     1     -63.031 -43.394  48.417  1.00  0.00     0.174 HD
ATOM     26  H71 UNL     1     -64.024 -41.939  48.407  1.00  0.00     0.174 HD
ENDBRANCH  18  24
ENDBRANCH  13  14
TORSDOF 2
ENDMDL
