MODEL 1
REMARK VINA RESULT: -5.092882575      0.000      0.000
REMARK  3 active torsions:
REMARK  status: ('A' for Active; 'I' for Inactive)
REMARK    1  A    between atoms: N1_1  and  C1_4 
REMARK    2  A    between atoms: N2_7  and  C4_8 
REMARK    3  A    between atoms: C4_8  and  C5_9 
ROOT
HETATM    1  C1  UNL     1     -63.053 -42.386  49.847  1.00  0.00     0.103 A 
HETATM    2  C2  UNL     1     -63.364 -43.273  50.841  1.00  0.00     0.065 A 
HETATM    3  C3  UNL     1     -63.168 -42.969  52.162  1.00  0.00     0.099 A 
HETATM    4  N2  UNL     1     -62.655 -41.771  52.539  1.00  0.00    -0.307 N 
HETATM    5  C8  UNL     1     -62.357 -40.914  51.548  1.00  0.00     0.328 A 
HETATM    6  O2  UNL     1     -61.880 -39.786  51.836  1.00  0.00    -0.246 OA
HETATM    7  N6  UNL     1     -62.538 -41.184  50.243  1.00  0.00    -0.295 N 
ATOM      8  H6  UNL     1     -62.288 -40.485  49.543  1.00  0.00     0.172 HD
ENDROOT
BRANCH   4   9
HETATM    9  C4  UNL     1     -62.476 -41.552  53.920  1.00  0.00     0.168 C 
BRANCH   9  10
HETATM   10  C5  UNL     1     -61.269 -42.074  54.587  1.00  0.00     0.195 C 
HETATM   11  N3  UNL     1     -61.478 -42.104  56.042  1.00  0.00    -0.349 N 
HETATM   12  C6  UNL     1     -61.232 -40.781  56.494  1.00  0.00     0.191 C 
ATOM     13  H3  UNL     1     -61.746 -42.908  56.609  1.00  0.00     0.163 HD
HETATM   14  N4  UNL     1     -61.723 -40.216  57.692  1.00  0.00    -0.063 NA
HETATM   15  N5  UNL     1     -60.473 -40.174  55.615  1.00  0.00    -0.299 N 
HETATM   16  C7  UNL     1     -60.176 -41.070  54.530  1.00  0.00     0.248 C 
ATOM     17  H5  UNL     1     -60.143 -39.212  55.690  1.00  0.00     0.171 HD
HETATM   18  O1  UNL     1     -59.199 -40.975  53.745  1.00  0.00    -0.271 OA
ENDBRANCH   9  10
ENDBRANCH   4   9
BRANCH   1  19
HETATM   19  N1  UNL     1     -63.219 -42.623  48.590  1.00  0.00    -0.385 N 
ATOM     20  H12 UNL     1     -63.956 -43.262  48.292  1.00  0.00     0.157 HD
ATOM     21  H11 UNL     1     -62.653 -42.207  47.852  1.00  0.00     0.157 HD
ENDBRANCH   1  19
TORSDOF 3
ENDMDL
MODEL 2
REMARK VINA RESULT: -5.010679666      1.880      2.189
REMARK  3 active torsions:
REMARK  status: ('A' for Active; 'I' for Inactive)
REMARK    1  A    between atoms: N1_1  and  C1_4 
REMARK    2  A    between atoms: N2_7  and  C4_8 
REMARK    3  A    between atoms: C4_8  and  C5_9 
ROOT
HETATM    1  C1  UNL     1     -63.098 -42.362  49.476  1.00  0.00     0.103 A 
HETATM    2  C2  UNL     1     -63.501 -43.344  50.339  1.00  0.00     0.065 A 
HETATM    3  C3  UNL     1     -63.280 -43.250  51.688  1.00  0.00     0.099 A 
HETATM    4  N2  UNL     1     -62.651 -42.173  52.223  1.00  0.00    -0.307 N 
HETATM    5  C8  UNL     1     -62.264 -41.220  51.359  1.00  0.00     0.328 A 
HETATM    6  O2  UNL     1     -61.678 -40.196  51.796  1.00  0.00    -0.246 OA
HETATM    7  N6  UNL     1     -62.466 -41.285  50.030  1.00  0.00    -0.295 N 
ATOM      8  H6  UNL     1     -62.144 -40.524  49.432  1.00  0.00     0.172 HD
ENDROOT
BRANCH   4   9
HETATM    9  C4  UNL     1     -62.456 -42.168  53.620  1.00  0.00     0.168 C 
BRANCH   9  10
HETATM   10  C5  UNL     1     -63.493 -41.591  54.495  1.00  0.00     0.195 C 
HETATM   11  N3  UNL     1     -63.533 -40.131  54.322  1.00  0.00    -0.349 N 
HETATM   12  C6  UNL     1     -62.482 -39.618  55.125  1.00  0.00     0.191 C 
ATOM     13  H3  UNL     1     -64.182 -39.597  53.744  1.00  0.00     0.163 HD
HETATM   14  N4  UNL     1     -61.846 -38.369  54.951  1.00  0.00    -0.063 NA
HETATM   15  N5  UNL     1     -62.198 -40.498  56.055  1.00  0.00    -0.299 N 
HETATM   16  C7  UNL     1     -63.056 -41.645  55.913  1.00  0.00     0.248 C 
ATOM     17  H5  UNL     1     -61.480 -40.386  56.769  1.00  0.00     0.171 HD
HETATM   18  O1  UNL     1     -63.335 -42.470  56.820  1.00  0.00    -0.271 OA
ENDBRANCH   9  10
ENDBRANCH   4   9
BRANCH   1  19
HETATM   19  N1  UNL     1     -63.282 -42.403  48.200  1.00  0.00    -0.385 N 
ATOM     20  H12 UNL     1     -62.847 -43.146  47.653  1.00  0.00     0.157 HD
ATOM     21  H11 UNL     1     -63.846 -41.729  47.683  1.00  0.00     0.157 HD
ENDBRANCH   1  19
TORSDOF 3
ENDMDL
MODEL 3
REMARK VINA RESULT: -4.971140830      3.842      5.637
REMARK  3 active torsions:
REMARK  status: ('A' for Active; 'I' for Inactive)
REMARK    1  A    between atoms: N1_1  and  C1_4 
REMARK    2  A    between atoms: N2_7  and  C4_8 
REMARK    3  A    between atoms: C4_8  and  C5_9 
ROOT
HETATM    1  C1  UNL     1     -62.589 -40.652  51.670  1.00  0.00     0.103 A 
HETATM    2  C2  UNL     1     -62.729 -41.482  52.748  1.00  0.00     0.065 A 
HETATM    3  C3  UNL     1     -63.033 -42.809  52.598  1.00  0.00     0.099 A 
HETATM    4  N2  UNL     1     -63.209 -43.355  51.368  1.00  0.00    -0.307 N 
HETATM    5  C8  UNL     1     -63.067 -42.523  50.323  1.00  0.00     0.328 A 
HETATM    6  O2  UNL     1     -63.216 -42.971  49.157  1.00  0.00    -0.246 OA
HETATM    7  N6  UNL     1     -62.769 -41.216  50.439  1.00  0.00    -0.295 N 
ATOM      8  H6  UNL     1     -62.677 -40.642  49.600  1.00  0.00     0.172 HD
ENDROOT
BRANCH   4   9
HETATM    9  C4  UNL     1     -63.534 -44.726  51.310  1.00  0.00     0.168 C 
BRANCH   9  10
HETATM   10  C5  UNL     1     -63.534 -45.524  52.550  1.00  0.00     0.195 C 
HETATM   11  N3  UNL     1     -62.225 -46.169  52.727  1.00  0.00    -0.349 N 
HETATM   12  C6  UNL     1     -62.253 -47.328  51.908  1.00  0.00     0.191 C 
ATOM     13  H3  UNL     1     -61.455 -45.851  53.315  1.00  0.00     0.163 HD
HETATM   14  N4  UNL     1     -61.123 -48.006  51.400  1.00  0.00    -0.063 NA
HETATM   15  N5  UNL     1     -63.504 -47.664  51.702  1.00  0.00    -0.299 N 
HETATM   16  C7  UNL     1     -64.372 -46.738  52.380  1.00  0.00     0.248 C 
ATOM     17  H5  UNL     1     -63.813 -48.460  51.145  1.00  0.00     0.171 HD
HETATM   18  O1  UNL     1     -65.559 -46.963  52.724  1.00  0.00    -0.271 OA
ENDBRANCH   9  10
ENDBRANCH   4   9
BRANCH   1  19
HETATM   19  N1  UNL     1     -62.302 -39.398  51.758  1.00  0.00    -0.385 N 
ATOM     20  H12 UNL     1     -61.339 -39.091  51.623  1.00  0.00     0.157 HD
ATOM     21  H11 UNL     1     -62.987 -38.669  51.958  1.00  0.00     0.157 HD
ENDBRANCH   1  19
TORSDOF 3
ENDMDL
MODEL 4
REMARK VINA RESULT: -4.902730757      4.300      6.076
REMARK  3 active torsions:
REMARK  status: ('A' for Active; 'I' for Inactive)
REMARK    1  A    between atoms: N1_1  and  C1_4 
REMARK    2  A    between atoms: N2_7  and  C4_8 
REMARK    3  A    between atoms: C4_8  and  C5_9 
ROOT
HETATM    1  C1  UNL     1     -62.654 -41.464  51.263  1.00  0.00     0.103 A 
HETATM    2  C2  UNL     1     -63.187 -42.114  50.184  1.00  0.00     0.065 A 
HETATM    3  C3  UNL     1     -63.520 -43.442  50.238  1.00  0.00     0.099 A 
HETATM    4  N2  UNL     1     -63.331 -44.168  51.369  1.00  0.00    -0.307 N 
HETATM    5  C8  UNL     1     -62.807 -43.510  52.417  1.00  0.00     0.328 A 
HETATM    6  O2  UNL     1     -62.611 -44.130  53.494  1.00  0.00    -0.246 OA
HETATM    7  N6  UNL     1     -62.471 -42.208  52.393  1.00  0.00    -0.295 N 
ATOM      8  H6  UNL     1     -62.075 -41.773  53.227  1.00  0.00     0.172 HD
ENDROOT
BRANCH   4   9
HETATM    9  C4  UNL     1     -63.690 -45.531  51.328  1.00  0.00     0.168 C 
BRANCH   9  10
HETATM   10  C5  UNL     1     -64.928 -45.976  51.994  1.00  0.00     0.195 C 
HETATM   11  N3  UNL     1     -64.613 -46.494  53.334  1.00  0.00    -0.349 N 
HETATM   12  C6  UNL     1     -64.167 -47.826  53.137  1.00  0.00     0.191 C 
ATOM     13  H3  UNL     1     -64.698 -45.998  54.221  1.00  0.00     0.163 HD
HETATM   14  N4  UNL     1     -63.352 -48.561  54.026  1.00  0.00    -0.063 NA
HETATM   15  N5  UNL     1     -64.637 -48.260  51.993  1.00  0.00    -0.299 N 
HETATM   16  C7  UNL     1     -65.425 -47.229  51.371  1.00  0.00     0.248 C 
ATOM     17  H5  UNL     1     -64.469 -49.187  51.603  1.00  0.00     0.171 HD
HETATM   18  O1  UNL     1     -66.317 -47.409  50.504  1.00  0.00    -0.271 OA
ENDBRANCH   9  10
ENDBRANCH   4   9
BRANCH   1  19
HETATM   19  N1  UNL     1     -62.325 -40.217  51.263  1.00  0.00    -0.385 N 
ATOM     20  H12 UNL     1     -62.584 -39.629  52.055  1.00  0.00     0.157 HD
ATOM     21  H11 UNL     1     -61.812 -39.762  50.508  1.00  0.00     0.157 HD
ENDBRANCH   1  19
TORSDOF 3
ENDMDL
MODEL 5
REMARK VINA RESULT: -4.883395798      1.390      1.664
REMARK  3 active torsions:
REMARK  status: ('A' for Active; 'I' for Inactive)
REMARK    1  A    between atoms: N1_1  and  C1_4 
REMARK    2  A    between atoms: N2_7  and  C4_8 
REMARK    3  A    between atoms: C4_8  and  C5_9 
ROOT
HETATM    1  C1  UNL     1     -63.319 -42.211  49.483  1.00  0.00     0.103 A 
HETATM    2  C2  UNL     1     -64.279 -42.685  50.335  1.00  0.00     0.065 A 
HETATM    3  C3  UNL     1     -64.353 -42.269  51.638  1.00  0.00     0.099 A 
HETATM    4  N2  UNL     1     -63.473 -41.365  52.137  1.00  0.00    -0.307 N 
HETATM    5  C8  UNL     1     -62.538 -40.912  51.286  1.00  0.00     0.328 A 
HETATM    6  O2  UNL     1     -61.695 -40.070  51.691  1.00  0.00    -0.246 OA
HETATM    7  N6  UNL     1     -62.441 -41.302  50.002  1.00  0.00    -0.295 N 
ATOM      8  H6  UNL     1     -61.704 -40.916  49.411  1.00  0.00     0.172 HD
ENDROOT
BRANCH   4   9
HETATM    9  C4  UNL     1     -63.617 -41.005  53.494  1.00  0.00     0.168 C 
BRANCH   9  10
HETATM   10  C5  UNL     1     -63.107 -41.908  54.542  1.00  0.00     0.195 C 
HETATM   11  N3  UNL     1     -62.511 -41.119  55.630  1.00  0.00    -0.349 N 
HETATM   12  C6  UNL     1     -61.202 -40.787  55.193  1.00  0.00     0.191 C 
ATOM     13  H3  UNL     1     -62.947 -40.863  56.516  1.00  0.00     0.163 HD
HETATM   14  N4  UNL     1     -60.427 -39.704  55.663  1.00  0.00    -0.063 NA
HETATM   15  N5  UNL     1     -60.834 -41.653  54.280  1.00  0.00    -0.299 N 
HETATM   16  C7  UNL     1     -61.888 -42.610  54.068  1.00  0.00     0.248 C 
ATOM     17  H5  UNL     1     -59.937 -41.649  53.795  1.00  0.00     0.171 HD
HETATM   18  O1  UNL     1     -61.747 -43.762  53.586  1.00  0.00    -0.271 OA
ENDBRANCH   9  10
ENDBRANCH   4   9
BRANCH   1  19
HETATM   19  N1  UNL     1     -63.208 -42.570  48.250  1.00  0.00    -0.385 N 
ATOM     20  H12 UNL     1     -63.646 -43.436  47.937  1.00  0.00     0.157 HD
ATOM     21  H11 UNL     1     -62.699 -42.038  47.545  1.00  0.00     0.157 HD
ENDBRANCH   1  19
TORSDOF 3
ENDMDL
