MODEL 1
REMARK VINA RESULT: -4.756634400      0.000      0.000
REMARK  3 active torsions:
REMARK  status: ('A' for Active; 'I' for Inactive)
REMARK    1  A    between atoms: N1_1  and  C1_4 
REMARK    2  A    between atoms: C2_7  and  O1_8 
REMARK    3  A    between atoms: O1_8  and  C3_9 
ROOT
HETATM    1  C1  UNL     1     -63.356 -42.337  49.519  1.00  0.00     0.693 A 
HETATM    2  N2  UNL     1     -63.000 -41.241  50.216  1.00  0.00    -0.153 N 
ATOM      3  H2  UNL     1     -62.481 -40.451  49.834  1.00  0.00     0.188 HD
HETATM    4  C2  UNL     1     -63.425 -41.336  51.481  1.00  0.00     0.255 A 
HETATM    5  N5  UNL     1     -64.061 -42.509  51.593  1.00  0.00    -0.250 N 
ATOM      6  H5  UNL     1     -64.500 -42.879  52.436  1.00  0.00     0.191 HD
HETATM    7  N6  UNL     1     -64.014 -43.101  50.412  1.00  0.00    -0.129 N 
ATOM      8  H6  UNL     1     -64.421 -44.013  50.205  1.00  0.00     0.205 HD
ENDROOT
BRANCH   4   9
HETATM    9  O1  UNL     1     -63.223 -40.379  52.452  1.00  0.00    -0.296 OA
BRANCH   9  10
HETATM   10  C3  UNL     1     -62.366 -40.621  53.512  1.00  0.00     0.261 C 
HETATM   11  C4  UNL     1     -61.488 -39.412  53.855  1.00  0.00     0.216 C 
HETATM   12  S1  UNL     1     -60.180 -40.299  54.722  1.00  0.00     0.244 S 
HETATM   13  O2  UNL     1     -58.842 -39.927  54.208  1.00  0.00    -0.205 OA
HETATM   14  O3  UNL     1     -60.329 -40.177  56.193  1.00  0.00    -0.205 OA
HETATM   15  N3  UNL     1     -60.628 -41.921  54.238  1.00  0.00    -0.228 N 
HETATM   16  N4  UNL     1     -61.456 -41.680  53.146  1.00  0.00    -0.098 NA
ATOM     17  H3  UNL     1     -60.354 -42.813  54.650  1.00  0.00     0.195 HD
ENDBRANCH   9  10
ENDBRANCH   4   9
BRANCH   1  18
HETATM   18  N1  UNL     1     -63.111 -42.584  48.269  1.00  0.00    -0.233 N 
ATOM     19  H12 UNL     1     -63.768 -42.834  47.530  1.00  0.00     0.174 HD
ATOM     20  H11 UNL     1     -62.203 -42.570  47.805  1.00  0.00     0.174 HD
ENDBRANCH   1  18
TORSDOF 3
ENDMDL
MODEL 2
REMARK VINA RESULT: -4.562828247      1.373      1.426
REMARK  3 active torsions:
REMARK  status: ('A' for Active; 'I' for Inactive)
REMARK    1  A    between atoms: N1_1  and  C1_4 
REMARK    2  A    between atoms: C2_7  and  O1_8 
REMARK    3  A    between atoms: O1_8  and  C3_9 
ROOT
HETATM    1  C1  UNL     1     -62.973 -42.033  49.893  1.00  0.00     0.693 A 
HETATM    2  N2  UNL     1     -62.379 -40.983  50.489  1.00  0.00    -0.153 N 
ATOM      3  H2  UNL     1     -62.123 -40.114  50.019  1.00  0.00     0.188 HD
HETATM    4  C2  UNL     1     -62.172 -41.238  51.786  1.00  0.00     0.255 A 
HETATM    5  N5  UNL     1     -62.640 -42.471  52.021  1.00  0.00    -0.250 N 
ATOM      6  H5  UNL     1     -62.630 -42.959  52.916  1.00  0.00     0.191 HD
HETATM    7  N6  UNL     1     -63.119 -42.939  50.881  1.00  0.00    -0.129 N 
ATOM      8  H6  UNL     1     -63.541 -43.860  50.765  1.00  0.00     0.205 HD
ENDROOT
BRANCH   4   9
HETATM    9  O1  UNL     1     -61.583 -40.366  52.674  1.00  0.00    -0.296 OA
BRANCH   9  10
HETATM   10  C3  UNL     1     -61.006 -40.833  53.844  1.00  0.00     0.261 C 
HETATM   11  C4  UNL     1     -61.084 -39.820  54.992  1.00  0.00     0.216 C 
HETATM   12  S1  UNL     1     -59.740 -40.482  55.993  1.00  0.00     0.244 S 
HETATM   13  O2  UNL     1     -58.782 -39.421  56.382  1.00  0.00    -0.205 OA
HETATM   14  O3  UNL     1     -60.257 -41.290  57.125  1.00  0.00    -0.205 OA
HETATM   15  N3  UNL     1     -59.055 -41.559  54.793  1.00  0.00    -0.228 N 
HETATM   16  N4  UNL     1     -59.600 -41.063  53.613  1.00  0.00    -0.098 NA
ATOM     17  H3  UNL     1     -58.420 -42.346  54.924  1.00  0.00     0.195 HD
ENDBRANCH   9  10
ENDBRANCH   4   9
BRANCH   1  18
HETATM   18  N1  UNL     1     -63.320 -42.135  48.647  1.00  0.00    -0.233 N 
ATOM     19  H12 UNL     1     -62.995 -42.804  47.950  1.00  0.00     0.174 HD
ATOM     20  H11 UNL     1     -63.988 -41.551  48.145  1.00  0.00     0.174 HD
ENDBRANCH   1  18
TORSDOF 3
ENDMDL
MODEL 3
REMARK VINA RESULT: -4.483297496      4.718      6.166
REMARK  3 active torsions:
REMARK  status: ('A' for Active; 'I' for Inactive)
REMARK    1  A    between atoms: N1_1  and  C1_4 
REMARK    2  A    between atoms: C2_7  and  O1_8 
REMARK    3  A    between atoms: O1_8  and  C3_9 
ROOT
HETATM    1  C1  UNL     1     -63.475 -42.201  49.508  1.00  0.00     0.693 A 
HETATM    2  N2  UNL     1     -63.448 -43.457  49.993  1.00  0.00    -0.153 N 
ATOM      3  H2  UNL     1     -63.567 -44.301  49.431  1.00  0.00     0.188 HD
HETATM    4  C2  UNL     1     -63.243 -43.442  51.315  1.00  0.00     0.255 A 
HETATM    5  N5  UNL     1     -63.139 -42.158  51.680  1.00  0.00    -0.250 N 
ATOM      6  H5  UNL     1     -62.981 -41.810  52.625  1.00  0.00     0.191 HD
HETATM    7  N6  UNL     1     -63.279 -41.422  50.590  1.00  0.00    -0.129 N 
ATOM      8  H6  UNL     1     -63.243 -40.403  50.571  1.00  0.00     0.205 HD
ENDROOT
BRANCH   4   9
HETATM    9  O1  UNL     1     -63.162 -44.564  52.110  1.00  0.00    -0.296 OA
BRANCH   9  10
HETATM   10  C3  UNL     1     -64.286 -45.334  52.359  1.00  0.00     0.261 C 
HETATM   11  C4  UNL     1     -64.180 -46.747  51.774  1.00  0.00     0.216 C 
HETATM   12  S1  UNL     1     -65.942 -47.122  51.720  1.00  0.00     0.244 S 
HETATM   13  O2  UNL     1     -66.348 -47.625  50.387  1.00  0.00    -0.205 OA
HETATM   14  O3  UNL     1     -66.345 -47.990  52.854  1.00  0.00    -0.205 OA
HETATM   15  N3  UNL     1     -66.540 -45.500  52.006  1.00  0.00    -0.228 N 
HETATM   16  N4  UNL     1     -65.425 -44.723  51.715  1.00  0.00    -0.098 NA
ATOM     17  H3  UNL     1     -67.468 -45.202  52.308  1.00  0.00     0.195 HD
ENDBRANCH   9  10
ENDBRANCH   4   9
BRANCH   1  18
HETATM   18  N1  UNL     1     -63.653 -41.841  48.274  1.00  0.00    -0.233 N 
ATOM     19  H12 UNL     1     -63.021 -41.317  47.669  1.00  0.00     0.174 HD
ATOM     20  H11 UNL     1     -64.468 -42.025  47.691  1.00  0.00     0.174 HD
ENDBRANCH   1  18
TORSDOF 3
ENDMDL
MODEL 4
REMARK VINA RESULT: -4.404611367      2.633      3.388
REMARK  3 active torsions:
REMARK  status: ('A' for Active; 'I' for Inactive)
REMARK    1  A    between atoms: N1_1  and  C1_4 
REMARK    2  A    between atoms: C2_7  and  O1_8 
REMARK    3  A    between atoms: O1_8  and  C3_9 
ROOT
HETATM    1  C1  UNL     1     -63.144 -42.389  49.206  1.00  0.00     0.693 A 
HETATM    2  N2  UNL     1     -62.770 -41.357  49.984  1.00  0.00    -0.153 N 
ATOM      3  H2  UNL     1     -62.517 -40.429  49.641  1.00  0.00     0.188 HD
HETATM    4  C2  UNL     1     -62.775 -41.718  51.272  1.00  0.00     0.255 A 
HETATM    5  N5  UNL     1     -63.159 -43.001  51.316  1.00  0.00    -0.250 N 
ATOM      6  H5  UNL     1     -63.262 -43.572  52.155  1.00  0.00     0.191 HD
HETATM    7  N6  UNL     1     -63.378 -43.393  50.073  1.00  0.00    -0.129 N 
ATOM      8  H6  UNL     1     -63.682 -44.329  49.806  1.00  0.00     0.205 HD
ENDROOT
BRANCH   4   9
HETATM    9  O1  UNL     1     -62.441 -40.892  52.323  1.00  0.00    -0.296 OA
BRANCH   9  10
HETATM   10  C3  UNL     1     -63.426 -40.308  53.101  1.00  0.00     0.261 C 
HETATM   11  C4  UNL     1     -63.524 -40.928  54.500  1.00  0.00     0.216 C 
HETATM   12  S1  UNL     1     -65.209 -40.413  54.878  1.00  0.00     0.244 S 
HETATM   13  O2  UNL     1     -66.030 -41.552  55.351  1.00  0.00    -0.205 OA
HETATM   14  O3  UNL     1     -65.224 -39.230  55.774  1.00  0.00    -0.205 OA
HETATM   15  N3  UNL     1     -65.673 -39.910  53.266  1.00  0.00    -0.228 N 
HETATM   16  N4  UNL     1     -64.709 -40.531  52.479  1.00  0.00    -0.098 NA
ATOM     17  H3  UNL     1     -66.450 -39.315  52.977  1.00  0.00     0.195 HD
ENDBRANCH   9  10
ENDBRANCH   4   9
BRANCH   1  18
HETATM   18  N1  UNL     1     -63.251 -42.396  47.913  1.00  0.00    -0.233 N 
ATOM     19  H12 UNL     1     -63.692 -41.704  47.308  1.00  0.00     0.174 HD
ATOM     20  H11 UNL     1     -62.905 -43.110  47.271  1.00  0.00     0.174 HD
ENDBRANCH   1  18
TORSDOF 3
ENDMDL
MODEL 5
REMARK VINA RESULT: -4.400411466      2.010      2.083
REMARK  3 active torsions:
REMARK  status: ('A' for Active; 'I' for Inactive)
REMARK    1  A    between atoms: N1_1  and  C1_4 
REMARK    2  A    between atoms: C2_7  and  O1_8 
REMARK    3  A    between atoms: O1_8  and  C3_9 
ROOT
HETATM    1  C1  UNL     1     -63.464 -41.992  49.383  1.00  0.00     0.693 A 
HETATM    2  N2  UNL     1     -62.469 -41.282  49.949  1.00  0.00    -0.153 N 
ATOM      3  H2  UNL     1     -61.888 -40.602  49.459  1.00  0.00     0.188 HD
HETATM    4  C2  UNL     1     -62.352 -41.595  51.244  1.00  0.00     0.255 A 
HETATM    5  N5  UNL     1     -63.285 -42.519  51.509  1.00  0.00    -0.250 N 
ATOM      6  H5  UNL     1     -63.454 -42.964  52.411  1.00  0.00     0.191 HD
HETATM    7  N6  UNL     1     -63.947 -42.749  50.388  1.00  0.00    -0.129 N 
ATOM      8  H6  UNL     1     -64.717 -43.411  50.296  1.00  0.00     0.205 HD
ENDROOT
BRANCH   4   9
HETATM    9  O1  UNL     1     -61.428 -41.045  52.105  1.00  0.00    -0.296 OA
BRANCH   9  10
HETATM   10  C3  UNL     1     -61.829 -40.488  53.307  1.00  0.00     0.261 C 
HETATM   11  C4  UNL     1     -62.716 -39.250  53.123  1.00  0.00     0.216 C 
HETATM   12  S1  UNL     1     -62.449 -38.515  54.746  1.00  0.00     0.244 S 
HETATM   13  O2  UNL     1     -62.068 -37.088  54.638  1.00  0.00    -0.205 OA
HETATM   14  O3  UNL     1     -63.594 -38.778  55.653  1.00  0.00    -0.205 OA
HETATM   15  N3  UNL     1     -61.094 -39.508  55.239  1.00  0.00    -0.228 N 
HETATM   16  N4  UNL     1     -60.663 -40.035  54.027  1.00  0.00    -0.098 NA
ATOM     17  H3  UNL     1     -60.716 -39.661  56.175  1.00  0.00     0.195 HD
ENDBRANCH   9  10
ENDBRANCH   4   9
BRANCH   1  18
HETATM   18  N1  UNL     1     -63.856 -41.944  48.147  1.00  0.00    -0.233 N 
ATOM     19  H12 UNL     1     -64.745 -41.609  47.776  1.00  0.00     0.174 HD
ATOM     20  H11 UNL     1     -63.333 -42.240  47.324  1.00  0.00     0.174 HD
ENDBRANCH   1  18
TORSDOF 3
ENDMDL
