MODEL 1
REMARK VINA RESULT: -4.674211006      0.000      0.000
REMARK  6 active torsions:
REMARK  status: ('A' for Active; 'I' for Inactive)
REMARK    1  A    between atoms: C2_3  and  N2_4 
REMARK    2  A    between atoms: C6_12  and  C7_13 
REMARK    3  A    between atoms: C7_13  and  N4_14 
REMARK    4  A    between atoms: C7_13  and  C8_18 
REMARK    5  A    between atoms: C8_18  and  N5_19 
REMARK    6  A    between atoms: C8_18  and  O1_23 
ROOT
HETATM    1  C1  UNL     1     -63.928 -42.216  49.330  1.00  0.00     0.175 C 
HETATM    2  N1  UNL     1     -63.384 -42.454  50.677  1.00  0.00    -0.184 N 
HETATM    3  C2  UNL     1     -62.524 -41.656  51.334  1.00  0.00     0.679 A 
HETATM    4  N3  UNL     1     -62.238 -42.192  52.555  1.00  0.00    -0.175 N 
ATOM      5  H3  UNL     1     -61.614 -41.791  53.256  1.00  0.00     0.186 HD
HETATM    6  C3  UNL     1     -62.930 -43.347  52.671  1.00  0.00     0.144 A 
HETATM    7  C4  UNL     1     -63.646 -43.508  51.494  1.00  0.00     0.092 A 
HETATM    8  C5  UNL     1     -64.430 -44.529  51.263  1.00  0.00     0.016 A 
HETATM    9  C6  UNL     1     -64.642 -45.616  52.220  1.00  0.00     0.063 A 
HETATM   10  C9  UNL     1     -63.870 -45.425  53.464  1.00  0.00     0.132 A 
HETATM   11  N6  UNL     1     -63.073 -44.259  53.540  1.00  0.00    -0.373 N 
ATOM     12  H6  UNL     1     -62.544 -44.137  54.403  1.00  0.00     0.161 HD
ENDROOT
BRANCH   9  13
HETATM   13  C7  UNL     1     -64.394 -46.961  51.566  1.00  0.00     0.248 C 
BRANCH  13  14
HETATM   14  N4  UNL     1     -63.172 -47.584  51.960  1.00  0.00    -0.070 N 
ATOM     15  H43 UNL     1     -62.553 -47.698  51.158  1.00  0.00     0.274 HD
ATOM     16  H42 UNL     1     -62.610 -46.945  52.523  1.00  0.00     0.274 HD
ATOM     17  H41 UNL     1     -63.295 -48.472  52.445  1.00  0.00     0.274 HD
ENDBRANCH  13  14
BRANCH  13  18
HETATM   18  C8  UNL     1     -65.596 -47.871  51.747  1.00  0.00     0.347 C 
BRANCH  18  19
HETATM   19  N5  UNL     1     -66.771 -47.144  52.123  1.00  0.00    -0.051 N 
ATOM     20  H53 UNL     1     -66.594 -46.549  52.932  1.00  0.00     0.277 HD
ATOM     21  H52 UNL     1     -66.993 -46.422  51.437  1.00  0.00     0.277 HD
ATOM     22  H51 UNL     1     -67.568 -47.759  52.284  1.00  0.00     0.277 HD
ENDBRANCH  18  19
BRANCH  18  23
HETATM   23  O1  UNL     1     -65.878 -48.543  50.557  1.00  0.00    -0.368 OA
ATOM     24  H1  UNL     1     -66.519 -49.228  50.709  1.00  0.00     0.212 HD
ENDBRANCH  18  23
ENDBRANCH  13  18
ENDBRANCH   9  13
BRANCH   3  25
HETATM   25  N2  UNL     1     -62.057 -40.558  50.856  1.00  0.00    -0.234 N 
ATOM     26  H22 UNL     1     -61.375 -40.469  50.102  1.00  0.00     0.174 HD
ATOM     27  H21 UNL     1     -62.328 -39.632  51.188  1.00  0.00     0.174 HD
ENDBRANCH   3  25
TORSDOF 6
ENDMDL
MODEL 2
REMARK VINA RESULT: -4.664750269      2.788      5.735
REMARK  6 active torsions:
REMARK  status: ('A' for Active; 'I' for Inactive)
REMARK    1  A    between atoms: C2_3  and  N2_4 
REMARK    2  A    between atoms: C6_12  and  C7_13 
REMARK    3  A    between atoms: C7_13  and  N4_14 
REMARK    4  A    between atoms: C7_13  and  C8_18 
REMARK    5  A    between atoms: C8_18  and  N5_19 
REMARK    6  A    between atoms: C8_18  and  O1_23 
ROOT
HETATM    1  C1  UNL     1     -62.622 -47.288  51.901  1.00  0.00     0.175 C 
HETATM    2  N1  UNL     1     -63.921 -46.612  51.758  1.00  0.00    -0.184 N 
HETATM    3  C2  UNL     1     -65.098 -47.207  51.497  1.00  0.00     0.679 A 
HETATM    4  N3  UNL     1     -66.086 -46.270  51.433  1.00  0.00    -0.175 N 
ATOM      5  H3  UNL     1     -67.073 -46.449  51.249  1.00  0.00     0.186 HD
HETATM    6  C3  UNL     1     -65.523 -45.062  51.658  1.00  0.00     0.144 A 
HETATM    7  C4  UNL     1     -64.168 -45.280  51.860  1.00  0.00     0.092 A 
HETATM    8  C5  UNL     1     -63.315 -44.320  52.107  1.00  0.00     0.016 A 
HETATM    9  C6  UNL     1     -63.691 -42.908  52.198  1.00  0.00     0.063 A 
HETATM   10  C9  UNL     1     -65.137 -42.699  51.978  1.00  0.00     0.132 A 
HETATM   11  N6  UNL     1     -65.911 -43.856  51.723  1.00  0.00    -0.373 N 
ATOM     12  H6  UNL     1     -66.907 -43.700  51.573  1.00  0.00     0.161 HD
ENDROOT
BRANCH   9  13
HETATM   13  C7  UNL     1     -62.822 -42.062  51.289  1.00  0.00     0.248 C 
BRANCH  13  14
HETATM   14  N4  UNL     1     -63.430 -41.739  50.038  1.00  0.00    -0.070 N 
ATOM     15  H43 UNL     1     -64.156 -42.418  49.807  1.00  0.00     0.274 HD
ATOM     16  H42 UNL     1     -64.002 -40.898  50.124  1.00  0.00     0.274 HD
ATOM     17  H41 UNL     1     -62.770 -41.645  49.266  1.00  0.00     0.274 HD
ENDBRANCH  13  14
BRANCH  13  18
HETATM   18  C8  UNL     1     -62.318 -40.834  52.025  1.00  0.00     0.347 C 
BRANCH  18  19
HETATM   19  N5  UNL     1     -61.285 -41.154  52.963  1.00  0.00    -0.051 N 
ATOM     20  H53 UNL     1     -61.277 -42.151  53.178  1.00  0.00     0.277 HD
ATOM     21  H52 UNL     1     -60.362 -41.074  52.537  1.00  0.00     0.277 HD
ATOM     22  H51 UNL     1     -61.350 -40.594  53.812  1.00  0.00     0.277 HD
ENDBRANCH  18  19
BRANCH  18  23
HETATM   23  O1  UNL     1     -61.796 -39.908  51.121  1.00  0.00    -0.368 OA
ATOM     24  H1  UNL     1     -61.116 -39.391  51.536  1.00  0.00     0.212 HD
ENDBRANCH  18  23
ENDBRANCH  13  18
ENDBRANCH   9  13
BRANCH   3  25
HETATM   25  N2  UNL     1     -65.239 -48.475  51.336  1.00  0.00    -0.234 N 
ATOM     26  H22 UNL     1     -64.606 -49.202  51.672  1.00  0.00     0.174 HD
ATOM     27  H21 UNL     1     -66.022 -48.902  50.840  1.00  0.00     0.174 HD
ENDBRANCH   3  25
TORSDOF 6
ENDMDL
MODEL 3
REMARK VINA RESULT: -4.377877003      1.779      3.285
REMARK  6 active torsions:
REMARK  status: ('A' for Active; 'I' for Inactive)
REMARK    1  A    between atoms: C2_3  and  N2_4 
REMARK    2  A    between atoms: C6_12  and  C7_13 
REMARK    3  A    between atoms: C7_13  and  N4_14 
REMARK    4  A    between atoms: C7_13  and  C8_18 
REMARK    5  A    between atoms: C8_18  and  N5_19 
REMARK    6  A    between atoms: C8_18  and  O1_23 
ROOT
HETATM    1  C1  UNL     1     -61.933 -41.075  54.787  1.00  0.00     0.175 C 
HETATM    2  N1  UNL     1     -62.189 -40.834  53.358  1.00  0.00    -0.184 N 
HETATM    3  C2  UNL     1     -62.052 -39.660  52.718  1.00  0.00     0.679 A 
HETATM    4  N3  UNL     1     -62.377 -39.811  51.402  1.00  0.00    -0.175 N 
ATOM      5  H3  UNL     1     -62.360 -39.079  50.691  1.00  0.00     0.186 HD
HETATM    6  C3  UNL     1     -62.725 -41.102  51.209  1.00  0.00     0.144 A 
HETATM    7  C4  UNL     1     -62.607 -41.739  52.435  1.00  0.00     0.092 A 
HETATM    8  C5  UNL     1     -62.868 -43.009  52.614  1.00  0.00     0.016 A 
HETATM    9  C6  UNL     1     -63.314 -43.900  51.542  1.00  0.00     0.063 A 
HETATM   10  C9  UNL     1     -63.434 -43.200  50.246  1.00  0.00     0.132 A 
HETATM   11  N6  UNL     1     -63.110 -41.824  50.239  1.00  0.00    -0.373 N 
ATOM     12  H6  UNL     1     -63.196 -41.351  49.340  1.00  0.00     0.161 HD
ENDROOT
BRANCH   9  13
HETATM   13  C7  UNL     1     -64.580 -44.630  51.944  1.00  0.00     0.248 C 
BRANCH  13  14
HETATM   14  N4  UNL     1     -65.775 -43.874  51.749  1.00  0.00    -0.070 N 
ATOM     15  H43 UNL     1     -65.979 -43.779  50.754  1.00  0.00     0.274 HD
ATOM     16  H42 UNL     1     -66.591 -44.412  52.042  1.00  0.00     0.274 HD
ATOM     17  H41 UNL     1     -65.768 -42.960  52.201  1.00  0.00     0.274 HD
ENDBRANCH  13  14
BRANCH  13  18
HETATM   18  C8  UNL     1     -64.640 -45.996  51.282  1.00  0.00     0.347 C 
BRANCH  18  19
HETATM   19  N5  UNL     1     -63.482 -46.786  51.570  1.00  0.00    -0.051 N 
ATOM     20  H53 UNL     1     -62.764 -46.663  50.857  1.00  0.00     0.277 HD
ATOM     21  H52 UNL     1     -62.974 -46.418  52.375  1.00  0.00     0.277 HD
ATOM     22  H51 UNL     1     -63.711 -47.771  51.697  1.00  0.00     0.277 HD
ENDBRANCH  18  19
BRANCH  18  23
HETATM   23  O1  UNL     1     -65.756 -46.702  51.732  1.00  0.00    -0.368 OA
ATOM     24  H1  UNL     1     -66.016 -46.392  52.592  1.00  0.00     0.212 HD
ENDBRANCH  18  23
ENDBRANCH  13  18
ENDBRANCH   9  13
BRANCH   3  25
HETATM   25  N2  UNL     1     -61.669 -38.573  53.289  1.00  0.00    -0.234 N 
ATOM     26  H22 UNL     1     -60.855 -38.462  53.895  1.00  0.00     0.174 HD
ATOM     27  H21 UNL     1     -62.152 -37.680  53.192  1.00  0.00     0.174 HD
ENDBRANCH   3  25
TORSDOF 6
ENDMDL
MODEL 4
REMARK VINA RESULT: -4.346752158      2.870      5.514
REMARK  6 active torsions:
REMARK  status: ('A' for Active; 'I' for Inactive)
REMARK    1  A    between atoms: C2_3  and  N2_4 
REMARK    2  A    between atoms: C6_12  and  C7_13 
REMARK    3  A    between atoms: C7_13  and  N4_14 
REMARK    4  A    between atoms: C7_13  and  C8_18 
REMARK    5  A    between atoms: C8_18  and  N5_19 
REMARK    6  A    between atoms: C8_18  and  O1_23 
ROOT
HETATM    1  C1  UNL     1     -68.440 -43.578  52.320  1.00  0.00     0.175 C 
HETATM    2  N1  UNL     1     -67.468 -44.682  52.270  1.00  0.00    -0.184 N 
HETATM    3  C2  UNL     1     -67.716 -45.967  52.575  1.00  0.00     0.679 A 
HETATM    4  N3  UNL     1     -66.582 -46.708  52.415  1.00  0.00    -0.175 N 
ATOM      5  H3  UNL     1     -66.491 -47.710  52.578  1.00  0.00     0.186 HD
HETATM    6  C3  UNL     1     -65.601 -45.875  52.002  1.00  0.00     0.144 A 
HETATM    7  C4  UNL     1     -66.159 -44.608  51.913  1.00  0.00     0.092 A 
HETATM    8  C5  UNL     1     -65.486 -43.550  51.539  1.00  0.00     0.016 A 
HETATM    9  C6  UNL     1     -64.069 -43.583  51.172  1.00  0.00     0.063 A 
HETATM   10  C9  UNL     1     -63.496 -44.941  51.276  1.00  0.00     0.132 A 
HETATM   11  N6  UNL     1     -64.373 -45.967  51.697  1.00  0.00    -0.373 N 
ATOM     12  H6  UNL     1     -63.967 -46.899  51.765  1.00  0.00     0.161 HD
ENDROOT
BRANCH   9  13
HETATM   13  C7  UNL     1     -63.289 -42.546  51.955  1.00  0.00     0.248 C 
BRANCH  13  14
HETATM   14  N4  UNL     1     -62.360 -43.098  52.887  1.00  0.00    -0.070 N 
ATOM     15  H43 UNL     1     -61.615 -43.595  52.399  1.00  0.00     0.274 HD
ATOM     16  H42 UNL     1     -61.814 -42.358  53.330  1.00  0.00     0.274 HD
ATOM     17  H41 UNL     1     -62.786 -43.698  53.593  1.00  0.00     0.274 HD
ENDBRANCH  13  14
BRANCH  13  18
HETATM   18  C8  UNL     1     -62.643 -41.544  51.014  1.00  0.00     0.347 C 
BRANCH  18  19
HETATM   19  N5  UNL     1     -62.874 -41.869  49.639  1.00  0.00    -0.051 N 
ATOM     20  H53 UNL     1     -63.071 -42.863  49.523  1.00  0.00     0.277 HD
ATOM     21  H52 UNL     1     -63.762 -41.489  49.313  1.00  0.00     0.277 HD
ATOM     22  H51 UNL     1     -62.103 -41.574  49.041  1.00  0.00     0.277 HD
ENDBRANCH  18  19
BRANCH  18  23
HETATM   23  O1  UNL     1     -63.161 -40.268  51.238  1.00  0.00    -0.368 OA
ATOM     24  H1  UNL     1     -64.000 -40.326  51.681  1.00  0.00     0.212 HD
ENDBRANCH  18  23
ENDBRANCH  13  18
ENDBRANCH   9  13
BRANCH   3  25
HETATM   25  N2  UNL     1     -68.863 -46.405  52.958  1.00  0.00    -0.234 N 
ATOM     26  H22 UNL     1     -69.658 -45.837  53.256  1.00  0.00     0.174 HD
ATOM     27  H21 UNL     1     -69.108 -47.394  53.005  1.00  0.00     0.174 HD
ENDBRANCH   3  25
TORSDOF 6
ENDMDL
MODEL 5
REMARK VINA RESULT: -4.345628766      3.095      5.957
REMARK  6 active torsions:
REMARK  status: ('A' for Active; 'I' for Inactive)
REMARK    1  A    between atoms: C2_3  and  N2_4 
REMARK    2  A    between atoms: C6_12  and  C7_13 
REMARK    3  A    between atoms: C7_13  and  N4_14 
REMARK    4  A    between atoms: C7_13  and  C8_18 
REMARK    5  A    between atoms: C8_18  and  N5_19 
REMARK    6  A    between atoms: C8_18  and  O1_23 
ROOT
HETATM    1  C1  UNL     1     -61.554 -46.108  53.371  1.00  0.00     0.175 C 
HETATM    2  N1  UNL     1     -62.768 -45.722  52.633  1.00  0.00    -0.184 N 
HETATM    3  C2  UNL     1     -63.633 -46.563  52.040  1.00  0.00     0.679 A 
HETATM    4  N3  UNL     1     -64.637 -45.853  51.451  1.00  0.00    -0.175 N 
ATOM      5  H3  UNL     1     -65.425 -46.243  50.933  1.00  0.00     0.186 HD
HETATM    6  C3  UNL     1     -64.402 -44.542  51.676  1.00  0.00     0.144 A 
HETATM    7  C4  UNL     1     -63.231 -44.463  52.416  1.00  0.00     0.092 A 
HETATM    8  C5  UNL     1     -62.706 -43.333  52.813  1.00  0.00     0.016 A 
HETATM    9  C6  UNL     1     -63.292 -42.024  52.522  1.00  0.00     0.063 A 
HETATM   10  C9  UNL     1     -64.537 -42.131  51.733  1.00  0.00     0.132 A 
HETATM   11  N6  UNL     1     -64.957 -43.438  51.392  1.00  0.00    -0.373 N 
ATOM     12  H6  UNL     1     -65.817 -43.500  50.848  1.00  0.00     0.161 HD
ENDROOT
BRANCH   9  13
HETATM   13  C7  UNL     1     -62.265 -41.104  51.893  1.00  0.00     0.248 C 
BRANCH  13  14
HETATM   14  N4  UNL     1     -62.326 -41.052  50.468  1.00  0.00    -0.070 N 
ATOM     15  H43 UNL     1     -63.262 -40.788  50.159  1.00  0.00     0.274 HD
ATOM     16  H42 UNL     1     -61.797 -40.255  50.115  1.00  0.00     0.274 HD
ATOM     17  H41 UNL     1     -62.028 -41.912  50.006  1.00  0.00     0.274 HD
ENDBRANCH  13  14
BRANCH  13  18
HETATM   18  C8  UNL     1     -62.324 -39.726  52.528  1.00  0.00     0.347 C 
BRANCH  18  19
HETATM   19  N5  UNL     1     -61.501 -39.637  53.696  1.00  0.00    -0.051 N 
ATOM     20  H53 UNL     1     -61.974 -40.025  54.512  1.00  0.00     0.277 HD
ATOM     21  H52 UNL     1     -60.713 -40.282  53.643  1.00  0.00     0.277 HD
ATOM     22  H51 UNL     1     -61.187 -38.683  53.872  1.00  0.00     0.277 HD
ENDBRANCH  18  19
BRANCH  18  23
HETATM   23  O1  UNL     1     -61.882 -38.759  51.625  1.00  0.00    -0.368 OA
ATOM     24  H1  UNL     1     -61.386 -38.087  52.079  1.00  0.00     0.212 HD
ENDBRANCH  18  23
ENDBRANCH  13  18
ENDBRANCH   9  13
BRANCH   3  25
HETATM   25  N2  UNL     1     -63.505 -47.843  52.044  1.00  0.00    -0.234 N 
ATOM     26  H22 UNL     1     -63.199 -48.418  52.830  1.00  0.00     0.174 HD
ATOM     27  H21 UNL     1     -63.705 -48.437  51.239  1.00  0.00     0.174 HD
ENDBRANCH   3  25
TORSDOF 6
ENDMDL
