MODEL 1
REMARK VINA RESULT: -5.493260084      0.000      0.000
REMARK  3 active torsions:
REMARK  status: ('A' for Active; 'I' for Inactive)
REMARK    1  A    between atoms: N1_1  and  C1_4 
REMARK    2  A    between atoms: C2_7  and  C3_8 
REMARK    3  A    between atoms: N3_9  and  N4_11 
ROOT
HETATM    1  C1  UNL     1     -63.431 -43.991  51.369  1.00  0.00     0.680 C 
HETATM    2  N2  UNL     1     -63.042 -43.266  52.453  1.00  0.00    -0.185 N 
ATOM      3  H2  UNL     1     -63.127 -43.714  53.366  1.00  0.00     0.184 HD
HETATM    4  C2  UNL     1     -62.557 -42.020  52.429  1.00  0.00     0.134 C 
HETATM    5  C5  UNL     1     -62.313 -41.198  51.356  1.00  0.00     0.278 C 
HETATM    6  O1  UNL     1     -61.630 -40.149  51.569  1.00  0.00    -0.265 OA
HETATM    7  N7  UNL     1     -62.694 -41.330  50.060  1.00  0.00    -0.273 N 
ATOM      8  H7  UNL     1     -62.361 -40.634  49.392  1.00  0.00     0.173 HD
HETATM    9  C6  UNL     1     -63.487 -42.324  49.594  1.00  0.00     0.341 C 
HETATM   10  O2  UNL     1     -64.071 -42.043  48.501  1.00  0.00    -0.246 OA
HETATM   11  N8  UNL     1     -63.724 -43.534  50.132  1.00  0.00    -0.141 N 
ATOM     12  H8  UNL     1     -64.191 -44.201  49.519  1.00  0.00     0.189 HD
ENDROOT
BRANCH   4  13
HETATM   13  C3  UNL     1     -62.244 -41.448  53.718  1.00  0.00     0.143 C 
HETATM   14  N3  UNL     1     -61.036 -41.505  54.157  1.00  0.00    -0.307 N 
ATOM     15  H3  UNL     1     -60.335 -41.958  53.571  1.00  0.00     0.186 HD
BRANCH  14  16
HETATM   16  N4  UNL     1     -60.628 -40.990  55.377  1.00  0.00    -0.276 N 
HETATM   17  C4  UNL     1     -59.570 -40.248  55.412  1.00  0.00     0.215 C 
HETATM   18  N5  UNL     1     -59.182 -39.736  56.676  1.00  0.00    -0.065 NA
HETATM   19  N6  UNL     1     -58.827 -39.955  54.242  1.00  0.00    -0.065 NA
ATOM     20  H4  UNL     1     -61.151 -41.191  56.230  1.00  0.00     0.189 HD
ENDBRANCH  14  16
ENDBRANCH   4  13
BRANCH   1  21
HETATM   21  N1  UNL     1     -63.542 -45.248  51.506  1.00  0.00    -0.234 N 
ATOM     22  H12 UNL     1     -63.975 -45.542  52.382  1.00  0.00     0.174 HD
ATOM     23  H11 UNL     1     -63.198 -45.841  50.751  1.00  0.00     0.174 HD
ENDBRANCH   1  21
TORSDOF 3
ENDMDL
MODEL 2
REMARK VINA RESULT: -5.356876351      2.736      5.761
REMARK  3 active torsions:
REMARK  status: ('A' for Active; 'I' for Inactive)
REMARK    1  A    between atoms: N1_1  and  C1_4 
REMARK    2  A    between atoms: C2_7  and  C3_8 
REMARK    3  A    between atoms: N3_9  and  N4_11 
ROOT
HETATM    1  C1  UNL     1     -63.116 -42.225  49.654  1.00  0.00     0.680 C 
HETATM    2  N2  UNL     1     -63.662 -43.370  50.146  1.00  0.00    -0.185 N 
ATOM      3  H2  UNL     1     -64.250 -43.913  49.512  1.00  0.00     0.184 HD
HETATM    4  C2  UNL     1     -63.499 -43.847  51.384  1.00  0.00     0.134 C 
HETATM    5  C5  UNL     1     -62.752 -43.346  52.422  1.00  0.00     0.278 C 
HETATM    6  O1  UNL     1     -62.566 -44.103  53.424  1.00  0.00    -0.265 OA
HETATM    7  N7  UNL     1     -62.159 -42.132  52.555  1.00  0.00    -0.273 N 
ATOM      8  H7  UNL     1     -61.593 -41.967  53.387  1.00  0.00     0.173 HD
HETATM    9  C6  UNL     1     -62.270 -41.125  51.655  1.00  0.00     0.341 C 
HETATM   10  O2  UNL     1     -62.029 -39.976  52.142  1.00  0.00    -0.246 OA
HETATM   11  N8  UNL     1     -62.595 -41.193  50.352  1.00  0.00    -0.141 N 
ATOM     12  H8  UNL     1     -62.424 -40.343  49.815  1.00  0.00     0.189 HD
ENDROOT
BRANCH   4  13
HETATM   13  C3  UNL     1     -64.211 -45.069  51.680  1.00  0.00     0.143 C 
HETATM   14  N3  UNL     1     -63.636 -46.201  51.471  1.00  0.00    -0.307 N 
ATOM     15  H3  UNL     1     -62.686 -46.193  51.100  1.00  0.00     0.186 HD
BRANCH  14  16
HETATM   16  N4  UNL     1     -64.227 -47.429  51.720  1.00  0.00    -0.276 N 
HETATM   17  C4  UNL     1     -63.696 -48.201  52.610  1.00  0.00     0.215 C 
HETATM   18  N5  UNL     1     -64.327 -49.451  52.840  1.00  0.00    -0.065 NA
HETATM   19  N6  UNL     1     -62.535 -47.823  53.328  1.00  0.00    -0.065 NA
ATOM     20  H4  UNL     1     -65.064 -47.718  51.212  1.00  0.00     0.189 HD
ENDBRANCH  14  16
ENDBRANCH   4  13
BRANCH   1  21
HETATM   21  N1  UNL     1     -63.077 -42.081  48.393  1.00  0.00    -0.234 N 
ATOM     22  H12 UNL     1     -63.990 -42.088  47.938  1.00  0.00     0.174 HD
ATOM     23  H11 UNL     1     -62.162 -41.973  47.955  1.00  0.00     0.174 HD
ENDBRANCH   1  21
TORSDOF 3
ENDMDL
MODEL 3
REMARK VINA RESULT: -5.262429590      2.959      4.041
REMARK  3 active torsions:
REMARK  status: ('A' for Active; 'I' for Inactive)
REMARK    1  A    between atoms: N1_1  and  C1_4 
REMARK    2  A    between atoms: C2_7  and  C3_8 
REMARK    3  A    between atoms: N3_9  and  N4_11 
ROOT
HETATM    1  C1  UNL     1     -62.444 -41.067  51.372  1.00  0.00     0.680 C 
HETATM    2  N2  UNL     1     -62.292 -41.958  52.389  1.00  0.00    -0.185 N 
ATOM      3  H2  UNL     1     -61.806 -41.631  53.224  1.00  0.00     0.184 HD
HETATM    4  C2  UNL     1     -62.722 -43.224  52.391  1.00  0.00     0.134 C 
HETATM    5  C5  UNL     1     -63.419 -43.912  51.428  1.00  0.00     0.278 C 
HETATM    6  O1  UNL     1     -63.920 -45.030  51.759  1.00  0.00    -0.265 OA
HETATM    7  N7  UNL     1     -63.669 -43.579  50.136  1.00  0.00    -0.273 N 
ATOM      8  H7  UNL     1     -64.261 -44.203  49.589  1.00  0.00     0.173 HD
HETATM    9  C6  UNL     1     -63.183 -42.472  49.525  1.00  0.00     0.341 C 
HETATM   10  O2  UNL     1     -63.156 -42.558  48.257  1.00  0.00    -0.246 OA
HETATM   11  N8  UNL     1     -62.740 -41.330  50.081  1.00  0.00    -0.141 N 
ATOM     12  H8  UNL     1     -62.608 -40.552  49.434  1.00  0.00     0.189 HD
ENDROOT
BRANCH   4  13
HETATM   13  C3  UNL     1     -62.411 -43.986  53.579  1.00  0.00     0.143 C 
HETATM   14  N3  UNL     1     -61.545 -44.934  53.512  1.00  0.00    -0.307 N 
ATOM     15  H3  UNL     1     -61.104 -45.116  52.610  1.00  0.00     0.186 HD
BRANCH  14  16
HETATM   16  N4  UNL     1     -61.174 -45.725  54.588  1.00  0.00    -0.276 N 
HETATM   17  C4  UNL     1     -59.958 -46.158  54.645  1.00  0.00     0.215 C 
HETATM   18  N5  UNL     1     -59.612 -46.964  55.761  1.00  0.00    -0.065 NA
HETATM   19  N6  UNL     1     -59.007 -45.847  53.643  1.00  0.00    -0.065 NA
ATOM     20  H4  UNL     1     -61.847 -45.960  55.319  1.00  0.00     0.189 HD
ENDBRANCH  14  16
ENDBRANCH   4  13
BRANCH   1  21
HETATM   21  N1  UNL     1     -62.295 -39.834  51.637  1.00  0.00    -0.234 N 
ATOM     22  H12 UNL     1     -62.650 -39.552  52.551  1.00  0.00     0.174 HD
ATOM     23  H11 UNL     1     -61.847 -39.246  50.934  1.00  0.00     0.174 HD
ENDBRANCH   1  21
TORSDOF 3
ENDMDL
MODEL 4
REMARK VINA RESULT: -5.226135865      2.807      6.166
REMARK  3 active torsions:
REMARK  status: ('A' for Active; 'I' for Inactive)
REMARK    1  A    between atoms: N1_1  and  C1_4 
REMARK    2  A    between atoms: C2_7  and  C3_8 
REMARK    3  A    between atoms: N3_9  and  N4_11 
ROOT
HETATM    1  C1  UNL     1     -63.136 -42.183  49.591  1.00  0.00     0.680 C 
HETATM    2  N2  UNL     1     -63.782 -43.264  50.105  1.00  0.00    -0.185 N 
ATOM      3  H2  UNL     1     -64.412 -43.769  49.480  1.00  0.00     0.184 HD
HETATM    4  C2  UNL     1     -63.666 -43.726  51.354  1.00  0.00     0.134 C 
HETATM    5  C5  UNL     1     -62.881 -43.268  52.385  1.00  0.00     0.278 C 
HETATM    6  O1  UNL     1     -62.765 -44.015  53.405  1.00  0.00    -0.265 OA
HETATM    7  N7  UNL     1     -62.186 -42.108  52.494  1.00  0.00    -0.273 N 
ATOM      8  H7  UNL     1     -61.610 -41.974  53.326  1.00  0.00     0.173 HD
HETATM    9  C6  UNL     1     -62.205 -41.116  51.572  1.00  0.00     0.341 C 
HETATM   10  O2  UNL     1     -61.867 -39.981  52.035  1.00  0.00    -0.246 OA
HETATM   11  N8  UNL     1     -62.530 -41.184  50.269  1.00  0.00    -0.141 N 
ATOM     12  H8  UNL     1     -62.284 -40.365  49.714  1.00  0.00     0.189 HD
ENDROOT
BRANCH   4  13
HETATM   13  C3  UNL     1     -64.482 -44.874  51.674  1.00  0.00     0.143 C 
HETATM   14  N3  UNL     1     -65.644 -44.697  52.195  1.00  0.00    -0.307 N 
ATOM     15  H3  UNL     1     -65.950 -43.739  52.367  1.00  0.00     0.186 HD
BRANCH  14  16
HETATM   16  N4  UNL     1     -66.506 -45.727  52.540  1.00  0.00    -0.276 N 
HETATM   17  C4  UNL     1     -67.712 -45.703  52.076  1.00  0.00     0.215 C 
HETATM   18  N5  UNL     1     -68.567 -46.773  52.447  1.00  0.00    -0.065 NA
HETATM   19  N6  UNL     1     -68.167 -44.659  51.234  1.00  0.00    -0.065 NA
ATOM     20  H4  UNL     1     -66.195 -46.487  53.145  1.00  0.00     0.189 HD
ENDBRANCH  14  16
ENDBRANCH   4  13
BRANCH   1  21
HETATM   21  N1  UNL     1     -63.080 -42.071  48.327  1.00  0.00    -0.234 N 
ATOM     22  H12 UNL     1     -63.388 -42.898  47.815  1.00  0.00     0.174 HD
ATOM     23  H11 UNL     1     -62.740 -41.190  47.942  1.00  0.00     0.174 HD
ENDBRANCH   1  21
TORSDOF 3
ENDMDL
MODEL 5
REMARK VINA RESULT: -5.158065825      1.747      2.486
REMARK  3 active torsions:
REMARK  status: ('A' for Active; 'I' for Inactive)
REMARK    1  A    between atoms: N1_1  and  C1_4 
REMARK    2  A    between atoms: C2_7  and  C3_8 
REMARK    3  A    between atoms: N3_9  and  N4_11 
ROOT
HETATM    1  C1  UNL     1     -63.075 -42.233  49.914  1.00  0.00     0.680 C 
HETATM    2  N2  UNL     1     -62.465 -41.429  50.827  1.00  0.00    -0.185 N 
ATOM      3  H2  UNL     1     -61.862 -40.690  50.464  1.00  0.00     0.184 HD
HETATM    4  C2  UNL     1     -62.585 -41.519  52.155  1.00  0.00     0.134 C 
HETATM    5  C5  UNL     1     -63.340 -42.387  52.907  1.00  0.00     0.278 C 
HETATM    6  O1  UNL     1     -63.473 -42.123  54.142  1.00  0.00    -0.265 OA
HETATM    7  N7  UNL     1     -63.990 -43.518  52.531  1.00  0.00    -0.273 N 
ATOM      8  H7  UNL     1     -64.552 -44.000  53.234  1.00  0.00     0.173 HD
HETATM    9  C6  UNL     1     -63.943 -44.048  51.286  1.00  0.00     0.341 C 
HETATM   10  O2  UNL     1     -64.233 -45.285  51.246  1.00  0.00    -0.246 OA
HETATM   11  N8  UNL     1     -63.635 -43.443  50.125  1.00  0.00    -0.141 N 
ATOM     12  H8  UNL     1     -63.857 -43.975  49.283  1.00  0.00     0.189 HD
ENDROOT
BRANCH   4  13
HETATM   13  C3  UNL     1     -61.810 -40.568  52.918  1.00  0.00     0.143 C 
HETATM   14  N3  UNL     1     -60.818 -40.984  53.623  1.00  0.00    -0.307 N 
ATOM     15  H3  UNL     1     -60.613 -41.984  53.618  1.00  0.00     0.186 HD
BRANCH  14  16
HETATM   16  N4  UNL     1     -60.011 -40.159  54.390  1.00  0.00    -0.276 N 
HETATM   17  C4  UNL     1     -58.909 -40.641  54.864  1.00  0.00     0.215 C 
HETATM   18  N5  UNL     1     -58.106 -39.769  55.644  1.00  0.00    -0.065 NA
HETATM   19  N6  UNL     1     -58.514 -41.979  54.620  1.00  0.00    -0.065 NA
ATOM     20  H4  UNL     1     -60.280 -39.193  54.577  1.00  0.00     0.189 HD
ENDBRANCH  14  16
ENDBRANCH   4  13
BRANCH   1  21
HETATM   21  N1  UNL     1     -63.141 -41.824  48.714  1.00  0.00    -0.234 N 
ATOM     22  H12 UNL     1     -62.612 -42.385  48.046  1.00  0.00     0.174 HD
ATOM     23  H11 UNL     1     -63.701 -40.992  48.525  1.00  0.00     0.174 HD
ENDBRANCH   1  21
TORSDOF 3
ENDMDL
