MODEL 1
REMARK VINA RESULT: -6.285721034      0.000      0.000
REMARK  4 active torsions:
REMARK  status: ('A' for Active; 'I' for Inactive)
REMARK    1  A    between atoms: C2_2  and  C3_3 
REMARK    2  A    between atoms: C2_2  and  N2_10 
REMARK    3  A    between atoms: C3_3  and  N1_4 
REMARK    4  A    between atoms: C8_12  and  C9_13 
ROOT
HETATM    1  N2  UNL     1      -3.527   3.381  13.721  1.00  0.00    -0.392 N 
ATOM      2  H2  UNL     1      -2.559   3.087  13.851  1.00  0.00     0.159 HD
HETATM    3  C8  UNL     1      -4.083   3.126  12.619  1.00  0.00     0.089 C 
ENDROOT
BRANCH   1   4
HETATM    4  C2  UNL     1      -4.184   4.065  14.811  1.00  0.00     0.115 C 
HETATM    5  C1  UNL     1      -3.979   5.533  14.764  1.00  0.00     0.038 C 
BRANCH   4   6
HETATM    6  C3  UNL     1      -5.606   3.673  14.955  1.00  0.00     0.083 C 
BRANCH   6   7
HETATM    7  N1  UNL     1      -5.832   2.683  15.910  1.00  0.00    -0.387 N 
HETATM    8  C4  UNL     1      -6.835   2.731  16.876  1.00  0.00     0.148 C 
HETATM    9  C5  UNL     1      -7.608   1.394  16.790  1.00  0.00     0.187 C 
HETATM   10  O1  UNL     1      -6.804   0.310  17.036  1.00  0.00    -0.388 OA
HETATM   11  C6  UNL     1      -5.452   0.584  16.933  1.00  0.00     0.187 C 
HETATM   12  C7  UNL     1      -5.125   1.476  15.729  1.00  0.00     0.148 C 
ENDBRANCH   6   7
ENDBRANCH   4   6
ENDBRANCH   1   4
BRANCH   3  13
HETATM   13  C9  UNL     1      -3.381   2.433  11.545  1.00  0.00     0.223 C 
HETATM   14  C10 UNL     1      -3.638   0.934  11.486  1.00  0.00     0.040 C 
HETATM   15  C11 UNL     1      -2.543   0.521  10.494  1.00  0.00     0.030 C 
HETATM   16  C12 UNL     1      -1.390   1.382  10.971  1.00  0.00     0.233 C 
HETATM   17  N3  UNL     1      -1.942   2.446  11.768  1.00  0.00    -0.066 N 
ATOM     18  H32 UNL     1      -1.514   3.353  11.581  1.00  0.00     0.278 HD
ATOM     19  H31 UNL     1      -1.688   2.385  12.754  1.00  0.00     0.278 HD
ENDBRANCH   3  13
TORSDOF 4
ENDMDL
MODEL 2
REMARK VINA RESULT: -6.120526007      1.019      1.332
REMARK  4 active torsions:
REMARK  status: ('A' for Active; 'I' for Inactive)
REMARK    1  A    between atoms: C2_2  and  C3_3 
REMARK    2  A    between atoms: C2_2  and  N2_10 
REMARK    3  A    between atoms: C3_3  and  N1_4 
REMARK    4  A    between atoms: C8_12  and  C9_13 
ROOT
HETATM    1  N2  UNL     1      -3.227   3.576  13.859  1.00  0.00    -0.392 N 
ATOM      2  H2  UNL     1      -2.883   2.627  14.005  1.00  0.00     0.159 HD
HETATM    3  C8  UNL     1      -2.821   4.206  12.846  1.00  0.00     0.089 C 
ENDROOT
BRANCH   1   4
HETATM    4  C2  UNL     1      -4.151   4.123  14.825  1.00  0.00     0.115 C 
HETATM    5  C1  UNL     1      -4.190   5.605  14.798  1.00  0.00     0.038 C 
BRANCH   4   6
HETATM    6  C3  UNL     1      -5.493   3.497  14.747  1.00  0.00     0.083 C 
BRANCH   6   7
HETATM    7  N1  UNL     1      -5.758   2.582  15.764  1.00  0.00    -0.387 N 
HETATM    8  C4  UNL     1      -6.745   2.742  16.734  1.00  0.00     0.148 C 
HETATM    9  C5  UNL     1      -7.587   1.445  16.739  1.00  0.00     0.187 C 
HETATM   10  O1  UNL     1      -6.837   0.338  17.046  1.00  0.00    -0.388 OA
HETATM   11  C6  UNL     1      -5.474   0.533  16.912  1.00  0.00     0.187 C 
HETATM   12  C7  UNL     1      -5.117   1.331  15.652  1.00  0.00     0.148 C 
ENDBRANCH   6   7
ENDBRANCH   4   6
ENDBRANCH   1   4
BRANCH   3  13
HETATM   13  C9  UNL     1      -1.885   3.615  11.895  1.00  0.00     0.223 C 
HETATM   14  C10 UNL     1      -2.138   3.991  10.443  1.00  0.00     0.040 C 
HETATM   15  C11 UNL     1      -1.214   2.982   9.748  1.00  0.00     0.030 C 
HETATM   16  C12 UNL     1      -1.470   1.743  10.584  1.00  0.00     0.233 C 
HETATM   17  N3  UNL     1      -2.054   2.170  11.828  1.00  0.00    -0.066 N 
ATOM     18  H32 UNL     1      -1.675   1.682  12.640  1.00  0.00     0.278 HD
ATOM     19  H31 UNL     1      -3.023   1.873  11.941  1.00  0.00     0.278 HD
ENDBRANCH   3  13
TORSDOF 4
ENDMDL
MODEL 3
REMARK VINA RESULT: -6.043317906      1.045      1.182
REMARK  4 active torsions:
REMARK  status: ('A' for Active; 'I' for Inactive)
REMARK    1  A    between atoms: C2_2  and  C3_3 
REMARK    2  A    between atoms: C2_2  and  N2_10 
REMARK    3  A    between atoms: C3_3  and  N1_4 
REMARK    4  A    between atoms: C8_12  and  C9_13 
ROOT
HETATM    1  N2  UNL     1      -3.723   2.384  13.799  1.00  0.00    -0.392 N 
ATOM      2  H2  UNL     1      -2.920   1.756  13.786  1.00  0.00     0.159 HD
HETATM    3  C8  UNL     1      -4.591   2.260  12.894  1.00  0.00     0.089 C 
ENDROOT
BRANCH   1   4
HETATM    4  C2  UNL     1      -3.802   3.368  14.855  1.00  0.00     0.115 C 
HETATM    5  C1  UNL     1      -3.041   4.601  14.539  1.00  0.00     0.038 C 
BRANCH   4   6
HETATM    6  C3  UNL     1      -5.196   3.630  15.286  1.00  0.00     0.083 C 
BRANCH   6   7
HETATM    7  N1  UNL     1      -5.688   2.718  16.219  1.00  0.00    -0.387 N 
HETATM    8  C4  UNL     1      -6.972   2.751  16.757  1.00  0.00     0.148 C 
HETATM    9  C5  UNL     1      -7.574   1.338  16.575  1.00  0.00     0.187 C 
HETATM   10  O1  UNL     1      -6.845   0.374  17.223  1.00  0.00    -0.388 OA
HETATM   11  C6  UNL     1      -5.567   0.777  17.567  1.00  0.00     0.187 C 
HETATM   12  C7  UNL     1      -4.887   1.580  16.451  1.00  0.00     0.148 C 
ENDBRANCH   6   7
ENDBRANCH   4   6
ENDBRANCH   1   4
BRANCH   3  13
HETATM   13  C9  UNL     1      -4.471   1.252  11.846  1.00  0.00     0.223 C 
HETATM   14  C10 UNL     1      -4.208  -0.159  12.352  1.00  0.00     0.040 C 
HETATM   15  C11 UNL     1      -3.839  -0.845  11.031  1.00  0.00     0.030 C 
HETATM   16  C12 UNL     1      -2.983   0.227  10.385  1.00  0.00     0.233 C 
HETATM   17  N3  UNL     1      -3.274   1.473  11.045  1.00  0.00    -0.066 N 
ATOM     18  H32 UNL     1      -3.360   2.260  10.402  1.00  0.00     0.278 HD
ATOM     19  H31 UNL     1      -2.490   1.835  11.587  1.00  0.00     0.278 HD
ENDBRANCH   3  13
TORSDOF 4
ENDMDL
MODEL 4
REMARK VINA RESULT: -6.014019911      2.750      6.257
REMARK  4 active torsions:
REMARK  status: ('A' for Active; 'I' for Inactive)
REMARK    1  A    between atoms: C2_2  and  C3_3 
REMARK    2  A    between atoms: C2_2  and  N2_10 
REMARK    3  A    between atoms: C3_3  and  N1_4 
REMARK    4  A    between atoms: C8_12  and  C9_13 
ROOT
HETATM    1  N2  UNL     1      -4.468   1.110  13.735  1.00  0.00    -0.392 N 
ATOM      2  H2  UNL     1      -5.229   0.508  14.048  1.00  0.00     0.159 HD
HETATM    3  C8  UNL     1      -4.112   2.057  14.484  1.00  0.00     0.089 C 
ENDROOT
BRANCH   1   4
HETATM    4  C2  UNL     1      -3.858   0.827  12.456  1.00  0.00     0.115 C 
HETATM    5  C1  UNL     1      -4.245  -0.502  11.923  1.00  0.00     0.038 C 
BRANCH   4   6
HETATM    6  C3  UNL     1      -4.042   1.929  11.481  1.00  0.00     0.083 C 
BRANCH   6   7
HETATM    7  N1  UNL     1      -2.889   2.672  11.233  1.00  0.00    -0.387 N 
HETATM    8  C4  UNL     1      -2.782   4.049  11.412  1.00  0.00     0.148 C 
HETATM    9  C5  UNL     1      -1.526   4.295  12.280  1.00  0.00     0.187 C 
HETATM   10  O1  UNL     1      -0.381   3.834  11.682  1.00  0.00    -0.388 OA
HETATM   11  C6  UNL     1      -0.610   2.938  10.654  1.00  0.00     0.187 C 
HETATM   12  C7  UNL     1      -1.715   1.929  10.992  1.00  0.00     0.148 C 
ENDBRANCH   6   7
ENDBRANCH   4   6
ENDBRANCH   1   4
BRANCH   3  13
HETATM   13  C9  UNL     1      -4.757   2.308  15.769  1.00  0.00     0.223 C 
HETATM   14  C10 UNL     1      -5.253   1.058  16.481  1.00  0.00     0.040 C 
HETATM   15  C11 UNL     1      -6.112   1.705  17.575  1.00  0.00     0.030 C 
HETATM   16  C12 UNL     1      -6.782   2.814  16.788  1.00  0.00     0.233 C 
HETATM   17  N3  UNL     1      -6.011   3.026  15.591  1.00  0.00    -0.066 N 
ATOM     18  H32 UNL     1      -5.881   4.012  15.364  1.00  0.00     0.278 HD
ATOM     19  H31 UNL     1      -6.508   2.763  14.740  1.00  0.00     0.278 HD
ENDBRANCH   3  13
TORSDOF 4
ENDMDL
MODEL 5
REMARK VINA RESULT: -5.887062159      2.238      5.462
REMARK  4 active torsions:
REMARK  status: ('A' for Active; 'I' for Inactive)
REMARK    1  A    between atoms: C2_2  and  C3_3 
REMARK    2  A    between atoms: C2_2  and  N2_10 
REMARK    3  A    between atoms: C3_3  and  N1_4 
REMARK    4  A    between atoms: C8_12  and  C9_13 
ROOT
HETATM    1  N2  UNL     1      -4.767   3.693  14.381  1.00  0.00    -0.392 N 
ATOM      2  H2  UNL     1      -5.783   3.672  14.290  1.00  0.00     0.159 HD
HETATM    3  C8  UNL     1      -4.246   3.112  15.370  1.00  0.00     0.089 C 
ENDROOT
BRANCH   1   4
HETATM    4  C2  UNL     1      -4.007   4.388  13.367  1.00  0.00     0.115 C 
HETATM    5  C1  UNL     1      -2.551   4.385  13.649  1.00  0.00     0.038 C 
BRANCH   4   6
HETATM    6  C3  UNL     1      -4.343   3.937  11.995  1.00  0.00     0.083 C 
BRANCH   6   7
HETATM    7  N1  UNL     1      -3.919   2.643  11.698  1.00  0.00    -0.387 N 
HETATM    8  C4  UNL     1      -4.639   1.488  11.994  1.00  0.00     0.148 C 
HETATM    9  C5  UNL     1      -4.728   0.665  10.687  1.00  0.00     0.187 C 
HETATM   10  O1  UNL     1      -3.492   0.309  10.210  1.00  0.00    -0.388 OA
HETATM   11  C6  UNL     1      -2.453   1.048  10.746  1.00  0.00     0.187 C 
HETATM   12  C7  UNL     1      -2.791   2.540  10.857  1.00  0.00     0.148 C 
ENDBRANCH   6   7
ENDBRANCH   4   6
ENDBRANCH   1   4
BRANCH   3  13
HETATM   13  C9  UNL     1      -5.053   2.423  16.371  1.00  0.00     0.223 C 
HETATM   14  C10 UNL     1      -5.024   0.905  16.269  1.00  0.00     0.040 C 
HETATM   15  C11 UNL     1      -6.177   0.559  17.221  1.00  0.00     0.030 C 
HETATM   16  C12 UNL     1      -7.184   1.629  16.846  1.00  0.00     0.233 C 
HETATM   17  N3  UNL     1      -6.472   2.676  16.161  1.00  0.00    -0.066 N 
ATOM     18  H32 UNL     1      -6.760   3.612  16.445  1.00  0.00     0.278 HD
ATOM     19  H31 UNL     1      -6.724   2.757  15.176  1.00  0.00     0.278 HD
ENDBRANCH   3  13
TORSDOF 4
ENDMDL
