MODEL 1
REMARK VINA RESULT: -6.694817239      0.000      0.000
REMARK  5 active torsions:
REMARK  status: ('A' for Active; 'I' for Inactive)
REMARK    1  A    between atoms: O1_1  and  C1_3 
REMARK    2  A    between atoms: C1_3  and  C2_4 
REMARK    3  A    between atoms: C2_4  and  C3_5 
REMARK    4  A    between atoms: C3_5  and  C4_6 
REMARK    5  A    between atoms: C4_6  and  N1_7 
ROOT
HETATM    1  C2  UNL     1      -4.672   1.375  16.350  1.00  0.00     0.043 C 
ENDROOT
BRANCH   1   2
HETATM    2  C1  UNL     1      -5.908   0.961  17.112  1.00  0.00     0.058 C 
HETATM    3  C9  UNL     1      -5.941   1.732  18.412  1.00  0.00     0.038 C 
HETATM    4  C10 UNL     1      -6.347   3.117  17.955  1.00  0.00     0.003 C 
HETATM    5  C11 UNL     1      -7.200   2.900  16.727  1.00  0.00     0.003 C 
HETATM    6  C12 UNL     1      -7.191   1.418  16.459  1.00  0.00     0.038 C 
BRANCH   2   7
HETATM    7  O1  UNL     1      -5.928  -0.418  17.345  1.00  0.00    -0.390 OA
ATOM      8  H1  UNL     1      -5.989  -0.907  16.532  1.00  0.00     0.210 HD
ENDBRANCH   2   7
ENDBRANCH   1   2
BRANCH   1   9
HETATM    9  C3  UNL     1      -4.468   0.559  15.090  1.00  0.00     0.047 C 
BRANCH   9  10
HETATM   10  C4  UNL     1      -4.342   1.529  13.940  1.00  0.00     0.058 C 
BRANCH  10  11
HETATM   11  N1  UNL     1      -4.445   0.970  12.665  1.00  0.00    -0.389 N 
HETATM   12  C5  UNL     1      -5.036   1.692  11.616  1.00  0.00     0.148 C 
HETATM   13  C6  UNL     1      -4.933   0.830  10.349  1.00  0.00     0.187 C 
HETATM   14  O2  UNL     1      -3.663   0.320  10.201  1.00  0.00    -0.388 OA
HETATM   15  C7  UNL     1      -3.342  -0.623  11.172  1.00  0.00     0.187 C 
HETATM   16  C8  UNL     1      -4.134  -0.392  12.458  1.00  0.00     0.148 C 
ENDBRANCH  10  11
ENDBRANCH   9  10
ENDBRANCH   1   9
TORSDOF 5
ENDMDL
MODEL 2
REMARK VINA RESULT: -6.555309762      1.068      1.548
REMARK  5 active torsions:
REMARK  status: ('A' for Active; 'I' for Inactive)
REMARK    1  A    between atoms: O1_1  and  C1_3 
REMARK    2  A    between atoms: C1_3  and  C2_4 
REMARK    3  A    between atoms: C2_4  and  C3_5 
REMARK    4  A    between atoms: C3_5  and  C4_6 
REMARK    5  A    between atoms: C4_6  and  N1_7 
ROOT
HETATM    1  C2  UNL     1      -4.613   1.426  16.539  1.00  0.00     0.043 C 
ENDROOT
BRANCH   1   2
HETATM    2  C1  UNL     1      -5.921   1.015  17.170  1.00  0.00     0.058 C 
HETATM    3  C9  UNL     1      -6.047   1.723  18.500  1.00  0.00     0.038 C 
HETATM    4  C10 UNL     1      -6.374   3.141  18.081  1.00  0.00     0.003 C 
HETATM    5  C11 UNL     1      -7.122   3.009  16.774  1.00  0.00     0.003 C 
HETATM    6  C12 UNL     1      -7.130   1.542  16.433  1.00  0.00     0.038 C 
BRANCH   2   7
HETATM    7  O1  UNL     1      -5.999  -0.373  17.331  1.00  0.00    -0.390 OA
ATOM      8  H1  UNL     1      -6.852  -0.705  17.076  1.00  0.00     0.210 HD
ENDBRANCH   2   7
ENDBRANCH   1   2
BRANCH   1   9
HETATM    9  C3  UNL     1      -4.500   0.977  15.097  1.00  0.00     0.047 C 
BRANCH   9  10
HETATM   10  C4  UNL     1      -4.124   2.187  14.276  1.00  0.00     0.058 C 
BRANCH  10  11
HETATM   11  N1  UNL     1      -4.059   1.984  12.896  1.00  0.00    -0.389 N 
HETATM   12  C5  UNL     1      -4.499   0.777  12.331  1.00  0.00     0.148 C 
HETATM   13  C6  UNL     1      -4.353   0.903  10.807  1.00  0.00     0.187 C 
HETATM   14  O2  UNL     1      -4.869   2.098  10.359  1.00  0.00    -0.388 OA
HETATM   15  C7  UNL     1      -4.124   3.197  10.773  1.00  0.00     0.187 C 
HETATM   16  C8  UNL     1      -3.376   2.908  12.073  1.00  0.00     0.148 C 
ENDBRANCH  10  11
ENDBRANCH   9  10
ENDBRANCH   1   9
TORSDOF 5
ENDMDL
MODEL 3
REMARK VINA RESULT: -6.430636592      1.030      1.043
REMARK  5 active torsions:
REMARK  status: ('A' for Active; 'I' for Inactive)
REMARK    1  A    between atoms: O1_1  and  C1_3 
REMARK    2  A    between atoms: C1_3  and  C2_4 
REMARK    3  A    between atoms: C2_4  and  C3_5 
REMARK    4  A    between atoms: C3_5  and  C4_6 
REMARK    5  A    between atoms: C4_6  and  N1_7 
ROOT
HETATM    1  C2  UNL     1      -4.649   1.387  16.414  1.00  0.00     0.043 C 
ENDROOT
BRANCH   1   2
HETATM    2  C1  UNL     1      -5.913   0.946  17.112  1.00  0.00     0.058 C 
HETATM    3  C9  UNL     1      -5.988   1.654  18.446  1.00  0.00     0.038 C 
HETATM    4  C10 UNL     1      -6.369   3.062  18.043  1.00  0.00     0.003 C 
HETATM    5  C11 UNL     1      -7.179   2.912  16.777  1.00  0.00     0.003 C 
HETATM    6  C12 UNL     1      -7.170   1.445  16.437  1.00  0.00     0.038 C 
BRANCH   2   7
HETATM    7  O1  UNL     1      -5.951  -0.443  17.276  1.00  0.00    -0.390 OA
ATOM      8  H1  UNL     1      -6.421  -0.687  18.065  1.00  0.00     0.210 HD
ENDBRANCH   2   7
ENDBRANCH   1   2
BRANCH   1   9
HETATM    9  C3  UNL     1      -4.488   0.749  15.050  1.00  0.00     0.047 C 
BRANCH   9  10
HETATM   10  C4  UNL     1      -4.490   1.862  14.030  1.00  0.00     0.058 C 
BRANCH  10  11
HETATM   11  N1  UNL     1      -3.937   1.544  12.788  1.00  0.00    -0.389 N 
HETATM   12  C5  UNL     1      -3.028   2.415  12.168  1.00  0.00     0.148 C 
HETATM   13  C6  UNL     1      -2.567   1.747  10.864  1.00  0.00     0.187 C 
HETATM   14  O2  UNL     1      -2.220   0.432  11.079  1.00  0.00    -0.388 OA
HETATM   15  C7  UNL     1      -3.310  -0.369  11.400  1.00  0.00     0.187 C 
HETATM   16  C8  UNL     1      -4.427   0.442  12.053  1.00  0.00     0.148 C 
ENDBRANCH  10  11
ENDBRANCH   9  10
ENDBRANCH   1   9
TORSDOF 5
ENDMDL
MODEL 4
REMARK VINA RESULT: -6.424118216      1.696      5.914
REMARK  5 active torsions:
REMARK  status: ('A' for Active; 'I' for Inactive)
REMARK    1  A    between atoms: O1_1  and  C1_3 
REMARK    2  A    between atoms: C1_3  and  C2_4 
REMARK    3  A    between atoms: C2_4  and  C3_5 
REMARK    4  A    between atoms: C3_5  and  C4_6 
REMARK    5  A    between atoms: C4_6  and  N1_7 
ROOT
HETATM    1  C2  UNL     1      -4.627   1.705  12.969  1.00  0.00     0.043 C 
ENDROOT
BRANCH   1   2
HETATM    2  C1  UNL     1      -4.741   1.552  11.471  1.00  0.00     0.058 C 
HETATM    3  C9  UNL     1      -3.524   2.187  10.838  1.00  0.00     0.038 C 
HETATM    4  C10 UNL     1      -2.439   1.176  11.139  1.00  0.00     0.003 C 
HETATM    5  C11 UNL     1      -3.140  -0.161  11.191  1.00  0.00     0.003 C 
HETATM    6  C12 UNL     1      -4.608   0.120  11.008  1.00  0.00     0.038 C 
BRANCH   2   7
HETATM    7  O1  UNL     1      -5.920   2.127  10.985  1.00  0.00    -0.390 OA
ATOM      8  H1  UNL     1      -5.946   3.062  11.155  1.00  0.00     0.210 HD
ENDBRANCH   2   7
ENDBRANCH   1   2
BRANCH   1   9
HETATM    9  C3  UNL     1      -4.818   3.138  13.420  1.00  0.00     0.047 C 
BRANCH   9  10
HETATM   10  C4  UNL     1      -4.429   3.207  14.877  1.00  0.00     0.058 C 
BRANCH  10  11
HETATM   11  N1  UNL     1      -5.275   2.534  15.761  1.00  0.00    -0.389 N 
HETATM   12  C5  UNL     1      -6.623   2.908  15.881  1.00  0.00     0.148 C 
HETATM   13  C6  UNL     1      -7.281   1.940  16.875  1.00  0.00     0.187 C 
HETATM   14  O2  UNL     1      -6.955   0.635  16.582  1.00  0.00    -0.388 OA
HETATM   15  C7  UNL     1      -5.612   0.350  16.807  1.00  0.00     0.187 C 
HETATM   16  C8  UNL     1      -4.746   1.602  16.681  1.00  0.00     0.148 C 
ENDBRANCH  10  11
ENDBRANCH   9  10
ENDBRANCH   1   9
TORSDOF 5
ENDMDL
MODEL 5
REMARK VINA RESULT: -6.184319417      1.692      6.239
REMARK  5 active torsions:
REMARK  status: ('A' for Active; 'I' for Inactive)
REMARK    1  A    between atoms: O1_1  and  C1_3 
REMARK    2  A    between atoms: C1_3  and  C2_4 
REMARK    3  A    between atoms: C2_4  and  C3_5 
REMARK    4  A    between atoms: C3_5  and  C4_6 
REMARK    5  A    between atoms: C4_6  and  N1_7 
ROOT
HETATM    1  C2  UNL     1      -4.509   1.460  12.894  1.00  0.00     0.043 C 
ENDROOT
BRANCH   1   2
HETATM    2  C1  UNL     1      -4.700   1.460  11.397  1.00  0.00     0.058 C 
HETATM    3  C9  UNL     1      -3.461   2.052  10.763  1.00  0.00     0.038 C 
HETATM    4  C10 UNL     1      -2.454   0.931  10.915  1.00  0.00     0.003 C 
HETATM    5  C11 UNL     1      -3.265  -0.343  10.879  1.00  0.00     0.003 C 
HETATM    6  C12 UNL     1      -4.710   0.073  10.798  1.00  0.00     0.038 C 
BRANCH   2   7
HETATM    7  O1  UNL     1      -5.844   2.173  11.026  1.00  0.00    -0.390 OA
ATOM      8  H1  UNL     1      -5.923   2.984  11.516  1.00  0.00     0.210 HD
ENDBRANCH   2   7
ENDBRANCH   1   2
BRANCH   1   9
HETATM    9  C3  UNL     1      -4.406   2.859  13.465  1.00  0.00     0.047 C 
BRANCH   9  10
HETATM   10  C4  UNL     1      -4.063   2.724  14.928  1.00  0.00     0.058 C 
BRANCH  10  11
HETATM   11  N1  UNL     1      -5.094   2.266  15.751  1.00  0.00    -0.389 N 
HETATM   12  C5  UNL     1      -4.981   1.037  16.420  1.00  0.00     0.148 C 
HETATM   13  C6  UNL     1      -6.241   0.864  17.280  1.00  0.00     0.187 C 
HETATM   14  O2  UNL     1      -6.514   2.010  17.993  1.00  0.00    -0.388 OA
HETATM   15  C7  UNL     1      -6.907   3.070  17.183  1.00  0.00     0.187 C 
HETATM   16  C8  UNL     1      -6.338   2.936  15.772  1.00  0.00     0.148 C 
ENDBRANCH  10  11
ENDBRANCH   9  10
ENDBRANCH   1   9
TORSDOF 5
ENDMDL
