MODEL 1
REMARK VINA RESULT: -6.187804752      0.000      0.000
REMARK  4 active torsions:
REMARK  status: ('A' for Active; 'I' for Inactive)
REMARK    1  A    between atoms: C1_2  and  C2_4 
REMARK    2  A    between atoms: N1_8  and  C5_9 
REMARK    3  A    between atoms: C5_9  and  C6_10 
REMARK    4  A    between atoms: C7_11  and  C8_12 
ROOT
HETATM    1  C2  UNL     1      -4.758   1.967  12.632  1.00  0.00     0.333 C 
HETATM    2  C3  UNL     1      -4.889   2.101  11.149  1.00  0.00     0.122 C 
HETATM    3  S1  UNL     1      -4.041   3.690  10.809  1.00  0.00    -0.137 SA
HETATM    4  C4  UNL     1      -3.680   4.067  12.570  1.00  0.00     0.348 C 
HETATM    5  N1  UNL     1      -3.788   2.803  13.162  1.00  0.00     0.116 N 
ENDROOT
BRANCH   5   6
HETATM    6  C5  UNL     1      -4.006   2.966  14.601  1.00  0.00     0.301 C 
BRANCH   6   7
HETATM    7  C6  UNL     1      -5.256   3.677  14.924  1.00  0.00    -0.001 C 
HETATM    8  C7  UNL     1      -6.058   3.221  15.856  1.00  0.00    -0.024 C 
BRANCH   8   9
HETATM    9  C8  UNL     1      -5.863   2.013  16.676  1.00  0.00     0.008 A 
HETATM   10  C9  UNL     1      -7.125   1.241  17.104  1.00  0.00     0.009 A 
HETATM   11  C10 UNL     1      -6.318   2.021  18.109  1.00  0.00     0.009 A 
ENDBRANCH   8   9
ENDBRANCH   6   7
ENDBRANCH   5   6
BRANCH   1  12
HETATM   12  C1  UNL     1      -4.364   0.548  12.897  1.00  0.00     0.208 C 
HETATM   13  O1  UNL     1      -3.660  -0.079  12.068  1.00  0.00    -0.646 OA
HETATM   14  O2  UNL     1      -4.737  -0.145  14.040  1.00  0.00    -0.646 OA
ENDBRANCH   1  12
TORSDOF 4
ENDMDL
MODEL 2
REMARK VINA RESULT: -6.026314907      2.347      2.937
REMARK  4 active torsions:
REMARK  status: ('A' for Active; 'I' for Inactive)
REMARK    1  A    between atoms: C1_2  and  C2_4 
REMARK    2  A    between atoms: N1_8  and  C5_9 
REMARK    3  A    between atoms: C5_9  and  C6_10 
REMARK    4  A    between atoms: C7_11  and  C8_12 
ROOT
HETATM    1  C2  UNL     1      -3.339   1.978  11.916  1.00  0.00     0.333 C 
HETATM    2  C3  UNL     1      -2.682   1.183  10.834  1.00  0.00     0.122 C 
HETATM    3  S1  UNL     1      -3.332  -0.507  11.121  1.00  0.00    -0.137 SA
HETATM    4  C4  UNL     1      -4.298  -0.062  12.619  1.00  0.00     0.348 C 
HETATM    5  N1  UNL     1      -4.425   1.324  12.476  1.00  0.00     0.116 N 
ENDROOT
BRANCH   5   6
HETATM    6  C5  UNL     1      -4.739   1.912  13.781  1.00  0.00     0.301 C 
BRANCH   6   7
HETATM    7  C6  UNL     1      -4.228   1.120  14.915  1.00  0.00    -0.001 C 
HETATM    8  C7  UNL     1      -4.795   1.205  16.094  1.00  0.00    -0.024 C 
BRANCH   8   9
HETATM    9  C8  UNL     1      -5.952   2.042  16.460  1.00  0.00     0.008 A 
HETATM   10  C9  UNL     1      -6.345   2.088  17.948  1.00  0.00     0.009 A 
HETATM   11  C10 UNL     1      -7.212   1.378  16.941  1.00  0.00     0.009 A 
ENDBRANCH   8   9
ENDBRANCH   6   7
ENDBRANCH   5   6
BRANCH   1  12
HETATM   12  C1  UNL     1      -3.819   3.244  11.279  1.00  0.00     0.208 C 
HETATM   13  O1  UNL     1      -4.557   3.203  10.264  1.00  0.00    -0.646 OA
HETATM   14  O2  UNL     1      -3.492   4.507  11.754  1.00  0.00    -0.646 OA
ENDBRANCH   1  12
TORSDOF 4
ENDMDL
MODEL 3
REMARK VINA RESULT: -5.931172275      1.439      1.681
REMARK  4 active torsions:
REMARK  status: ('A' for Active; 'I' for Inactive)
REMARK    1  A    between atoms: C1_2  and  C2_4 
REMARK    2  A    between atoms: N1_8  and  C5_9 
REMARK    3  A    between atoms: C5_9  and  C6_10 
REMARK    4  A    between atoms: C7_11  and  C8_12 
ROOT
HETATM    1  C2  UNL     1      -4.593   1.760  13.338  1.00  0.00     0.333 C 
HETATM    2  C3  UNL     1      -3.463   1.529  12.388  1.00  0.00     0.122 C 
HETATM    3  S1  UNL     1      -3.109   3.215  11.762  1.00  0.00    -0.137 SA
HETATM    4  C4  UNL     1      -4.468   4.027  12.693  1.00  0.00     0.348 C 
HETATM    5  N1  UNL     1      -4.725   3.092  13.700  1.00  0.00     0.116 N 
ENDROOT
BRANCH   5   6
HETATM    6  C5  UNL     1      -6.066   3.328  14.242  1.00  0.00     0.301 C 
BRANCH   6   7
HETATM    7  C6  UNL     1      -6.099   4.378  15.276  1.00  0.00    -0.001 C 
HETATM    8  C7  UNL     1      -6.451   4.089  16.505  1.00  0.00    -0.024 C 
BRANCH   8   9
HETATM    9  C8  UNL     1      -6.844   2.767  17.025  1.00  0.00     0.008 A 
HETATM   10  C9  UNL     1      -6.748   2.552  18.546  1.00  0.00     0.009 A 
HETATM   11  C10 UNL     1      -5.788   1.868  17.607  1.00  0.00     0.009 A 
ENDBRANCH   8   9
ENDBRANCH   6   7
ENDBRANCH   5   6
BRANCH   1  12
HETATM   12  C1  UNL     1      -4.287   0.958  14.564  1.00  0.00     0.208 C 
HETATM   13  O1  UNL     1      -4.839  -0.154  14.747  1.00  0.00    -0.646 OA
HETATM   14  O2  UNL     1      -3.401   1.377  15.546  1.00  0.00    -0.646 OA
ENDBRANCH   1  12
TORSDOF 4
ENDMDL
MODEL 4
REMARK VINA RESULT: -5.895704896      2.164      2.640
REMARK  4 active torsions:
REMARK  status: ('A' for Active; 'I' for Inactive)
REMARK    1  A    between atoms: C1_2  and  C2_4 
REMARK    2  A    between atoms: N1_8  and  C5_9 
REMARK    3  A    between atoms: C5_9  and  C6_10 
REMARK    4  A    between atoms: C7_11  and  C8_12 
ROOT
HETATM    1  C2  UNL     1      -3.511   2.121  12.012  1.00  0.00     0.333 C 
HETATM    2  C3  UNL     1      -3.341   1.058  10.976  1.00  0.00     0.122 C 
HETATM    3  S1  UNL     1      -4.045  -0.423  11.795  1.00  0.00    -0.137 SA
HETATM    4  C4  UNL     1      -4.407   0.422  13.385  1.00  0.00     0.348 C 
HETATM    5  N1  UNL     1      -4.418   1.767  12.999  1.00  0.00     0.116 N 
ENDROOT
BRANCH   5   6
HETATM    6  C5  UNL     1      -4.215   2.606  14.183  1.00  0.00     0.301 C 
BRANCH   6   7
HETATM    7  C6  UNL     1      -5.408   3.388  14.554  1.00  0.00    -0.001 C 
HETATM    8  C7  UNL     1      -6.111   3.066  15.613  1.00  0.00    -0.024 C 
BRANCH   8   9
HETATM    9  C8  UNL     1      -5.848   1.952  16.542  1.00  0.00     0.008 A 
HETATM   10  C9  UNL     1      -7.067   1.172  17.068  1.00  0.00     0.009 A 
HETATM   11  C10 UNL     1      -6.280   2.081  17.977  1.00  0.00     0.009 A 
ENDBRANCH   8   9
ENDBRANCH   6   7
ENDBRANCH   5   6
BRANCH   1  12
HETATM   12  C1  UNL     1      -4.028   3.331  11.298  1.00  0.00     0.208 C 
HETATM   13  O1  UNL     1      -5.139   3.294  10.714  1.00  0.00    -0.646 OA
HETATM   14  O2  UNL     1      -3.337   4.532  11.238  1.00  0.00    -0.646 OA
ENDBRANCH   1  12
TORSDOF 4
ENDMDL
MODEL 5
REMARK VINA RESULT: -5.892218979      2.333      2.917
REMARK  4 active torsions:
REMARK  status: ('A' for Active; 'I' for Inactive)
REMARK    1  A    between atoms: C1_2  and  C2_4 
REMARK    2  A    between atoms: N1_8  and  C5_9 
REMARK    3  A    between atoms: C5_9  and  C6_10 
REMARK    4  A    between atoms: C7_11  and  C8_12 
ROOT
HETATM    1  C2  UNL     1      -3.439   2.733  12.151  1.00  0.00     0.333 C 
HETATM    2  C3  UNL     1      -2.650   2.089  11.057  1.00  0.00     0.122 C 
HETATM    3  S1  UNL     1      -3.163   0.333  11.167  1.00  0.00    -0.137 SA
HETATM    4  C4  UNL     1      -4.253   0.568  12.627  1.00  0.00     0.348 C 
HETATM    5  N1  UNL     1      -4.494   1.946  12.585  1.00  0.00     0.116 N 
ENDROOT
BRANCH   5   6
HETATM    6  C5  UNL     1      -4.935   2.394  13.909  1.00  0.00     0.301 C 
BRANCH   6   7
HETATM    7  C6  UNL     1      -4.175   1.784  15.014  1.00  0.00    -0.001 C 
HETATM    8  C7  UNL     1      -4.664   1.772  16.231  1.00  0.00    -0.024 C 
BRANCH   8   9
HETATM    9  C8  UNL     1      -5.958   2.326  16.668  1.00  0.00     0.008 A 
HETATM   10  C9  UNL     1      -6.338   2.142  18.148  1.00  0.00     0.009 A 
HETATM   11  C10 UNL     1      -7.059   1.383  17.065  1.00  0.00     0.009 A 
ENDBRANCH   8   9
ENDBRANCH   6   7
ENDBRANCH   5   6
BRANCH   1  12
HETATM   12  C1  UNL     1      -3.991   4.004  11.585  1.00  0.00     0.208 C 
HETATM   13  O1  UNL     1      -3.544   5.113  11.967  1.00  0.00    -0.646 OA
HETATM   14  O2  UNL     1      -4.998   4.038  10.632  1.00  0.00    -0.646 OA
ENDBRANCH   1  12
TORSDOF 4
ENDMDL
