MODEL 1
REMARK VINA RESULT: -5.942553584      0.000      0.000
REMARK  4 active torsions:
REMARK  status: ('A' for Active; 'I' for Inactive)
REMARK    1  A    between atoms: C1_1  and  C2_2 
REMARK    2  A    between atoms: C1_1  and  C8_11 
REMARK    3  A    between atoms: C2_2  and  C3_3 
REMARK    4  A    between atoms: C8_11  and  N2_12 
ROOT
HETATM    1  C2  UNL     1      -3.779   2.939  15.332  1.00  0.00     0.006 C 
ENDROOT
BRANCH   1   2
HETATM    2  C1  UNL     1      -3.576   3.367  13.891  1.00  0.00     0.030 C 
BRANCH   2   3
HETATM    3  C8  UNL     1      -4.732   2.922  13.018  1.00  0.00     0.272 C 
BRANCH   3   4
HETATM    4  N2  UNL     1      -4.263   2.182  11.896  1.00  0.00     0.092 N 
HETATM    5  C9  UNL     1      -2.879   2.390  11.580  1.00  0.00     0.298 C 
HETATM    6  C10 UNL     1      -2.279   1.200  10.867  1.00  0.00     0.198 C 
HETATM    7  O1  UNL     1      -3.144   0.526  10.045  1.00  0.00    -0.388 OA
HETATM    8  C11 UNL     1      -4.351   0.204  10.607  1.00  0.00     0.198 C 
HETATM    9  C12 UNL     1      -4.500   0.765  12.024  1.00  0.00     0.298 C 
ENDBRANCH   3   4
ENDBRANCH   2   3
ENDBRANCH   1   2
BRANCH   1  10
HETATM   10  C3  UNL     1      -5.120   2.245  15.503  1.00  0.00    -0.011 C 
HETATM   11  C4  UNL     1      -4.930   0.864  16.091  1.00  0.00     0.032 C 
HETATM   12  C5  UNL     1      -5.857   0.584  17.219  1.00  0.00     0.232 C 
HETATM   13  N1  UNL     1      -7.210   0.991  17.045  1.00  0.00    -0.075 N 
HETATM   14  C6  UNL     1      -7.349   2.311  16.468  1.00  0.00     0.232 C 
ATOM     15  H12 UNL     1      -7.725   0.303  16.497  1.00  0.00     0.277 HD
ATOM     16  H11 UNL     1      -7.721   0.927  17.925  1.00  0.00     0.277 HD
HETATM   17  C7  UNL     1      -5.995   3.008  16.480  1.00  0.00     0.032 C 
ENDBRANCH   1  10
TORSDOF 4
ENDMDL
MODEL 2
REMARK VINA RESULT: -5.928029347      2.335      5.581
REMARK  4 active torsions:
REMARK  status: ('A' for Active; 'I' for Inactive)
REMARK    1  A    between atoms: C1_1  and  C2_2 
REMARK    2  A    between atoms: C1_1  and  C8_11 
REMARK    3  A    between atoms: C2_2  and  C3_3 
REMARK    4  A    between atoms: C8_11  and  N2_12 
ROOT
HETATM    1  C2  UNL     1      -3.813   3.527  13.099  1.00  0.00     0.006 C 
ENDROOT
BRANCH   1   2
HETATM    2  C1  UNL     1      -3.884   3.490  14.613  1.00  0.00     0.030 C 
BRANCH   2   3
HETATM    3  C8  UNL     1      -5.302   3.712  15.102  1.00  0.00     0.272 C 
BRANCH   3   4
HETATM    4  N2  UNL     1      -5.867   2.497  15.583  1.00  0.00     0.092 N 
HETATM    5  C9  UNL     1      -4.906   1.502  15.967  1.00  0.00     0.298 C 
HETATM    6  C10 UNL     1      -5.459   0.557  17.009  1.00  0.00     0.198 C 
HETATM    7  O1  UNL     1      -6.802   0.302  16.899  1.00  0.00    -0.388 OA
HETATM    8  C11 UNL     1      -7.597   1.410  16.769  1.00  0.00     0.198 C 
HETATM    9  C12 UNL     1      -6.782   2.703  16.679  1.00  0.00     0.298 C 
ENDBRANCH   3   4
ENDBRANCH   2   3
ENDBRANCH   1   2
BRANCH   1  10
HETATM   10  C3  UNL     1      -3.438   2.163  12.544  1.00  0.00    -0.011 C 
HETATM   11  C4  UNL     1      -4.680   1.373  12.195  1.00  0.00     0.032 C 
HETATM   12  C5  UNL     1      -4.606   0.744  10.850  1.00  0.00     0.232 C 
HETATM   13  N1  UNL     1      -3.372   0.123  10.507  1.00  0.00    -0.075 N 
HETATM   14  C6  UNL     1      -2.209   0.903  10.869  1.00  0.00     0.232 C 
ATOM     15  H12 UNL     1      -3.317  -0.813  10.908  1.00  0.00     0.277 HD
ATOM     16  H11 UNL     1      -3.352  -0.115   9.515  1.00  0.00     0.277 HD
HETATM   17  C7  UNL     1      -2.649   2.309  11.256  1.00  0.00     0.032 C 
ENDBRANCH   1  10
TORSDOF 4
ENDMDL
MODEL 3
REMARK VINA RESULT: -5.869682127      2.389      5.574
REMARK  4 active torsions:
REMARK  status: ('A' for Active; 'I' for Inactive)
REMARK    1  A    between atoms: C1_1  and  C2_2 
REMARK    2  A    between atoms: C1_1  and  C8_11 
REMARK    3  A    between atoms: C2_2  and  C3_3 
REMARK    4  A    between atoms: C8_11  and  N2_12 
ROOT
HETATM    1  C2  UNL     1      -4.808   2.963  12.828  1.00  0.00     0.006 C 
ENDROOT
BRANCH   1   2
HETATM    2  C1  UNL     1      -3.882   2.918  14.028  1.00  0.00     0.030 C 
BRANCH   2   3
HETATM    3  C8  UNL     1      -4.609   3.310  15.299  1.00  0.00     0.272 C 
BRANCH   3   4
HETATM    4  N2  UNL     1      -5.483   2.270  15.723  1.00  0.00     0.092 N 
HETATM    5  C9  UNL     1      -4.825   1.143  16.321  1.00  0.00     0.298 C 
HETATM    6  C10 UNL     1      -5.728   0.410  17.285  1.00  0.00     0.198 C 
HETATM    7  O1  UNL     1      -7.055   0.409  16.943  1.00  0.00    -0.388 OA
HETATM    8  C11 UNL     1      -7.575   1.635  16.618  1.00  0.00     0.198 C 
HETATM    9  C12 UNL     1      -6.510   2.736  16.621  1.00  0.00     0.298 C 
ENDBRANCH   3   4
ENDBRANCH   2   3
ENDBRANCH   1   2
BRANCH   1  10
HETATM   10  C3  UNL     1      -4.551   1.782  11.907  1.00  0.00    -0.011 C 
HETATM   11  C4  UNL     1      -3.313   2.021  11.071  1.00  0.00     0.032 C 
HETATM   12  C5  UNL     1      -2.393   0.854  11.053  1.00  0.00     0.232 C 
HETATM   13  N1  UNL     1      -2.995  -0.426  10.897  1.00  0.00    -0.075 N 
HETATM   14  C6  UNL     1      -4.182  -0.611  11.702  1.00  0.00     0.232 C 
ATOM     15  H12 UNL     1      -3.194  -0.613   9.914  1.00  0.00     0.277 HD
ATOM     16  H11 UNL     1      -2.318  -1.167  11.078  1.00  0.00     0.277 HD
HETATM   17  C7  UNL     1      -4.284   0.523  12.712  1.00  0.00     0.032 C 
ENDBRANCH   1  10
TORSDOF 4
ENDMDL
MODEL 4
REMARK VINA RESULT: -5.860058902      1.873      2.569
REMARK  4 active torsions:
REMARK  status: ('A' for Active; 'I' for Inactive)
REMARK    1  A    between atoms: C1_1  and  C2_2 
REMARK    2  A    between atoms: C1_1  and  C8_11 
REMARK    3  A    between atoms: C2_2  and  C3_3 
REMARK    4  A    between atoms: C8_11  and  N2_12 
ROOT
HETATM    1  C2  UNL     1      -6.153   3.981  14.796  1.00  0.00     0.006 C 
ENDROOT
BRANCH   1   2
HETATM    2  C1  UNL     1      -5.236   5.188  14.783  1.00  0.00     0.030 C 
BRANCH   2   3
HETATM    3  C8  UNL     1      -3.970   4.908  13.998  1.00  0.00     0.272 C 
BRANCH   3   4
HETATM    4  N2  UNL     1      -4.276   4.345  12.727  1.00  0.00     0.092 N 
HETATM    5  C9  UNL     1      -4.310   5.289  11.648  1.00  0.00     0.298 C 
HETATM    6  C10 UNL     1      -4.004   4.638  10.319  1.00  0.00     0.198 C 
HETATM    7  O1  UNL     1      -4.440   3.344  10.198  1.00  0.00    -0.388 OA
HETATM    8  C11 UNL     1      -4.108   2.517  11.239  1.00  0.00     0.198 C 
HETATM    9  C12 UNL     1      -3.391   3.264  12.368  1.00  0.00     0.298 C 
ENDBRANCH   3   4
ENDBRANCH   2   3
ENDBRANCH   1   2
BRANCH   1  10
HETATM   10  C3  UNL     1      -5.696   2.970  15.835  1.00  0.00    -0.011 C 
HETATM   11  C4  UNL     1      -6.851   2.567  16.726  1.00  0.00     0.032 C 
HETATM   12  C5  UNL     1      -6.954   1.096  16.909  1.00  0.00     0.232 C 
HETATM   13  N1  UNL     1      -5.735   0.398  17.140  1.00  0.00    -0.075 N 
HETATM   14  C6  UNL     1      -4.653   0.820  16.277  1.00  0.00     0.232 C 
ATOM     15  H12 UNL     1      -5.461   0.466  18.120  1.00  0.00     0.277 HD
ATOM     16  H11 UNL     1      -5.878  -0.609  17.071  1.00  0.00     0.277 HD
HETATM   17  C7  UNL     1      -5.212   1.697  15.165  1.00  0.00     0.032 C 
ENDBRANCH   1  10
TORSDOF 4
ENDMDL
MODEL 5
REMARK VINA RESULT: -5.839944371      0.628      1.411
REMARK  4 active torsions:
REMARK  status: ('A' for Active; 'I' for Inactive)
REMARK    1  A    between atoms: C1_1  and  C2_2 
REMARK    2  A    between atoms: C1_1  and  C8_11 
REMARK    3  A    between atoms: C2_2  and  C3_3 
REMARK    4  A    between atoms: C8_11  and  N2_12 
ROOT
HETATM    1  C2  UNL     1      -3.789   2.795  15.276  1.00  0.00     0.006 C 
ENDROOT
BRANCH   1   2
HETATM    2  C1  UNL     1      -4.499   2.883  13.939  1.00  0.00     0.030 C 
BRANCH   2   3
HETATM    3  C8  UNL     1      -3.531   3.224  12.824  1.00  0.00     0.272 C 
BRANCH   3   4
HETATM    4  N2  UNL     1      -3.656   2.302  11.746  1.00  0.00     0.092 N 
HETATM    5  C9  UNL     1      -2.409   1.799  11.243  1.00  0.00     0.298 C 
HETATM    6  C10 UNL     1      -2.567   0.438  10.605  1.00  0.00     0.198 C 
HETATM    7  O1  UNL     1      -3.768   0.234   9.976  1.00  0.00    -0.388 OA
HETATM    8  C11 UNL     1      -4.876   0.563  10.713  1.00  0.00     0.198 C 
HETATM    9  C12 UNL     1      -4.511   1.185  12.063  1.00  0.00     0.298 C 
ENDBRANCH   3   4
ENDBRANCH   2   3
ENDBRANCH   1   2
BRANCH   1  10
HETATM   10  C3  UNL     1      -4.734   2.291  16.354  1.00  0.00    -0.011 C 
HETATM   11  C4  UNL     1      -6.027   3.078  16.335  1.00  0.00     0.032 C 
HETATM   12  C5  UNL     1      -7.232   2.210  16.385  1.00  0.00     0.232 C 
HETATM   13  N1  UNL     1      -7.194   1.123  17.304  1.00  0.00    -0.075 N 
HETATM   14  C6  UNL     1      -5.938   0.405  17.301  1.00  0.00     0.232 C 
ATOM     15  H12 UNL     1      -7.426   1.439  18.245  1.00  0.00     0.277 HD
ATOM     16  H11 UNL     1      -7.973   0.486  17.140  1.00  0.00     0.277 HD
HETATM   17  C7  UNL     1      -5.113   0.844  16.099  1.00  0.00     0.032 C 
ENDBRANCH   1  10
TORSDOF 4
ENDMDL
