MODEL 1
REMARK VINA RESULT: -5.372287417      0.000      0.000
REMARK  5 active torsions:
REMARK  status: ('A' for Active; 'I' for Inactive)
REMARK    1  A    between atoms: C2_2  and  C3_3 
REMARK    2  A    between atoms: C2_2  and  C6_7 
REMARK    3  A    between atoms: C3_3  and  N1_4 
REMARK    4  A    between atoms: C6_7  and  O1_8 
REMARK    5  A    between atoms: C6_7  and  C7_10 
ROOT
HETATM    1  C6  UNL     1      -4.300   3.196  14.891  1.00  0.00     0.131 C 
ENDROOT
BRANCH   1   2
HETATM    2  C2  UNL     1      -5.447   3.617  15.760  1.00  0.00     0.049 C 
HETATM    3  C1  UNL     1      -6.072   4.820  15.087  1.00  0.00     0.018 C 
BRANCH   2   4
HETATM    4  C3  UNL     1      -6.455   2.554  15.955  1.00  0.00     0.064 C 
BRANCH   4   5
HETATM    5  N1  UNL     1      -6.486   1.822  17.144  1.00  0.00    -0.401 N 
HETATM    6  C4  UNL     1      -6.345   2.447  18.395  1.00  0.00     0.148 C 
HETATM    7  C5  UNL     1      -5.926   0.493  17.067  1.00  0.00     0.148 C 
ENDBRANCH   4   5
ENDBRANCH   2   4
ENDBRANCH   1   2
BRANCH   1   8
HETATM    8  O1  UNL     1      -3.365   2.426  15.613  1.00  0.00    -0.394 OA
ATOM      9  H1  UNL     1      -2.580   2.266  15.102  1.00  0.00     0.210 HD
ENDBRANCH   1   8
BRANCH   1  10
HETATM   10  C7  UNL     1      -4.675   2.396  13.668  1.00  0.00     0.021 C 
HETATM   11  C8  UNL     1      -4.205   0.964  13.773  1.00  0.00     0.027 C 
HETATM   12  C9  UNL     1      -4.375   0.364  12.391  1.00  0.00     0.122 C 
HETATM   13  N2  UNL     1      -3.331   0.904  11.591  1.00  0.00    -0.398 N 
HETATM   14  C10 UNL     1      -2.983   0.195  10.414  1.00  0.00     0.148 C 
HETATM   15  C11 UNL     1      -3.200   2.307  11.602  1.00  0.00     0.058 C 
HETATM   16  C12 UNL     1      -4.183   3.060  12.436  1.00  0.00     0.051 C 
ENDBRANCH   1  10
TORSDOF 5
ENDMDL
MODEL 2
REMARK VINA RESULT: -5.327805768      1.411      4.844
REMARK  5 active torsions:
REMARK  status: ('A' for Active; 'I' for Inactive)
REMARK    1  A    between atoms: C2_2  and  C3_3 
REMARK    2  A    between atoms: C2_2  and  C6_7 
REMARK    3  A    between atoms: C3_3  and  N1_4 
REMARK    4  A    between atoms: C6_7  and  O1_8 
REMARK    5  A    between atoms: C6_7  and  C7_10 
ROOT
HETATM    1  C6  UNL     1      -3.043   3.422  13.970  1.00  0.00     0.131 C 
ENDROOT
BRANCH   1   2
HETATM    2  C2  UNL     1      -3.854   3.887  12.798  1.00  0.00     0.049 C 
HETATM    3  C1  UNL     1      -3.090   5.038  12.181  1.00  0.00     0.018 C 
BRANCH   2   4
HETATM    4  C3  UNL     1      -4.091   2.827  11.794  1.00  0.00     0.064 C 
BRANCH   4   5
HETATM    5  N1  UNL     1      -3.421   1.606  11.887  1.00  0.00    -0.401 N 
HETATM    6  C4  UNL     1      -2.279   1.334  11.114  1.00  0.00     0.148 C 
HETATM    7  C5  UNL     1      -4.259   0.459  12.150  1.00  0.00     0.148 C 
ENDBRANCH   4   5
ENDBRANCH   2   4
ENDBRANCH   1   2
BRANCH   1   8
HETATM    8  O1  UNL     1      -1.978   4.305  14.241  1.00  0.00    -0.394 OA
ATOM      9  H1  UNL     1      -1.203   3.836  14.527  1.00  0.00     0.210 HD
ENDBRANCH   1   8
BRANCH   1  10
HETATM   10  C7  UNL     1      -3.808   3.249  15.259  1.00  0.00     0.021 C 
HETATM   11  C8  UNL     1      -3.906   1.795  15.659  1.00  0.00     0.027 C 
HETATM   12  C9  UNL     1      -4.926   1.734  16.778  1.00  0.00     0.122 C 
HETATM   13  N2  UNL     1      -6.198   1.905  16.166  1.00  0.00    -0.398 N 
HETATM   14  C10 UNL     1      -7.330   1.454  16.891  1.00  0.00     0.148 C 
HETATM   15  C11 UNL     1      -6.336   3.020  15.316  1.00  0.00     0.058 C 
HETATM   16  C12 UNL     1      -5.138   3.899  15.172  1.00  0.00     0.051 C 
ENDBRANCH   1  10
TORSDOF 5
ENDMDL
MODEL 3
REMARK VINA RESULT: -5.248869815      1.787      5.448
REMARK  5 active torsions:
REMARK  status: ('A' for Active; 'I' for Inactive)
REMARK    1  A    between atoms: C2_2  and  C3_3 
REMARK    2  A    between atoms: C2_2  and  C6_7 
REMARK    3  A    between atoms: C3_3  and  N1_4 
REMARK    4  A    between atoms: C6_7  and  O1_8 
REMARK    5  A    between atoms: C6_7  and  C7_10 
ROOT
HETATM    1  C6  UNL     1      -4.301   1.289  12.721  1.00  0.00     0.131 C 
ENDROOT
BRANCH   1   2
HETATM    2  C2  UNL     1      -3.151   1.653  11.830  1.00  0.00     0.049 C 
HETATM    3  C1  UNL     1      -2.851   0.425  10.997  1.00  0.00     0.018 C 
BRANCH   2   4
HETATM    4  C3  UNL     1      -3.431   2.813  10.957  1.00  0.00     0.064 C 
BRANCH   4   5
HETATM    5  N1  UNL     1      -3.058   4.099  11.353  1.00  0.00    -0.401 N 
HETATM    6  C4  UNL     1      -2.053   4.310  12.312  1.00  0.00     0.148 C 
HETATM    7  C5  UNL     1      -4.124   5.074  11.371  1.00  0.00     0.148 C 
ENDBRANCH   4   5
ENDBRANCH   2   4
ENDBRANCH   1   2
BRANCH   1   8
HETATM    8  O1  UNL     1      -4.515  -0.105  12.739  1.00  0.00    -0.394 OA
ATOM      9  H1  UNL     1      -4.860  -0.391  13.576  1.00  0.00     0.210 HD
ENDBRANCH   1   8
BRANCH   1  10
HETATM   10  C7  UNL     1      -4.173   1.732  14.157  1.00  0.00     0.021 C 
HETATM   11  C8  UNL     1      -4.518   0.617  15.117  1.00  0.00     0.027 C 
HETATM   12  C9  UNL     1      -4.638   1.261  16.484  1.00  0.00     0.122 C 
HETATM   13  N2  UNL     1      -5.869   1.972  16.482  1.00  0.00    -0.398 N 
HETATM   14  C10 UNL     1      -6.436   2.286  17.743  1.00  0.00     0.148 C 
HETATM   15  C11 UNL     1      -6.077   2.855  15.405  1.00  0.00     0.058 C 
HETATM   16  C12 UNL     1      -4.975   2.954  14.403  1.00  0.00     0.051 C 
ENDBRANCH   1  10
TORSDOF 5
ENDMDL
MODEL 4
REMARK VINA RESULT: -5.152259726      1.329      5.345
REMARK  5 active torsions:
REMARK  status: ('A' for Active; 'I' for Inactive)
REMARK    1  A    between atoms: C2_2  and  C3_3 
REMARK    2  A    between atoms: C2_2  and  C6_7 
REMARK    3  A    between atoms: C3_3  and  N1_4 
REMARK    4  A    between atoms: C6_7  and  O1_8 
REMARK    5  A    between atoms: C6_7  and  C7_10 
ROOT
HETATM    1  C6  UNL     1      -3.145   2.561  13.259  1.00  0.00     0.131 C 
ENDROOT
BRANCH   1   2
HETATM    2  C2  UNL     1      -3.168   2.398  11.768  1.00  0.00     0.049 C 
HETATM    3  C1  UNL     1      -2.247   3.461  11.209  1.00  0.00     0.018 C 
BRANCH   2   4
HETATM    4  C3  UNL     1      -2.739   1.056  11.320  1.00  0.00     0.064 C 
BRANCH   4   5
HETATM    5  N1  UNL     1      -3.644  -0.008  11.314  1.00  0.00    -0.401 N 
HETATM    6  C4  UNL     1      -3.210  -1.342  11.243  1.00  0.00     0.148 C 
HETATM    7  C5  UNL     1      -4.900   0.254  10.650  1.00  0.00     0.148 C 
ENDBRANCH   4   5
ENDBRANCH   2   4
ENDBRANCH   1   2
BRANCH   1   8
HETATM    8  O1  UNL     1      -2.651   3.829  13.629  1.00  0.00    -0.394 OA
ATOM      9  H1  UNL     1      -3.255   4.281  14.206  1.00  0.00     0.210 HD
ENDBRANCH   1   8
BRANCH   1  10
HETATM   10  C7  UNL     1      -4.475   2.390  13.949  1.00  0.00     0.021 C 
HETATM   11  C8  UNL     1      -4.779   3.550  14.869  1.00  0.00     0.027 C 
HETATM   12  C9  UNL     1      -5.969   3.122  15.706  1.00  0.00     0.122 C 
HETATM   13  N2  UNL     1      -5.473   2.184  16.652  1.00  0.00    -0.398 N 
HETATM   14  C10 UNL     1      -6.252   1.967  17.817  1.00  0.00     0.148 C 
HETATM   15  C11 UNL     1      -4.716   1.115  16.132  1.00  0.00     0.058 C 
HETATM   16  C12 UNL     1      -4.539   1.084  14.650  1.00  0.00     0.051 C 
ENDBRANCH   1  10
TORSDOF 5
ENDMDL
MODEL 5
REMARK VINA RESULT: -5.094892935      1.145      1.912
REMARK  5 active torsions:
REMARK  status: ('A' for Active; 'I' for Inactive)
REMARK    1  A    between atoms: C2_2  and  C3_3 
REMARK    2  A    between atoms: C2_2  and  C6_7 
REMARK    3  A    between atoms: C3_3  and  N1_4 
REMARK    4  A    between atoms: C6_7  and  O1_8 
REMARK    5  A    between atoms: C6_7  and  C7_10 
ROOT
HETATM    1  C6  UNL     1      -5.520   3.375  13.951  1.00  0.00     0.131 C 
ENDROOT
BRANCH   1   2
HETATM    2  C2  UNL     1      -5.580   3.680  15.418  1.00  0.00     0.049 C 
HETATM    3  C1  UNL     1      -6.044   5.116  15.536  1.00  0.00     0.018 C 
BRANCH   2   4
HETATM    4  C3  UNL     1      -6.486   2.782  16.165  1.00  0.00     0.064 C 
BRANCH   4   5
HETATM    5  N1  UNL     1      -5.988   1.969  17.186  1.00  0.00    -0.401 N 
HETATM    6  C4  UNL     1      -5.888   0.576  17.034  1.00  0.00     0.148 C 
HETATM    7  C5  UNL     1      -6.290   2.409  18.529  1.00  0.00     0.148 C 
ENDBRANCH   4   5
ENDBRANCH   2   4
ENDBRANCH   1   2
BRANCH   1   8
HETATM    8  O1  UNL     1      -5.661   4.545  13.177  1.00  0.00    -0.394 OA
ATOM      9  H1  UNL     1      -5.538   4.366  12.253  1.00  0.00     0.210 HD
ENDBRANCH   1   8
BRANCH   1  10
HETATM   10  C7  UNL     1      -4.260   2.689  13.484  1.00  0.00     0.021 C 
HETATM   11  C8  UNL     1      -3.883   3.111  12.083  1.00  0.00     0.027 C 
HETATM   12  C9  UNL     1      -2.800   2.151  11.632  1.00  0.00     0.122 C 
HETATM   13  N2  UNL     1      -3.453   0.920  11.349  1.00  0.00    -0.398 N 
HETATM   14  C10 UNL     1      -2.773   0.007  10.503  1.00  0.00     0.148 C 
HETATM   15  C11 UNL     1      -4.293   0.413  12.360  1.00  0.00     0.058 C 
HETATM   16  C12 UNL     1      -4.385   1.217  13.614  1.00  0.00     0.051 C 
ENDBRANCH   1  10
TORSDOF 5
ENDMDL
