MODEL 1
REMARK VINA RESULT: -6.237506988      0.000      0.000
REMARK  5 active torsions:
REMARK  status: ('A' for Active; 'I' for Inactive)
REMARK    1  A    between atoms: O1_1  and  C1_3 
REMARK    2  A    between atoms: N1_6  and  C4_7 
REMARK    3  A    between atoms: C4_7  and  C5_8 
REMARK    4  A    between atoms: C5_8  and  C6_9 
REMARK    5  A    between atoms: C6_9  and  N2_10 
ROOT
HETATM    1  C1  UNL     1      -3.351   0.196  10.716  1.00  0.00     0.121 C 
HETATM    2  C2  UNL     1      -2.629   1.536  10.891  1.00  0.00     0.062 C 
HETATM    3  C3  UNL     1      -3.045   2.016  12.262  1.00  0.00     0.275 C 
HETATM    4  N1  UNL     1      -4.377   2.613  12.129  1.00  0.00     0.088 N 
HETATM    5  C11 UNL     1      -5.129   1.894  11.101  1.00  0.00     0.275 C 
HETATM    6  C12 UNL     1      -4.763   0.424  11.182  1.00  0.00     0.062 C 
ENDROOT
BRANCH   4   7
HETATM    7  C4  UNL     1      -5.092   2.504  13.393  1.00  0.00     0.274 C 
BRANCH   7   8
HETATM    8  C5  UNL     1      -4.067   2.071  14.430  1.00  0.00     0.060 C 
BRANCH   8   9
HETATM    9  C6  UNL     1      -4.654   0.892  15.203  1.00  0.00     0.274 C 
BRANCH   9  10
HETATM   10  N2  UNL     1      -4.914   1.313  16.548  1.00  0.00     0.088 N 
HETATM   11  C7  UNL     1      -5.363   2.676  16.664  1.00  0.00     0.272 C 
HETATM   12  C8  UNL     1      -6.804   2.685  17.061  1.00  0.00     0.032 C 
HETATM   13  C9  UNL     1      -7.243   1.261  16.879  1.00  0.00     0.032 C 
HETATM   14  C10 UNL     1      -5.962   0.500  17.161  1.00  0.00     0.272 C 
ENDBRANCH   9  10
ENDBRANCH   8   9
ENDBRANCH   7   8
ENDBRANCH   4   7
BRANCH   1  15
HETATM   15  O1  UNL     1      -3.370  -0.246   9.411  1.00  0.00    -0.395 OA
ATOM     16  H1  UNL     1      -3.115  -1.157   9.319  1.00  0.00     0.210 HD
ENDBRANCH   1  15
TORSDOF 5
ENDMDL
MODEL 2
REMARK VINA RESULT: -6.196442923      2.562      5.543
REMARK  5 active torsions:
REMARK  status: ('A' for Active; 'I' for Inactive)
REMARK    1  A    between atoms: O1_1  and  C1_3 
REMARK    2  A    between atoms: N1_6  and  C4_7 
REMARK    3  A    between atoms: C4_7  and  C5_8 
REMARK    4  A    between atoms: C5_8  and  C6_9 
REMARK    5  A    between atoms: C6_9  and  N2_10 
ROOT
HETATM    1  C1  UNL     1      -6.057   0.918  16.923  1.00  0.00     0.121 C 
HETATM    2  C2  UNL     1      -6.342   2.385  17.262  1.00  0.00     0.062 C 
HETATM    3  C3  UNL     1      -6.437   3.074  15.921  1.00  0.00     0.275 C 
HETATM    4  N1  UNL     1      -5.067   3.321  15.461  1.00  0.00     0.088 N 
HETATM    5  C11 UNL     1      -4.201   2.234  15.916  1.00  0.00     0.275 C 
HETATM    6  C12 UNL     1      -4.989   0.939  15.863  1.00  0.00     0.062 C 
ENDROOT
BRANCH   4   7
HETATM    7  C4  UNL     1      -5.038   3.363  14.005  1.00  0.00     0.274 C 
BRANCH   7   8
HETATM    8  C5  UNL     1      -3.571   3.363  13.605  1.00  0.00     0.060 C 
BRANCH   8   9
HETATM    9  C6  UNL     1      -3.438   2.552  12.318  1.00  0.00     0.274 C 
BRANCH   9  10
HETATM   10  N2  UNL     1      -4.523   1.619  12.253  1.00  0.00     0.088 N 
HETATM   11  C7  UNL     1      -5.154   1.535  10.961  1.00  0.00     0.272 C 
HETATM   12  C8  UNL     1      -4.823   0.216  10.339  1.00  0.00     0.032 C 
HETATM   13  C9  UNL     1      -3.728  -0.333  11.207  1.00  0.00     0.032 C 
HETATM   14  C10 UNL     1      -4.070   0.263  12.559  1.00  0.00     0.272 C 
ENDBRANCH   9  10
ENDBRANCH   8   9
ENDBRANCH   7   8
ENDBRANCH   4   7
BRANCH   1  15
HETATM   15  O1  UNL     1      -5.611   0.186  18.002  1.00  0.00    -0.395 OA
ATOM     16  H1  UNL     1      -6.083   0.375  18.804  1.00  0.00     0.210 HD
ENDBRANCH   1  15
TORSDOF 5
ENDMDL
MODEL 3
REMARK VINA RESULT: -6.171525836      0.818      1.323
REMARK  5 active torsions:
REMARK  status: ('A' for Active; 'I' for Inactive)
REMARK    1  A    between atoms: O1_1  and  C1_3 
REMARK    2  A    between atoms: N1_6  and  C4_7 
REMARK    3  A    between atoms: C4_7  and  C5_8 
REMARK    4  A    between atoms: C5_8  and  C6_9 
REMARK    5  A    between atoms: C6_9  and  N2_10 
ROOT
HETATM    1  C1  UNL     1      -3.508   0.216  10.695  1.00  0.00     0.121 C 
HETATM    2  C2  UNL     1      -2.508   1.369  10.831  1.00  0.00     0.062 C 
HETATM    3  C3  UNL     1      -2.864   2.029  12.142  1.00  0.00     0.275 C 
HETATM    4  N1  UNL     1      -4.017   2.899  11.893  1.00  0.00     0.088 N 
HETATM    5  C11 UNL     1      -4.867   2.294  10.868  1.00  0.00     0.275 C 
HETATM    6  C12 UNL     1      -4.851   0.789  11.060  1.00  0.00     0.062 C 
ENDROOT
BRANCH   4   7
HETATM    7  C4  UNL     1      -4.794   3.047  13.117  1.00  0.00     0.274 C 
BRANCH   7   8
HETATM    8  C5  UNL     1      -3.829   2.808  14.268  1.00  0.00     0.060 C 
BRANCH   8   9
HETATM    9  C6  UNL     1      -4.570   3.115  15.568  1.00  0.00     0.274 C 
BRANCH   9  10
HETATM   10  N2  UNL     1      -5.708   2.248  15.660  1.00  0.00     0.088 N 
HETATM   11  C7  UNL     1      -5.395   0.906  16.079  1.00  0.00     0.272 C 
HETATM   12  C8  UNL     1      -5.921   0.691  17.462  1.00  0.00     0.032 C 
HETATM   13  C9  UNL     1      -6.290   2.068  17.933  1.00  0.00     0.032 C 
HETATM   14  C10 UNL     1      -6.674   2.750  16.634  1.00  0.00     0.272 C 
ENDBRANCH   9  10
ENDBRANCH   8   9
ENDBRANCH   7   8
ENDBRANCH   4   7
BRANCH   1  15
HETATM   15  O1  UNL     1      -3.570  -0.305   9.421  1.00  0.00    -0.395 OA
ATOM     16  H1  UNL     1      -4.022   0.261   8.805  1.00  0.00     0.210 HD
ENDBRANCH   1  15
TORSDOF 5
ENDMDL
MODEL 4
REMARK VINA RESULT: -6.168624703      1.369      1.794
REMARK  5 active torsions:
REMARK  status: ('A' for Active; 'I' for Inactive)
REMARK    1  A    between atoms: O1_1  and  C1_3 
REMARK    2  A    between atoms: N1_6  and  C4_7 
REMARK    3  A    between atoms: C4_7  and  C5_8 
REMARK    4  A    between atoms: C5_8  and  C6_9 
REMARK    5  A    between atoms: C6_9  and  N2_10 
ROOT
HETATM    1  C1  UNL     1      -2.066   2.735  10.639  1.00  0.00     0.121 C 
HETATM    2  C2  UNL     1      -3.525   3.194  10.722  1.00  0.00     0.062 C 
HETATM    3  C3  UNL     1      -4.042   2.589  12.006  1.00  0.00     0.275 C 
HETATM    4  N1  UNL     1      -4.372   1.188  11.726  1.00  0.00     0.088 N 
HETATM    5  C11 UNL     1      -3.438   0.661  10.730  1.00  0.00     0.275 C 
HETATM    6  C12 UNL     1      -2.073   1.271  10.986  1.00  0.00     0.062 C 
ENDROOT
BRANCH   4   7
HETATM    7  C4  UNL     1      -4.248   0.401  12.945  1.00  0.00     0.274 C 
BRANCH   7   8
HETATM    8  C5  UNL     1      -4.424   1.373  14.102  1.00  0.00     0.060 C 
BRANCH   8   9
HETATM    9  C6  UNL     1      -4.603   0.552  15.378  1.00  0.00     0.274 C 
BRANCH   9  10
HETATM   10  N2  UNL     1      -4.883   1.448  16.461  1.00  0.00     0.088 N 
HETATM   11  C7  UNL     1      -5.511   2.680  16.060  1.00  0.00     0.272 C 
HETATM   12  C8  UNL     1      -6.930   2.683  16.533  1.00  0.00     0.032 C 
HETATM   13  C9  UNL     1      -7.174   1.267  16.966  1.00  0.00     0.032 C 
HETATM   14  C10 UNL     1      -5.795   0.837  17.426  1.00  0.00     0.272 C 
ENDBRANCH   9  10
ENDBRANCH   8   9
ENDBRANCH   7   8
ENDBRANCH   4   7
BRANCH   1  15
HETATM   15  O1  UNL     1      -1.512   2.902   9.388  1.00  0.00    -0.395 OA
ATOM     16  H1  UNL     1      -1.642   2.153   8.817  1.00  0.00     0.210 HD
ENDBRANCH   1  15
TORSDOF 5
ENDMDL
MODEL 5
REMARK VINA RESULT: -6.100083427      2.585      5.685
REMARK  5 active torsions:
REMARK  status: ('A' for Active; 'I' for Inactive)
REMARK    1  A    between atoms: O1_1  and  C1_3 
REMARK    2  A    between atoms: N1_6  and  C4_7 
REMARK    3  A    between atoms: C4_7  and  C5_8 
REMARK    4  A    between atoms: C5_8  and  C6_9 
REMARK    5  A    between atoms: C6_9  and  N2_10 
ROOT
HETATM    1  C1  UNL     1      -6.081   0.950  16.960  1.00  0.00     0.121 C 
HETATM    2  C2  UNL     1      -6.325   2.414  17.343  1.00  0.00     0.062 C 
HETATM    3  C3  UNL     1      -6.551   3.119  16.027  1.00  0.00     0.275 C 
HETATM    4  N1  UNL     1      -5.234   3.368  15.435  1.00  0.00     0.088 N 
HETATM    5  C11 UNL     1      -4.330   2.273  15.788  1.00  0.00     0.275 C 
HETATM    6  C12 UNL     1      -5.125   0.981  15.799  1.00  0.00     0.062 C 
ENDROOT
BRANCH   4   7
HETATM    7  C4  UNL     1      -5.351   3.426  13.984  1.00  0.00     0.274 C 
BRANCH   7   8
HETATM    8  C5  UNL     1      -3.932   3.386  13.437  1.00  0.00     0.060 C 
BRANCH   8   9
HETATM    9  C6  UNL     1      -3.961   2.614  12.120  1.00  0.00     0.274 C 
BRANCH   9  10
HETATM   10  N2  UNL     1      -3.311   1.352  12.316  1.00  0.00     0.088 N 
HETATM   11  C7  UNL     1      -4.213   0.253  12.546  1.00  0.00     0.272 C 
HETATM   12  C8  UNL     1      -4.200  -0.648  11.353  1.00  0.00     0.032 C 
HETATM   13  C9  UNL     1      -3.472   0.142  10.304  1.00  0.00     0.032 C 
HETATM   14  C10 UNL     1      -2.524   0.977  11.143  1.00  0.00     0.272 C 
ENDBRANCH   9  10
ENDBRANCH   8   9
ENDBRANCH   7   8
ENDBRANCH   4   7
BRANCH   1  15
HETATM   15  O1  UNL     1      -5.531   0.204  17.981  1.00  0.00    -0.395 OA
ATOM     16  H1  UNL     1      -4.589   0.104  17.907  1.00  0.00     0.210 HD
ENDBRANCH   1  15
TORSDOF 5
ENDMDL
