MODEL 1
REMARK VINA RESULT: -5.540693444      0.000      0.000
REMARK  3 active torsions:
REMARK  status: ('A' for Active; 'I' for Inactive)
REMARK    1  A    between atoms: C2_2  and  C3_3 
REMARK    2  A    between atoms: C3_3  and  N1_4 
REMARK    3  A    between atoms: C7_9  and  C8_10 
ROOT
HETATM    1  N1  UNL     1      -4.904   2.190  15.057  1.00  0.00     0.093 N 
HETATM    2  C4  UNL     1      -4.463   3.526  14.834  1.00  0.00     0.303 C 
HETATM    3  C5  UNL     1      -3.348   3.697  13.854  1.00  0.00     0.302 C 
HETATM    4  N2  UNL     1      -3.763   3.564  12.478  1.00  0.00     0.091 N 
HETATM    5  C6  UNL     1      -2.797   2.738  11.759  1.00  0.00     0.278 C 
HETATM    6  C7  UNL     1      -3.112   1.300  12.101  1.00  0.00     0.031 C 
HETATM    7  C9  UNL     1      -4.475   1.412  12.747  1.00  0.00     0.049 C 
HETATM    8  C10 UNL     1      -4.363   1.186  14.211  1.00  0.00     0.279 C 
HETATM    9  C11 UNL     1      -4.978   2.780  12.353  1.00  0.00     0.279 C 
ENDROOT
BRANCH   1  10
HETATM   10  C3  UNL     1      -4.870   1.814  16.429  1.00  0.00     0.299 C 
BRANCH  10  11
HETATM   11  C2  UNL     1      -5.917   0.889  16.883  1.00  0.00    -0.007 C 
HETATM   12  C1  UNL     1      -7.202   1.220  16.958  1.00  0.00     0.008 C 
ENDBRANCH  10  11
ENDBRANCH   1  10
BRANCH   6  13
HETATM   13  C8  UNL     1      -3.162   0.440  10.855  1.00  0.00     0.093 C 
HETATM   14  S1  UNL     1      -3.432  -1.279  11.279  1.00  0.00    -0.097 SA
ENDBRANCH   6  13
TORSDOF 3
ENDMDL
MODEL 2
REMARK VINA RESULT: -5.513312648      2.284      4.488
REMARK  3 active torsions:
REMARK  status: ('A' for Active; 'I' for Inactive)
REMARK    1  A    between atoms: C2_2  and  C3_3 
REMARK    2  A    between atoms: C3_3  and  N1_4 
REMARK    3  A    between atoms: C7_9  and  C8_10 
ROOT
HETATM    1  N1  UNL     1      -3.475   1.978  12.822  1.00  0.00     0.093 N 
HETATM    2  C4  UNL     1      -3.386   3.366  12.516  1.00  0.00     0.303 C 
HETATM    3  C5  UNL     1      -4.483   4.230  13.047  1.00  0.00     0.302 C 
HETATM    4  N2  UNL     1      -4.375   4.496  14.461  1.00  0.00     0.091 N 
HETATM    5  C6  UNL     1      -5.687   4.345  15.085  1.00  0.00     0.278 C 
HETATM    6  C7  UNL     1      -5.911   2.863  15.276  1.00  0.00     0.031 C 
HETATM    7  C9  UNL     1      -4.530   2.293  15.038  1.00  0.00     0.049 C 
HETATM    8  C10 UNL     1      -4.492   1.586  13.732  1.00  0.00     0.279 C 
HETATM    9  C11 UNL     1      -3.600   3.477  15.145  1.00  0.00     0.279 C 
ENDROOT
BRANCH   1  10
HETATM   10  C3  UNL     1      -3.439   1.149  11.665  1.00  0.00     0.299 C 
BRANCH  10  11
HETATM   11  C2  UNL     1      -4.029  -0.190  11.798  1.00  0.00    -0.007 C 
HETATM   12  C1  UNL     1      -3.429  -1.298  11.374  1.00  0.00     0.008 C 
ENDBRANCH  10  11
ENDBRANCH   1  10
BRANCH   6  13
HETATM   13  C8  UNL     1      -6.397   2.560  16.678  1.00  0.00     0.093 C 
HETATM   14  S1  UNL     1      -5.988   0.880  17.144  1.00  0.00    -0.097 SA
ENDBRANCH   6  13
TORSDOF 3
ENDMDL
MODEL 3
REMARK VINA RESULT: -5.372624378      2.622      4.805
REMARK  3 active torsions:
REMARK  status: ('A' for Active; 'I' for Inactive)
REMARK    1  A    between atoms: C2_2  and  C3_3 
REMARK    2  A    between atoms: C3_3  and  N1_4 
REMARK    3  A    between atoms: C7_9  and  C8_10 
ROOT
HETATM    1  N1  UNL     1      -3.747   1.537  12.998  1.00  0.00     0.093 N 
HETATM    2  C4  UNL     1      -4.110   2.910  12.891  1.00  0.00     0.303 C 
HETATM    3  C5  UNL     1      -5.256   3.356  13.739  1.00  0.00     0.302 C 
HETATM    4  N2  UNL     1      -4.916   3.515  15.132  1.00  0.00     0.091 N 
HETATM    5  C6  UNL     1      -5.967   2.925  15.958  1.00  0.00     0.278 C 
HETATM    6  C7  UNL     1      -5.730   1.433  15.964  1.00  0.00     0.031 C 
HETATM    7  C9  UNL     1      -4.333   1.324  15.393  1.00  0.00     0.049 C 
HETATM    8  C10 UNL     1      -4.391   0.780  14.011  1.00  0.00     0.279 C 
HETATM    9  C11 UNL     1      -3.762   2.717  15.502  1.00  0.00     0.279 C 
ENDROOT
BRANCH   1  10
HETATM   10  C3  UNL     1      -3.741   0.864  11.744  1.00  0.00     0.299 C 
BRANCH  10  11
HETATM   11  C2  UNL     1      -4.074  -0.568  11.765  1.00  0.00    -0.007 C 
HETATM   12  C1  UNL     1      -3.247  -1.516  11.339  1.00  0.00     0.008 C 
ENDBRANCH  10  11
ENDBRANCH   1  10
BRANCH   6  13
HETATM   13  C8  UNL     1      -5.794   0.875  17.370  1.00  0.00     0.093 C 
HETATM   14  S1  UNL     1      -6.281   2.144  18.537  1.00  0.00    -0.097 SA
ENDBRANCH   6  13
TORSDOF 3
ENDMDL
MODEL 4
REMARK VINA RESULT: -5.305460192      2.422      4.851
REMARK  3 active torsions:
REMARK  status: ('A' for Active; 'I' for Inactive)
REMARK    1  A    between atoms: C2_2  and  C3_3 
REMARK    2  A    between atoms: C3_3  and  N1_4 
REMARK    3  A    between atoms: C7_9  and  C8_10 
ROOT
HETATM    1  N1  UNL     1      -3.802   2.573  12.714  1.00  0.00     0.093 N 
HETATM    2  C4  UNL     1      -3.625   3.966  12.478  1.00  0.00     0.303 C 
HETATM    3  C5  UNL     1      -4.669   4.869  13.049  1.00  0.00     0.302 C 
HETATM    4  N2  UNL     1      -4.552   5.057  14.476  1.00  0.00     0.091 N 
HETATM    5  C6  UNL     1      -5.875   4.958  15.088  1.00  0.00     0.278 C 
HETATM    6  C7  UNL     1      -6.192   3.485  15.204  1.00  0.00     0.031 C 
HETATM    7  C9  UNL     1      -4.848   2.842  14.941  1.00  0.00     0.049 C 
HETATM    8  C10 UNL     1      -4.846   2.200  13.602  1.00  0.00     0.279 C 
HETATM    9  C11 UNL     1      -3.846   3.959  15.110  1.00  0.00     0.279 C 
ENDROOT
BRANCH   1  10
HETATM   10  C3  UNL     1      -3.811   1.802  11.518  1.00  0.00     0.299 C 
BRANCH  10  11
HETATM   11  C2  UNL     1      -2.667   0.905  11.305  1.00  0.00    -0.007 C 
HETATM   12  C1  UNL     1      -1.453   1.335  10.976  1.00  0.00     0.008 C 
ENDBRANCH  10  11
ENDBRANCH   1  10
BRANCH   6  13
HETATM   13  C8  UNL     1      -6.703   3.144  16.588  1.00  0.00     0.093 C 
HETATM   14  S1  UNL     1      -6.762   1.369  16.825  1.00  0.00    -0.097 SA
ENDBRANCH   6  13
TORSDOF 3
ENDMDL
MODEL 5
REMARK VINA RESULT: -5.100138268      1.635      1.696
REMARK  3 active torsions:
REMARK  status: ('A' for Active; 'I' for Inactive)
REMARK    1  A    between atoms: C2_2  and  C3_3 
REMARK    2  A    between atoms: C3_3  and  N1_4 
REMARK    3  A    between atoms: C7_9  and  C8_10 
ROOT
HETATM    1  N1  UNL     1      -4.950   1.847  15.147  1.00  0.00     0.093 N 
HETATM    2  C4  UNL     1      -4.484   3.088  15.668  1.00  0.00     0.303 C 
HETATM    3  C5  UNL     1      -3.302   3.689  14.981  1.00  0.00     0.302 C 
HETATM    4  N2  UNL     1      -3.620   4.298  13.712  1.00  0.00     0.091 N 
HETATM    5  C6  UNL     1      -2.611   3.917  12.726  1.00  0.00     0.278 C 
HETATM    6  C7  UNL     1      -2.960   2.522  12.261  1.00  0.00     0.031 C 
HETATM    7  C9  UNL     1      -4.365   2.345  12.794  1.00  0.00     0.049 C 
HETATM    8  C10 UNL     1      -4.358   1.396  13.938  1.00  0.00     0.279 C 
HETATM    9  C11 UNL     1      -4.828   3.742  13.133  1.00  0.00     0.279 C 
ENDROOT
BRANCH   1  10
HETATM   10  C3  UNL     1      -5.015   0.820  16.130  1.00  0.00     0.299 C 
BRANCH  10  11
HETATM   11  C2  UNL     1      -6.029   0.981  17.182  1.00  0.00    -0.007 C 
HETATM   12  C1  UNL     1      -7.320   1.168  16.930  1.00  0.00     0.008 C 
ENDBRANCH  10  11
ENDBRANCH   1  10
BRANCH   6  13
HETATM   13  C8  UNL     1      -2.929   2.426  10.751  1.00  0.00     0.093 C 
HETATM   14  S1  UNL     1      -1.372   3.032  10.105  1.00  0.00    -0.097 SA
ENDBRANCH   6  13
TORSDOF 3
ENDMDL
