MODEL 1
REMARK VINA RESULT: -6.141801147      0.000      0.000
REMARK  4 active torsions:
REMARK  status: ('A' for Active; 'I' for Inactive)
REMARK    1  A    between atoms: N2_11  and  C8_12 
REMARK    2  A    between atoms: C8_12  and  C9_13 
REMARK    3  A    between atoms: C9_13  and  C10_14 
REMARK    4  A    between atoms: C10_14  and  C11_15 
ROOT
HETATM    1  C1  UNL     1      -7.004   1.121  17.263  1.00  0.00     0.028 C 
HETATM    2  C2  UNL     1      -5.654   0.520  16.912  1.00  0.00     0.235 C 
HETATM    3  N1  UNL     1      -5.220   1.000  15.635  1.00  0.00    -0.043 N 
ATOM      4  H11 UNL     1      -5.920   0.804  14.920  1.00  0.00     0.279 HD
ATOM      5  H12 UNL     1      -4.449   0.434  15.281  1.00  0.00     0.279 HD
HETATM    6  C3  UNL     1      -4.861   2.420  15.629  1.00  0.00     0.423 C 
HETATM    7  C4  UNL     1      -5.913   3.199  16.338  1.00  0.00     0.048 C 
HETATM    8  C5  UNL     1      -7.203   2.436  16.574  1.00  0.00     0.010 C 
HETATM    9  C6  UNL     1      -6.244   4.368  15.438  1.00  0.00     0.039 C 
HETATM   10  C7  UNL     1      -5.873   3.829  14.068  1.00  0.00     0.275 C 
HETATM   11  N2  UNL     1      -4.881   2.804  14.232  1.00  0.00     0.119 N 
ENDROOT
BRANCH  11  12
HETATM   12  C8  UNL     1      -3.570   3.188  13.761  1.00  0.00     0.275 C 
BRANCH  12  13
HETATM   13  C9  UNL     1      -3.526   2.959  12.286  1.00  0.00     0.033 C 
BRANCH  13  14
HETATM   14  C10 UNL     1      -3.149   1.549  11.891  1.00  0.00     0.036 C 
BRANCH  14  15
HETATM   15  C11 UNL     1      -4.311   0.611  11.830  1.00  0.00     0.145 A 
HETATM   16  C12 UNL     1      -3.954  -0.845  11.681  1.00  0.00     0.200 A 
HETATM   17  O1  UNL     1      -4.525  -0.287  12.879  1.00  0.00    -0.381 OA
ENDBRANCH  14  15
ENDBRANCH  13  14
ENDBRANCH  12  13
ENDBRANCH  11  12
TORSDOF 4
ENDMDL
MODEL 2
REMARK VINA RESULT: -6.017524413      1.529      4.786
REMARK  4 active torsions:
REMARK  status: ('A' for Active; 'I' for Inactive)
REMARK    1  A    between atoms: N2_11  and  C8_12 
REMARK    2  A    between atoms: C8_12  and  C9_13 
REMARK    3  A    between atoms: C9_13  and  C10_14 
REMARK    4  A    between atoms: C10_14  and  C11_15 
ROOT
HETATM    1  C1  UNL     1      -3.068  -0.532  11.133  1.00  0.00     0.028 C 
HETATM    2  C2  UNL     1      -4.290  -0.536  12.037  1.00  0.00     0.235 C 
HETATM    3  N1  UNL     1      -4.248   0.587  12.923  1.00  0.00    -0.043 N 
ATOM      4  H11 UNL     1      -3.380   0.590  13.458  1.00  0.00     0.279 HD
ATOM      5  H12 UNL     1      -4.918   0.470  13.683  1.00  0.00     0.279 HD
HETATM    6  C3  UNL     1      -4.446   1.876  12.256  1.00  0.00     0.423 C 
HETATM    7  C4  UNL     1      -3.602   1.932  11.031  1.00  0.00     0.048 C 
HETATM    8  C5  UNL     1      -2.534   0.858  10.957  1.00  0.00     0.010 C 
HETATM    9  C6  UNL     1      -2.891   3.266  11.076  1.00  0.00     0.039 C 
HETATM   10  C7  UNL     1      -2.859   3.558  12.566  1.00  0.00     0.275 C 
HETATM   11  N2  UNL     1      -3.947   2.862  13.193  1.00  0.00     0.119 N 
ENDROOT
BRANCH  11  12
HETATM   12  C8  UNL     1      -4.997   3.735  13.664  1.00  0.00     0.275 C 
BRANCH  12  13
HETATM   13  C9  UNL     1      -4.990   3.698  15.158  1.00  0.00     0.033 C 
BRANCH  13  14
HETATM   14  C10 UNL     1      -5.886   2.635  15.753  1.00  0.00     0.036 C 
BRANCH  14  15
HETATM   15  C11 UNL     1      -5.140   1.492  16.363  1.00  0.00     0.145 A 
HETATM   16  C12 UNL     1      -5.979   0.530  17.161  1.00  0.00     0.200 A 
HETATM   17  O1  UNL     1      -5.371   0.195  15.899  1.00  0.00    -0.381 OA
ENDBRANCH  14  15
ENDBRANCH  13  14
ENDBRANCH  12  13
ENDBRANCH  11  12
TORSDOF 4
ENDMDL
MODEL 3
REMARK VINA RESULT: -5.729736650      1.473      2.371
REMARK  4 active torsions:
REMARK  status: ('A' for Active; 'I' for Inactive)
REMARK    1  A    between atoms: N2_11  and  C8_12 
REMARK    2  A    between atoms: C8_12  and  C9_13 
REMARK    3  A    between atoms: C9_13  and  C10_14 
REMARK    4  A    between atoms: C10_14  and  C11_15 
ROOT
HETATM    1  C1  UNL     1      -6.309   3.919  15.648  1.00  0.00     0.028 C 
HETATM    2  C2  UNL     1      -5.627   2.610  15.287  1.00  0.00     0.235 C 
HETATM    3  N1  UNL     1      -4.997   2.723  14.007  1.00  0.00    -0.043 N 
ATOM      4  H11 UNL     1      -5.672   3.007  13.298  1.00  0.00     0.279 HD
ATOM      5  H12 UNL     1      -4.747   1.802  13.647  1.00  0.00     0.279 HD
HETATM    6  C3  UNL     1      -3.833   3.612  13.996  1.00  0.00     0.423 C 
HETATM    7  C4  UNL     1      -4.169   4.873  14.713  1.00  0.00     0.048 C 
HETATM    8  C5  UNL     1      -5.651   5.076  14.960  1.00  0.00     0.010 C 
HETATM    9  C6  UNL     1      -3.706   5.998  13.816  1.00  0.00     0.039 C 
HETATM   10  C7  UNL     1      -3.760   5.351  12.443  1.00  0.00     0.275 C 
HETATM   11  N2  UNL     1      -3.619   3.931  12.600  1.00  0.00     0.119 N 
ENDROOT
BRANCH  11  12
HETATM   12  C8  UNL     1      -2.357   3.419  12.118  1.00  0.00     0.275 C 
BRANCH  12  13
HETATM   13  C9  UNL     1      -2.634   2.548  10.937  1.00  0.00     0.033 C 
BRANCH  13  14
HETATM   14  C10 UNL     1      -2.662   1.070  11.253  1.00  0.00     0.036 C 
BRANCH  14  15
HETATM   15  C11 UNL     1      -4.041   0.501  11.347  1.00  0.00     0.145 A 
HETATM   16  C12 UNL     1      -4.109  -0.961  11.705  1.00  0.00     0.200 A 
HETATM   17  O1  UNL     1      -4.533   0.094  12.590  1.00  0.00    -0.381 OA
ENDBRANCH  14  15
ENDBRANCH  13  14
ENDBRANCH  12  13
ENDBRANCH  11  12
TORSDOF 4
ENDMDL
MODEL 4
REMARK VINA RESULT: -5.670610472      2.041      5.247
REMARK  4 active torsions:
REMARK  status: ('A' for Active; 'I' for Inactive)
REMARK    1  A    between atoms: N2_11  and  C8_12 
REMARK    2  A    between atoms: C8_12  and  C9_13 
REMARK    3  A    between atoms: C9_13  and  C10_14 
REMARK    4  A    between atoms: C10_14  and  C11_15 
ROOT
HETATM    1  C1  UNL     1      -0.737   2.761  10.978  1.00  0.00     0.028 C 
HETATM    2  C2  UNL     1      -1.835   1.710  10.946  1.00  0.00     0.235 C 
HETATM    3  N1  UNL     1      -2.602   1.766  12.153  1.00  0.00    -0.043 N 
ATOM      4  H11 UNL     1      -1.998   1.659  12.968  1.00  0.00     0.279 HD
ATOM      5  H12 UNL     1      -3.176   0.929  12.253  1.00  0.00     0.279 HD
HETATM    6  C3  UNL     1      -3.425   2.972  12.277  1.00  0.00     0.423 C 
HETATM    7  C4  UNL     1      -2.609   4.165  11.922  1.00  0.00     0.048 C 
HETATM    8  C5  UNL     1      -1.115   3.907  11.866  1.00  0.00     0.010 C 
HETATM    9  C6  UNL     1      -2.847   5.174  13.022  1.00  0.00     0.039 C 
HETATM   10  C7  UNL     1      -3.218   4.283  14.195  1.00  0.00     0.275 C 
HETATM   11  N2  UNL     1      -3.758   3.055  13.684  1.00  0.00     0.119 N 
ENDROOT
BRANCH  11  12
HETATM   12  C8  UNL     1      -5.177   2.908  13.911  1.00  0.00     0.275 C 
BRANCH  12  13
HETATM   13  C9  UNL     1      -5.528   3.675  15.143  1.00  0.00     0.033 C 
BRANCH  13  14
HETATM   14  C10 UNL     1      -6.251   2.862  16.192  1.00  0.00     0.036 C 
BRANCH  14  15
HETATM   15  C11 UNL     1      -5.883   1.413  16.189  1.00  0.00     0.145 A 
HETATM   16  C12 UNL     1      -5.896   0.744  17.539  1.00  0.00     0.200 A 
HETATM   17  O1  UNL     1      -6.853   0.457  16.501  1.00  0.00    -0.381 OA
ENDBRANCH  14  15
ENDBRANCH  13  14
ENDBRANCH  12  13
ENDBRANCH  11  12
TORSDOF 4
ENDMDL
MODEL 5
REMARK VINA RESULT: -5.656761837      2.124      5.110
REMARK  4 active torsions:
REMARK  status: ('A' for Active; 'I' for Inactive)
REMARK    1  A    between atoms: N2_11  and  C8_12 
REMARK    2  A    between atoms: C8_12  and  C9_13 
REMARK    3  A    between atoms: C9_13  and  C10_14 
REMARK    4  A    between atoms: C10_14  and  C11_15 
ROOT
HETATM    1  C1  UNL     1      -1.782   0.800  10.908  1.00  0.00     0.028 C 
HETATM    2  C2  UNL     1      -3.141   0.744  11.586  1.00  0.00     0.235 C 
HETATM    3  N1  UNL     1      -3.212   1.727  12.625  1.00  0.00    -0.043 N 
ATOM      4  H11 UNL     1      -2.450   1.601  13.291  1.00  0.00     0.279 HD
ATOM      5  H12 UNL     1      -4.007   1.545  13.237  1.00  0.00     0.279 HD
HETATM    6  C3  UNL     1      -3.244   3.106  12.133  1.00  0.00     0.423 C 
HETATM    7  C4  UNL     1      -2.200   3.282  11.087  1.00  0.00     0.048 C 
HETATM    8  C5  UNL     1      -1.175   2.165  11.031  1.00  0.00     0.010 C 
HETATM    9  C6  UNL     1      -1.460   4.550  11.446  1.00  0.00     0.039 C 
HETATM   10  C7  UNL     1      -1.675   4.628  12.948  1.00  0.00     0.275 C 
HETATM   11  N2  UNL     1      -2.879   3.918  13.275  1.00  0.00     0.119 N 
ENDROOT
BRANCH  11  12
HETATM   12  C8  UNL     1      -3.962   4.779  13.691  1.00  0.00     0.275 C 
BRANCH  12  13
HETATM   13  C9  UNL     1      -4.291   4.452  15.111  1.00  0.00     0.033 C 
BRANCH  13  14
HETATM   14  C10 UNL     1      -5.118   3.197  15.279  1.00  0.00     0.036 C 
BRANCH  14  15
HETATM   15  C11 UNL     1      -4.523   2.208  16.229  1.00  0.00     0.145 A 
HETATM   16  C12 UNL     1      -4.459   0.790  15.724  1.00  0.00     0.200 A 
HETATM   17  O1  UNL     1      -3.295   1.615  15.923  1.00  0.00    -0.381 OA
ENDBRANCH  14  15
ENDBRANCH  13  14
ENDBRANCH  12  13
ENDBRANCH  11  12
TORSDOF 4
ENDMDL
