MODEL 1
REMARK VINA RESULT: -5.910468911      0.000      0.000
REMARK  4 active torsions:
REMARK  status: ('A' for Active; 'I' for Inactive)
REMARK    1  A    between atoms: O1_1  and  C1_3 
REMARK    2  A    between atoms: C1_3  and  C2_4 
REMARK    3  A    between atoms: C2_4  and  N1_5 
REMARK    4  A    between atoms: C5_8  and  N2_9 
ROOT
HETATM    1  N1  UNL     1      -5.184   2.875  16.209  1.00  0.00    -0.391 N 
HETATM    2  C3  UNL     1      -4.456   1.673  16.133  1.00  0.00     0.060 C 
HETATM    3  C4  UNL     1      -4.404   0.967  14.827  1.00  0.00     0.080 C 
HETATM    4  C5  UNL     1      -4.298   1.948  13.705  1.00  0.00     0.229 C 
HETATM    5  C10 UNL     1      -5.471   2.860  13.781  1.00  0.00     0.056 C 
HETATM    6  C11 UNL     1      -5.225   3.704  15.042  1.00  0.00     0.124 C 
ENDROOT
BRANCH   4   7
HETATM    7  N2  UNL     1      -4.061   1.283  12.480  1.00  0.00     0.093 N 
HETATM    8  C6  UNL     1      -4.067  -0.157  12.546  1.00  0.00     0.273 C 
HETATM    9  C7  UNL     1      -3.831  -0.476  11.059  1.00  0.00     0.032 C 
HETATM   10  C8  UNL     1      -4.777   0.518  10.404  1.00  0.00     0.032 C 
HETATM   11  C9  UNL     1      -4.949   1.652  11.406  1.00  0.00     0.273 C 
ENDBRANCH   4   7
BRANCH   1  12
HETATM   12  C2  UNL     1      -6.433   2.827  16.929  1.00  0.00     0.148 C 
BRANCH  12  13
HETATM   13  C1  UNL     1      -6.653   1.460  17.539  1.00  0.00     0.183 C 
BRANCH  13  14
HETATM   14  O1  UNL     1      -7.458   0.699  16.680  1.00  0.00    -0.399 OA
ATOM     15  H1  UNL     1      -8.016   0.132  17.199  1.00  0.00     0.209 HD
ENDBRANCH  13  14
ENDBRANCH  12  13
ENDBRANCH   1  12
TORSDOF 4
ENDMDL
MODEL 2
REMARK VINA RESULT: -5.788157663      0.811      1.103
REMARK  4 active torsions:
REMARK  status: ('A' for Active; 'I' for Inactive)
REMARK    1  A    between atoms: O1_1  and  C1_3 
REMARK    2  A    between atoms: C1_3  and  C2_4 
REMARK    3  A    between atoms: C2_4  and  N1_5 
REMARK    4  A    between atoms: C5_8  and  N2_9 
ROOT
HETATM    1  N1  UNL     1      -5.086   2.812  16.026  1.00  0.00    -0.391 N 
HETATM    2  C3  UNL     1      -4.410   1.581  15.937  1.00  0.00     0.060 C 
HETATM    3  C4  UNL     1      -4.366   0.900  14.617  1.00  0.00     0.080 C 
HETATM    4  C5  UNL     1      -4.197   1.898  13.518  1.00  0.00     0.229 C 
HETATM    5  C10 UNL     1      -5.330   2.859  13.594  1.00  0.00     0.056 C 
HETATM    6  C11 UNL     1      -5.070   3.666  14.877  1.00  0.00     0.124 C 
ENDROOT
BRANCH   4   7
HETATM    7  N2  UNL     1      -3.968   1.249  12.284  1.00  0.00     0.093 N 
HETATM    8  C6  UNL     1      -2.690   1.518  11.672  1.00  0.00     0.273 C 
HETATM    9  C7  UNL     1      -2.816   0.619  10.428  1.00  0.00     0.032 C 
HETATM   10  C8  UNL     1      -3.403  -0.639  11.047  1.00  0.00     0.032 C 
HETATM   11  C9  UNL     1      -4.118  -0.185  12.314  1.00  0.00     0.273 C 
ENDBRANCH   4   7
BRANCH   1  12
HETATM   12  C2  UNL     1      -6.348   2.805  16.723  1.00  0.00     0.148 C 
BRANCH  12  13
HETATM   13  C1  UNL     1      -6.554   1.496  17.455  1.00  0.00     0.183 C 
BRANCH  13  14
HETATM   14  O1  UNL     1      -7.398   0.674  16.696  1.00  0.00    -0.399 OA
ATOM     15  H1  UNL     1      -7.754  -0.007  17.254  1.00  0.00     0.209 HD
ENDBRANCH  13  14
ENDBRANCH  12  13
ENDBRANCH   1  12
TORSDOF 4
ENDMDL
MODEL 3
REMARK VINA RESULT: -5.660889685      2.786      5.447
REMARK  4 active torsions:
REMARK  status: ('A' for Active; 'I' for Inactive)
REMARK    1  A    between atoms: O1_1  and  C1_3 
REMARK    2  A    between atoms: C1_3  and  C2_4 
REMARK    3  A    between atoms: C2_4  and  N1_5 
REMARK    4  A    between atoms: C5_8  and  N2_9 
ROOT
HETATM    1  N1  UNL     1      -3.661   2.798  12.003  1.00  0.00    -0.391 N 
HETATM    2  C3  UNL     1      -4.201   1.568  12.421  1.00  0.00     0.060 C 
HETATM    3  C4  UNL     1      -4.377   1.338  13.878  1.00  0.00     0.080 C 
HETATM    4  C5  UNL     1      -4.825   2.592  14.555  1.00  0.00     0.229 C 
HETATM    5  C10 UNL     1      -3.809   3.646  14.291  1.00  0.00     0.056 C 
HETATM    6  C11 UNL     1      -3.952   3.956  12.792  1.00  0.00     0.124 C 
ENDROOT
BRANCH   4   7
HETATM    7  N2  UNL     1      -5.172   2.337  15.902  1.00  0.00     0.093 N 
HETATM    8  C6  UNL     1      -6.439   2.878  16.327  1.00  0.00     0.273 C 
HETATM    9  C7  UNL     1      -6.460   2.356  17.775  1.00  0.00     0.032 C 
HETATM   10  C8  UNL     1      -5.982   0.928  17.566  1.00  0.00     0.032 C 
HETATM   11  C9  UNL     1      -5.171   0.944  16.277  1.00  0.00     0.273 C 
ENDBRANCH   4   7
BRANCH   1  12
HETATM   12  C2  UNL     1      -2.312   2.769  11.494  1.00  0.00     0.148 C 
BRANCH  12  13
HETATM   13  C1  UNL     1      -1.939   1.378  11.029  1.00  0.00     0.183 C 
BRANCH  13  14
HETATM   14  O1  UNL     1      -2.212   1.264   9.659  1.00  0.00    -0.399 OA
ATOM     15  H1  UNL     1      -2.772   0.510   9.516  1.00  0.00     0.209 HD
ENDBRANCH  13  14
ENDBRANCH  12  13
ENDBRANCH   1  12
TORSDOF 4
ENDMDL
MODEL 4
REMARK VINA RESULT: -5.588433409      0.910      1.001
REMARK  4 active torsions:
REMARK  status: ('A' for Active; 'I' for Inactive)
REMARK    1  A    between atoms: O1_1  and  C1_3 
REMARK    2  A    between atoms: C1_3  and  C2_4 
REMARK    3  A    between atoms: C2_4  and  N1_5 
REMARK    4  A    between atoms: C5_8  and  N2_9 
ROOT
HETATM    1  N1  UNL     1      -5.192   2.826  15.991  1.00  0.00    -0.391 N 
HETATM    2  C3  UNL     1      -4.495   1.606  16.043  1.00  0.00     0.060 C 
HETATM    3  C4  UNL     1      -4.314   0.847  14.778  1.00  0.00     0.080 C 
HETATM    4  C5  UNL     1      -4.054   1.781  13.641  1.00  0.00     0.229 C 
HETATM    5  C10 UNL     1      -5.201   2.724  13.549  1.00  0.00     0.056 C 
HETATM    6  C11 UNL     1      -5.076   3.610  14.799  1.00  0.00     0.124 C 
ENDROOT
BRANCH   4   7
HETATM    7  N2  UNL     1      -3.698   1.063  12.476  1.00  0.00     0.093 N 
HETATM    8  C6  UNL     1      -4.769   0.838  11.537  1.00  0.00     0.273 C 
HETATM    9  C7  UNL     1      -3.984   0.101  10.436  1.00  0.00     0.032 C 
HETATM   10  C8  UNL     1      -2.729   0.957  10.364  1.00  0.00     0.032 C 
HETATM   11  C9  UNL     1      -2.602   1.626  11.727  1.00  0.00     0.273 C 
ENDBRANCH   4   7
BRANCH   1  12
HETATM   12  C2  UNL     1      -6.515   2.837  16.565  1.00  0.00     0.148 C 
BRANCH  12  13
HETATM   13  C1  UNL     1      -6.730   1.630  17.451  1.00  0.00     0.183 C 
BRANCH  13  14
HETATM   14  O1  UNL     1      -7.439   0.656  16.735  1.00  0.00    -0.399 OA
ATOM     15  H1  UNL     1      -7.355  -0.180  17.179  1.00  0.00     0.209 HD
ENDBRANCH  13  14
ENDBRANCH  12  13
ENDBRANCH   1  12
TORSDOF 4
ENDMDL
MODEL 5
REMARK VINA RESULT: -5.550982242      2.880      4.364
REMARK  4 active torsions:
REMARK  status: ('A' for Active; 'I' for Inactive)
REMARK    1  A    between atoms: O1_1  and  C1_3 
REMARK    2  A    between atoms: C1_3  and  C2_4 
REMARK    3  A    between atoms: C2_4  and  N1_5 
REMARK    4  A    between atoms: C5_8  and  N2_9 
ROOT
HETATM    1  N1  UNL     1      -5.651   2.663  15.622  1.00  0.00    -0.391 N 
HETATM    2  C3  UNL     1      -6.358   3.842  15.325  1.00  0.00     0.060 C 
HETATM    3  C4  UNL     1      -5.580   5.084  15.076  1.00  0.00     0.080 C 
HETATM    4  C5  UNL     1      -4.334   4.775  14.311  1.00  0.00     0.229 C 
HETATM    5  C10 UNL     1      -3.545   3.788  15.096  1.00  0.00     0.056 C 
HETATM    6  C11 UNL     1      -4.363   2.489  15.021  1.00  0.00     0.124 C 
ENDROOT
BRANCH   4   7
HETATM    7  N2  UNL     1      -3.686   5.966  13.911  1.00  0.00     0.093 N 
HETATM    8  C6  UNL     1      -2.254   5.977  14.079  1.00  0.00     0.273 C 
HETATM    9  C7  UNL     1      -1.946   7.370  13.502  1.00  0.00     0.032 C 
HETATM   10  C8  UNL     1      -2.826   7.364  12.263  1.00  0.00     0.032 C 
HETATM   11  C9  UNL     1      -3.946   6.373  12.553  1.00  0.00     0.273 C 
ENDBRANCH   4   7
BRANCH   1  12
HETATM   12  C2  UNL     1      -5.721   2.197  16.985  1.00  0.00     0.148 C 
BRANCH  12  13
HETATM   13  C1  UNL     1      -6.684   1.036  17.110  1.00  0.00     0.183 C 
BRANCH  13  14
HETATM   14  O1  UNL     1      -5.954  -0.159  17.181  1.00  0.00    -0.399 OA
ATOM     15  H1  UNL     1      -6.273  -0.675  17.911  1.00  0.00     0.209 HD
ENDBRANCH  13  14
ENDBRANCH  12  13
ENDBRANCH   1  12
TORSDOF 4
ENDMDL
