MODEL 1
REMARK VINA RESULT: -6.080449063      0.000      0.000
REMARK  4 active torsions:
REMARK  status: ('A' for Active; 'I' for Inactive)
REMARK    1  A    between atoms: C2_2  and  C3_3 
REMARK    2  A    between atoms: C5_5  and  C6_6 
REMARK    3  A    between atoms: N1_7  and  O1_9 
REMARK    4  A    between atoms: N2_11  and  C7_12 
ROOT
HETATM    1  C3  UNL     1      -5.383   2.618  15.263  1.00  0.00     0.016 C 
HETATM    2  C4  UNL     1      -4.738   1.750  14.181  1.00  0.00     0.039 C 
HETATM    3  C5  UNL     1      -5.108   2.409  12.845  1.00  0.00     0.128 C 
HETATM    4  N2  UNL     1      -4.482   3.708  12.929  1.00  0.00    -0.345 N 
HETATM    5  C8  UNL     1      -4.239   4.180  14.284  1.00  0.00     0.092 A 
HETATM    6  C9  UNL     1      -4.804   5.305  14.749  1.00  0.00     0.033 A 
HETATM    7  C10 UNL     1      -5.411   4.045  15.083  1.00  0.00     0.018 A 
ENDROOT
BRANCH   3   8
HETATM    8  C6  UNL     1      -4.603   1.565  11.778  1.00  0.00     0.112 C 
HETATM    9  N1  UNL     1      -5.300   1.354  10.723  1.00  0.00    -0.282 N 
ATOM     10  H1  UNL     1      -6.217   1.794  10.651  1.00  0.00     0.192 HD
BRANCH   9  11
HETATM   11  O1  UNL     1      -4.869   0.560   9.680  1.00  0.00    -0.290 OA
ATOM     12  H1  UNL     1      -5.361  -0.186   9.356  1.00  0.00     0.244 HD
ENDBRANCH   9  11
ENDBRANCH   3   8
BRANCH   4  13
HETATM   13  C7  UNL     1      -4.154   4.412  11.774  1.00  0.00     0.351 C 
HETATM   14  O2  UNL     1      -4.962   4.599  10.830  1.00  0.00    -0.283 OA
ENDBRANCH   4  13
BRANCH   1  15
HETATM   15  C2  UNL     1      -4.880   2.149  16.579  1.00  0.00    -0.032 C 
HETATM   16  C1  UNL     1      -5.713   1.797  17.537  1.00  0.00     0.007 C 
ENDBRANCH   1  15
TORSDOF 4
ENDMDL
MODEL 2
REMARK VINA RESULT: -5.983314135      3.012      4.542
REMARK  4 active torsions:
REMARK  status: ('A' for Active; 'I' for Inactive)
REMARK    1  A    between atoms: C2_2  and  C3_3 
REMARK    2  A    between atoms: C5_5  and  C6_6 
REMARK    3  A    between atoms: N1_7  and  O1_9 
REMARK    4  A    between atoms: N2_11  and  C7_12 
ROOT
HETATM    1  C3  UNL     1      -3.713   0.604  12.415  1.00  0.00     0.016 C 
HETATM    2  C4  UNL     1      -4.380   0.463  13.785  1.00  0.00     0.039 C 
HETATM    3  C5  UNL     1      -4.148   1.801  14.500  1.00  0.00     0.128 C 
HETATM    4  N2  UNL     1      -4.844   2.751  13.663  1.00  0.00    -0.345 N 
HETATM    5  C8  UNL     1      -5.016   2.333  12.280  1.00  0.00     0.092 A 
HETATM    6  C9  UNL     1      -4.488   3.032  11.263  1.00  0.00     0.033 A 
HETATM    7  C10 UNL     1      -3.784   1.870  11.736  1.00  0.00     0.018 A 
ENDROOT
BRANCH   3   8
HETATM    8  C6  UNL     1      -4.676   1.683  15.846  1.00  0.00     0.112 C 
HETATM    9  N1  UNL     1      -4.958   0.534  16.341  1.00  0.00    -0.282 N 
ATOM     10  H1  UNL     1      -4.803  -0.294  15.767  1.00  0.00     0.192 HD
BRANCH   9  11
HETATM   11  O1  UNL     1      -5.463   0.364  17.614  1.00  0.00    -0.290 OA
ATOM     12  H1  UNL     1      -5.201  -0.347  18.187  1.00  0.00     0.244 HD
ENDBRANCH   9  11
ENDBRANCH   3   8
BRANCH   4  13
HETATM   13  C7  UNL     1      -5.296   3.958  14.189  1.00  0.00     0.351 C 
HETATM   14  O2  UNL     1      -6.510   4.278  14.231  1.00  0.00    -0.283 OA
ENDBRANCH   4  13
BRANCH   1  15
HETATM   15  C2  UNL     1      -4.090  -0.579  11.603  1.00  0.00    -0.032 C 
HETATM   16  C1  UNL     1      -3.215  -1.528  11.337  1.00  0.00     0.007 C 
ENDBRANCH   1  15
TORSDOF 4
ENDMDL
MODEL 3
REMARK VINA RESULT: -5.944473980      1.408      1.461
REMARK  4 active torsions:
REMARK  status: ('A' for Active; 'I' for Inactive)
REMARK    1  A    between atoms: C2_2  and  C3_3 
REMARK    2  A    between atoms: C5_5  and  C6_6 
REMARK    3  A    between atoms: N1_7  and  O1_9 
REMARK    4  A    between atoms: N2_11  and  C7_12 
ROOT
HETATM    1  C3  UNL     1      -5.958   3.813  14.954  1.00  0.00     0.016 C 
HETATM    2  C4  UNL     1      -5.554   2.551  14.188  1.00  0.00     0.039 C 
HETATM    3  C5  UNL     1      -5.017   3.041  12.836  1.00  0.00     0.128 C 
HETATM    4  N2  UNL     1      -3.867   3.834  13.202  1.00  0.00    -0.345 N 
HETATM    5  C8  UNL     1      -3.899   4.365  14.556  1.00  0.00     0.092 A 
HETATM    6  C9  UNL     1      -3.888   5.686  14.795  1.00  0.00     0.033 A 
HETATM    7  C10 UNL     1      -5.149   4.994  14.823  1.00  0.00     0.018 A 
ENDROOT
BRANCH   3   8
HETATM    8  C6  UNL     1      -4.713   1.874  12.030  1.00  0.00     0.112 C 
HETATM    9  N1  UNL     1      -5.269   1.702  10.888  1.00  0.00    -0.282 N 
ATOM     10  H1  UNL     1      -5.931   2.405  10.559  1.00  0.00     0.192 HD
BRANCH   9  11
HETATM   11  O1  UNL     1      -5.017   0.611  10.081  1.00  0.00    -0.290 OA
ATOM     12  H1  UNL     1      -4.460   0.650   9.312  1.00  0.00     0.244 HD
ENDBRANCH   9  11
ENDBRANCH   3   8
BRANCH   4  13
HETATM   13  C7  UNL     1      -2.833   4.044  12.293  1.00  0.00     0.351 C 
HETATM   14  O2  UNL     1      -1.646   3.691  12.508  1.00  0.00    -0.283 OA
ENDBRANCH   4  13
BRANCH   1  15
HETATM   15  C2  UNL     1      -6.284   3.412  16.346  1.00  0.00    -0.032 C 
HETATM   16  C1  UNL     1      -6.949   2.302  16.595  1.00  0.00     0.007 C 
ENDBRANCH   1  15
TORSDOF 4
ENDMDL
MODEL 4
REMARK VINA RESULT: -5.940058674      1.173      1.173
REMARK  4 active torsions:
REMARK  status: ('A' for Active; 'I' for Inactive)
REMARK    1  A    between atoms: C2_2  and  C3_3 
REMARK    2  A    between atoms: C5_5  and  C6_6 
REMARK    3  A    between atoms: N1_7  and  O1_9 
REMARK    4  A    between atoms: N2_11  and  C7_12 
ROOT
HETATM    1  C3  UNL     1      -5.593   2.179  15.564  1.00  0.00     0.016 C 
HETATM    2  C4  UNL     1      -4.509   1.431  14.785  1.00  0.00     0.039 C 
HETATM    3  C5  UNL     1      -4.767   1.749  13.306  1.00  0.00     0.128 C 
HETATM    4  N2  UNL     1      -4.583   3.180  13.235  1.00  0.00    -0.345 N 
HETATM    5  C8  UNL     1      -4.780   3.882  14.494  1.00  0.00     0.092 A 
HETATM    6  C9  UNL     1      -5.736   4.814  14.637  1.00  0.00     0.033 A 
HETATM    7  C10 UNL     1      -6.001   3.481  15.110  1.00  0.00     0.018 A 
ENDROOT
BRANCH   3   8
HETATM    8  C6  UNL     1      -3.824   0.980  12.515  1.00  0.00     0.112 C 
HETATM    9  N1  UNL     1      -4.179  -0.115  11.952  1.00  0.00    -0.282 N 
ATOM     10  H1  UNL     1      -5.141  -0.433  12.073  1.00  0.00     0.192 HD
BRANCH   9  11
HETATM   11  O1  UNL     1      -3.324  -0.886  11.191  1.00  0.00    -0.290 OA
ATOM     12  H1  UNL     1      -3.089  -0.672  10.296  1.00  0.00     0.244 HD
ENDBRANCH   9  11
ENDBRANCH   3   8
BRANCH   4  13
HETATM   13  C7  UNL     1      -4.242   3.790  12.031  1.00  0.00     0.351 C 
HETATM   14  O2  UNL     1      -5.029   3.871  11.054  1.00  0.00    -0.283 OA
ENDBRANCH   4  13
BRANCH   1  15
HETATM   15  C2  UNL     1      -5.262   2.080  17.008  1.00  0.00    -0.032 C 
HETATM   16  C1  UNL     1      -6.209   2.097  17.924  1.00  0.00     0.007 C 
ENDBRANCH   1  15
TORSDOF 4
ENDMDL
MODEL 5
REMARK VINA RESULT: -5.910578939      1.585      1.637
REMARK  4 active torsions:
REMARK  status: ('A' for Active; 'I' for Inactive)
REMARK    1  A    between atoms: C2_2  and  C3_3 
REMARK    2  A    between atoms: C5_5  and  C6_6 
REMARK    3  A    between atoms: N1_7  and  O1_9 
REMARK    4  A    between atoms: N2_11  and  C7_12 
ROOT
HETATM    1  C3  UNL     1      -5.602   2.564  15.463  1.00  0.00     0.016 C 
HETATM    2  C4  UNL     1      -4.354   2.331  14.609  1.00  0.00     0.039 C 
HETATM    3  C5  UNL     1      -4.618   3.057  13.282  1.00  0.00     0.128 C 
HETATM    4  N2  UNL     1      -4.742   4.441  13.679  1.00  0.00    -0.345 N 
HETATM    5  C8  UNL     1      -5.133   4.644  15.065  1.00  0.00     0.092 A 
HETATM    6  C9  UNL     1      -6.271   5.278  15.390  1.00  0.00     0.033 A 
HETATM    7  C10 UNL     1      -6.262   3.840  15.395  1.00  0.00     0.018 A 
ENDROOT
BRANCH   3   8
HETATM    8  C6  UNL     1      -3.503   2.782  12.396  1.00  0.00     0.112 C 
HETATM    9  N1  UNL     1      -2.979   1.613  12.343  1.00  0.00    -0.282 N 
ATOM     10  H1  UNL     1      -3.366   0.881  12.939  1.00  0.00     0.192 HD
BRANCH   9  11
HETATM   11  O1  UNL     1      -1.918   1.297  11.520  1.00  0.00    -0.290 OA
ATOM     12  H1  UNL     1      -1.825   1.636  10.637  1.00  0.00     0.244 HD
ENDBRANCH   9  11
ENDBRANCH   3   8
BRANCH   4  13
HETATM   13  C7  UNL     1      -4.494   5.463  12.766  1.00  0.00     0.351 C 
HETATM   14  O2  UNL     1      -5.350   5.868  11.939  1.00  0.00    -0.283 OA
ENDBRANCH   4  13
BRANCH   1  15
HETATM   15  C2  UNL     1      -5.313   2.066  16.831  1.00  0.00    -0.032 C 
HETATM   16  C1  UNL     1      -6.224   2.124  17.781  1.00  0.00     0.007 C 
ENDBRANCH   1  15
TORSDOF 4
ENDMDL
