MODEL 1
REMARK VINA RESULT: -6.079588386      0.000      0.000
REMARK  3 active torsions:
REMARK  status: ('A' for Active; 'I' for Inactive)
REMARK    1  A    between atoms: C4_6  and  C5_7 
REMARK    2  A    between atoms: C5_7  and  C6_8 
REMARK    3  A    between atoms: C6_8  and  N2_9 
ROOT
HETATM    1  C5  UNL     1      -4.013   2.851  14.832  1.00  0.00     0.036 C 
ENDROOT
BRANCH   1   2
HETATM    2  C4  UNL     1      -4.898   2.478  15.973  1.00  0.00     0.005 C 
HETATM    3  C3  UNL     1      -6.235   3.116  15.759  1.00  0.00     0.118 C 
HETATM    4  N1  UNL     1      -7.259   2.713  16.679  1.00  0.00    -0.421 N 
HETATM    5  C2  UNL     1      -7.265   1.323  17.025  1.00  0.00     0.113 C 
ATOM      6  H1  UNL     1      -7.938   3.372  17.061  1.00  0.00     0.153 HD
HETATM    7  C1  UNL     1      -5.885   0.875  17.489  1.00  0.00     0.020 C 
HETATM    8  C11 UNL     1      -5.009   1.004  16.236  1.00  0.00     0.008 C 
ENDBRANCH   1   2
BRANCH   1   9
HETATM    9  C6  UNL     1      -4.633   2.589  13.478  1.00  0.00     0.273 C 
BRANCH   9  10
HETATM   10  N2  UNL     1      -3.769   1.639  12.814  1.00  0.00     0.092 N 
HETATM   11  C7  UNL     1      -4.339   0.339  12.674  1.00  0.00     0.298 C 
HETATM   12  C8  UNL     1      -4.307  -0.078  11.194  1.00  0.00     0.198 C 
HETATM   13  O1  UNL     1      -2.976  -0.083  10.842  1.00  0.00    -0.388 OA
HETATM   14  C9  UNL     1      -2.485   1.193  10.770  1.00  0.00     0.198 C 
HETATM   15  C10 UNL     1      -3.136   2.195  11.676  1.00  0.00     0.298 C 
ENDBRANCH   9  10
ENDBRANCH   1   9
TORSDOF 3
ENDMDL
MODEL 2
REMARK VINA RESULT: -6.073459032      1.878      2.586
REMARK  3 active torsions:
REMARK  status: ('A' for Active; 'I' for Inactive)
REMARK    1  A    between atoms: C4_6  and  C5_7 
REMARK    2  A    between atoms: C5_7  and  C6_8 
REMARK    3  A    between atoms: C6_8  and  N2_9 
ROOT
HETATM    1  C5  UNL     1      -5.221   3.980  15.034  1.00  0.00     0.036 C 
ENDROOT
BRANCH   1   2
HETATM    2  C4  UNL     1      -5.805   2.711  15.555  1.00  0.00     0.005 C 
HETATM    3  C3  UNL     1      -4.682   1.782  15.895  1.00  0.00     0.118 C 
HETATM    4  N1  UNL     1      -5.067   0.580  16.576  1.00  0.00    -0.421 N 
HETATM    5  C2  UNL     1      -6.089   0.734  17.569  1.00  0.00     0.113 C 
ATOM      6  H1  UNL     1      -4.642  -0.323  16.367  1.00  0.00     0.153 HD
HETATM    7  C1  UNL     1      -7.295   1.466  16.996  1.00  0.00     0.020 C 
HETATM    8  C11 UNL     1      -6.769   2.876  16.695  1.00  0.00     0.008 C 
ENDBRANCH   1   2
BRANCH   1   9
HETATM    9  C6  UNL     1      -4.037   3.768  14.118  1.00  0.00     0.273 C 
BRANCH   9  10
HETATM   10  N2  UNL     1      -4.579   3.603  12.787  1.00  0.00     0.092 N 
HETATM   11  C7  UNL     1      -4.185   4.623  11.872  1.00  0.00     0.298 C 
HETATM   12  C8  UNL     1      -3.542   3.979  10.633  1.00  0.00     0.198 C 
HETATM   13  O1  UNL     1      -4.519   3.177  10.086  1.00  0.00    -0.388 OA
HETATM   14  C9  UNL     1      -4.743   2.078  10.871  1.00  0.00     0.198 C 
HETATM   15  C10 UNL     1      -4.497   2.262  12.339  1.00  0.00     0.298 C 
ENDBRANCH   9  10
ENDBRANCH   1   9
TORSDOF 3
ENDMDL
MODEL 3
REMARK VINA RESULT: -5.984486310      0.790      1.454
REMARK  3 active torsions:
REMARK  status: ('A' for Active; 'I' for Inactive)
REMARK    1  A    between atoms: C4_6  and  C5_7 
REMARK    2  A    between atoms: C5_7  and  C6_8 
REMARK    3  A    between atoms: C6_8  and  N2_9 
ROOT
HETATM    1  C5  UNL     1      -4.234   2.248  14.378  1.00  0.00     0.036 C 
ENDROOT
BRANCH   1   2
HETATM    2  C4  UNL     1      -4.909   2.367  15.702  1.00  0.00     0.005 C 
HETATM    3  C3  UNL     1      -6.128   3.217  15.534  1.00  0.00     0.118 C 
HETATM    4  N1  UNL     1      -6.990   3.287  16.679  1.00  0.00    -0.421 N 
HETATM    5  C2  UNL     1      -7.165   2.057  17.394  1.00  0.00     0.113 C 
ATOM      6  H1  UNL     1      -7.446   4.153  16.965  1.00  0.00     0.153 HD
HETATM    7  C1  UNL     1      -5.818   1.436  17.740  1.00  0.00     0.020 C 
HETATM    8  C11 UNL     1      -5.217   1.062  16.378  1.00  0.00     0.008 C 
ENDBRANCH   1   2
BRANCH   1   9
HETATM    9  C6  UNL     1      -4.314   0.860  13.783  1.00  0.00     0.273 C 
BRANCH   9  10
HETATM   10  N2  UNL     1      -4.129   1.020  12.357  1.00  0.00     0.092 N 
HETATM   11  C7  UNL     1      -3.197   2.041  12.006  1.00  0.00     0.298 C 
HETATM   12  C8  UNL     1      -2.109   1.450  11.094  1.00  0.00     0.198 C 
HETATM   13  O1  UNL     1      -2.774   0.986   9.981  1.00  0.00    -0.388 OA
HETATM   14  C9  UNL     1      -3.507  -0.131  10.281  1.00  0.00     0.198 C 
HETATM   15  C10 UNL     1      -4.011  -0.223  11.690  1.00  0.00     0.298 C 
ENDBRANCH   9  10
ENDBRANCH   1   9
TORSDOF 3
ENDMDL
MODEL 4
REMARK VINA RESULT: -5.943261095      1.915      2.465
REMARK  3 active torsions:
REMARK  status: ('A' for Active; 'I' for Inactive)
REMARK    1  A    between atoms: C4_6  and  C5_7 
REMARK    2  A    between atoms: C5_7  and  C6_8 
REMARK    3  A    between atoms: C6_8  and  N2_9 
ROOT
HETATM    1  C5  UNL     1      -5.088   3.802  14.591  1.00  0.00     0.036 C 
ENDROOT
BRANCH   1   2
HETATM    2  C4  UNL     1      -5.724   2.637  15.271  1.00  0.00     0.005 C 
HETATM    3  C3  UNL     1      -4.646   1.673  15.658  1.00  0.00     0.118 C 
HETATM    4  N1  UNL     1      -5.071   0.577  16.480  1.00  0.00    -0.421 N 
HETATM    5  C2  UNL     1      -6.028   0.904  17.496  1.00  0.00     0.113 C 
ATOM      6  H1  UNL     1      -4.715  -0.369  16.351  1.00  0.00     0.153 HD
HETATM    7  C1  UNL     1      -7.213   1.653  16.901  1.00  0.00     0.020 C 
HETATM    8  C11 UNL     1      -6.615   2.985  16.428  1.00  0.00     0.008 C 
ENDBRANCH   1   2
BRANCH   1   9
HETATM    9  C6  UNL     1      -3.620   3.600  14.294  1.00  0.00     0.273 C 
BRANCH   9  10
HETATM   10  N2  UNL     1      -3.485   3.658  12.855  1.00  0.00     0.092 N 
HETATM   11  C7  UNL     1      -3.603   2.391  12.212  1.00  0.00     0.298 C 
HETATM   12  C8  UNL     1      -4.698   2.463  11.135  1.00  0.00     0.198 C 
HETATM   13  O1  UNL     1      -4.278   3.429  10.248  1.00  0.00    -0.388 OA
HETATM   14  C9  UNL     1      -4.370   4.676  10.805  1.00  0.00     0.198 C 
HETATM   15  C10 UNL     1      -4.205   4.740  12.295  1.00  0.00     0.298 C 
ENDBRANCH   9  10
ENDBRANCH   1   9
TORSDOF 3
ENDMDL
MODEL 5
REMARK VINA RESULT: -5.905197068      1.526      1.661
REMARK  3 active torsions:
REMARK  status: ('A' for Active; 'I' for Inactive)
REMARK    1  A    between atoms: C4_6  and  C5_7 
REMARK    2  A    between atoms: C5_7  and  C6_8 
REMARK    3  A    between atoms: C6_8  and  N2_9 
ROOT
HETATM    1  C5  UNL     1      -3.896   2.963  15.206  1.00  0.00     0.036 C 
ENDROOT
BRANCH   1   2
HETATM    2  C4  UNL     1      -4.857   2.459  16.229  1.00  0.00     0.005 C 
HETATM    3  C3  UNL     1      -6.149   3.197  16.063  1.00  0.00     0.118 C 
HETATM    4  N1  UNL     1      -7.239   2.708  16.857  1.00  0.00    -0.421 N 
HETATM    5  C2  UNL     1      -7.330   1.282  16.967  1.00  0.00     0.113 C 
ATOM      6  H1  UNL     1      -7.905   3.333  17.311  1.00  0.00     0.153 HD
HETATM    7  C1  UNL     1      -6.000   0.688  17.413  1.00  0.00     0.020 C 
HETATM    8  C11 UNL     1      -5.052   0.971  16.239  1.00  0.00     0.008 C 
ENDBRANCH   1   2
BRANCH   1   9
HETATM    9  C6  UNL     1      -4.532   3.862  14.171  1.00  0.00     0.273 C 
BRANCH   9  10
HETATM   10  N2  UNL     1      -4.062   3.396  12.885  1.00  0.00     0.092 N 
HETATM   11  C7  UNL     1      -4.481   2.071  12.562  1.00  0.00     0.298 C 
HETATM   12  C8  UNL     1      -5.199   2.078  11.203  1.00  0.00     0.198 C 
HETATM   13  O1  UNL     1      -4.268   2.535  10.297  1.00  0.00    -0.388 OA
HETATM   14  C9  UNL     1      -4.027   3.871  10.478  1.00  0.00     0.198 C 
HETATM   15  C10 UNL     1      -4.194   4.382  11.878  1.00  0.00     0.298 C 
ENDBRANCH   9  10
ENDBRANCH   1   9
TORSDOF 3
ENDMDL
