MODEL 1
REMARK VINA RESULT: -6.334617050      0.000      0.000
REMARK  3 active torsions:
REMARK  status: ('A' for Active; 'I' for Inactive)
REMARK    1  A    between atoms: C2_2  and  C3_3 
REMARK    2  A    between atoms: C3_3  and  C4_4 
REMARK    3  A    between atoms: C5_6  and  C6_7 
ROOT
HETATM    1  C4  UNL     1      -4.645   2.055  12.355  1.00  0.00     0.222 C 
HETATM    2  O1  UNL     1      -4.853   1.413  13.574  1.00  0.00    -0.359 OA
HETATM    3  C5  UNL     1      -5.175   2.441  14.493  1.00  0.00     0.156 C 
HETATM    4  C10 UNL     1      -4.021   3.339  14.755  1.00  0.00     0.053 C 
HETATM    5  C11 UNL     1      -3.412   3.792  13.449  1.00  0.00     0.121 C 
HETATM    6  N2  UNL     1      -3.388   2.744  12.502  1.00  0.00    -0.392 N 
HETATM    7  C12 UNL     1      -2.681   2.978  11.304  1.00  0.00     0.145 C 
ENDROOT
BRANCH   3   8
HETATM    8  C6  UNL     1      -5.839   1.844  15.678  1.00  0.00     0.214 C 
HETATM    9  C7  UNL     1      -6.271   2.825  16.724  1.00  0.00     0.037 C 
HETATM   10  C8  UNL     1      -6.201   2.059  18.040  1.00  0.00     0.029 C 
HETATM   11  C9  UNL     1      -5.884   0.657  17.576  1.00  0.00     0.233 C 
HETATM   12  N1  UNL     1      -5.003   0.922  16.433  1.00  0.00    -0.069 N 
ATOM     13  H12 UNL     1      -4.675   0.101  15.924  1.00  0.00     0.277 HD
ATOM     14  H11 UNL     1      -4.067   1.257  16.661  1.00  0.00     0.277 HD
ENDBRANCH   3   8
BRANCH   1  15
HETATM   15  C3  UNL     1      -4.554   1.009  11.276  1.00  0.00     0.080 C 
BRANCH  15  16
HETATM   16  C2  UNL     1      -4.234  -0.284  11.936  1.00  0.00    -0.033 C 
HETATM   17  C1  UNL     1      -3.356  -1.108  11.377  1.00  0.00     0.007 C 
ENDBRANCH  15  16
ENDBRANCH   1  15
TORSDOF 3
ENDMDL
MODEL 2
REMARK VINA RESULT: -6.288255597      0.875      1.139
REMARK  3 active torsions:
REMARK  status: ('A' for Active; 'I' for Inactive)
REMARK    1  A    between atoms: C2_2  and  C3_3 
REMARK    2  A    between atoms: C3_3  and  C4_4 
REMARK    3  A    between atoms: C5_6  and  C6_7 
ROOT
HETATM    1  C4  UNL     1      -4.648   2.349  12.573  1.00  0.00     0.222 C 
HETATM    2  O1  UNL     1      -4.527   1.825  13.858  1.00  0.00    -0.359 OA
HETATM    3  C5  UNL     1      -4.667   2.930  14.732  1.00  0.00     0.156 C 
HETATM    4  C10 UNL     1      -3.528   3.877  14.624  1.00  0.00     0.053 C 
HETATM    5  C11 UNL     1      -3.272   4.215  13.173  1.00  0.00     0.121 C 
HETATM    6  N2  UNL     1      -3.426   3.079  12.347  1.00  0.00    -0.392 N 
HETATM    7  C12 UNL     1      -3.040   3.211  10.997  1.00  0.00     0.145 C 
ENDROOT
BRANCH   3   8
HETATM    8  C6  UNL     1      -4.998   2.437  16.091  1.00  0.00     0.214 C 
HETATM    9  C7  UNL     1      -5.087   0.947  16.221  1.00  0.00     0.037 C 
HETATM   10  C8  UNL     1      -6.098   0.706  17.336  1.00  0.00     0.029 C 
HETATM   11  C9  UNL     1      -6.360   2.107  17.837  1.00  0.00     0.233 C 
HETATM   12  N1  UNL     1      -6.292   2.877  16.590  1.00  0.00    -0.069 N 
ATOM     13  H12 UNL     1      -6.414   3.886  16.684  1.00  0.00     0.277 HD
ATOM     14  H11 UNL     1      -7.079   2.760  15.951  1.00  0.00     0.277 HD
ENDBRANCH   3   8
BRANCH   1  15
HETATM   15  C3  UNL     1      -4.770   1.204  11.602  1.00  0.00     0.080 C 
BRANCH  15  16
HETATM   16  C2  UNL     1      -4.232  -0.007  12.275  1.00  0.00    -0.033 C 
HETATM   17  C1  UNL     1      -3.666  -0.965  11.551  1.00  0.00     0.007 C 
ENDBRANCH  15  16
ENDBRANCH   1  15
TORSDOF 3
ENDMDL
MODEL 3
REMARK VINA RESULT: -5.946309698      1.224      1.463
REMARK  3 active torsions:
REMARK  status: ('A' for Active; 'I' for Inactive)
REMARK    1  A    between atoms: C2_2  and  C3_3 
REMARK    2  A    between atoms: C3_3  and  C4_4 
REMARK    3  A    between atoms: C5_6  and  C6_7 
ROOT
HETATM    1  C4  UNL     1      -3.267   1.859  11.681  1.00  0.00     0.222 C 
HETATM    2  O1  UNL     1      -3.574   1.563  13.008  1.00  0.00    -0.359 OA
HETATM    3  C5  UNL     1      -4.303   2.679  13.485  1.00  0.00     0.156 C 
HETATM    4  C10 UNL     1      -3.462   3.899  13.577  1.00  0.00     0.053 C 
HETATM    5  C11 UNL     1      -2.712   4.109  12.282  1.00  0.00     0.121 C 
HETATM    6  N2  UNL     1      -2.257   2.884  11.748  1.00  0.00    -0.392 N 
HETATM    7  C12 UNL     1      -1.387   2.951  10.640  1.00  0.00     0.145 C 
ENDROOT
BRANCH   3   8
HETATM    8  C6  UNL     1      -5.048   2.287  14.707  1.00  0.00     0.214 C 
HETATM    9  C7  UNL     1      -6.191   3.185  15.068  1.00  0.00     0.037 C 
HETATM   10  C8  UNL     1      -6.300   3.099  16.586  1.00  0.00     0.029 C 
HETATM   11  C9  UNL     1      -5.293   2.022  16.917  1.00  0.00     0.233 C 
HETATM   12  N1  UNL     1      -4.247   2.288  15.922  1.00  0.00    -0.069 N 
ATOM     13  H12 UNL     1      -3.452   1.649  15.932  1.00  0.00     0.277 HD
ATOM     14  H11 UNL     1      -3.683   3.123  16.083  1.00  0.00     0.277 HD
ENDBRANCH   3   8
BRANCH   1  15
HETATM   15  C3  UNL     1      -2.721   0.615  11.031  1.00  0.00     0.080 C 
BRANCH  15  16
HETATM   16  C2  UNL     1      -3.602  -0.516  11.425  1.00  0.00    -0.033 C 
HETATM   17  C1  UNL     1      -3.130  -1.756  11.401  1.00  0.00     0.007 C 
ENDBRANCH  15  16
ENDBRANCH   1  15
TORSDOF 3
ENDMDL
MODEL 4
REMARK VINA RESULT: -5.944668700      1.639      4.954
REMARK  3 active torsions:
REMARK  status: ('A' for Active; 'I' for Inactive)
REMARK    1  A    between atoms: C2_2  and  C3_3 
REMARK    2  A    between atoms: C3_3  and  C4_4 
REMARK    3  A    between atoms: C5_6  and  C6_7 
ROOT
HETATM    1  C4  UNL     1      -5.333   3.254  15.096  1.00  0.00     0.222 C 
HETATM    2  O1  UNL     1      -5.363   2.445  13.961  1.00  0.00    -0.359 OA
HETATM    3  C5  UNL     1      -4.154   2.712  13.275  1.00  0.00     0.156 C 
HETATM    4  C10 UNL     1      -4.115   4.092  12.727  1.00  0.00     0.053 C 
HETATM    5  C11 UNL     1      -4.493   5.085  13.802  1.00  0.00     0.121 C 
HETATM    6  N2  UNL     1      -5.543   4.593  14.608  1.00  0.00    -0.392 N 
HETATM    7  C12 UNL     1      -6.117   5.491  15.532  1.00  0.00     0.145 C 
ENDROOT
BRANCH   3   8
HETATM    8  C6  UNL     1      -3.882   1.608  12.321  1.00  0.00     0.214 C 
HETATM    9  C7  UNL     1      -4.649   1.676  11.036  1.00  0.00     0.037 C 
HETATM   10  C8  UNL     1      -4.821   0.226  10.599  1.00  0.00     0.029 C 
HETATM   11  C9  UNL     1      -3.983  -0.515  11.616  1.00  0.00     0.233 C 
HETATM   12  N1  UNL     1      -4.220   0.285  12.823  1.00  0.00    -0.069 N 
ATOM     13  H12 UNL     1      -3.719  -0.015  13.660  1.00  0.00     0.277 HD
ATOM     14  H11 UNL     1      -5.144   0.192  13.244  1.00  0.00     0.277 HD
ENDBRANCH   3   8
BRANCH   1  15
HETATM   15  C3  UNL     1      -6.458   2.837  16.006  1.00  0.00     0.080 C 
BRANCH  15  16
HETATM   16  C2  UNL     1      -5.867   2.013  17.093  1.00  0.00    -0.033 C 
HETATM   17  C1  UNL     1      -6.233   2.224  18.351  1.00  0.00     0.007 C 
ENDBRANCH  15  16
ENDBRANCH   1  15
TORSDOF 3
ENDMDL
MODEL 5
REMARK VINA RESULT: -5.926620556      1.097      1.270
REMARK  3 active torsions:
REMARK  status: ('A' for Active; 'I' for Inactive)
REMARK    1  A    between atoms: C2_2  and  C3_3 
REMARK    2  A    between atoms: C3_3  and  C4_4 
REMARK    3  A    between atoms: C5_6  and  C6_7 
ROOT
HETATM    1  C4  UNL     1      -3.430   2.623  12.275  1.00  0.00     0.222 C 
HETATM    2  O1  UNL     1      -3.761   2.042  13.498  1.00  0.00    -0.359 OA
HETATM    3  C5  UNL     1      -4.555   3.002  14.170  1.00  0.00     0.156 C 
HETATM    4  C10 UNL     1      -3.776   4.209  14.547  1.00  0.00     0.053 C 
HETATM    5  C11 UNL     1      -3.001   4.717  13.353  1.00  0.00     0.121 C 
HETATM    6  N2  UNL     1      -2.472   3.651  12.593  1.00  0.00    -0.392 N 
HETATM    7  C12 UNL     1      -1.576   3.985  11.556  1.00  0.00     0.145 C 
ENDROOT
BRANCH   3   8
HETATM    8  C6  UNL     1      -5.314   2.332  15.255  1.00  0.00     0.214 C 
HETATM    9  C7  UNL     1      -6.443   3.134  15.827  1.00  0.00     0.037 C 
HETATM   10  C8  UNL     1      -6.563   2.674  17.275  1.00  0.00     0.029 C 
HETATM   11  C9  UNL     1      -5.578   1.528  17.328  1.00  0.00     0.233 C 
HETATM   12  N1  UNL     1      -4.522   2.014  16.433  1.00  0.00    -0.069 N 
ATOM     13  H12 UNL     1      -3.739   1.378  16.284  1.00  0.00     0.277 HD
ATOM     14  H11 UNL     1      -3.944   2.771  16.797  1.00  0.00     0.277 HD
ENDBRANCH   3   8
BRANCH   1  15
HETATM   15  C3  UNL     1      -2.807   1.567  11.401  1.00  0.00     0.080 C 
BRANCH  15  16
HETATM   16  C2  UNL     1      -3.710   0.386  11.418  1.00  0.00    -0.033 C 
HETATM   17  C1  UNL     1      -4.764   0.354  10.612  1.00  0.00     0.007 C 
ENDBRANCH  15  16
ENDBRANCH   1  15
TORSDOF 3
ENDMDL
