MODEL 1
REMARK VINA RESULT: -6.727692470      0.000      0.000
REMARK  4 active torsions:
REMARK  status: ('A' for Active; 'I' for Inactive)
REMARK    1  A    between atoms: O1_1  and  C1_3 
REMARK    2  A    between atoms: C1_3  and  C2_4 
REMARK    3  A    between atoms: C1_3  and  C7_11 
REMARK    4  A    between atoms: C2_4  and  N1_5 
ROOT
HETATM    1  C1  UNL     1      -4.478   1.854  15.765  1.00  0.00     0.150 C 
ENDROOT
BRANCH   1   2
HETATM    2  O1  UNL     1      -3.222   1.384  16.264  1.00  0.00    -0.393 OA
ATOM      3  H1  UNL     1      -3.361   0.978  17.112  1.00  0.00     0.210 HD
ENDBRANCH   1   2
BRANCH   1   4
HETATM    4  C2  UNL     1      -4.255   2.521  14.455  1.00  0.00     0.304 C 
BRANCH   4   5
HETATM    5  N1  UNL     1      -4.598   1.746  13.349  1.00  0.00     0.095 N 
HETATM    6  C3  UNL     1      -4.214   2.362  12.073  1.00  0.00     0.298 C 
HETATM    7  C4  UNL     1      -5.225   1.771  11.083  1.00  0.00     0.198 C 
HETATM    8  O2  UNL     1      -4.889   0.446  10.886  1.00  0.00    -0.388 OA
HETATM    9  C5  UNL     1      -4.082  -0.096  11.826  1.00  0.00     0.198 C 
HETATM   10  C6  UNL     1      -4.315   0.378  13.256  1.00  0.00     0.298 C 
ENDBRANCH   4   5
ENDBRANCH   1   4
BRANCH   1  11
HETATM   11  C7  UNL     1      -5.269   2.554  16.778  1.00  0.00     0.016 C 
HETATM   12  C8  UNL     1      -6.559   3.094  16.238  1.00  0.00     0.007 C 
HETATM   13  C9  UNL     1      -7.608   2.015  16.479  1.00  0.00     0.000 C 
HETATM   14  C10 UNL     1      -6.912   0.923  17.261  1.00  0.00     0.000 C 
HETATM   15  C11 UNL     1      -5.766   1.639  17.887  1.00  0.00     0.007 C 
ENDBRANCH   1  11
TORSDOF 4
ENDMDL
MODEL 2
REMARK VINA RESULT: -6.684980697      1.035      1.072
REMARK  4 active torsions:
REMARK  status: ('A' for Active; 'I' for Inactive)
REMARK    1  A    between atoms: O1_1  and  C1_3 
REMARK    2  A    between atoms: C1_3  and  C2_4 
REMARK    3  A    between atoms: C1_3  and  C7_11 
REMARK    4  A    between atoms: C2_4  and  N1_5 
ROOT
HETATM    1  C1  UNL     1      -4.935   0.974  15.286  1.00  0.00     0.150 C 
ENDROOT
BRANCH   1   2
HETATM    2  O1  UNL     1      -4.760  -0.434  15.474  1.00  0.00    -0.393 OA
ATOM      3  H1  UNL     1      -5.278  -0.711  16.220  1.00  0.00     0.210 HD
ENDBRANCH   1   2
BRANCH   1   4
HETATM    4  C2  UNL     1      -3.954   1.450  14.276  1.00  0.00     0.304 C 
BRANCH   4   5
HETATM    5  N1  UNL     1      -4.329   1.217  12.955  1.00  0.00     0.095 N 
HETATM    6  C3  UNL     1      -3.907   2.285  12.040  1.00  0.00     0.298 C 
HETATM    7  C4  UNL     1      -4.941   2.205  10.911  1.00  0.00     0.198 C 
HETATM    8  O2  UNL     1      -4.672   1.064  10.180  1.00  0.00    -0.388 OA
HETATM    9  C5  UNL     1      -3.899   0.143  10.801  1.00  0.00     0.198 C 
HETATM   10  C6  UNL     1      -4.116  -0.003  12.302  1.00  0.00     0.298 C 
ENDBRANCH   4   5
ENDBRANCH   1   4
BRANCH   1  11
HETATM   11  C7  UNL     1      -5.048   1.707  16.548  1.00  0.00     0.016 C 
HETATM   12  C8  UNL     1      -5.724   3.036  16.389  1.00  0.00     0.007 C 
HETATM   13  C9  UNL     1      -7.206   2.796  16.648  1.00  0.00     0.000 C 
HETATM   14  C10 UNL     1      -7.327   1.347  17.065  1.00  0.00     0.000 C 
HETATM   15  C11 UNL     1      -5.959   1.026  17.558  1.00  0.00     0.007 C 
ENDBRANCH   1  11
TORSDOF 4
ENDMDL
MODEL 3
REMARK VINA RESULT: -6.426645687      1.377      1.513
REMARK  4 active torsions:
REMARK  status: ('A' for Active; 'I' for Inactive)
REMARK    1  A    between atoms: O1_1  and  C1_3 
REMARK    2  A    between atoms: C1_3  and  C2_4 
REMARK    3  A    between atoms: C1_3  and  C7_11 
REMARK    4  A    between atoms: C2_4  and  N1_5 
ROOT
HETATM    1  C1  UNL     1      -4.994   1.208  14.795  1.00  0.00     0.150 C 
ENDROOT
BRANCH   1   2
HETATM    2  O1  UNL     1      -4.632  -0.163  14.605  1.00  0.00    -0.393 OA
ATOM      3  H1  UNL     1      -5.228  -0.710  15.103  1.00  0.00     0.210 HD
ENDBRANCH   1   2
BRANCH   1   4
HETATM    4  C2  UNL     1      -4.312   2.032  13.762  1.00  0.00     0.304 C 
BRANCH   4   5
HETATM    5  N1  UNL     1      -4.032   1.355  12.578  1.00  0.00     0.095 N 
HETATM    6  C3  UNL     1      -5.004   1.633  11.513  1.00  0.00     0.298 C 
HETATM    7  C4  UNL     1      -4.943   0.368  10.647  1.00  0.00     0.198 C 
HETATM    8  O2  UNL     1      -3.742   0.390   9.965  1.00  0.00    -0.388 OA
HETATM    9  C5  UNL     1      -2.799   1.218  10.470  1.00  0.00     0.198 C 
HETATM   10  C6  UNL     1      -2.762   1.334  11.989  1.00  0.00     0.298 C 
ENDBRANCH   4   5
ENDBRANCH   1   4
BRANCH   1  11
HETATM   11  C7  UNL     1      -4.909   1.632  16.193  1.00  0.00     0.016 C 
HETATM   12  C8  UNL     1      -5.455   3.010  16.417  1.00  0.00     0.007 C 
HETATM   13  C9  UNL     1      -6.922   2.835  16.787  1.00  0.00     0.000 C 
HETATM   14  C10 UNL     1      -7.154   1.343  16.879  1.00  0.00     0.000 C 
HETATM   15  C11 UNL     1      -5.786   0.807  17.123  1.00  0.00     0.007 C 
ENDBRANCH   1  11
TORSDOF 4
ENDMDL
MODEL 4
REMARK VINA RESULT: -6.371142085      1.248      1.477
REMARK  4 active torsions:
REMARK  status: ('A' for Active; 'I' for Inactive)
REMARK    1  A    between atoms: O1_1  and  C1_3 
REMARK    2  A    between atoms: C1_3  and  C2_4 
REMARK    3  A    between atoms: C1_3  and  C7_11 
REMARK    4  A    between atoms: C2_4  and  N1_5 
ROOT
HETATM    1  C1  UNL     1      -4.466   2.047  15.764  1.00  0.00     0.150 C 
ENDROOT
BRANCH   1   2
HETATM    2  O1  UNL     1      -3.520   1.030  16.109  1.00  0.00    -0.393 OA
ATOM      3  H1  UNL     1      -3.931   0.419  16.709  1.00  0.00     0.210 HD
ENDBRANCH   1   2
BRANCH   1   4
HETATM    4  C2  UNL     1      -3.801   3.045  14.886  1.00  0.00     0.304 C 
BRANCH   4   5
HETATM    5  N1  UNL     1      -4.345   3.141  13.608  1.00  0.00     0.095 N 
HETATM    6  C3  UNL     1      -3.388   3.632  12.610  1.00  0.00     0.298 C 
HETATM    7  C4  UNL     1      -4.290   4.290  11.557  1.00  0.00     0.198 C 
HETATM    8  O2  UNL     1      -4.937   3.279  10.874  1.00  0.00    -0.388 OA
HETATM    9  C5  UNL     1      -4.953   2.075  11.492  1.00  0.00     0.198 C 
HETATM   10  C6  UNL     1      -5.082   2.110  13.010  1.00  0.00     0.298 C 
ENDBRANCH   4   5
ENDBRANCH   1   4
BRANCH   1  11
HETATM   11  C7  UNL     1      -5.229   2.530  16.915  1.00  0.00     0.016 C 
HETATM   12  C8  UNL     1      -6.505   3.211  16.523  1.00  0.00     0.007 C 
HETATM   13  C9  UNL     1      -7.585   2.137  16.535  1.00  0.00     0.000 C 
HETATM   14  C10 UNL     1      -6.919   0.881  17.050  1.00  0.00     0.000 C 
HETATM   15  C11 UNL     1      -5.748   1.409  17.804  1.00  0.00     0.007 C 
ENDBRANCH   1  11
TORSDOF 4
ENDMDL
MODEL 5
REMARK VINA RESULT: -6.306628122      0.425      1.301
REMARK  4 active torsions:
REMARK  status: ('A' for Active; 'I' for Inactive)
REMARK    1  A    between atoms: O1_1  and  C1_3 
REMARK    2  A    between atoms: C1_3  and  C2_4 
REMARK    3  A    between atoms: C1_3  and  C7_11 
REMARK    4  A    between atoms: C2_4  and  N1_5 
ROOT
HETATM    1  C1  UNL     1      -4.422   2.056  15.772  1.00  0.00     0.150 C 
ENDROOT
BRANCH   1   2
HETATM    2  O1  UNL     1      -3.221   1.438  16.245  1.00  0.00    -0.393 OA
ATOM      3  H1  UNL     1      -3.447   0.628  16.687  1.00  0.00     0.210 HD
ENDBRANCH   1   2
BRANCH   1   4
HETATM    4  C2  UNL     1      -4.086   2.944  14.628  1.00  0.00     0.304 C 
BRANCH   4   5
HETATM    5  N1  UNL     1      -4.085   2.309  13.388  1.00  0.00     0.095 N 
HETATM    6  C3  UNL     1      -4.559   0.921  13.452  1.00  0.00     0.298 C 
HETATM    7  C4  UNL     1      -3.857   0.258  12.260  1.00  0.00     0.198 C 
HETATM    8  O2  UNL     1      -4.462   0.725  11.109  1.00  0.00    -0.388 OA
HETATM    9  C5  UNL     1      -5.185   1.860  11.250  1.00  0.00     0.198 C 
HETATM   10  C6  UNL     1      -4.629   2.884  12.233  1.00  0.00     0.298 C 
ENDBRANCH   4   5
ENDBRANCH   1   4
BRANCH   1  11
HETATM   11  C7  UNL     1      -5.250   2.594  16.852  1.00  0.00     0.016 C 
HETATM   12  C8  UNL     1      -6.577   3.099  16.371  1.00  0.00     0.007 C 
HETATM   13  C9  UNL     1      -7.550   1.934  16.499  1.00  0.00     0.000 C 
HETATM   14  C10 UNL     1      -6.779   0.817  17.164  1.00  0.00     0.000 C 
HETATM   15  C11 UNL     1      -5.679   1.539  17.861  1.00  0.00     0.007 C 
ENDBRANCH   1  11
TORSDOF 4
ENDMDL
