MODEL 1
REMARK VINA RESULT: -5.874711972      0.000      0.000
REMARK  4 active torsions:
REMARK  status: ('A' for Active; 'I' for Inactive)
REMARK    1  A    between atoms: O1_1  and  C1_3 
REMARK    2  A    between atoms: C1_3  and  C2_4 
REMARK    3  A    between atoms: C2_4  and  N1_5 
REMARK    4  A    between atoms: N2_8  and  C5_9 
ROOT
HETATM    1  N1  UNL     1      -4.321   1.093  12.132  1.00  0.00    -0.388 N 
HETATM    2  C3  UNL     1      -4.378   0.239  13.242  1.00  0.00     0.077 C 
HETATM    3  C4  UNL     1      -4.249   0.840  14.592  1.00  0.00     0.161 C 
HETATM    4  N2  UNL     1      -4.847   2.117  14.638  1.00  0.00    -0.402 N 
HETATM    5  C10 UNL     1      -4.316   2.962  13.669  1.00  0.00     0.137 C 
HETATM    6  C11 UNL     1      -4.810   2.428  12.317  1.00  0.00     0.141 C 
ENDROOT
BRANCH   4   7
HETATM    7  C5  UNL     1      -5.287   2.539  15.880  1.00  0.00     0.079 C 
HETATM    8  C6  UNL     1      -6.695   3.153  15.886  1.00  0.00     0.025 C 
HETATM    9  C7  UNL     1      -6.825   3.414  17.389  1.00  0.00     0.002 C 
HETATM   10  C8  UNL     1      -6.497   2.019  17.917  1.00  0.00     0.002 C 
HETATM   11  C9  UNL     1      -5.380   1.553  16.972  1.00  0.00     0.025 C 
ENDBRANCH   4   7
BRANCH   1  12
HETATM   12  C2  UNL     1      -3.106   1.086  11.374  1.00  0.00     0.148 C 
BRANCH  12  13
HETATM   13  C1  UNL     1      -2.894  -0.196  10.601  1.00  0.00     0.183 C 
BRANCH  13  14
HETATM   14  O1  UNL     1      -3.606  -0.097   9.402  1.00  0.00    -0.399 OA
ATOM     15  H1  UNL     1      -4.526  -0.234   9.597  1.00  0.00     0.209 HD
ENDBRANCH  13  14
ENDBRANCH  12  13
ENDBRANCH   1  12
TORSDOF 4
ENDMDL
MODEL 2
REMARK VINA RESULT: -5.862465532      2.470      5.544
REMARK  4 active torsions:
REMARK  status: ('A' for Active; 'I' for Inactive)
REMARK    1  A    between atoms: O1_1  and  C1_3 
REMARK    2  A    between atoms: C1_3  and  C2_4 
REMARK    3  A    between atoms: C2_4  and  N1_5 
REMARK    4  A    between atoms: N2_8  and  C5_9 
ROOT
HETATM    1  N1  UNL     1      -4.485   2.239  16.164  1.00  0.00    -0.388 N 
HETATM    2  C3  UNL     1      -4.081   0.983  15.694  1.00  0.00     0.077 C 
HETATM    3  C4  UNL     1      -4.378   0.638  14.282  1.00  0.00     0.161 C 
HETATM    4  N2  UNL     1      -4.291   1.776  13.453  1.00  0.00    -0.402 N 
HETATM    5  C10 UNL     1      -5.127   2.795  13.898  1.00  0.00     0.137 C 
HETATM    6  C11 UNL     1      -4.516   3.309  15.210  1.00  0.00     0.141 C 
ENDROOT
BRANCH   4   7
HETATM    7  C5  UNL     1      -3.997   1.539  12.122  1.00  0.00     0.079 C 
HETATM    8  C6  UNL     1      -2.501   1.583  11.779  1.00  0.00     0.025 C 
HETATM    9  C7  UNL     1      -2.595   1.218  10.294  1.00  0.00     0.002 C 
HETATM   10  C8  UNL     1      -3.412  -0.067  10.400  1.00  0.00     0.002 C 
HETATM   11  C9  UNL     1      -4.411   0.258  11.521  1.00  0.00     0.025 C 
ENDBRANCH   4   7
BRANCH   1  12
HETATM   12  C2  UNL     1      -5.636   2.271  17.016  1.00  0.00     0.148 C 
BRANCH  12  13
HETATM   13  C1  UNL     1      -6.111   0.895  17.425  1.00  0.00     0.183 C 
BRANCH  13  14
HETATM   14  O1  UNL     1      -7.263   0.602  16.688  1.00  0.00    -0.399 OA
ATOM     15  H1  UNL     1      -7.392  -0.339  16.710  1.00  0.00     0.209 HD
ENDBRANCH  13  14
ENDBRANCH  12  13
ENDBRANCH   1  12
TORSDOF 4
ENDMDL
MODEL 3
REMARK VINA RESULT: -5.784399817      1.401      1.533
REMARK  4 active torsions:
REMARK  status: ('A' for Active; 'I' for Inactive)
REMARK    1  A    between atoms: O1_1  and  C1_3 
REMARK    2  A    between atoms: C1_3  and  C2_4 
REMARK    3  A    between atoms: C2_4  and  N1_5 
REMARK    4  A    between atoms: N2_8  and  C5_9 
ROOT
HETATM    1  N1  UNL     1      -4.174   2.823  11.779  1.00  0.00    -0.388 N 
HETATM    2  C3  UNL     1      -4.524   1.567  12.291  1.00  0.00     0.077 C 
HETATM    3  C4  UNL     1      -4.356   1.336  13.747  1.00  0.00     0.161 C 
HETATM    4  N2  UNL     1      -4.624   2.510  14.482  1.00  0.00    -0.402 N 
HETATM    5  C10 UNL     1      -3.829   3.569  14.055  1.00  0.00     0.137 C 
HETATM    6  C11 UNL     1      -4.333   3.947  12.655  1.00  0.00     0.141 C 
ENDROOT
BRANCH   4   7
HETATM    7  C5  UNL     1      -5.041   2.330  15.788  1.00  0.00     0.079 C 
HETATM    8  C6  UNL     1      -6.418   2.930  16.110  1.00  0.00     0.025 C 
HETATM    9  C7  UNL     1      -6.533   2.473  17.567  1.00  0.00     0.002 C 
HETATM   10  C8  UNL     1      -6.271   0.980  17.385  1.00  0.00     0.002 C 
HETATM   11  C9  UNL     1      -5.179   0.956  16.305  1.00  0.00     0.025 C 
ENDBRANCH   4   7
BRANCH   1  12
HETATM   12  C2  UNL     1      -2.943   2.904  11.051  1.00  0.00     0.148 C 
BRANCH  12  13
HETATM   13  C1  UNL     1      -2.370   1.550  10.700  1.00  0.00     0.183 C 
BRANCH  13  14
HETATM   14  O1  UNL     1      -1.173   1.393  11.405  1.00  0.00    -0.399 OA
ATOM     15  H1  UNL     1      -1.153   0.510  11.755  1.00  0.00     0.209 HD
ENDBRANCH  13  14
ENDBRANCH  12  13
ENDBRANCH   1  12
TORSDOF 4
ENDMDL
MODEL 4
REMARK VINA RESULT: -5.637997863      2.564      5.564
REMARK  4 active torsions:
REMARK  status: ('A' for Active; 'I' for Inactive)
REMARK    1  A    between atoms: O1_1  and  C1_3 
REMARK    2  A    between atoms: C1_3  and  C2_4 
REMARK    3  A    between atoms: C2_4  and  N1_5 
REMARK    4  A    between atoms: N2_8  and  C5_9 
ROOT
HETATM    1  N1  UNL     1      -4.393   2.139  16.216  1.00  0.00    -0.388 N 
HETATM    2  C3  UNL     1      -4.127   0.961  15.506  1.00  0.00     0.077 C 
HETATM    3  C4  UNL     1      -4.304   0.979  14.034  1.00  0.00     0.161 C 
HETATM    4  N2  UNL     1      -3.953   2.235  13.496  1.00  0.00    -0.402 N 
HETATM    5  C10 UNL     1      -4.676   3.263  14.092  1.00  0.00     0.137 C 
HETATM    6  C11 UNL     1      -4.153   3.376  15.532  1.00  0.00     0.141 C 
ENDROOT
BRANCH   4   7
HETATM    7  C5  UNL     1      -3.543   2.239  12.175  1.00  0.00     0.079 C 
HETATM    8  C6  UNL     1      -2.462   3.279  11.843  1.00  0.00     0.025 C 
HETATM    9  C7  UNL     1      -2.248   2.924  10.368  1.00  0.00     0.002 C 
HETATM   10  C8  UNL     1      -1.982   1.427  10.505  1.00  0.00     0.002 C 
HETATM   11  C9  UNL     1      -2.965   1.008  11.608  1.00  0.00     0.025 C 
ENDBRANCH   4   7
BRANCH   1  12
HETATM   12  C2  UNL     1      -5.619   2.185  16.956  1.00  0.00     0.148 C 
BRANCH  12  13
HETATM   13  C1  UNL     1      -6.119   0.818  17.364  1.00  0.00     0.183 C 
BRANCH  13  14
HETATM   14  O1  UNL     1      -7.320   0.580  16.689  1.00  0.00    -0.399 OA
ATOM     15  H1  UNL     1      -7.833   1.379  16.714  1.00  0.00     0.209 HD
ENDBRANCH  13  14
ENDBRANCH  12  13
ENDBRANCH   1  12
TORSDOF 4
ENDMDL
MODEL 5
REMARK VINA RESULT: -5.625593422      1.833      2.101
REMARK  4 active torsions:
REMARK  status: ('A' for Active; 'I' for Inactive)
REMARK    1  A    between atoms: O1_1  and  C1_3 
REMARK    2  A    between atoms: C1_3  and  C2_4 
REMARK    3  A    between atoms: C2_4  and  N1_5 
REMARK    4  A    between atoms: N2_8  and  C5_9 
ROOT
HETATM    1  N1  UNL     1      -4.224   3.032  11.841  1.00  0.00    -0.388 N 
HETATM    2  C3  UNL     1      -4.567   1.752  12.295  1.00  0.00     0.077 C 
HETATM    3  C4  UNL     1      -4.371   1.446  13.733  1.00  0.00     0.161 C 
HETATM    4  N2  UNL     1      -4.622   2.581  14.533  1.00  0.00    -0.402 N 
HETATM    5  C10 UNL     1      -3.833   3.660  14.146  1.00  0.00     0.137 C 
HETATM    6  C11 UNL     1      -4.364   4.110  12.776  1.00  0.00     0.141 C 
ENDROOT
BRANCH   4   7
HETATM    7  C5  UNL     1      -5.014   2.334  15.836  1.00  0.00     0.079 C 
HETATM    8  C6  UNL     1      -6.380   2.925  16.216  1.00  0.00     0.025 C 
HETATM    9  C7  UNL     1      -6.469   2.392  17.649  1.00  0.00     0.002 C 
HETATM   10  C8  UNL     1      -6.222   0.909  17.384  1.00  0.00     0.002 C 
HETATM   11  C9  UNL     1      -5.151   0.936  16.282  1.00  0.00     0.025 C 
ENDBRANCH   4   7
BRANCH   1  12
HETATM   12  C2  UNL     1      -3.007   3.149  11.094  1.00  0.00     0.148 C 
BRANCH  12  13
HETATM   13  C1  UNL     1      -2.946   4.400  10.248  1.00  0.00     0.183 C 
BRANCH  13  14
HETATM   14  O1  UNL     1      -3.930   4.298   9.259  1.00  0.00    -0.399 OA
ATOM     15  H1  UNL     1      -4.393   5.127   9.222  1.00  0.00     0.209 HD
ENDBRANCH  13  14
ENDBRANCH  12  13
ENDBRANCH   1  12
TORSDOF 4
ENDMDL
