MODEL 1
REMARK VINA RESULT: -6.893075337      0.000      0.000
REMARK  6 active torsions:
REMARK  status: ('A' for Active; 'I' for Inactive)
REMARK    1  A    between atoms: C2_2  and  N1_3 
REMARK    2  A    between atoms: N1_3  and  C3_4 
REMARK    3  A    between atoms: N1_3  and  C9_11 
REMARK    4  A    between atoms: C3_4  and  C4_5 
REMARK    5  A    between atoms: C11_13  and  N2_14 
REMARK    6  A    between atoms: C17_22  and  N4_23 
ROOT
HETATM    1  C9  UNL     1      71.114  39.942  -0.552  1.00  0.00     0.037 A 
HETATM    2  C10 UNL     1      71.733  38.880   0.069  1.00  0.00     0.077 A 
HETATM    3  C11 UNL     1      71.031  37.738   0.381  1.00  0.00     0.106 A 
HETATM    4  N3  UNL     1      69.726  37.699   0.060  1.00  0.00    -0.329 N 
ATOM      5  H3  UNL     1      69.205  36.854   0.293  1.00  0.00     0.169 HD
HETATM    6  C17 UNL     1      69.057  38.698  -0.547  1.00  0.00     0.106 A 
HETATM    7  C22 UNL     1      69.786  39.839  -0.852  1.00  0.00     0.077 A 
ENDROOT
BRANCH   1   8
HETATM    8  N1  UNL     1      71.924  41.089  -0.824  1.00  0.00    -0.381 N 
BRANCH   8   9
HETATM    9  C2  UNL     1      73.127  41.231  -0.075  1.00  0.00     0.118 C 
HETATM   10  C1  UNL     1      74.213  42.002  -0.782  1.00  0.00     0.026 C 
ENDBRANCH   8   9
BRANCH   8  11
HETATM   11  C3  UNL     1      71.464  41.977  -1.830  1.00  0.00     0.129 C 
BRANCH  11  12
HETATM   12  C4  UNL     1      70.739  43.207  -1.382  1.00  0.00     0.027 C 
HETATM   13  C5  UNL     1      71.396  44.504  -1.712  1.00  0.00     0.010 C 
HETATM   14  C6  UNL     1      70.282  45.512  -2.035  1.00  0.00     0.027 C 
HETATM   15  C7  UNL     1      69.695  45.112  -3.360  1.00  0.00     0.167 C 
HETATM   16  O1  UNL     1      69.584  43.726  -3.404  1.00  0.00    -0.391 OA
HETATM   17  C8  UNL     1      69.393  43.185  -2.134  1.00  0.00     0.173 C 
ENDBRANCH  11  12
ENDBRANCH   8  11
ENDBRANCH   1   8
BRANCH   3  18
HETATM   18  N2  UNL     1      71.692  36.664   0.995  1.00  0.00    -0.367 N 
HETATM   19  C12 UNL     1      72.695  35.875   0.336  1.00  0.00     0.124 C 
HETATM   20  C13 UNL     1      74.005  36.157   1.054  1.00  0.00     0.020 C 
HETATM   21  C14 UNL     1      73.824  35.710   2.485  1.00  0.00     0.003 C 
HETATM   22  C15 UNL     1      72.703  36.464   3.130  1.00  0.00     0.020 C 
HETATM   23  C16 UNL     1      71.395  36.285   2.377  1.00  0.00     0.124 C 
ENDBRANCH   3  18
BRANCH   6  24
HETATM   24  N4  UNL     1      67.676  38.589  -0.849  1.00  0.00    -0.367 N 
HETATM   25  C18 UNL     1      66.734  39.672  -0.893  1.00  0.00     0.124 C 
HETATM   26  C19 UNL     1      65.415  39.059  -0.542  1.00  0.00     0.021 C 
HETATM   27  C20 UNL     1      65.513  37.726  -1.285  1.00  0.00     0.021 C 
HETATM   28  C21 UNL     1      66.991  37.368  -1.166  1.00  0.00     0.124 C 
ENDBRANCH   6  24
TORSDOF 6
ENDMDL
MODEL 2
REMARK VINA RESULT: -6.889036254      0.838      4.857
REMARK  6 active torsions:
REMARK  status: ('A' for Active; 'I' for Inactive)
REMARK    1  A    between atoms: C2_2  and  N1_3 
REMARK    2  A    between atoms: N1_3  and  C3_4 
REMARK    3  A    between atoms: N1_3  and  C9_11 
REMARK    4  A    between atoms: C3_4  and  C4_5 
REMARK    5  A    between atoms: C11_13  and  N2_14 
REMARK    6  A    between atoms: C17_22  and  N4_23 
ROOT
HETATM    1  C9  UNL     1      71.137  39.950  -0.408  1.00  0.00     0.037 A 
HETATM    2  C10 UNL     1      69.848  39.800  -0.869  1.00  0.00     0.077 A 
HETATM    3  C11 UNL     1      69.155  38.629  -0.658  1.00  0.00     0.106 A 
HETATM    4  N3  UNL     1      69.781  37.644   0.010  1.00  0.00    -0.329 N 
ATOM      5  H3  UNL     1      69.269  36.776   0.165  1.00  0.00     0.169 HD
HETATM    6  C17 UNL     1      71.037  37.722   0.489  1.00  0.00     0.106 A 
HETATM    7  C22 UNL     1      71.715  38.912   0.264  1.00  0.00     0.077 A 
ENDROOT
BRANCH   1   8
HETATM    8  N1  UNL     1      71.778  41.198  -0.687  1.00  0.00    -0.381 N 
BRANCH   8   9
HETATM    9  C2  UNL     1      73.196  41.188  -0.819  1.00  0.00     0.118 C 
HETATM   10  C1  UNL     1      73.898  42.294  -0.070  1.00  0.00     0.026 C 
ENDBRANCH   8   9
BRANCH   8  11
HETATM   11  C3  UNL     1      70.939  42.335  -0.824  1.00  0.00     0.129 C 
BRANCH  11  12
HETATM   12  C4  UNL     1      70.708  42.856  -2.207  1.00  0.00     0.027 C 
HETATM   13  C5  UNL     1      69.295  43.189  -2.547  1.00  0.00     0.010 C 
HETATM   14  C6  UNL     1      69.323  44.424  -3.462  1.00  0.00     0.027 C 
HETATM   15  C7  UNL     1      69.725  45.595  -2.609  1.00  0.00     0.167 C 
HETATM   16  O1  UNL     1      70.736  45.195  -1.741  1.00  0.00    -0.391 OA
HETATM   17  C8  UNL     1      71.507  44.172  -2.287  1.00  0.00     0.173 C 
ENDBRANCH  11  12
ENDBRANCH   8  11
ENDBRANCH   1   8
BRANCH   3  18
HETATM   18  N2  UNL     1      67.837  38.510  -1.121  1.00  0.00    -0.367 N 
HETATM   19  C12 UNL     1      67.183  37.248  -1.324  1.00  0.00     0.124 C 
HETATM   20  C13 UNL     1      66.068  37.169  -0.294  1.00  0.00     0.020 C 
HETATM   21  C14 UNL     1      65.126  38.314  -0.579  1.00  0.00     0.003 C 
HETATM   22  C15 UNL     1      65.846  39.622  -0.471  1.00  0.00     0.020 C 
HETATM   23  C16 UNL     1      67.031  39.696  -1.419  1.00  0.00     0.124 C 
ENDBRANCH   3  18
BRANCH   6  24
HETATM   24  N4  UNL     1      71.636  36.638   1.179  1.00  0.00    -0.367 N 
HETATM   25  C18 UNL     1      71.488  36.343   2.577  1.00  0.00     0.124 C 
HETATM   26  C19 UNL     1      72.753  35.645   2.966  1.00  0.00     0.021 C 
HETATM   27  C20 UNL     1      72.991  34.774   1.731  1.00  0.00     0.021 C 
HETATM   28  C21 UNL     1      72.491  35.649   0.586  1.00  0.00     0.124 C 
ENDBRANCH   6  24
TORSDOF 6
ENDMDL
MODEL 3
REMARK VINA RESULT: -6.833816436      2.245      6.688
REMARK  6 active torsions:
REMARK  status: ('A' for Active; 'I' for Inactive)
REMARK    1  A    between atoms: C2_2  and  N1_3 
REMARK    2  A    between atoms: N1_3  and  C3_4 
REMARK    3  A    between atoms: N1_3  and  C9_11 
REMARK    4  A    between atoms: C3_4  and  C4_5 
REMARK    5  A    between atoms: C11_13  and  N2_14 
REMARK    6  A    between atoms: C17_22  and  N4_23 
ROOT
HETATM    1  C9  UNL     1      71.290  40.388   0.118  1.00  0.00     0.037 A 
HETATM    2  C10 UNL     1      71.416  41.491  -0.696  1.00  0.00     0.077 A 
HETATM    3  C11 UNL     1      70.380  41.888  -1.511  1.00  0.00     0.106 A 
HETATM    4  N3  UNL     1      69.248  41.161  -1.483  1.00  0.00    -0.329 N 
ATOM      5  H3  UNL     1      68.481  41.454  -2.088  1.00  0.00     0.169 HD
HETATM    6  C17 UNL     1      69.057  40.074  -0.713  1.00  0.00     0.106 A 
HETATM    7  C22 UNL     1      70.115  39.693   0.101  1.00  0.00     0.077 A 
ENDROOT
BRANCH   1   8
HETATM    8  N1  UNL     1      72.425  40.048   0.919  1.00  0.00    -0.381 N 
BRANCH   8   9
HETATM    9  C2  UNL     1      73.679  40.612   0.547  1.00  0.00     0.118 C 
HETATM   10  C1  UNL     1      74.382  41.352   1.658  1.00  0.00     0.026 C 
ENDBRANCH   8   9
BRANCH   8  11
HETATM   11  C3  UNL     1      72.198  39.188   2.025  1.00  0.00     0.129 C 
BRANCH  11  12
HETATM   12  C4  UNL     1      73.084  37.991   2.158  1.00  0.00     0.027 C 
HETATM   13  C5  UNL     1      72.978  37.244   3.445  1.00  0.00     0.010 C 
HETATM   14  C6  UNL     1      73.155  35.752   3.125  1.00  0.00     0.027 C 
HETATM   15  C7  UNL     1      71.916  35.306   2.400  1.00  0.00     0.167 C 
HETATM   16  O1  UNL     1      71.538  36.298   1.500  1.00  0.00    -0.391 OA
HETATM   17  C8  UNL     1      72.636  37.024   1.045  1.00  0.00     0.173 C 
ENDBRANCH  11  12
ENDBRANCH   8  11
ENDBRANCH   1   8
BRANCH   3  18
HETATM   18  N2  UNL     1      70.527  43.028  -2.314  1.00  0.00    -0.367 N 
HETATM   19  C12 UNL     1      69.950  43.150  -3.624  1.00  0.00     0.124 C 
HETATM   20  C13 UNL     1      68.889  44.235  -3.528  1.00  0.00     0.020 C 
HETATM   21  C14 UNL     1      69.599  45.507  -3.133  1.00  0.00     0.003 C 
HETATM   22  C15 UNL     1      70.289  45.333  -1.816  1.00  0.00     0.020 C 
HETATM   23  C16 UNL     1      71.287  44.188  -1.847  1.00  0.00     0.124 C 
ENDBRANCH   3  18
BRANCH   6  24
HETATM   24  N4  UNL     1      67.837  39.351  -0.742  1.00  0.00    -0.367 N 
HETATM   25  C18 UNL     1      67.700  37.934  -0.932  1.00  0.00     0.124 C 
HETATM   26  C19 UNL     1      66.361  37.753  -1.574  1.00  0.00     0.021 C 
HETATM   27  C20 UNL     1      65.536  38.791  -0.814  1.00  0.00     0.021 C 
HETATM   28  C21 UNL     1      66.531  39.923  -0.579  1.00  0.00     0.124 C 
ENDBRANCH   6  24
TORSDOF 6
ENDMDL
MODEL 4
REMARK VINA RESULT: -6.580087827      2.474      6.617
REMARK  6 active torsions:
REMARK  status: ('A' for Active; 'I' for Inactive)
REMARK    1  A    between atoms: C2_2  and  N1_3 
REMARK    2  A    between atoms: N1_3  and  C3_4 
REMARK    3  A    between atoms: N1_3  and  C9_11 
REMARK    4  A    between atoms: C3_4  and  C4_5 
REMARK    5  A    between atoms: C11_13  and  N2_14 
REMARK    6  A    between atoms: C17_22  and  N4_23 
ROOT
HETATM    1  C9  UNL     1      70.928  39.350  -0.057  1.00  0.00     0.037 A 
HETATM    2  C10 UNL     1      71.142  40.625  -0.532  1.00  0.00     0.077 A 
HETATM    3  C11 UNL     1      70.124  41.337  -1.125  1.00  0.00     0.106 A 
HETATM    4  N3  UNL     1      68.922  40.743  -1.225  1.00  0.00    -0.329 N 
ATOM      5  H3  UNL     1      68.167  41.269  -1.666  1.00  0.00     0.169 HD
HETATM    6  C17 UNL     1      68.642  39.502  -0.783  1.00  0.00     0.106 A 
HETATM    7  C22 UNL     1      69.684  38.805  -0.188  1.00  0.00     0.077 A 
ENDROOT
BRANCH   1   8
HETATM    8  N1  UNL     1      72.051  38.688   0.532  1.00  0.00    -0.381 N 
BRANCH   8   9
HETATM    9  C2  UNL     1      73.022  38.137  -0.352  1.00  0.00     0.118 C 
HETATM   10  C1  UNL     1      72.442  37.342  -1.495  1.00  0.00     0.026 C 
ENDBRANCH   8   9
BRANCH   8  11
HETATM   11  C3  UNL     1      72.105  38.652   1.949  1.00  0.00     0.129 C 
BRANCH  11  12
HETATM   12  C4  UNL     1      71.783  37.353   2.617  1.00  0.00     0.027 C 
HETATM   13  C5  UNL     1      71.437  36.224   1.707  1.00  0.00     0.010 C 
HETATM   14  C6  UNL     1      72.005  34.940   2.333  1.00  0.00     0.027 C 
HETATM   15  C7  UNL     1      73.501  35.007   2.196  1.00  0.00     0.167 C 
HETATM   16  O1  UNL     1      73.921  36.306   2.466  1.00  0.00    -0.391 OA
HETATM   17  C8  UNL     1      73.069  36.946   3.363  1.00  0.00     0.173 C 
ENDBRANCH  11  12
ENDBRANCH   8  11
ENDBRANCH   1   8
BRANCH   3  18
HETATM   18  N2  UNL     1      70.364  42.641  -1.581  1.00  0.00    -0.367 N 
HETATM   19  C12 UNL     1      71.584  43.355  -1.325  1.00  0.00     0.124 C 
HETATM   20  C13 UNL     1      72.271  43.527  -2.670  1.00  0.00     0.020 C 
HETATM   21  C14 UNL     1      71.342  44.345  -3.535  1.00  0.00     0.003 C 
HETATM   22  C15 UNL     1      70.032  43.641  -3.705  1.00  0.00     0.020 C 
HETATM   23  C16 UNL     1      69.363  43.361  -2.370  1.00  0.00     0.124 C 
ENDBRANCH   3  18
BRANCH   6  24
HETATM   24  N4  UNL     1      67.350  38.937  -0.929  1.00  0.00    -0.367 N 
HETATM   25  C18 UNL     1      66.104  39.644  -0.830  1.00  0.00     0.124 C 
HETATM   26  C19 UNL     1      65.114  38.628  -0.352  1.00  0.00     0.021 C 
HETATM   27  C20 UNL     1      65.560  37.399  -1.145  1.00  0.00     0.021 C 
HETATM   28  C21 UNL     1      67.076  37.556  -1.207  1.00  0.00     0.124 C 
ENDBRANCH   6  24
TORSDOF 6
ENDMDL
MODEL 5
REMARK VINA RESULT: -6.579921337      1.780      3.252
REMARK  6 active torsions:
REMARK  status: ('A' for Active; 'I' for Inactive)
REMARK    1  A    between atoms: C2_2  and  N1_3 
REMARK    2  A    between atoms: N1_3  and  C3_4 
REMARK    3  A    between atoms: N1_3  and  C9_11 
REMARK    4  A    between atoms: C3_4  and  C4_5 
REMARK    5  A    between atoms: C11_13  and  N2_14 
REMARK    6  A    between atoms: C17_22  and  N4_23 
ROOT
HETATM    1  C9  UNL     1      71.103  40.010  -0.502  1.00  0.00     0.037 A 
HETATM    2  C10 UNL     1      71.724  38.945   0.112  1.00  0.00     0.077 A 
HETATM    3  C11 UNL     1      71.026  37.795   0.403  1.00  0.00     0.106 A 
HETATM    4  N3  UNL     1      69.724  37.752   0.068  1.00  0.00    -0.329 N 
ATOM      5  H3  UNL     1      69.206  36.900   0.285  1.00  0.00     0.169 HD
HETATM    6  C17 UNL     1      69.055  38.753  -0.533  1.00  0.00     0.106 A 
HETATM    7  C22 UNL     1      69.780  39.902  -0.818  1.00  0.00     0.077 A 
ENDROOT
BRANCH   1   8
HETATM    8  N1  UNL     1      71.909  41.166  -0.753  1.00  0.00    -0.381 N 
BRANCH   8   9
HETATM    9  C2  UNL     1      71.236  42.360  -1.138  1.00  0.00     0.118 C 
HETATM   10  C1  UNL     1      71.453  42.760  -2.576  1.00  0.00     0.026 C 
ENDBRANCH   8   9
BRANCH   8  11
HETATM   11  C3  UNL     1      73.310  41.022  -0.579  1.00  0.00     0.129 C 
BRANCH  11  12
HETATM   12  C4  UNL     1      74.042  42.154   0.068  1.00  0.00     0.027 C 
HETATM   13  C5  UNL     1      74.702  41.842   1.368  1.00  0.00     0.010 C 
HETATM   14  C6  UNL     1      76.012  42.644   1.422  1.00  0.00     0.027 C 
HETATM   15  C7  UNL     1      76.954  42.017   0.433  1.00  0.00     0.167 C 
HETATM   16  O1  UNL     1      76.245  41.682  -0.716  1.00  0.00    -0.391 OA
HETATM   17  C8  UNL     1      75.163  42.535  -0.919  1.00  0.00     0.173 C 
ENDBRANCH  11  12
ENDBRANCH   8  11
ENDBRANCH   1   8
BRANCH   3  18
HETATM   18  N2  UNL     1      71.687  36.717   1.010  1.00  0.00    -0.367 N 
HETATM   19  C12 UNL     1      72.645  35.894   0.327  1.00  0.00     0.124 C 
HETATM   20  C13 UNL     1      73.989  36.159   0.987  1.00  0.00     0.020 C 
HETATM   21  C14 UNL     1      73.856  35.743   2.432  1.00  0.00     0.003 C 
HETATM   22  C15 UNL     1      72.778  36.533   3.106  1.00  0.00     0.020 C 
HETATM   23  C16 UNL     1      71.438  36.370   2.410  1.00  0.00     0.124 C 
ENDBRANCH   3  18
BRANCH   6  24
HETATM   24  N4  UNL     1      67.678  38.639  -0.851  1.00  0.00    -0.367 N 
HETATM   25  C18 UNL     1      66.723  39.712  -0.861  1.00  0.00     0.124 C 
HETATM   26  C19 UNL     1      65.409  39.070  -0.546  1.00  0.00     0.021 C 
HETATM   27  C20 UNL     1      65.529  37.767  -1.338  1.00  0.00     0.021 C 
HETATM   28  C21 UNL     1      67.010  37.424  -1.220  1.00  0.00     0.124 C 
ENDBRANCH   6  24
TORSDOF 6
ENDMDL
