MODEL 1
REMARK VINA RESULT: -6.710974386      0.000      0.000
REMARK  6 active torsions:
REMARK  status: ('A' for Active; 'I' for Inactive)
REMARK    1  A    between atoms: N1_2  and  C2_3 
REMARK    2  A    between atoms: N1_2  and  C11_12 
REMARK    3  A    between atoms: C2_3  and  C3_4 
REMARK    4  A    between atoms: C14_17  and  N3_18 
REMARK    5  A    between atoms: N3_18  and  C16_20 
REMARK    6  A    between atoms: C19_23  and  N4_24 
ROOT
HETATM    1  C11 UNL     1      71.972  40.032   0.624  1.00  0.00     0.123 A 
HETATM    2  C12 UNL     1      72.734  40.704  -0.301  1.00  0.00     0.067 A 
HETATM    3  C13 UNL     1      72.103  41.298  -1.349  1.00  0.00     0.110 A 
HETATM    4  N2  UNL     1      70.771  41.207  -1.442  1.00  0.00    -0.202 N 
ATOM      5  H2  UNL     1      70.322  41.661  -2.237  1.00  0.00     0.183 HD
HETATM    6  C14 UNL     1      69.980  40.564  -0.567  1.00  0.00     0.681 A 
HETATM    7  N5  UNL     1      70.642  39.977   0.475  1.00  0.00    -0.176 N 
ATOM      8  H5  UNL     1      70.096  39.473   1.174  1.00  0.00     0.186 HD
ENDROOT
BRANCH   1   9
HETATM    9  N1  UNL     1      72.612  39.397   1.707  1.00  0.00    -0.351 N 
HETATM   10  C1  UNL     1      73.782  40.161   2.224  1.00  0.00     0.156 C 
BRANCH   9  11
HETATM   11  C2  UNL     1      72.350  38.170   2.345  1.00  0.00     0.069 C 
BRANCH  11  12
HETATM   12  C3  UNL     1      71.997  36.973   1.554  1.00  0.00     0.024 C 
HETATM   13  C4  UNL     1      73.128  36.693   0.582  1.00  0.00     0.010 C 
HETATM   14  C5  UNL     1      74.492  36.706   1.155  1.00  0.00     0.001 C 
HETATM   15  C6  UNL     1      74.842  35.633   2.115  1.00  0.00     0.000 C 
HETATM   16  C7  UNL     1      74.465  34.248   1.662  1.00  0.00     0.000 C 
HETATM   17  C8  UNL     1      73.191  33.877   2.338  1.00  0.00     0.000 C 
HETATM   18  C9  UNL     1      71.943  34.442   1.738  1.00  0.00     0.001 C 
HETATM   19  C10 UNL     1      71.589  35.783   2.338  1.00  0.00     0.010 C 
ENDBRANCH  11  12
ENDBRANCH   9  11
ENDBRANCH   1   9
BRANCH   6  20
HETATM   20  N3  UNL     1      68.568  40.463  -0.679  1.00  0.00    -0.217 N 
HETATM   21  C15 UNL     1      67.841  41.669  -1.106  1.00  0.00     0.169 C 
BRANCH  20  22
HETATM   22  C16 UNL     1      67.767  39.320  -0.423  1.00  0.00     0.103 C 
HETATM   23  C17 UNL     1      68.072  38.303  -1.543  1.00  0.00     0.028 C 
HETATM   24  C18 UNL     1      67.018  37.256  -1.255  1.00  0.00     0.038 C 
HETATM   25  C19 UNL     1      65.822  38.057  -0.864  1.00  0.00     0.224 C 
HETATM   26  C22 UNL     1      66.285  39.502  -0.682  1.00  0.00     0.061 C 
BRANCH  25  27
HETATM   27  N4  UNL     1      65.246  37.503   0.326  1.00  0.00     0.084 N 
HETATM   28  C20 UNL     1      63.841  37.192   0.122  1.00  0.00     0.309 C 
HETATM   29  C21 UNL     1      65.941  36.255   0.590  1.00  0.00     0.309 C 
ENDBRANCH  25  27
ENDBRANCH  20  22
ENDBRANCH   6  20
TORSDOF 6
ENDMDL
MODEL 2
REMARK VINA RESULT: -6.532902377      3.402      8.132
REMARK  6 active torsions:
REMARK  status: ('A' for Active; 'I' for Inactive)
REMARK    1  A    between atoms: N1_2  and  C2_3 
REMARK    2  A    between atoms: N1_2  and  C11_12 
REMARK    3  A    between atoms: C2_3  and  C3_4 
REMARK    4  A    between atoms: C14_17  and  N3_18 
REMARK    5  A    between atoms: N3_18  and  C16_20 
REMARK    6  A    between atoms: C19_23  and  N4_24 
ROOT
HETATM    1  C11 UNL     1      72.489  36.943   1.495  1.00  0.00     0.123 A 
HETATM    2  C12 UNL     1      71.588  36.134   2.145  1.00  0.00     0.067 A 
HETATM    3  C13 UNL     1      71.759  34.787   2.074  1.00  0.00     0.110 A 
HETATM    4  N2  UNL     1      72.793  34.300   1.377  1.00  0.00    -0.202 N 
ATOM      5  H2  UNL     1      72.899  33.286   1.338  1.00  0.00     0.183 HD
HETATM    6  C14 UNL     1      73.700  35.044   0.725  1.00  0.00     0.681 A 
HETATM    7  N5  UNL     1      73.503  36.393   0.814  1.00  0.00    -0.176 N 
ATOM      8  H5  UNL     1      74.160  37.012   0.340  1.00  0.00     0.186 HD
ENDROOT
BRANCH   1   9
HETATM    9  N1  UNL     1      72.316  38.340   1.547  1.00  0.00    -0.351 N 
HETATM   10  C1  UNL     1      73.555  39.069   1.937  1.00  0.00     0.156 C 
BRANCH   9  11
HETATM   11  C2  UNL     1      71.179  39.140   1.324  1.00  0.00     0.069 C 
BRANCH  11  12
HETATM   12  C3  UNL     1      71.066  39.960   0.101  1.00  0.00     0.024 C 
HETATM   13  C4  UNL     1      70.757  39.039  -1.064  1.00  0.00     0.010 C 
HETATM   14  C5  UNL     1      69.670  38.060  -0.844  1.00  0.00     0.001 C 
HETATM   15  C6  UNL     1      68.294  38.586  -0.691  1.00  0.00     0.000 C 
HETATM   16  C7  UNL     1      67.898  39.599  -1.732  1.00  0.00     0.000 C 
HETATM   17  C8  UNL     1      68.046  40.953  -1.132  1.00  0.00     0.000 C 
HETATM   18  C9  UNL     1      69.437  41.501  -1.088  1.00  0.00     0.001 C 
HETATM   19  C10 UNL     1      70.150  41.122   0.190  1.00  0.00     0.010 C 
ENDBRANCH  11  12
ENDBRANCH   9  11
ENDBRANCH   1   9
BRANCH   6  20
HETATM   20  N3  UNL     1      74.788  34.518  -0.022  1.00  0.00    -0.217 N 
HETATM   21  C15 UNL     1      75.696  33.593   0.676  1.00  0.00     0.169 C 
BRANCH  20  22
HETATM   22  C16 UNL     1      75.105  34.784  -1.380  1.00  0.00     0.103 C 
HETATM   23  C17 UNL     1      75.761  33.506  -1.942  1.00  0.00     0.028 C 
HETATM   24  C18 UNL     1      76.216  34.007  -3.295  1.00  0.00     0.038 C 
HETATM   25  C19 UNL     1      76.691  35.394  -3.018  1.00  0.00     0.224 C 
HETATM   26  C22 UNL     1      76.258  35.744  -1.595  1.00  0.00     0.061 C 
BRANCH  25  27
HETATM   27  N4  UNL     1      76.149  36.288  -4.000  1.00  0.00     0.084 N 
HETATM   28  C20 UNL     1      76.752  37.606  -3.885  1.00  0.00     0.309 C 
HETATM   29  C21 UNL     1      76.506  35.751  -5.302  1.00  0.00     0.309 C 
ENDBRANCH  25  27
ENDBRANCH  20  22
ENDBRANCH   6  20
TORSDOF 6
ENDMDL
MODEL 3
REMARK VINA RESULT: -6.483126010      1.326      1.886
REMARK  6 active torsions:
REMARK  status: ('A' for Active; 'I' for Inactive)
REMARK    1  A    between atoms: N1_2  and  C2_3 
REMARK    2  A    between atoms: N1_2  and  C11_12 
REMARK    3  A    between atoms: C2_3  and  C3_4 
REMARK    4  A    between atoms: C14_17  and  N3_18 
REMARK    5  A    between atoms: N3_18  and  C16_20 
REMARK    6  A    between atoms: C19_23  and  N4_24 
ROOT
HETATM    1  C11 UNL     1      73.126  40.805   0.086  1.00  0.00     0.123 A 
HETATM    2  C12 UNL     1      73.860  41.410  -0.904  1.00  0.00     0.067 A 
HETATM    3  C13 UNL     1      73.195  41.991  -1.939  1.00  0.00     0.110 A 
HETATM    4  N2  UNL     1      71.857  41.952  -1.955  1.00  0.00    -0.202 N 
ATOM      5  H2  UNL     1      71.383  42.394  -2.742  1.00  0.00     0.183 HD
HETATM    6  C14 UNL     1      71.093  41.374  -1.014  1.00  0.00     0.681 A 
HETATM    7  N5  UNL     1      71.788  40.800   0.013  1.00  0.00    -0.176 N 
ATOM      8  H5  UNL     1      71.263  40.345   0.759  1.00  0.00     0.186 HD
ENDROOT
BRANCH   1   9
HETATM    9  N1  UNL     1      73.800  40.185   1.157  1.00  0.00    -0.351 N 
HETATM   10  C1  UNL     1      74.342  41.156   2.148  1.00  0.00     0.156 C 
BRANCH   9  11
HETATM   11  C2  UNL     1      74.066  38.828   1.420  1.00  0.00     0.069 C 
BRANCH  11  12
HETATM   12  C3  UNL     1      73.456  38.156   2.587  1.00  0.00     0.024 C 
HETATM   13  C4  UNL     1      72.009  37.845   2.255  1.00  0.00     0.010 C 
HETATM   14  C5  UNL     1      71.769  37.201   0.945  1.00  0.00     0.001 C 
HETATM   15  C6  UNL     1      72.273  35.821   0.756  1.00  0.00     0.000 C 
HETATM   16  C7  UNL     1      71.940  34.880   1.883  1.00  0.00     0.000 C 
HETATM   17  C8  UNL     1      73.142  34.765   2.754  1.00  0.00     0.000 C 
HETATM   18  C9  UNL     1      73.361  35.886   3.719  1.00  0.00     0.001 C 
HETATM   19  C10 UNL     1      74.201  36.989   3.117  1.00  0.00     0.010 C 
ENDBRANCH  11  12
ENDBRANCH   9  11
ENDBRANCH   1   9
BRANCH   6  20
HETATM   20  N3  UNL     1      69.674  41.328  -1.045  1.00  0.00    -0.217 N 
HETATM   21  C15 UNL     1      68.971  42.557  -1.447  1.00  0.00     0.169 C 
BRANCH  20  22
HETATM   22  C16 UNL     1      68.845  40.220  -0.729  1.00  0.00     0.103 C 
HETATM   23  C17 UNL     1      69.514  38.974  -1.345  1.00  0.00     0.028 C 
HETATM   24  C18 UNL     1      68.435  37.940  -1.107  1.00  0.00     0.038 C 
HETATM   25  C19 UNL     1      67.168  38.685  -1.366  1.00  0.00     0.224 C 
HETATM   26  C22 UNL     1      67.530  40.165  -1.480  1.00  0.00     0.061 C 
BRANCH  25  27
HETATM   27  N4  UNL     1      66.237  38.421  -0.308  1.00  0.00     0.084 N 
HETATM   28  C20 UNL     1      64.918  38.933  -0.643  1.00  0.00     0.309 C 
HETATM   29  C21 UNL     1      66.132  36.976  -0.189  1.00  0.00     0.309 C 
ENDBRANCH  25  27
ENDBRANCH  20  22
ENDBRANCH   6  20
TORSDOF 6
ENDMDL
MODEL 4
REMARK VINA RESULT: -6.454321525      2.113      6.242
REMARK  6 active torsions:
REMARK  status: ('A' for Active; 'I' for Inactive)
REMARK    1  A    between atoms: N1_2  and  C2_3 
REMARK    2  A    between atoms: N1_2  and  C11_12 
REMARK    3  A    between atoms: C2_3  and  C3_4 
REMARK    4  A    between atoms: C14_17  and  N3_18 
REMARK    5  A    between atoms: N3_18  and  C16_20 
REMARK    6  A    between atoms: C19_23  and  N4_24 
ROOT
HETATM    1  C11 UNL     1      71.113  41.732  -1.076  1.00  0.00     0.123 A 
HETATM    2  C12 UNL     1      71.951  42.806  -0.894  1.00  0.00     0.067 A 
HETATM    3  C13 UNL     1      73.293  42.585  -0.889  1.00  0.00     0.110 A 
HETATM    4  N2  UNL     1      73.746  41.337  -1.059  1.00  0.00    -0.202 N 
ATOM      5  H2  UNL     1      74.757  41.197  -1.050  1.00  0.00     0.183 HD
HETATM    6  C14 UNL     1      72.972  40.254  -1.241  1.00  0.00     0.681 A 
HETATM    7  N5  UNL     1      71.629  40.507  -1.242  1.00  0.00    -0.176 N 
ATOM      8  H5  UNL     1      70.989  39.725  -1.376  1.00  0.00     0.186 HD
ENDROOT
BRANCH   1   9
HETATM    9  N1  UNL     1      69.720  41.942  -1.069  1.00  0.00    -0.351 N 
HETATM   10  C1  UNL     1      69.303  43.135  -1.858  1.00  0.00     0.156 C 
BRANCH   9  11
HETATM   11  C2  UNL     1      68.683  41.242  -0.424  1.00  0.00     0.069 C 
BRANCH  11  12
HETATM   12  C3  UNL     1      67.504  40.778  -1.185  1.00  0.00     0.024 C 
HETATM   13  C4  UNL     1      67.930  39.613  -2.059  1.00  0.00     0.010 C 
HETATM   14  C5  UNL     1      68.719  38.556  -1.389  1.00  0.00     0.001 C 
HETATM   15  C6  UNL     1      68.036  37.738  -0.360  1.00  0.00     0.000 C 
HETATM   16  C7  UNL     1      66.687  37.215  -0.777  1.00  0.00     0.000 C 
HETATM   17  C8  UNL     1      65.649  38.099  -0.181  1.00  0.00     0.000 C 
HETATM   18  C9  UNL     1      65.399  39.390  -0.895  1.00  0.00     0.001 C 
HETATM   19  C10 UNL     1      66.291  40.497  -0.381  1.00  0.00     0.010 C 
ENDBRANCH  11  12
ENDBRANCH   9  11
ENDBRANCH   1   9
BRANCH   6  20
HETATM   20  N3  UNL     1      73.462  38.932  -1.410  1.00  0.00    -0.217 N 
HETATM   21  C15 UNL     1      74.110  38.615  -2.693  1.00  0.00     0.169 C 
BRANCH  20  22
HETATM   22  C16 UNL     1      73.397  37.867  -0.473  1.00  0.00     0.103 C 
HETATM   23  C17 UNL     1      74.131  36.669  -1.110  1.00  0.00     0.028 C 
HETATM   24  C18 UNL     1      73.802  35.585  -0.107  1.00  0.00     0.038 C 
HETATM   25  C19 UNL     1      72.386  35.867   0.268  1.00  0.00     0.224 C 
HETATM   26  C22 UNL     1      72.029  37.234  -0.312  1.00  0.00     0.061 C 
BRANCH  25  27
HETATM   27  N4  UNL     1      72.253  35.815   1.694  1.00  0.00     0.084 N 
HETATM   28  C20 UNL     1      71.092  36.575   2.131  1.00  0.00     0.309 C 
HETATM   29  C21 UNL     1      72.029  34.424   2.048  1.00  0.00     0.309 C 
ENDBRANCH  25  27
ENDBRANCH  20  22
ENDBRANCH   6  20
TORSDOF 6
ENDMDL
MODEL 5
REMARK VINA RESULT: -6.449666421      3.366      8.000
REMARK  6 active torsions:
REMARK  status: ('A' for Active; 'I' for Inactive)
REMARK    1  A    between atoms: N1_2  and  C2_3 
REMARK    2  A    between atoms: N1_2  and  C11_12 
REMARK    3  A    between atoms: C2_3  and  C3_4 
REMARK    4  A    between atoms: C14_17  and  N3_18 
REMARK    5  A    between atoms: N3_18  and  C16_20 
REMARK    6  A    between atoms: C19_23  and  N4_24 
ROOT
HETATM    1  C11 UNL     1      73.561  38.088   0.505  1.00  0.00     0.123 A 
HETATM    2  C12 UNL     1      74.083  39.350   0.349  1.00  0.00     0.067 A 
HETATM    3  C13 UNL     1      74.909  39.832   1.316  1.00  0.00     0.110 A 
HETATM    4  N2  UNL     1      75.181  39.066   2.379  1.00  0.00    -0.202 N 
ATOM      5  H2  UNL     1      75.802  39.451   3.091  1.00  0.00     0.183 HD
HETATM    6  C14 UNL     1      74.699  37.829   2.580  1.00  0.00     0.681 A 
HETATM    7  N5  UNL     1      73.873  37.371   1.592  1.00  0.00    -0.176 N 
ATOM      8  H5  UNL     1      73.475  36.436   1.687  1.00  0.00     0.186 HD
ENDROOT
BRANCH   1   9
HETATM    9  N1  UNL     1      72.692  37.580  -0.480  1.00  0.00    -0.351 N 
HETATM   10  C1  UNL     1      73.055  36.207  -0.930  1.00  0.00     0.156 C 
BRANCH   9  11
HETATM   11  C2  UNL     1      71.579  38.160  -1.119  1.00  0.00     0.069 C 
BRANCH  11  12
HETATM   12  C3  UNL     1      70.239  38.091  -0.500  1.00  0.00     0.024 C 
HETATM   13  C4  UNL     1      70.162  39.145   0.587  1.00  0.00     0.010 C 
HETATM   14  C5  UNL     1      70.628  40.499   0.212  1.00  0.00     0.001 C 
HETATM   15  C6  UNL     1      69.829  41.245  -0.788  1.00  0.00     0.000 C 
HETATM   16  C7  UNL     1      68.347  41.245  -0.524  1.00  0.00     0.000 C 
HETATM   17  C8  UNL     1      67.727  40.214  -1.400  1.00  0.00     0.000 C 
HETATM   18  C9  UNL     1      67.840  38.799  -0.927  1.00  0.00     0.001 C 
HETATM   19  C10 UNL     1      69.095  38.133  -1.442  1.00  0.00     0.010 C 
ENDBRANCH  11  12
ENDBRANCH   9  11
ENDBRANCH   1   9
BRANCH   6  20
HETATM   20  N3  UNL     1      74.985  37.027   3.717  1.00  0.00    -0.217 N 
HETATM   21  C15 UNL     1      75.510  35.674   3.469  1.00  0.00     0.169 C 
BRANCH  20  22
HETATM   22  C16 UNL     1      74.820  37.383   5.081  1.00  0.00     0.103 C 
HETATM   23  C17 UNL     1      76.056  36.846   5.833  1.00  0.00     0.028 C 
HETATM   24  C18 UNL     1      75.641  37.115   7.263  1.00  0.00     0.038 C 
HETATM   25  C19 UNL     1      74.185  36.792   7.276  1.00  0.00     0.224 C 
HETATM   26  C22 UNL     1      73.750  36.607   5.823  1.00  0.00     0.061 C 
BRANCH  25  27
HETATM   27  N4  UNL     1      73.471  37.842   7.942  1.00  0.00     0.084 N 
HETATM   28  C20 UNL     1      72.210  37.351   8.474  1.00  0.00     0.309 C 
HETATM   29  C21 UNL     1      74.290  38.263   9.065  1.00  0.00     0.309 C 
ENDBRANCH  25  27
ENDBRANCH  20  22
ENDBRANCH   6  20
TORSDOF 6
ENDMDL
