MODEL 1
REMARK VINA RESULT: -7.432342622      0.000      0.000
REMARK  13 active torsions:
REMARK  status: ('A' for Active; 'I' for Inactive)
REMARK    1  A    between atoms: C2_2  and  C3_3 
REMARK    2  A    between atoms: C3_3  and  C4_4 
REMARK       I    between atoms: C4_4  and  N1_6 
REMARK    3  A    between atoms: N1_6  and  C5_8 
REMARK    4  A    between atoms: C5_8  and  C6_9 
REMARK    5  A    between atoms: C7_10  and  C8_11 
REMARK    6  A    between atoms: C8_11  and  C9_12 
REMARK    7  A    between atoms: C9_12  and  O2_13 
REMARK       I    between atoms: N2_17  and  C12_18 
REMARK    8  A    between atoms: C12_18  and  C13_20 
REMARK    9  A    between atoms: C13_20  and  N3_21 
REMARK       I    between atoms: N3_21  and  C14_23 
REMARK   10  A    between atoms: C14_23  and  O5_25 
REMARK   11  A    between atoms: O5_25  and  C15_26 
REMARK   12  A    between atoms: C19_30  and  C20_31 
REMARK   13  A    between atoms: C20_31  and  C21_32 
ROOT
HETATM    1  C9  UNL     1     -22.720  -6.730  16.510  1.00  0.00     0.090 C 
HETATM    2  C10 UNL     1     -21.833  -6.300  17.635  1.00  0.00     0.061 C 
HETATM    3  C11 UNL     1     -22.521  -7.019  18.804  1.00  0.00     0.129 C 
HETATM    4  N2  UNL     1     -23.946  -6.764  18.473  1.00  0.00    -0.343 N 
HETATM    5  C12 UNL     1     -24.917  -6.332  19.417  1.00  0.00     0.238 C 
HETATM    6  O3  UNL     1     -24.530  -6.179  20.621  1.00  0.00    -0.272 OA
HETATM    7  C19 UNL     1     -24.028  -7.030  17.057  1.00  0.00     0.122 C 
ENDROOT
BRANCH   1   8
HETATM    8  C8  UNL     1     -22.033  -7.650  15.561  1.00  0.00     0.134 C 
BRANCH   8   9
HETATM    9  C7  UNL     1     -20.862  -7.066  14.946  1.00  0.00    -0.102 C 
HETATM   10  C6  UNL     1     -19.851  -6.571  14.460  1.00  0.00    -0.087 C 
BRANCH  10  11
HETATM   11  C5  UNL     1     -18.641  -5.994  13.875  1.00  0.00     0.217 C 
BRANCH  11  12
HETATM   12  N1  UNL     1     -17.863  -7.008  13.190  1.00  0.00    -0.351 N 
HETATM   13  C4  UNL     1     -16.469  -6.802  13.043  1.00  0.00     0.218 C 
HETATM   14  O1  UNL     1     -15.901  -5.772  13.487  1.00  0.00    -0.274 OA
ATOM     15  H1  UNL     1     -18.308  -7.850  12.822  1.00  0.00     0.163 HD
BRANCH  13  16
HETATM   16  C3  UNL     1     -15.682  -7.855  12.337  1.00  0.00     0.102 C 
BRANCH  16  17
HETATM   17  C2  UNL     1     -14.522  -7.199  11.615  1.00  0.00     0.005 C 
HETATM   18  C1  UNL     1     -14.914  -6.721  10.246  1.00  0.00     0.005 C 
ENDBRANCH  16  17
ENDBRANCH  13  16
ENDBRANCH  11  12
ENDBRANCH  10  11
ENDBRANCH   8   9
ENDBRANCH   1   8
BRANCH   1  19
HETATM   19  O2  UNL     1     -22.924  -5.522  15.719  1.00  0.00    -0.387 OA
ATOM     20  H2  UNL     1     -22.093  -5.068  15.794  1.00  0.00     0.210 HD
ENDBRANCH   1  19
BRANCH   7  21
HETATM   21  C20 UNL     1     -24.700  -8.325  16.866  1.00  0.00     0.033 C 
BRANCH  21  22
HETATM   22  C21 UNL     1     -25.925  -8.437  16.067  1.00  0.00    -0.013 C 
HETATM   23  C22 UNL     1     -26.315  -9.860  15.724  1.00  0.00     0.005 C 
HETATM   24  C23 UNL     1     -25.330 -10.324  14.690  1.00  0.00     0.000 C 
HETATM   25  C24 UNL     1     -25.016  -9.082  13.909  1.00  0.00     0.000 C 
HETATM   26  C25 UNL     1     -25.545  -7.906  14.656  1.00  0.00     0.005 C 
ENDBRANCH  21  22
ENDBRANCH   7  21
BRANCH   5  27
HETATM   27  C13 UNL     1     -26.327  -6.040  19.140  1.00  0.00     0.227 C 
BRANCH  27  28
HETATM   28  N3  UNL     1     -26.450  -4.782  18.386  1.00  0.00    -0.328 N 
HETATM   29  C14 UNL     1     -27.240  -4.725  17.208  1.00  0.00     0.361 C 
HETATM   30  O4  UNL     1     -27.834  -5.773  16.818  1.00  0.00    -0.238 OA
ATOM     31  H3  UNL     1     -25.965  -3.946  18.712  1.00  0.00     0.165 HD
BRANCH  29  32
HETATM   32  O5  UNL     1     -27.400  -3.593  16.457  1.00  0.00    -0.294 OA
BRANCH  32  33
HETATM   33  C15 UNL     1     -28.404  -2.640  16.761  1.00  0.00     0.061 C 
HETATM   34  C16 UNL     1     -27.903  -1.715  17.845  1.00  0.00     0.046 C 
HETATM   35  C17 UNL     1     -28.675  -1.875  15.468  1.00  0.00     0.046 C 
HETATM   36  C18 UNL     1     -29.708  -3.296  17.163  1.00  0.00     0.046 C 
ENDBRANCH  32  33
ENDBRANCH  29  32
ENDBRANCH  27  28
ENDBRANCH   5  27
TORSDOF 13
ENDMDL
MODEL 2
REMARK VINA RESULT: -7.384685573      2.558      3.203
REMARK  13 active torsions:
REMARK  status: ('A' for Active; 'I' for Inactive)
REMARK    1  A    between atoms: C2_2  and  C3_3 
REMARK    2  A    between atoms: C3_3  and  C4_4 
REMARK       I    between atoms: C4_4  and  N1_6 
REMARK    3  A    between atoms: N1_6  and  C5_8 
REMARK    4  A    between atoms: C5_8  and  C6_9 
REMARK    5  A    between atoms: C7_10  and  C8_11 
REMARK    6  A    between atoms: C8_11  and  C9_12 
REMARK    7  A    between atoms: C9_12  and  O2_13 
REMARK       I    between atoms: N2_17  and  C12_18 
REMARK    8  A    between atoms: C12_18  and  C13_20 
REMARK    9  A    between atoms: C13_20  and  N3_21 
REMARK       I    between atoms: N3_21  and  C14_23 
REMARK   10  A    between atoms: C14_23  and  O5_25 
REMARK   11  A    between atoms: O5_25  and  C15_26 
REMARK   12  A    between atoms: C19_30  and  C20_31 
REMARK   13  A    between atoms: C20_31  and  C21_32 
ROOT
HETATM    1  C9  UNL     1     -23.246  -6.567  16.594  1.00  0.00     0.090 C 
HETATM    2  C10 UNL     1     -23.505  -6.272  18.037  1.00  0.00     0.061 C 
HETATM    3  C11 UNL     1     -24.965  -6.733  18.144  1.00  0.00     0.129 C 
HETATM    4  N2  UNL     1     -25.512  -6.186  16.877  1.00  0.00    -0.343 N 
HETATM    5  C12 UNL     1     -26.742  -5.481  16.780  1.00  0.00     0.238 C 
HETATM    6  O3  UNL     1     -27.416  -5.336  17.851  1.00  0.00    -0.272 OA
HETATM    7  C19 UNL     1     -24.513  -6.524  15.892  1.00  0.00     0.122 C 
ENDROOT
BRANCH   1   8
HETATM    8  C8  UNL     1     -22.277  -7.683  16.404  1.00  0.00     0.134 C 
BRANCH   8   9
HETATM    9  C7  UNL     1     -21.582  -7.625  15.138  1.00  0.00    -0.102 C 
HETATM   10  C6  UNL     1     -20.956  -7.579  14.084  1.00  0.00    -0.087 C 
BRANCH  10  11
HETATM   11  C5  UNL     1     -20.215  -7.538  12.825  1.00  0.00     0.217 C 
BRANCH  11  12
HETATM   12  N1  UNL     1     -18.916  -6.919  13.008  1.00  0.00    -0.351 N 
HETATM   13  C4  UNL     1     -17.792  -7.759  13.211  1.00  0.00     0.218 C 
HETATM   14  O1  UNL     1     -17.898  -9.012  13.235  1.00  0.00    -0.274 OA
ATOM     15  H1  UNL     1     -18.813  -5.904  12.992  1.00  0.00     0.163 HD
BRANCH  13  16
HETATM   16  C3  UNL     1     -16.463  -7.108  13.397  1.00  0.00     0.102 C 
BRANCH  16  17
HETATM   17  C2  UNL     1     -15.460  -7.766  12.472  1.00  0.00     0.005 C 
HETATM   18  C1  UNL     1     -15.260  -6.975  11.211  1.00  0.00     0.005 C 
ENDBRANCH  16  17
ENDBRANCH  13  16
ENDBRANCH  11  12
ENDBRANCH  10  11
ENDBRANCH   8   9
ENDBRANCH   1   8
BRANCH   1  19
HETATM   19  O2  UNL     1     -22.518  -5.403  16.104  1.00  0.00    -0.387 OA
ATOM     20  H2  UNL     1     -21.699  -5.439  16.584  1.00  0.00     0.210 HD
ENDBRANCH   1  19
BRANCH   7  21
HETATM   21  C20 UNL     1     -25.020  -7.644  15.081  1.00  0.00     0.033 C 
BRANCH  21  22
HETATM   22  C21 UNL     1     -25.707  -8.781  15.700  1.00  0.00    -0.013 C 
HETATM   23  C22 UNL     1     -24.791  -9.924  16.088  1.00  0.00     0.005 C 
HETATM   24  C23 UNL     1     -24.379 -10.583  14.803  1.00  0.00     0.000 C 
HETATM   25  C24 UNL     1     -25.580 -10.427  13.918  1.00  0.00     0.000 C 
HETATM   26  C25 UNL     1     -26.512  -9.451  14.550  1.00  0.00     0.005 C 
ENDBRANCH  21  22
ENDBRANCH   7  21
BRANCH   5  27
HETATM   27  C13 UNL     1     -27.314  -4.897  15.562  1.00  0.00     0.227 C 
BRANCH  27  28
HETATM   28  N3  UNL     1     -28.243  -5.846  14.927  1.00  0.00    -0.328 N 
HETATM   29  C14 UNL     1     -28.989  -5.463  13.782  1.00  0.00     0.361 C 
HETATM   30  O4  UNL     1     -28.843  -4.294  13.318  1.00  0.00    -0.238 OA
ATOM     31  H3  UNL     1     -28.351  -6.785  15.311  1.00  0.00     0.165 HD
BRANCH  29  32
HETATM   32  O5  UNL     1     -29.870  -6.291  13.140  1.00  0.00    -0.294 OA
BRANCH  32  33
HETATM   33  C15 UNL     1     -31.153  -6.564  13.675  1.00  0.00     0.061 C 
HETATM   34  C16 UNL     1     -32.162  -6.608  12.553  1.00  0.00     0.046 C 
HETATM   35  C17 UNL     1     -31.048  -7.917  14.374  1.00  0.00     0.046 C 
HETATM   36  C18 UNL     1     -31.555  -5.557  14.731  1.00  0.00     0.046 C 
ENDBRANCH  32  33
ENDBRANCH  29  32
ENDBRANCH  27  28
ENDBRANCH   5  27
TORSDOF 13
ENDMDL
MODEL 3
REMARK VINA RESULT: -7.358565971      1.224      1.509
REMARK  13 active torsions:
REMARK  status: ('A' for Active; 'I' for Inactive)
REMARK    1  A    between atoms: C2_2  and  C3_3 
REMARK    2  A    between atoms: C3_3  and  C4_4 
REMARK       I    between atoms: C4_4  and  N1_6 
REMARK    3  A    between atoms: N1_6  and  C5_8 
REMARK    4  A    between atoms: C5_8  and  C6_9 
REMARK    5  A    between atoms: C7_10  and  C8_11 
REMARK    6  A    between atoms: C8_11  and  C9_12 
REMARK    7  A    between atoms: C9_12  and  O2_13 
REMARK       I    between atoms: N2_17  and  C12_18 
REMARK    8  A    between atoms: C12_18  and  C13_20 
REMARK    9  A    between atoms: C13_20  and  N3_21 
REMARK       I    between atoms: N3_21  and  C14_23 
REMARK   10  A    between atoms: C14_23  and  O5_25 
REMARK   11  A    between atoms: O5_25  and  C15_26 
REMARK   12  A    between atoms: C19_30  and  C20_31 
REMARK   13  A    between atoms: C20_31  and  C21_32 
ROOT
HETATM    1  C9  UNL     1     -23.398  -6.822  17.108  1.00  0.00     0.090 C 
HETATM    2  C10 UNL     1     -22.974  -6.206  18.403  1.00  0.00     0.061 C 
HETATM    3  C11 UNL     1     -23.979  -6.870  19.354  1.00  0.00     0.129 C 
HETATM    4  N2  UNL     1     -25.218  -6.781  18.539  1.00  0.00    -0.343 N 
HETATM    5  C12 UNL     1     -26.474  -6.353  19.045  1.00  0.00     0.238 C 
HETATM    6  O3  UNL     1     -26.531  -6.050  20.281  1.00  0.00    -0.272 OA
HETATM    7  C19 UNL     1     -24.796  -7.188  17.220  1.00  0.00     0.122 C 
ENDROOT
BRANCH   1   8
HETATM    8  C8  UNL     1     -22.379  -7.761  16.562  1.00  0.00     0.134 C 
BRANCH   8   9
HETATM    9  C7  UNL     1     -21.620  -7.205  15.465  1.00  0.00    -0.102 C 
HETATM   10  C6  UNL     1     -20.944  -6.753  14.547  1.00  0.00    -0.087 C 
BRANCH  10  11
HETATM   11  C5  UNL     1     -20.145  -6.224  13.443  1.00  0.00     0.217 C 
BRANCH  11  12
HETATM   12  N1  UNL     1     -18.846  -6.867  13.389  1.00  0.00    -0.351 N 
HETATM   13  C4  UNL     1     -17.735  -6.187  13.949  1.00  0.00     0.218 C 
HETATM   14  O1  UNL     1     -17.851  -5.054  14.483  1.00  0.00    -0.274 OA
ATOM     15  H1  UNL     1     -18.734  -7.785  12.959  1.00  0.00     0.163 HD
BRANCH  13  16
HETATM   16  C3  UNL     1     -16.405  -6.861  13.887  1.00  0.00     0.102 C 
BRANCH  16  17
HETATM   17  C2  UNL     1     -16.384  -7.795  12.694  1.00  0.00     0.005 C 
HETATM   18  C1  UNL     1     -15.039  -7.820  12.028  1.00  0.00     0.005 C 
ENDBRANCH  16  17
ENDBRANCH  13  16
ENDBRANCH  11  12
ENDBRANCH  10  11
ENDBRANCH   8   9
ENDBRANCH   1   8
BRANCH   1  19
HETATM   19  O2  UNL     1     -23.385  -5.720  16.153  1.00  0.00    -0.387 OA
ATOM     20  H2  UNL     1     -23.704  -4.985  16.664  1.00  0.00     0.210 HD
ENDBRANCH   1  19
BRANCH   7  21
HETATM   21  C20 UNL     1     -25.290  -8.553  16.975  1.00  0.00     0.033 C 
BRANCH  21  22
HETATM   22  C21 UNL     1     -26.203  -8.843  15.865  1.00  0.00    -0.013 C 
HETATM   23  C22 UNL     1     -26.096 -10.255  15.326  1.00  0.00     0.005 C 
HETATM   24  C23 UNL     1     -24.799 -10.317  14.572  1.00  0.00     0.000 C 
HETATM   25  C24 UNL     1     -24.651  -8.938  13.999  1.00  0.00     0.000 C 
HETATM   26  C25 UNL     1     -25.645  -8.043  14.654  1.00  0.00     0.005 C 
ENDBRANCH  21  22
ENDBRANCH   7  21
BRANCH   5  27
HETATM   27  C13 UNL     1     -27.718  -6.221  18.280  1.00  0.00     0.227 C 
BRANCH  27  28
HETATM   28  N3  UNL     1     -27.646  -5.056  17.382  1.00  0.00    -0.328 N 
HETATM   29  C14 UNL     1     -28.117  -5.150  16.047  1.00  0.00     0.361 C 
HETATM   30  O4  UNL     1     -28.599  -6.249  15.642  1.00  0.00    -0.238 OA
ATOM     31  H3  UNL     1     -27.255  -4.178  17.722  1.00  0.00     0.165 HD
BRANCH  29  32
HETATM   32  O5  UNL     1     -28.081  -4.111  15.157  1.00  0.00    -0.294 OA
BRANCH  32  33
HETATM   33  C15 UNL     1     -29.152  -3.189  15.052  1.00  0.00     0.061 C 
HETATM   34  C16 UNL     1     -28.652  -1.803  15.379  1.00  0.00     0.046 C 
HETATM   35  C17 UNL     1     -29.648  -3.269  13.611  1.00  0.00     0.046 C 
HETATM   36  C18 UNL     1     -30.320  -3.570  15.938  1.00  0.00     0.046 C 
ENDBRANCH  32  33
ENDBRANCH  29  32
ENDBRANCH  27  28
ENDBRANCH   5  27
TORSDOF 13
ENDMDL
MODEL 4
REMARK VINA RESULT: -7.339570974      0.844      1.185
REMARK  13 active torsions:
REMARK  status: ('A' for Active; 'I' for Inactive)
REMARK    1  A    between atoms: C2_2  and  C3_3 
REMARK    2  A    between atoms: C3_3  and  C4_4 
REMARK       I    between atoms: C4_4  and  N1_6 
REMARK    3  A    between atoms: N1_6  and  C5_8 
REMARK    4  A    between atoms: C5_8  and  C6_9 
REMARK    5  A    between atoms: C7_10  and  C8_11 
REMARK    6  A    between atoms: C8_11  and  C9_12 
REMARK    7  A    between atoms: C9_12  and  O2_13 
REMARK       I    between atoms: N2_17  and  C12_18 
REMARK    8  A    between atoms: C12_18  and  C13_20 
REMARK    9  A    between atoms: C13_20  and  N3_21 
REMARK       I    between atoms: N3_21  and  C14_23 
REMARK   10  A    between atoms: C14_23  and  O5_25 
REMARK   11  A    between atoms: O5_25  and  C15_26 
REMARK   12  A    between atoms: C19_30  and  C20_31 
REMARK   13  A    between atoms: C20_31  and  C21_32 
ROOT
HETATM    1  C9  UNL     1     -22.793  -6.722  16.423  1.00  0.00     0.090 C 
HETATM    2  C10 UNL     1     -21.856  -6.346  17.526  1.00  0.00     0.061 C 
HETATM    3  C11 UNL     1     -22.498  -7.110  18.692  1.00  0.00     0.129 C 
HETATM    4  N2  UNL     1     -23.934  -6.834  18.434  1.00  0.00    -0.343 N 
HETATM    5  C12 UNL     1     -24.861  -6.438  19.437  1.00  0.00     0.238 C 
HETATM    6  O3  UNL     1     -24.421  -6.338  20.628  1.00  0.00    -0.272 OA
HETATM    7  C19 UNL     1     -24.079  -7.038  17.013  1.00  0.00     0.122 C 
ENDROOT
BRANCH   1   8
HETATM    8  C8  UNL     1     -22.154  -7.604  15.407  1.00  0.00     0.134 C 
BRANCH   8   9
HETATM    9  C7  UNL     1     -20.935  -7.053  14.859  1.00  0.00    -0.102 C 
HETATM   10  C6  UNL     1     -19.903  -6.557  14.422  1.00  0.00    -0.087 C 
BRANCH  10  11
HETATM   11  C5  UNL     1     -18.664  -5.976  13.907  1.00  0.00     0.217 C 
BRANCH  11  12
HETATM   12  N1  UNL     1     -17.876  -6.972  13.208  1.00  0.00    -0.351 N 
HETATM   13  C4  UNL     1     -16.480  -6.760  13.082  1.00  0.00     0.218 C 
HETATM   14  O1  UNL     1     -15.919  -5.740  13.558  1.00  0.00    -0.274 OA
ATOM     15  H1  UNL     1     -18.315  -7.805  12.815  1.00  0.00     0.163 HD
BRANCH  13  16
HETATM   16  C3  UNL     1     -15.683  -7.795  12.361  1.00  0.00     0.102 C 
BRANCH  16  17
HETATM   17  C2  UNL     1     -14.547  -7.114  11.624  1.00  0.00     0.005 C 
HETATM   18  C1  UNL     1     -14.950  -6.696  10.240  1.00  0.00     0.005 C 
ENDBRANCH  16  17
ENDBRANCH  13  16
ENDBRANCH  11  12
ENDBRANCH  10  11
ENDBRANCH   8   9
ENDBRANCH   1   8
BRANCH   1  19
HETATM   19  O2  UNL     1     -23.022  -5.480  15.693  1.00  0.00    -0.387 OA
ATOM     20  H2  UNL     1     -23.591  -4.988  16.273  1.00  0.00     0.210 HD
ENDBRANCH   1  19
BRANCH   7  21
HETATM   21  C20 UNL     1     -24.768  -8.321  16.796  1.00  0.00     0.033 C 
BRANCH  21  22
HETATM   22  C21 UNL     1     -24.519  -9.475  17.665  1.00  0.00    -0.013 C 
HETATM   23  C22 UNL     1     -23.379 -10.362  17.208  1.00  0.00     0.005 C 
HETATM   24  C23 UNL     1     -23.881 -11.096  15.997  1.00  0.00     0.000 C 
HETATM   25  C24 UNL     1     -25.343 -11.289  16.275  1.00  0.00     0.000 C 
HETATM   26  C25 UNL     1     -25.723 -10.431  17.432  1.00  0.00     0.005 C 
ENDBRANCH  21  22
ENDBRANCH   7  21
BRANCH   5  27
HETATM   27  C13 UNL     1     -26.279  -6.126  19.233  1.00  0.00     0.227 C 
BRANCH  27  28
HETATM   28  N3  UNL     1     -26.425  -4.857  18.502  1.00  0.00    -0.328 N 
HETATM   29  C14 UNL     1     -27.098  -4.822  17.253  1.00  0.00     0.361 C 
HETATM   30  O4  UNL     1     -27.570  -5.898  16.780  1.00  0.00    -0.238 OA
ATOM     31  H3  UNL     1     -26.040  -3.998  18.895  1.00  0.00     0.165 HD
BRANCH  29  32
HETATM   32  O5  UNL     1     -27.271  -3.680  16.518  1.00  0.00    -0.294 OA
BRANCH  32  33
HETATM   33  C15 UNL     1     -28.278  -2.738  16.842  1.00  0.00     0.061 C 
HETATM   34  C16 UNL     1     -27.752  -1.783  17.886  1.00  0.00     0.046 C 
HETATM   35  C17 UNL     1     -28.612  -2.005  15.545  1.00  0.00     0.046 C 
HETATM   36  C18 UNL     1     -29.555  -3.406  17.307  1.00  0.00     0.046 C 
ENDBRANCH  32  33
ENDBRANCH  29  32
ENDBRANCH  27  28
ENDBRANCH   5  27
TORSDOF 13
ENDMDL
MODEL 5
REMARK VINA RESULT: -7.321087898      1.414      1.838
REMARK  13 active torsions:
REMARK  status: ('A' for Active; 'I' for Inactive)
REMARK    1  A    between atoms: C2_2  and  C3_3 
REMARK    2  A    between atoms: C3_3  and  C4_4 
REMARK       I    between atoms: C4_4  and  N1_6 
REMARK    3  A    between atoms: N1_6  and  C5_8 
REMARK    4  A    between atoms: C5_8  and  C6_9 
REMARK    5  A    between atoms: C7_10  and  C8_11 
REMARK    6  A    between atoms: C8_11  and  C9_12 
REMARK    7  A    between atoms: C9_12  and  O2_13 
REMARK       I    between atoms: N2_17  and  C12_18 
REMARK    8  A    between atoms: C12_18  and  C13_20 
REMARK    9  A    between atoms: C13_20  and  N3_21 
REMARK       I    between atoms: N3_21  and  C14_23 
REMARK   10  A    between atoms: C14_23  and  O5_25 
REMARK   11  A    between atoms: O5_25  and  C15_26 
REMARK   12  A    between atoms: C19_30  and  C20_31 
REMARK   13  A    between atoms: C20_31  and  C21_32 
ROOT
HETATM    1  C9  UNL     1     -21.809  -6.887  14.960  1.00  0.00     0.090 C 
HETATM    2  C10 UNL     1     -21.253  -6.365  16.247  1.00  0.00     0.061 C 
HETATM    3  C11 UNL     1     -22.199  -7.052  17.242  1.00  0.00     0.129 C 
HETATM    4  N2  UNL     1     -23.497  -6.872  16.544  1.00  0.00    -0.343 N 
HETATM    5  C12 UNL     1     -24.689  -6.433  17.182  1.00  0.00     0.238 C 
HETATM    6  O3  UNL     1     -24.629  -6.204  18.434  1.00  0.00    -0.272 OA
HETATM    7  C19 UNL     1     -23.205  -7.211  15.173  1.00  0.00     0.122 C 
ENDROOT
BRANCH   1   8
HETATM    8  C8  UNL     1     -20.877  -7.825  14.274  1.00  0.00     0.134 C 
BRANCH   8   9
HETATM    9  C7  UNL     1     -19.550  -7.280  14.094  1.00  0.00    -0.102 C 
HETATM   10  C6  UNL     1     -18.409  -6.852  13.957  1.00  0.00    -0.087 C 
BRANCH  10  11
HETATM   11  C5  UNL     1     -17.050  -6.344  13.780  1.00  0.00     0.217 C 
BRANCH  11  12
HETATM   12  N1  UNL     1     -16.352  -7.082  12.745  1.00  0.00    -0.351 N 
HETATM   13  C4  UNL     1     -15.213  -6.488  12.145  1.00  0.00     0.218 C 
HETATM   14  O1  UNL     1     -14.803  -5.349  12.487  1.00  0.00    -0.274 OA
ATOM     15  H1  UNL     1     -16.672  -8.007  12.455  1.00  0.00     0.163 HD
BRANCH  13  16
HETATM   16  C3  UNL     1     -14.506  -7.260  11.083  1.00  0.00     0.102 C 
BRANCH  16  17
HETATM   17  C2  UNL     1     -14.790  -6.621   9.739  1.00  0.00     0.005 C 
HETATM   18  C1  UNL     1     -13.783  -7.026   8.702  1.00  0.00     0.005 C 
ENDBRANCH  16  17
ENDBRANCH  13  16
ENDBRANCH  11  12
ENDBRANCH  10  11
ENDBRANCH   8   9
ENDBRANCH   1   8
BRANCH   1  19
HETATM   19  O2  UNL     1     -21.835  -5.730  14.073  1.00  0.00    -0.387 OA
ATOM     20  H2  UNL     1     -21.623  -5.006  14.652  1.00  0.00     0.210 HD
ENDBRANCH   1  19
BRANCH   7  21
HETATM   21  C20 UNL     1     -23.772  -8.541  14.892  1.00  0.00     0.033 C 
BRANCH  21  22
HETATM   22  C21 UNL     1     -24.908  -8.708  13.981  1.00  0.00    -0.013 C 
HETATM   23  C22 UNL     1     -26.105  -9.399  14.601  1.00  0.00     0.005 C 
HETATM   24  C23 UNL     1     -25.723 -10.843  14.750  1.00  0.00     0.000 C 
HETATM   25  C24 UNL     1     -24.829 -11.101  13.573  1.00  0.00     0.000 C 
HETATM   26  C25 UNL     1     -24.461  -9.794  12.961  1.00  0.00     0.005 C 
ENDBRANCH  21  22
ENDBRANCH   7  21
BRANCH   5  27
HETATM   27  C13 UNL     1     -25.988  -6.213  16.538  1.00  0.00     0.227 C 
BRANCH  27  28
HETATM   28  N3  UNL     1     -26.380  -4.798  16.648  1.00  0.00    -0.328 N 
HETATM   29  C14 UNL     1     -27.492  -4.303  15.919  1.00  0.00     0.361 C 
HETATM   30  O4  UNL     1     -28.139  -5.097  15.173  1.00  0.00    -0.238 OA
ATOM     31  H3  UNL     1     -25.850  -4.170  17.252  1.00  0.00     0.165 HD
BRANCH  29  32
HETATM   32  O5  UNL     1     -27.914  -3.002  15.972  1.00  0.00    -0.294 OA
BRANCH  32  33
HETATM   33  C15 UNL     1     -29.111  -2.640  16.637  1.00  0.00     0.061 C 
HETATM   34  C16 UNL     1     -29.357  -3.596  17.779  1.00  0.00     0.046 C 
HETATM   35  C17 UNL     1     -28.904  -1.217  17.147  1.00  0.00     0.046 C 
HETATM   36  C18 UNL     1     -30.296  -2.599  15.696  1.00  0.00     0.046 C 
ENDBRANCH  32  33
ENDBRANCH  29  32
ENDBRANCH  27  28
ENDBRANCH   5  27
TORSDOF 13
ENDMDL
