MODEL 1
REMARK VINA RESULT: -8.700798152      0.000      0.000
REMARK  9 active torsions:
REMARK  status: ('A' for Active; 'I' for Inactive)
REMARK    1  A    between atoms: O1_2  and  C2_3 
REMARK    2  A    between atoms: C2_3  and  C3_5 
REMARK    3  A    between atoms: C4_6  and  O3_8 
REMARK    4  A    between atoms: C10_15  and  O5_16 
REMARK    5  A    between atoms: N1_18  and  O6_19 
REMARK    6  A    between atoms: O6_19  and  C11_20 
REMARK    7  A    between atoms: C11_20  and  N2_22 
REMARK    8  A    between atoms: C16_36  and  N5_37 
REMARK    9  A    between atoms: C21_45  and  O10_46 
ROOT
HETATM    1  C3  UNL     1      38.100  11.149 -12.056  1.00  0.00     0.073 C 
HETATM    2  C4  UNL     1      37.861   9.677 -12.108  1.00  0.00     0.126 C 
HETATM    3  C5  UNL     1      37.817   9.045 -10.685  1.00  0.00     0.058 C 
HETATM    4  C6  UNL     1      38.829   8.854 -12.887  1.00  0.00     0.042 C 
HETATM    5  C7  UNL     1      38.574   8.626 -14.326  1.00  0.00     0.131 C 
HETATM    6  C8  UNL     1      37.448   9.336 -15.049  1.00  0.00     0.189 C 
HETATM    7  O4  UNL     1      37.680  10.593 -15.075  1.00  0.00    -0.386 OA
HETATM    8  C9  UNL     1      37.135  11.734 -15.208  1.00  0.00     0.217 C 
HETATM    9  C10 UNL     1      38.062  12.852 -14.774  1.00  0.00     0.244 C 
HETATM   10  N1  UNL     1      38.440  12.970 -13.429  1.00  0.00    -0.129 NA
HETATM   11  C12 UNL     1      39.141  11.785 -12.873  1.00  0.00     0.165 C 
HETATM   12  S2  UNL     1      40.016  11.278 -14.263  1.00  0.00    -0.060 SA
HETATM   13  S3  UNL     1      40.011   9.467 -15.160  1.00  0.00    -0.082 SA
HETATM   14  C13 UNL     1      40.278  12.167 -11.917  1.00  0.00     0.269 C 
HETATM   15  N3  UNL     1      40.331  10.999 -10.985  1.00  0.00    -0.037 N 
ATOM     16  H31 UNL     1      39.447  10.823 -10.508  1.00  0.00     0.281 HD
ATOM     17  H32 UNL     1      40.892  11.174 -10.152  1.00  0.00     0.281 HD
HETATM   18  C14 UNL     1      40.782   9.902 -11.737  1.00  0.00     0.339 C 
HETATM   19  C15 UNL     1      41.978  10.620 -12.345  1.00  0.00     0.089 A 
HETATM   20  N4  UNL     1      43.185  10.201 -12.753  1.00  0.00    -0.191 N 
ATOM     21  H4  UNL     1      43.392   9.204 -12.698  1.00  0.00     0.184 HD
HETATM   22  C16 UNL     1      44.132  11.017 -13.229  1.00  0.00     0.682 A 
HETATM   23  N6  UNL     1      43.849  12.308 -13.295  1.00  0.00    -0.170 N 
ATOM     24  H6  UNL     1      44.557  12.949 -13.654  1.00  0.00     0.186 HD
HETATM   25  C21 UNL     1      42.641  12.813 -12.898  1.00  0.00     0.165 A 
HETATM   26  C22 UNL     1      41.651  11.989 -12.407  1.00  0.00     0.054 A 
HETATM   27  N7  UNL     1      40.170   9.155 -12.630  1.00  0.00    -0.355 N 
HETATM   28  C23 UNL     1      40.967   7.952 -12.932  1.00  0.00     0.152 C 
ENDROOT
BRANCH  10  29
HETATM   29  O6  UNL     1      39.208  14.044 -13.270  1.00  0.00    -0.221 OA
BRANCH  29  30
HETATM   30  C11 UNL     1      39.086  15.189 -12.570  1.00  0.00     0.297 C 
HETATM   31  S1  UNL     1      39.668  15.243 -11.022  1.00  0.00    -0.025 SA
BRANCH  30  32
HETATM   32  N2  UNL     1      38.496  16.391 -13.029  1.00  0.00    -0.077 N 
HETATM   33  O7  UNL     1      37.401  16.401 -13.860  1.00  0.00    -0.529 OA
HETATM   34  O8  UNL     1      38.965  17.597 -12.677  1.00  0.00    -0.529 OA
ENDBRANCH  30  32
ENDBRANCH  29  30
ENDBRANCH  10  29
BRANCH   9  35
HETATM   35  O5  UNL     1      37.397  14.033 -15.125  1.00  0.00    -0.377 OA
ATOM     36  H5  UNL     1      38.065  14.588 -15.511  1.00  0.00     0.211 HD
ENDBRANCH   9  35
BRANCH   1  37
HETATM   37  C2  UNL     1      36.833  11.921 -11.840  1.00  0.00     0.291 C 
HETATM   38  O2  UNL     1      36.756  12.834 -10.998  1.00  0.00    -0.260 OA
BRANCH  37  39
HETATM   39  O1  UNL     1      35.662  11.706 -12.531  1.00  0.00    -0.323 OA
HETATM   40  C1  UNL     1      34.638  12.695 -12.628  1.00  0.00     0.213 C 
ENDBRANCH  37  39
ENDBRANCH   1  37
BRANCH   2  41
HETATM   41  O3  UNL     1      36.555   9.438 -12.534  1.00  0.00    -0.379 OA
ATOM     42  H3  UNL     1      36.245   8.625 -12.153  1.00  0.00     0.211 HD
ENDBRANCH   2  41
BRANCH  25  43
HETATM   43  O10 UNL     1      42.515  14.186 -13.030  1.00  0.00    -0.345 OA
ATOM     44  H10 UNL     1      41.738  14.554 -12.627  1.00  0.00     0.219 HD
ENDBRANCH  25  43
BRANCH  22  45
HETATM   45  N5  UNL     1      45.376  10.453 -13.632  1.00  0.00    -0.213 N 
HETATM   46  C17 UNL     1      46.260   9.861 -12.617  1.00  0.00     0.167 C 
HETATM   47  C18 UNL     1      46.976   8.722 -13.293  1.00  0.00     0.188 C 
HETATM   48  O9  UNL     1      47.760   9.121 -14.359  1.00  0.00    -0.388 OA
HETATM   49  C19 UNL     1      47.341  10.284 -14.964  1.00  0.00     0.188 C 
HETATM   50  C20 UNL     1      45.834  10.421 -14.986  1.00  0.00     0.167 C 
ENDBRANCH  22  45
TORSDOF 9
ENDMDL
MODEL 2
REMARK VINA RESULT: -8.561302400      3.825      5.606
REMARK  9 active torsions:
REMARK  status: ('A' for Active; 'I' for Inactive)
REMARK    1  A    between atoms: O1_2  and  C2_3 
REMARK    2  A    between atoms: C2_3  and  C3_5 
REMARK    3  A    between atoms: C4_6  and  O3_8 
REMARK    4  A    between atoms: C10_15  and  O5_16 
REMARK    5  A    between atoms: N1_18  and  O6_19 
REMARK    6  A    between atoms: O6_19  and  C11_20 
REMARK    7  A    between atoms: C11_20  and  N2_22 
REMARK    8  A    between atoms: C16_36  and  N5_37 
REMARK    9  A    between atoms: C21_45  and  O10_46 
ROOT
HETATM    1  C3  UNL     1      42.617  10.803 -13.464  1.00  0.00     0.073 C 
HETATM    2  C4  UNL     1      42.057  10.048 -12.305  1.00  0.00     0.126 C 
HETATM    3  C5  UNL     1      42.024  10.913 -11.010  1.00  0.00     0.058 C 
HETATM    4  C6  UNL     1      42.734   8.776 -11.926  1.00  0.00     0.042 C 
HETATM    5  C7  UNL     1      42.287   7.515 -12.556  1.00  0.00     0.131 C 
HETATM    6  C8  UNL     1      41.275   7.512 -13.683  1.00  0.00     0.189 C 
HETATM    7  O4  UNL     1      41.774   8.093 -14.708  1.00  0.00    -0.386 OA
HETATM    8  C9  UNL     1      41.481   8.685 -15.794  1.00  0.00     0.217 C 
HETATM    9  C10 UNL     1      42.671   9.432 -16.364  1.00  0.00     0.244 C 
HETATM   10  N1  UNL     1      43.204  10.533 -15.677  1.00  0.00    -0.129 NA
HETATM   11  C12 UNL     1      43.682  10.238 -14.302  1.00  0.00     0.165 C 
HETATM   12  S2  UNL     1      44.274   8.640 -14.531  1.00  0.00    -0.060 SA
HETATM   13  S3  UNL     1      43.778   6.960 -13.523  1.00  0.00    -0.082 SA
HETATM   14  C13 UNL     1      44.967  10.996 -13.950  1.00  0.00     0.269 C 
HETATM   15  N3  UNL     1      44.860  11.155 -12.467  1.00  0.00    -0.037 N 
ATOM     16  H31 UNL     1      44.013  11.643 -12.175  1.00  0.00     0.281 HD
ATOM     17  H32 UNL     1      45.530  11.822 -12.085  1.00  0.00     0.281 HD
HETATM   18  C14 UNL     1      44.979   9.870 -11.913  1.00  0.00     0.339 C 
HETATM   19  C15 UNL     1      46.233   9.489 -12.685  1.00  0.00     0.089 A 
HETATM   20  N4  UNL     1      47.269   8.685 -12.406  1.00  0.00    -0.191 N 
ATOM     21  H4  UNL     1      47.257   8.173 -11.524  1.00  0.00     0.184 HD
HETATM   22  C16 UNL     1      48.317   8.516 -13.220  1.00  0.00     0.682 A 
HETATM   23  N6  UNL     1      48.320   9.187 -14.361  1.00  0.00    -0.170 N 
ATOM     24  H6  UNL     1      49.109   9.075 -14.997  1.00  0.00     0.186 HD
HETATM   25  C21 UNL     1      47.299  10.027 -14.717  1.00  0.00     0.165 A 
HETATM   26  C22 UNL     1      46.209  10.214 -13.894  1.00  0.00     0.054 A 
HETATM   27  N7  UNL     1      44.127   8.869 -11.861  1.00  0.00    -0.355 N 
HETATM   28  C23 UNL     1      44.605   7.831 -10.928  1.00  0.00     0.152 C 
ENDROOT
BRANCH  10  29
HETATM   29  O6  UNL     1      44.200  11.062 -16.380  1.00  0.00    -0.221 OA
BRANCH  29  30
HETATM   30  C11 UNL     1      44.272  11.989 -17.354  1.00  0.00     0.297 C 
HETATM   31  S1  UNL     1      45.392  11.797 -18.558  1.00  0.00    -0.025 SA
BRANCH  30  32
HETATM   32  N2  UNL     1      43.468  13.149 -17.466  1.00  0.00    -0.077 N 
HETATM   33  O7  UNL     1      43.888  14.380 -17.021  1.00  0.00    -0.529 OA
HETATM   34  O8  UNL     1      42.246  13.121 -18.020  1.00  0.00    -0.529 OA
ENDBRANCH  30  32
ENDBRANCH  29  30
ENDBRANCH  10  29
BRANCH   9  35
HETATM   35  O5  UNL     1      42.249   9.888 -17.618  1.00  0.00    -0.377 OA
ATOM     36  H5  UNL     1      41.835  10.727 -17.449  1.00  0.00     0.211 HD
ENDBRANCH   9  35
BRANCH   1  37
HETATM   37  C2  UNL     1      41.580  11.642 -14.148  1.00  0.00     0.291 C 
HETATM   38  O2  UNL     1      41.784  12.837 -14.430  1.00  0.00    -0.260 OA
BRANCH  37  39
HETATM   39  O1  UNL     1      40.335  11.190 -14.522  1.00  0.00    -0.323 OA
HETATM   40  C1  UNL     1      39.566  11.824 -15.543  1.00  0.00     0.213 C 
ENDBRANCH  37  39
ENDBRANCH   1  37
BRANCH   2  41
HETATM   41  O3  UNL     1      40.693   9.840 -12.508  1.00  0.00    -0.379 OA
ATOM     42  H3  UNL     1      40.567   9.025 -12.980  1.00  0.00     0.211 HD
ENDBRANCH   2  41
BRANCH  25  43
HETATM   43  O10 UNL     1      47.464  10.653 -15.941  1.00  0.00    -0.345 OA
ATOM     44  H10 UNL     1      46.656  10.899 -16.374  1.00  0.00     0.219 HD
ENDBRANCH  25  43
BRANCH  22  45
HETATM   45  N5  UNL     1      49.358   7.634 -12.813  1.00  0.00    -0.213 N 
HETATM   46  C17 UNL     1      49.708   6.491 -13.670  1.00  0.00     0.167 C 
HETATM   47  C18 UNL     1      51.187   6.269 -13.494  1.00  0.00     0.188 C 
HETATM   48  O9  UNL     1      51.545   5.954 -12.196  1.00  0.00    -0.388 OA
HETATM   49  C19 UNL     1      50.682   6.436 -11.239  1.00  0.00     0.188 C 
HETATM   50  C20 UNL     1      50.102   7.786 -11.601  1.00  0.00     0.167 C 
ENDBRANCH  22  45
TORSDOF 9
ENDMDL
MODEL 3
REMARK VINA RESULT: -8.414644900      3.088      6.296
REMARK  9 active torsions:
REMARK  status: ('A' for Active; 'I' for Inactive)
REMARK    1  A    between atoms: O1_2  and  C2_3 
REMARK    2  A    between atoms: C2_3  and  C3_5 
REMARK    3  A    between atoms: C4_6  and  O3_8 
REMARK    4  A    between atoms: C10_15  and  O5_16 
REMARK    5  A    between atoms: N1_18  and  O6_19 
REMARK    6  A    between atoms: O6_19  and  C11_20 
REMARK    7  A    between atoms: C11_20  and  N2_22 
REMARK    8  A    between atoms: C16_36  and  N5_37 
REMARK    9  A    between atoms: C21_45  and  O10_46 
ROOT
HETATM    1  C3  UNL     1      39.975  11.073 -13.714  1.00  0.00     0.073 C 
HETATM    2  C4  UNL     1      40.482   9.676 -13.847  1.00  0.00     0.126 C 
HETATM    3  C5  UNL     1      39.460   8.754 -14.577  1.00  0.00     0.058 C 
HETATM    4  C6  UNL     1      40.850   8.960 -12.593  1.00  0.00     0.042 C 
HETATM    5  C7  UNL     1      42.233   9.077 -12.085  1.00  0.00     0.131 C 
HETATM    6  C8  UNL     1      43.229  10.026 -12.720  1.00  0.00     0.189 C 
HETATM    7  O4  UNL     1      42.840  11.233 -12.547  1.00  0.00    -0.386 OA
HETATM    8  C9  UNL     1      42.953  12.419 -12.989  1.00  0.00     0.217 C 
HETATM    9  C10 UNL     1      41.869  13.327 -12.441  1.00  0.00     0.244 C 
HETATM   10  N1  UNL     1      40.528  13.112 -12.792  1.00  0.00    -0.129 NA
HETATM   11  C12 UNL     1      39.995  11.776 -12.425  1.00  0.00     0.165 C 
HETATM   12  S2  UNL     1      40.846  11.509 -10.955  1.00  0.00    -0.060 SA
HETATM   13  S3  UNL     1      42.025   9.947 -10.452  1.00  0.00    -0.082 SA
HETATM   14  C13 UNL     1      38.544  11.835 -11.934  1.00  0.00     0.269 C 
HETATM   15  N3  UNL     1      38.011  10.491 -12.316  1.00  0.00    -0.037 N 
ATOM     16  H31 UNL     1      38.090  10.295 -13.314  1.00  0.00     0.281 HD
ATOM     17  H32 UNL     1      36.996  10.428 -12.254  1.00  0.00     0.281 HD
HETATM   18  C14 UNL     1      38.676   9.549 -11.513  1.00  0.00     0.339 C 
HETATM   19  C15 UNL     1      38.426  10.272 -10.198  1.00  0.00     0.089 A 
HETATM   20  N4  UNL     1      38.270   9.846  -8.936  1.00  0.00    -0.191 N 
ATOM     21  H4  UNL     1      38.355   8.846  -8.752  1.00  0.00     0.184 HD
HETATM   22  C16 UNL     1      38.009  10.658  -7.905  1.00  0.00     0.682 A 
HETATM   23  N6  UNL     1      37.901  11.951  -8.159  1.00  0.00    -0.170 N 
ATOM     24  H6  UNL     1      37.702  12.589  -7.389  1.00  0.00     0.186 HD
HETATM   25  C21 UNL     1      38.047  12.464  -9.420  1.00  0.00     0.165 A 
HETATM   26  C22 UNL     1      38.318  11.645 -10.495  1.00  0.00     0.054 A 
HETATM   27  N7  UNL     1      39.901   9.075 -11.572  1.00  0.00    -0.355 N 
HETATM   28  C23 UNL     1      40.043   7.900 -10.691  1.00  0.00     0.152 C 
ENDROOT
BRANCH  10  29
HETATM   29  O6  UNL     1      39.764  14.051 -12.243  1.00  0.00    -0.221 OA
BRANCH  29  30
HETATM   30  C11 UNL     1      38.986  15.034 -12.736  1.00  0.00     0.297 C 
HETATM   31  S1  UNL     1      38.200  14.785 -14.171  1.00  0.00    -0.025 SA
BRANCH  30  32
HETATM   32  N2  UNL     1      38.760  16.299 -12.142  1.00  0.00    -0.077 N 
HETATM   33  O7  UNL     1      38.453  16.440 -10.809  1.00  0.00    -0.529 OA
HETATM   34  O8  UNL     1      38.836  17.441 -12.841  1.00  0.00    -0.529 OA
ENDBRANCH  30  32
ENDBRANCH  29  30
ENDBRANCH  10  29
BRANCH   9  35
HETATM   35  O5  UNL     1      42.214  14.610 -12.879  1.00  0.00    -0.377 OA
ATOM     36  H5  UNL     1      42.350  15.115 -12.085  1.00  0.00     0.211 HD
ENDBRANCH   9  35
BRANCH   1  37
HETATM   37  C2  UNL     1      40.238  11.890 -14.943  1.00  0.00     0.291 C 
HETATM   38  O2  UNL     1      39.315  12.304 -15.667  1.00  0.00    -0.260 OA
BRANCH  37  39
HETATM   39  O1  UNL     1      41.491  12.255 -15.382  1.00  0.00    -0.323 OA
HETATM   40  C1  UNL     1      41.693  13.290 -16.343  1.00  0.00     0.213 C 
ENDBRANCH  37  39
ENDBRANCH   1  37
BRANCH   2  41
HETATM   41  O3  UNL     1      41.540   9.655 -14.755  1.00  0.00    -0.379 OA
ATOM     42  H3  UNL     1      41.769  10.547 -14.990  1.00  0.00     0.211 HD
ENDBRANCH   2  41
BRANCH  25  43
HETATM   43  O10 UNL     1      37.897  13.838  -9.508  1.00  0.00    -0.345 OA
ATOM     44  H10 UNL     1      38.649  14.339  -9.217  1.00  0.00     0.219 HD
ENDBRANCH  25  43
BRANCH  22  45
HETATM   45  N5  UNL     1      37.865  10.085  -6.610  1.00  0.00    -0.213 N 
HETATM   46  C17 UNL     1      36.754   9.157  -6.352  1.00  0.00     0.167 C 
HETATM   47  C18 UNL     1      37.259   8.163  -5.341  1.00  0.00     0.188 C 
HETATM   48  O9  UNL     1      37.621   8.737  -4.137  1.00  0.00    -0.388 OA
HETATM   49  C19 UNL     1      38.003  10.056  -4.233  1.00  0.00     0.188 C 
HETATM   50  C20 UNL     1      38.746  10.357  -5.516  1.00  0.00     0.167 C 
ENDBRANCH  22  45
TORSDOF 9
ENDMDL
MODEL 4
REMARK VINA RESULT: -8.400350587      2.881      7.236
REMARK  9 active torsions:
REMARK  status: ('A' for Active; 'I' for Inactive)
REMARK    1  A    between atoms: O1_2  and  C2_3 
REMARK    2  A    between atoms: C2_3  and  C3_5 
REMARK    3  A    between atoms: C4_6  and  O3_8 
REMARK    4  A    between atoms: C10_15  and  O5_16 
REMARK    5  A    between atoms: N1_18  and  O6_19 
REMARK    6  A    between atoms: O6_19  and  C11_20 
REMARK    7  A    between atoms: C11_20  and  N2_22 
REMARK    8  A    between atoms: C16_36  and  N5_37 
REMARK    9  A    between atoms: C21_45  and  O10_46 
ROOT
HETATM    1  C3  UNL     1      39.959  12.887 -12.849  1.00  0.00     0.073 C 
HETATM    2  C4  UNL     1      38.902  13.862 -12.454  1.00  0.00     0.126 C 
HETATM    3  C5  UNL     1      38.891  14.117 -10.918  1.00  0.00     0.058 C 
HETATM    4  C6  UNL     1      37.495  13.532 -12.820  1.00  0.00     0.042 C 
HETATM    5  C7  UNL     1      36.974  13.980 -14.129  1.00  0.00     0.131 C 
HETATM    6  C8  UNL     1      37.880  14.624 -15.159  1.00  0.00     0.189 C 
HETATM    7  O4  UNL     1      38.746  13.772 -15.560  1.00  0.00    -0.386 OA
HETATM    8  C9  UNL     1      39.886  13.650 -16.108  1.00  0.00     0.217 C 
HETATM    9  C10 UNL     1      40.434  12.244 -15.956  1.00  0.00     0.244 C 
HETATM   10  N1  UNL     1      40.773  11.755 -14.686  1.00  0.00    -0.129 NA
HETATM   11  C12 UNL     1      39.656  11.735 -13.708  1.00  0.00     0.165 C 
HETATM   12  S2  UNL     1      38.347  11.366 -14.760  1.00  0.00    -0.060 SA
HETATM   13  S3  UNL     1      36.623  12.387 -15.027  1.00  0.00    -0.082 SA
HETATM   14  C13 UNL     1      39.684  10.495 -12.806  1.00  0.00     0.269 C 
HETATM   15  N3  UNL     1      39.039  10.986 -11.550  1.00  0.00    -0.037 N 
ATOM     16  H31 UNL     1      39.513  11.791 -11.142  1.00  0.00     0.281 HD
ATOM     17  H32 UNL     1      39.161  10.352 -10.761  1.00  0.00     0.281 HD
HETATM   18  C14 UNL     1      37.691  11.235 -11.859  1.00  0.00     0.339 C 
HETATM   19  C15 UNL     1      37.442   9.892 -12.531  1.00  0.00     0.089 A 
HETATM   20  N4  UNL     1      36.353   9.118 -12.649  1.00  0.00    -0.191 N 
ATOM     21  H4  UNL     1      35.475   9.458 -12.256  1.00  0.00     0.184 HD
HETATM   22  C16 UNL     1      36.353   7.925 -13.255  1.00  0.00     0.682 A 
HETATM   23  N6  UNL     1      37.498   7.497 -13.760  1.00  0.00    -0.170 N 
ATOM     24  H6  UNL     1      37.522   6.590 -14.226  1.00  0.00     0.186 HD
HETATM   25  C21 UNL     1      38.653   8.228 -13.679  1.00  0.00     0.165 A 
HETATM   26  C22 UNL     1      38.673   9.461 -13.061  1.00  0.00     0.054 A 
HETATM   27  N7  UNL     1      37.124  12.215 -12.527  1.00  0.00    -0.355 N 
HETATM   28  C23 UNL     1      35.661  12.190 -12.341  1.00  0.00     0.152 C 
ENDROOT
BRANCH  10  29
HETATM   29  O6  UNL     1      41.278  10.530 -14.796  1.00  0.00    -0.221 OA
BRANCH  29  30
HETATM   30  C11 UNL     1      42.506  10.042 -15.055  1.00  0.00     0.297 C 
HETATM   31  S1  UNL     1      42.639   8.634 -15.915  1.00  0.00    -0.025 SA
BRANCH  30  32
HETATM   32  N2  UNL     1      43.736  10.620 -14.660  1.00  0.00    -0.077 N 
HETATM   33  O7  UNL     1      44.531  10.063 -13.685  1.00  0.00    -0.529 OA
HETATM   34  O8  UNL     1      44.209  11.745 -15.216  1.00  0.00    -0.529 OA
ENDBRANCH  30  32
ENDBRANCH  29  30
ENDBRANCH  10  29
BRANCH   9  35
HETATM   35  O5  UNL     1      41.596  12.220 -16.736  1.00  0.00    -0.377 OA
ATOM     36  H5  UNL     1      41.436  11.558 -17.399  1.00  0.00     0.211 HD
ENDBRANCH   9  35
BRANCH   1  37
HETATM   37  C2  UNL     1      41.295  13.543 -13.031  1.00  0.00     0.291 C 
HETATM   38  O2  UNL     1      41.405  14.688 -13.504  1.00  0.00    -0.260 OA
BRANCH  37  39
HETATM   39  O1  UNL     1      42.499  12.962 -12.702  1.00  0.00    -0.323 OA
HETATM   40  C1  UNL     1      42.667  12.158 -11.535  1.00  0.00     0.213 C 
ENDBRANCH  37  39
ENDBRANCH   1  37
BRANCH   2  41
HETATM   41  O3  UNL     1      39.248  15.130 -12.921  1.00  0.00    -0.379 OA
ATOM     42  H3  UNL     1      39.014  15.779 -12.268  1.00  0.00     0.211 HD
ENDBRANCH   2  41
BRANCH  25  43
HETATM   43  O10 UNL     1      39.760   7.629 -14.255  1.00  0.00    -0.345 OA
ATOM     44  H10 UNL     1      40.269   7.085 -13.667  1.00  0.00     0.219 HD
ENDBRANCH  25  43
BRANCH  22  45
HETATM   45  N5  UNL     1      35.132   7.196 -13.318  1.00  0.00    -0.213 N 
HETATM   46  C17 UNL     1      33.944   7.720 -12.628  1.00  0.00     0.167 C 
HETATM   47  C18 UNL     1      32.757   7.303 -13.455  1.00  0.00     0.188 C 
HETATM   48  O9  UNL     1      32.616   5.932 -13.563  1.00  0.00    -0.388 OA
HETATM   49  C19 UNL     1      33.793   5.231 -13.430  1.00  0.00     0.188 C 
HETATM   50  C20 UNL     1      34.978   5.961 -14.023  1.00  0.00     0.167 C 
ENDBRANCH  22  45
TORSDOF 9
ENDMDL
MODEL 5
REMARK VINA RESULT: -8.336480111      2.857      7.418
REMARK  9 active torsions:
REMARK  status: ('A' for Active; 'I' for Inactive)
REMARK    1  A    between atoms: O1_2  and  C2_3 
REMARK    2  A    between atoms: C2_3  and  C3_5 
REMARK    3  A    between atoms: C4_6  and  O3_8 
REMARK    4  A    between atoms: C10_15  and  O5_16 
REMARK    5  A    between atoms: N1_18  and  O6_19 
REMARK    6  A    between atoms: O6_19  and  C11_20 
REMARK    7  A    between atoms: C11_20  and  N2_22 
REMARK    8  A    between atoms: C16_36  and  N5_37 
REMARK    9  A    between atoms: C21_45  and  O10_46 
ROOT
HETATM    1  C3  UNL     1      42.764   8.986 -15.132  1.00  0.00     0.073 C 
HETATM    2  C4  UNL     1      42.675   7.619 -14.542  1.00  0.00     0.126 C 
HETATM    3  C5  UNL     1      42.596   6.517 -15.640  1.00  0.00     0.058 C 
HETATM    4  C6  UNL     1      41.542   7.347 -13.612  1.00  0.00     0.042 C 
HETATM    5  C7  UNL     1      41.724   7.613 -12.170  1.00  0.00     0.131 C 
HETATM    6  C8  UNL     1      42.970   8.297 -11.645  1.00  0.00     0.189 C 
HETATM    7  O4  UNL     1      43.017   9.497 -12.086  1.00  0.00    -0.386 OA
HETATM    8  C9  UNL     1      43.796  10.474 -12.316  1.00  0.00     0.217 C 
HETATM    9  C10 UNL     1      43.141  11.519 -13.199  1.00  0.00     0.244 C 
HETATM   10  N1  UNL     1      42.813  11.211 -14.527  1.00  0.00    -0.129 NA
HETATM   11  C12 UNL     1      41.876  10.070 -14.689  1.00  0.00     0.165 C 
HETATM   12  S2  UNL     1      40.896  10.289 -13.294  1.00  0.00    -0.060 SA
HETATM   13  S3  UNL     1      40.496   8.968 -11.818  1.00  0.00    -0.082 SA
HETATM   14  C13 UNL     1      40.862  10.295 -15.817  1.00  0.00     0.269 C 
HETATM   15  N3  UNL     1      40.566   8.904 -16.277  1.00  0.00    -0.037 N 
ATOM     16  H31 UNL     1      41.396   8.394 -16.579  1.00  0.00     0.281 HD
ATOM     17  H32 UNL     1      40.066   8.871 -17.165  1.00  0.00     0.281 HD
HETATM   18  C14 UNL     1      39.877   8.269 -15.229  1.00  0.00     0.339 C 
HETATM   19  C15 UNL     1      38.860   9.382 -15.024  1.00  0.00     0.089 A 
HETATM   20  N4  UNL     1      37.586   9.390 -14.605  1.00  0.00    -0.191 N 
ATOM     21  H4  UNL     1      37.167   8.504 -14.323  1.00  0.00     0.184 HD
HETATM   22  C16 UNL     1      36.835  10.494 -14.535  1.00  0.00     0.682 A 
HETATM   23  N6  UNL     1      37.391  11.636 -14.904  1.00  0.00    -0.170 N 
ATOM     24  H6  UNL     1      36.837  12.491 -14.860  1.00  0.00     0.186 HD
HETATM   25  C21 UNL     1      38.685  11.711 -15.344  1.00  0.00     0.165 A 
HETATM   26  C22 UNL     1      39.477  10.585 -15.421  1.00  0.00     0.054 A 
HETATM   27  N7  UNL     1      40.302   7.793 -14.079  1.00  0.00    -0.355 N 
HETATM   28  C23 UNL     1      39.258   6.967 -13.444  1.00  0.00     0.152 C 
ENDROOT
BRANCH  10  29
HETATM   29  O6  UNL     1      42.300  12.283 -15.124  1.00  0.00    -0.221 OA
BRANCH  29  30
HETATM   30  C11 UNL     1      42.748  13.138 -16.063  1.00  0.00     0.297 C 
HETATM   31  S1  UNL     1      42.730  12.661 -17.648  1.00  0.00    -0.025 SA
BRANCH  30  32
HETATM   32  N2  UNL     1      43.248  14.442 -15.837  1.00  0.00    -0.077 N 
HETATM   33  O7  UNL     1      43.932  15.145 -16.800  1.00  0.00    -0.529 OA
HETATM   34  O8  UNL     1      43.081  15.079 -14.668  1.00  0.00    -0.529 OA
ENDBRANCH  30  32
ENDBRANCH  29  30
ENDBRANCH  10  29
BRANCH   9  35
HETATM   35  O5  UNL     1      44.043  12.588 -13.229  1.00  0.00    -0.377 OA
ATOM     36  H5  UNL     1      43.588  13.283 -13.691  1.00  0.00     0.211 HD
ENDBRANCH   9  35
BRANCH   1  37
HETATM   37  C2  UNL     1      44.171   9.358 -15.491  1.00  0.00     0.291 C 
HETATM   38  O2  UNL     1      44.466   9.799 -16.617  1.00  0.00    -0.260 OA
BRANCH  37  39
HETATM   39  O1  UNL     1      45.246   9.253 -14.639  1.00  0.00    -0.323 OA
HETATM   40  C1  UNL     1      46.453   9.989 -14.836  1.00  0.00     0.213 C 
ENDBRANCH  37  39
ENDBRANCH   1  37
BRANCH   2  41
HETATM   41  O3  UNL     1      43.893   7.296 -13.943  1.00  0.00    -0.379 OA
ATOM     42  H3  UNL     1      43.790   6.502 -13.432  1.00  0.00     0.211 HD
ENDBRANCH   2  41
BRANCH  25  43
HETATM   43  O10 UNL     1      39.106  12.982 -15.694  1.00  0.00    -0.345 OA
ATOM     44  H10 UNL     1      39.792  13.008 -16.351  1.00  0.00     0.219 HD
ENDBRANCH  25  43
BRANCH  22  45
HETATM   45  N5  UNL     1      35.493  10.375 -14.072  1.00  0.00    -0.213 N 
HETATM   46  C17 UNL     1      34.826   9.066 -14.130  1.00  0.00     0.167 C 
HETATM   47  C18 UNL     1      33.890   9.017 -12.952  1.00  0.00     0.188 C 
HETATM   48  O9  UNL     1      32.913   9.994 -12.984  1.00  0.00    -0.388 OA
HETATM   49  C19 UNL     1      33.266  11.123 -13.687  1.00  0.00     0.188 C 
HETATM   50  C20 UNL     1      34.733  11.465 -13.544  1.00  0.00     0.167 C 
ENDBRANCH  22  45
TORSDOF 9
ENDMDL
