MODEL 1
REMARK VINA RESULT: -9.050640404      0.000      0.000
REMARK  6 active torsions:
REMARK  status: ('A' for Active; 'I' for Inactive)
REMARK    1  A    between atoms: O1_2  and  C2_3 
REMARK    2  A    between atoms: C7_9  and  N1_10 
REMARK       I    between atoms: N1_10  and  C8_12 
REMARK       I    between atoms: C8_12  and  N2_14 
REMARK    3  A    between atoms: C11_17  and  C12_18 
REMARK    4  A    between atoms: C12_18  and  C13_19 
REMARK       I    between atoms: C13_19  and  N3_21 
REMARK    5  A    between atoms: N3_21  and  C14_23 
REMARK    6  A    between atoms: C16_25  and  C17_26 
ROOT
HETATM    1  N1  UNL     1      33.562  60.179  40.477  1.00  0.00    -0.306 N 
ATOM      2  H1  UNL     1      34.422  59.654  40.638  1.00  0.00     0.171 HD
HETATM    3  C8  UNL     1      32.447  59.732  41.194  1.00  0.00     0.323 C 
HETATM    4  O2  UNL     1      31.324  60.332  41.053  1.00  0.00    -0.247 OA
HETATM    5  N2  UNL     1      32.505  58.630  42.081  1.00  0.00    -0.334 N 
HETATM    6  C9  UNL     1      33.683  57.883  42.320  1.00  0.00     0.128 C 
HETATM    7  C10 UNL     1      33.996  58.118  43.795  1.00  0.00     0.025 C 
HETATM    8  C11 UNL     1      32.915  57.588  44.689  1.00  0.00    -0.003 C 
HETATM    9  C19 UNL     1      31.561  57.546  44.098  1.00  0.00     0.025 C 
HETATM   10  C20 UNL     1      31.321  58.212  42.806  1.00  0.00     0.128 C 
ENDROOT
BRANCH   1  11
HETATM   11  C7  UNL     1      33.673  61.252  39.560  1.00  0.00     0.071 A 
HETATM   12  C2  UNL     1      34.653  62.240  39.808  1.00  0.00     0.095 A 
HETATM   13  C3  UNL     1      34.762  63.275  38.924  1.00  0.00     0.041 A 
HETATM   14  C4  UNL     1      33.975  63.411  37.809  1.00  0.00     0.026 A 
HETATM   15  C5  UNL     1      33.025  62.471  37.550  1.00  0.00     0.036 A 
HETATM   16 CL1  UNL     1      31.990  62.591  36.139  1.00  0.00    -0.084 Cl
HETATM   17  C6  UNL     1      32.891  61.392  38.447  1.00  0.00     0.056 A 
BRANCH  12  18
HETATM   18  O1  UNL     1      35.464  62.138  40.921  1.00  0.00    -0.354 OA
HETATM   19  C1  UNL     1      36.513  63.029  41.204  1.00  0.00     0.210 C 
ENDBRANCH  12  18
ENDBRANCH   1  11
BRANCH   8  20
HETATM   20  C12 UNL     1      33.408  56.267  45.237  1.00  0.00     0.107 C 
BRANCH  20  21
HETATM   21  C13 UNL     1      34.873  56.237  45.473  1.00  0.00     0.218 C 
HETATM   22  O3  UNL     1      35.618  55.680  44.633  1.00  0.00    -0.274 OA
HETATM   23  N3  UNL     1      35.410  56.829  46.629  1.00  0.00    -0.356 N 
ATOM     24  H3  UNL     1      34.766  57.270  47.286  1.00  0.00     0.162 HD
BRANCH  23  25
HETATM   25  C14 UNL     1      36.819  56.848  46.941  1.00  0.00     0.086 C 
HETATM   26  C15 UNL     1      37.118  57.684  48.151  1.00  0.00     0.040 C 
HETATM   27  C16 UNL     1      37.816  56.512  48.777  1.00  0.00     0.090 C 
HETATM   28  C18 UNL     1      37.345  55.640  47.659  1.00  0.00     0.040 C 
BRANCH  27  29
HETATM   29  C17 UNL     1      39.292  56.742  48.798  1.00  0.00     0.177 C 
HETATM   30  O4  UNL     1      39.721  57.636  49.569  1.00  0.00    -0.648 OA
HETATM   31  O5  UNL     1      40.071  55.969  47.980  1.00  0.00    -0.648 OA
ENDBRANCH  27  29
ENDBRANCH  23  25
ENDBRANCH  20  21
ENDBRANCH   8  20
TORSDOF 6
ENDMDL
MODEL 2
REMARK VINA RESULT: -9.028377944      3.556      8.956
REMARK  6 active torsions:
REMARK  status: ('A' for Active; 'I' for Inactive)
REMARK    1  A    between atoms: O1_2  and  C2_3 
REMARK    2  A    between atoms: C7_9  and  N1_10 
REMARK       I    between atoms: N1_10  and  C8_12 
REMARK       I    between atoms: C8_12  and  N2_14 
REMARK    3  A    between atoms: C11_17  and  C12_18 
REMARK    4  A    between atoms: C12_18  and  C13_19 
REMARK       I    between atoms: C13_19  and  N3_21 
REMARK    5  A    between atoms: N3_21  and  C14_23 
REMARK    6  A    between atoms: C16_25  and  C17_26 
ROOT
HETATM    1  N1  UNL     1      37.916  58.409  46.881  1.00  0.00    -0.306 N 
ATOM      2  H1  UNL     1      38.065  57.781  46.091  1.00  0.00     0.171 HD
HETATM    3  C8  UNL     1      36.588  58.795  47.092  1.00  0.00     0.323 C 
HETATM    4  O2  UNL     1      36.307  59.583  48.062  1.00  0.00    -0.247 OA
HETATM    5  N2  UNL     1      35.526  58.347  46.270  1.00  0.00    -0.334 N 
HETATM    6  C9  UNL     1      35.706  57.480  45.166  1.00  0.00     0.128 C 
HETATM    7  C10 UNL     1      34.944  56.213  45.543  1.00  0.00     0.025 C 
HETATM    8  C11 UNL     1      33.474  56.469  45.703  1.00  0.00    -0.003 C 
HETATM    9  C19 UNL     1      33.106  57.842  46.108  1.00  0.00     0.025 C 
HETATM   10  C20 UNL     1      34.165  58.772  46.537  1.00  0.00     0.128 C 
ENDROOT
BRANCH   1  11
HETATM   11  C7  UNL     1      39.082  58.761  47.602  1.00  0.00     0.071 A 
HETATM   12  C2  UNL     1      39.346  58.084  48.813  1.00  0.00     0.095 A 
HETATM   13  C3  UNL     1      40.471  58.422  49.509  1.00  0.00     0.041 A 
HETATM   14  C4  UNL     1      41.362  59.382  49.098  1.00  0.00     0.026 A 
HETATM   15  C5  UNL     1      41.128  60.047  47.934  1.00  0.00     0.036 A 
HETATM   16 CL1  UNL     1      42.231  61.283  47.358  1.00  0.00    -0.084 Cl
HETATM   17  C6  UNL     1      39.973  59.717  47.196  1.00  0.00     0.056 A 
BRANCH  12  18
HETATM   18  O1  UNL     1      38.473  57.112  49.260  1.00  0.00    -0.354 OA
HETATM   19  C1  UNL     1      38.675  55.735  49.066  1.00  0.00     0.210 C 
ENDBRANCH  12  18
ENDBRANCH   1  11
BRANCH   8  20
HETATM   20  C12 UNL     1      32.805  55.982  44.437  1.00  0.00     0.107 C 
BRANCH  20  21
HETATM   21  C13 UNL     1      32.499  57.070  43.476  1.00  0.00     0.218 C 
HETATM   22  O3  UNL     1      31.313  57.453  43.343  1.00  0.00    -0.274 OA
HETATM   23  N3  UNL     1      33.532  57.657  42.727  1.00  0.00    -0.356 N 
ATOM     24  H3  UNL     1      34.482  57.313  42.867  1.00  0.00     0.162 HD
BRANCH  23  25
HETATM   25  C14 UNL     1      33.328  58.720  41.771  1.00  0.00     0.086 C 
HETATM   26  C15 UNL     1      33.396  60.075  42.410  1.00  0.00     0.040 C 
HETATM   27  C16 UNL     1      34.452  60.478  41.422  1.00  0.00     0.090 C 
HETATM   28  C18 UNL     1      34.515  59.072  40.923  1.00  0.00     0.040 C 
BRANCH  27  29
HETATM   29  C17 UNL     1      33.893  61.455  40.440  1.00  0.00     0.177 C 
HETATM   30  O4  UNL     1      34.681  61.914  39.576  1.00  0.00    -0.648 OA
HETATM   31  O5  UNL     1      32.568  61.783  40.549  1.00  0.00    -0.648 OA
ENDBRANCH  27  29
ENDBRANCH  23  25
ENDBRANCH  20  21
ENDBRANCH   8  20
TORSDOF 6
ENDMDL
MODEL 3
REMARK VINA RESULT: -8.822056318      1.368      2.102
REMARK  6 active torsions:
REMARK  status: ('A' for Active; 'I' for Inactive)
REMARK    1  A    between atoms: O1_2  and  C2_3 
REMARK    2  A    between atoms: C7_9  and  N1_10 
REMARK       I    between atoms: N1_10  and  C8_12 
REMARK       I    between atoms: C8_12  and  N2_14 
REMARK    3  A    between atoms: C11_17  and  C12_18 
REMARK    4  A    between atoms: C12_18  and  C13_19 
REMARK       I    between atoms: C13_19  and  N3_21 
REMARK    5  A    between atoms: N3_21  and  C14_23 
REMARK    6  A    between atoms: C16_25  and  C17_26 
ROOT
HETATM    1  N1  UNL     1      33.457  60.082  40.403  1.00  0.00    -0.306 N 
ATOM      2  H1  UNL     1      34.309  59.535  40.526  1.00  0.00     0.171 HD
HETATM    3  C8  UNL     1      32.372  59.680  41.189  1.00  0.00     0.323 C 
HETATM    4  O2  UNL     1      31.261  60.310  41.100  1.00  0.00    -0.247 OA
HETATM    5  N2  UNL     1      32.449  58.592  42.092  1.00  0.00    -0.334 N 
HETATM    6  C9  UNL     1      33.618  57.815  42.278  1.00  0.00     0.128 C 
HETATM    7  C10 UNL     1      34.020  58.065  43.728  1.00  0.00     0.025 C 
HETATM    8  C11 UNL     1      32.976  57.582  44.692  1.00  0.00    -0.003 C 
HETATM    9  C19 UNL     1      31.591  57.569  44.178  1.00  0.00     0.025 C 
HETATM   10  C20 UNL     1      31.297  58.220  42.889  1.00  0.00     0.128 C 
ENDROOT
BRANCH   1  11
HETATM   11  C7  UNL     1      33.547  61.137  39.462  1.00  0.00     0.071 A 
HETATM   12  C2  UNL     1      32.930  60.959  38.203  1.00  0.00     0.095 A 
HETATM   13  C3  UNL     1      33.014  61.976  37.295  1.00  0.00     0.041 A 
HETATM   14  C4  UNL     1      33.664  63.160  37.536  1.00  0.00     0.026 A 
HETATM   15  C5  UNL     1      34.264  63.353  38.742  1.00  0.00     0.036 A 
HETATM   16 CL1  UNL     1      35.108  64.847  39.106  1.00  0.00    -0.084 Cl
HETATM   17  C6  UNL     1      34.192  62.319  39.697  1.00  0.00     0.056 A 
BRANCH  12  18
HETATM   18  O1  UNL     1      32.267  59.781  37.924  1.00  0.00    -0.354 OA
HETATM   19  C1  UNL     1      31.410  59.611  36.823  1.00  0.00     0.210 C 
ENDBRANCH  12  18
ENDBRANCH   1  11
BRANCH   8  20
HETATM   20  C12 UNL     1      33.462  56.256  45.234  1.00  0.00     0.107 C 
BRANCH  20  21
HETATM   21  C13 UNL     1      34.924  56.223  45.486  1.00  0.00     0.218 C 
HETATM   22  O3  UNL     1      35.673  55.635  44.671  1.00  0.00    -0.274 OA
HETATM   23  N3  UNL     1      35.455  56.846  46.628  1.00  0.00    -0.356 N 
ATOM     24  H3  UNL     1      34.808  57.312  47.265  1.00  0.00     0.162 HD
BRANCH  23  25
HETATM   25  C14 UNL     1      36.861  56.865  46.953  1.00  0.00     0.086 C 
HETATM   26  C15 UNL     1      37.146  57.678  48.181  1.00  0.00     0.040 C 
HETATM   27  C16 UNL     1      37.843  56.496  48.791  1.00  0.00     0.090 C 
HETATM   28  C18 UNL     1      37.386  55.645  47.652  1.00  0.00     0.040 C 
BRANCH  27  29
HETATM   29  C17 UNL     1      39.318  56.732  48.829  1.00  0.00     0.177 C 
HETATM   30  O4  UNL     1      39.733  57.643  49.589  1.00  0.00    -0.648 OA
HETATM   31  O5  UNL     1      40.112  55.945  48.039  1.00  0.00    -0.648 OA
ENDBRANCH  27  29
ENDBRANCH  23  25
ENDBRANCH  20  21
ENDBRANCH   8  20
TORSDOF 6
ENDMDL
MODEL 4
REMARK VINA RESULT: -8.784560845      4.691      9.805
REMARK  6 active torsions:
REMARK  status: ('A' for Active; 'I' for Inactive)
REMARK    1  A    between atoms: O1_2  and  C2_3 
REMARK    2  A    between atoms: C7_9  and  N1_10 
REMARK       I    between atoms: N1_10  and  C8_12 
REMARK       I    between atoms: C8_12  and  N2_14 
REMARK    3  A    between atoms: C11_17  and  C12_18 
REMARK    4  A    between atoms: C12_18  and  C13_19 
REMARK       I    between atoms: C13_19  and  N3_21 
REMARK    5  A    between atoms: N3_21  and  C14_23 
REMARK    6  A    between atoms: C16_25  and  C17_26 
ROOT
HETATM    1  N1  UNL     1      39.516  59.086  48.079  1.00  0.00    -0.306 N 
ATOM      2  H1  UNL     1      38.772  59.749  47.864  1.00  0.00     0.171 HD
HETATM    3  C8  UNL     1      39.151  57.737  48.009  1.00  0.00     0.323 C 
HETATM    4  O2  UNL     1      40.023  56.834  48.264  1.00  0.00    -0.247 OA
HETATM    5  N2  UNL     1      37.844  57.320  47.662  1.00  0.00    -0.334 N 
HETATM    6  C9  UNL     1      36.792  58.220  47.363  1.00  0.00     0.128 C 
HETATM    7  C10 UNL     1      36.452  57.942  45.902  1.00  0.00     0.025 C 
HETATM    8  C11 UNL     1      35.946  56.544  45.700  1.00  0.00    -0.003 C 
HETATM    9  C19 UNL     1      36.433  55.542  46.670  1.00  0.00     0.025 C 
HETATM   10  C20 UNL     1      37.519  55.909  47.596  1.00  0.00     0.128 C 
ENDROOT
BRANCH   1  11
HETATM   11  C7  UNL     1      40.766  59.666  48.406  1.00  0.00     0.071 A 
HETATM   12  C2  UNL     1      41.358  60.542  47.469  1.00  0.00     0.095 A 
HETATM   13  C3  UNL     1      42.563  61.103  47.783  1.00  0.00     0.041 A 
HETATM   14  C4  UNL     1      43.232  60.865  48.958  1.00  0.00     0.026 A 
HETATM   15  C5  UNL     1      42.679  60.025  49.876  1.00  0.00     0.036 A 
HETATM   16 CL1  UNL     1      43.486  59.684  51.395  1.00  0.00    -0.084 Cl
HETATM   17  C6  UNL     1      41.435  59.432  49.576  1.00  0.00     0.056 A 
BRANCH  12  18
HETATM   18  O1  UNL     1      40.717  60.806  46.275  1.00  0.00    -0.354 OA
HETATM   19  C1  UNL     1      40.997  61.923  45.471  1.00  0.00     0.210 C 
ENDBRANCH  12  18
ENDBRANCH   1  11
BRANCH   8  20
HETATM   20  C12 UNL     1      34.440  56.636  45.588  1.00  0.00     0.107 C 
BRANCH  20  21
HETATM   21  C13 UNL     1      33.961  56.786  44.191  1.00  0.00     0.218 C 
HETATM   22  O3  UNL     1      33.505  55.785  43.590  1.00  0.00    -0.274 OA
HETATM   23  N3  UNL     1      34.021  58.039  43.558  1.00  0.00    -0.356 N 
ATOM     24  H3  UNL     1      34.399  58.826  44.086  1.00  0.00     0.162 HD
BRANCH  23  25
HETATM   25  C14 UNL     1      33.578  58.278  42.206  1.00  0.00     0.086 C 
HETATM   26  C15 UNL     1      32.513  59.333  42.138  1.00  0.00     0.040 C 
HETATM   27  C16 UNL     1      33.343  60.095  41.146  1.00  0.00     0.090 C 
HETATM   28  C18 UNL     1      34.473  59.144  41.369  1.00  0.00     0.040 C 
BRANCH  27  29
HETATM   29  C17 UNL     1      32.727  60.011  39.788  1.00  0.00     0.177 C 
HETATM   30  O4  UNL     1      31.473  60.047  39.724  1.00  0.00    -0.648 OA
HETATM   31  O5  UNL     1      33.566  59.901  38.711  1.00  0.00    -0.648 OA
ENDBRANCH  27  29
ENDBRANCH  23  25
ENDBRANCH  20  21
ENDBRANCH   8  20
TORSDOF 6
ENDMDL
MODEL 5
REMARK VINA RESULT: -8.535474891      4.568     10.858
REMARK  6 active torsions:
REMARK  status: ('A' for Active; 'I' for Inactive)
REMARK    1  A    between atoms: O1_2  and  C2_3 
REMARK    2  A    between atoms: C7_9  and  N1_10 
REMARK       I    between atoms: N1_10  and  C8_12 
REMARK       I    between atoms: C8_12  and  N2_14 
REMARK    3  A    between atoms: C11_17  and  C12_18 
REMARK    4  A    between atoms: C12_18  and  C13_19 
REMARK       I    between atoms: C13_19  and  N3_21 
REMARK    5  A    between atoms: N3_21  and  C14_23 
REMARK    6  A    between atoms: C16_25  and  C17_26 
ROOT
HETATM    1  N1  UNL     1      37.288  60.381  45.055  1.00  0.00    -0.306 N 
ATOM      2  H1  UNL     1      36.707  59.903  44.367  1.00  0.00     0.171 HD
HETATM    3  C8  UNL     1      38.027  61.463  44.563  1.00  0.00     0.323 C 
HETATM    4  O2  UNL     1      38.785  62.122  45.357  1.00  0.00    -0.247 OA
HETATM    5  N2  UNL     1      37.971  61.867  43.207  1.00  0.00    -0.334 N 
HETATM    6  C9  UNL     1      37.176  61.218  42.232  1.00  0.00     0.128 C 
HETATM    7  C10 UNL     1      36.160  62.272  41.800  1.00  0.00     0.025 C 
HETATM    8  C11 UNL     1      36.819  63.456  41.157  1.00  0.00    -0.003 C 
HETATM    9  C19 UNL     1      38.204  63.731  41.593  1.00  0.00     0.025 C 
HETATM   10  C20 UNL     1      38.751  63.000  42.750  1.00  0.00     0.128 C 
ENDROOT
BRANCH   1  11
HETATM   11  C7  UNL     1      37.230  59.852  46.368  1.00  0.00     0.071 A 
HETATM   12  C2  UNL     1      38.216  58.915  46.752  1.00  0.00     0.095 A 
HETATM   13  C3  UNL     1      38.162  58.405  48.017  1.00  0.00     0.041 A 
HETATM   14  C4  UNL     1      37.204  58.751  48.938  1.00  0.00     0.026 A 
HETATM   15  C5  UNL     1      36.246  59.652  48.590  1.00  0.00     0.036 A 
HETATM   16 CL1  UNL     1      34.998  60.133  49.724  1.00  0.00    -0.084 Cl
HETATM   17  C6  UNL     1      36.279  60.194  47.289  1.00  0.00     0.056 A 
BRANCH  12  18
HETATM   18  O1  UNL     1      39.195  58.542  45.853  1.00  0.00    -0.354 OA
HETATM   19  C1  UNL     1      40.565  58.781  46.050  1.00  0.00     0.210 C 
ENDBRANCH  12  18
ENDBRANCH   1  11
BRANCH   8  20
HETATM   20  C12 UNL     1      36.646  63.294  39.663  1.00  0.00     0.107 C 
BRANCH  20  21
HETATM   21  C13 UNL     1      35.297  63.681  39.181  1.00  0.00     0.218 C 
HETATM   22  O3  UNL     1      34.918  64.869  39.309  1.00  0.00    -0.274 OA
HETATM   23  N3  UNL     1      34.461  62.720  38.588  1.00  0.00    -0.356 N 
ATOM     24  H3  UNL     1      34.810  61.766  38.504  1.00  0.00     0.162 HD
BRANCH  23  25
HETATM   25  C14 UNL     1      33.136  63.005  38.090  1.00  0.00     0.086 C 
HETATM   26  C15 UNL     1      33.170  63.713  36.768  1.00  0.00     0.040 C 
HETATM   27  C16 UNL     1      32.287  62.647  36.186  1.00  0.00     0.090 C 
HETATM   28  C18 UNL     1      32.420  61.855  37.444  1.00  0.00     0.040 C 
BRANCH  27  29
HETATM   29  C17 UNL     1      30.916  63.191  35.943  1.00  0.00     0.177 C 
HETATM   30  O4  UNL     1      30.318  62.797  34.911  1.00  0.00    -0.648 OA
HETATM   31  O5  UNL     1      30.409  64.076  36.856  1.00  0.00    -0.648 OA
ENDBRANCH  27  29
ENDBRANCH  23  25
ENDBRANCH  20  21
ENDBRANCH   8  20
TORSDOF 6
ENDMDL
