MODEL 1
REMARK VINA RESULT: -8.570638135      0.000      0.000
REMARK  7 active torsions:
REMARK  status: ('A' for Active; 'I' for Inactive)
REMARK    1  A    between atoms: C6_9  and  N3_10 
REMARK    2  A    between atoms: C9_15  and  N4_16 
REMARK       I    between atoms: N4_16  and  C10_18 
REMARK    3  A    between atoms: C10_18  and  C11_20 
REMARK    4  A    between atoms: C11_20  and  C12_21 
REMARK    5  A    between atoms: C12_21  and  S1_22 
REMARK    6  A    between atoms: S1_22  and  C13_25 
REMARK    7  A    between atoms: C13_25  and  C14_26 
ROOT
HETATM    1  N1  UNL     1      38.932  62.938  42.973  1.00  0.00    -0.191 NA
HETATM    2  C1  UNL     1      38.062  62.929  42.203  1.00  0.00     0.103 C 
HETATM    3  C2  UNL     1      36.966  62.931  41.261  1.00  0.00     0.088 A 
HETATM    4  C3  UNL     1      35.896  62.052  41.413  1.00  0.00     0.037 A 
HETATM    5  C4  UNL     1      34.844  62.044  40.522  1.00  0.00    -0.011 A 
HETATM    6  C5  UNL     1      34.921  62.956  39.479  1.00  0.00     0.019 A 
HETATM    7  N2  UNL     1      35.967  63.792  39.358  1.00  0.00    -0.344 N 
ATOM      8  H2  UNL     1      35.976  64.443  38.574  1.00  0.00     0.167 HD
HETATM    9  C6  UNL     1      37.005  63.816  40.220  1.00  0.00     0.120 A 
HETATM   10  C7  UNL     1      33.708  62.799  38.629  1.00  0.00     0.060 C 
HETATM   11  C8  UNL     1      33.379  61.322  38.869  1.00  0.00     0.036 C 
HETATM   12  C9  UNL     1      33.576  61.258  40.389  1.00  0.00     0.120 C 
ENDROOT
BRANCH   9  13
HETATM   13  N3  UNL     1      37.997  64.622  40.088  1.00  0.00    -0.384 N 
ATOM     14  H32 UNL     1      38.138  65.425  40.701  1.00  0.00     0.157 HD
ATOM     15  H31 UNL     1      38.686  64.477  39.350  1.00  0.00     0.157 HD
ENDBRANCH   9  13
BRANCH  12  16
HETATM   16  N4  UNL     1      33.764  59.921  40.847  1.00  0.00    -0.352 N 
HETATM   17  C10 UNL     1      33.259  59.433  42.081  1.00  0.00     0.218 C 
HETATM   18  O1  UNL     1      32.621  60.236  42.782  1.00  0.00    -0.274 OA
ATOM     19  H4  UNL     1      34.290  59.279  40.255  1.00  0.00     0.163 HD
BRANCH  17  20
HETATM   20  C11 UNL     1      33.486  58.052  42.489  1.00  0.00     0.115 C 
BRANCH  20  21
HETATM   21  C12 UNL     1      32.593  57.419  43.470  1.00  0.00     0.117 C 
BRANCH  21  22
HETATM   22  S1  UNL     1      33.084  57.440  45.165  1.00  0.00     0.010 S 
HETATM   23  O2  UNL     1      32.722  56.052  45.705  1.00  0.00    -0.259 OA
HETATM   24  S2  UNL     1      32.261  58.615  46.013  1.00  0.00     0.008 SA
BRANCH  22  25
HETATM   25  C13 UNL     1      34.839  57.662  45.184  1.00  0.00     0.112 C 
BRANCH  25  26
HETATM   26  C14 UNL     1      35.591  56.972  46.240  1.00  0.00    -0.003 C 
HETATM   27  C15 UNL     1      36.232  55.661  45.898  1.00  0.00     0.005 C 
HETATM   28  C16 UNL     1      36.687  55.073  47.249  1.00  0.00     0.000 C 
HETATM   29  C17 UNL     1      37.899  55.812  47.744  1.00  0.00     0.000 C 
HETATM   30  C18 UNL     1      37.957  57.147  47.039  1.00  0.00     0.000 C 
HETATM   31  C19 UNL     1      36.609  57.827  46.958  1.00  0.00     0.005 C 
ENDBRANCH  25  26
ENDBRANCH  22  25
ENDBRANCH  21  22
ENDBRANCH  20  21
ENDBRANCH  17  20
ENDBRANCH  12  16
TORSDOF 7
ENDMDL
MODEL 2
REMARK VINA RESULT: -8.529887120      3.678      5.975
REMARK  7 active torsions:
REMARK  status: ('A' for Active; 'I' for Inactive)
REMARK    1  A    between atoms: C6_9  and  N3_10 
REMARK    2  A    between atoms: C9_15  and  N4_16 
REMARK       I    between atoms: N4_16  and  C10_18 
REMARK    3  A    between atoms: C10_18  and  C11_20 
REMARK    4  A    between atoms: C11_20  and  C12_21 
REMARK    5  A    between atoms: C12_21  and  S1_22 
REMARK    6  A    between atoms: S1_22  and  C13_25 
REMARK    7  A    between atoms: C13_25  and  C14_26 
ROOT
HETATM    1  N1  UNL     1      32.757  55.846  45.712  1.00  0.00    -0.191 NA
HETATM    2  C1  UNL     1      32.863  56.769  45.015  1.00  0.00     0.103 C 
HETATM    3  C2  UNL     1      33.007  57.903  44.130  1.00  0.00     0.088 A 
HETATM    4  C3  UNL     1      34.218  58.586  44.041  1.00  0.00     0.037 A 
HETATM    5  C4  UNL     1      34.368  59.669  43.200  1.00  0.00    -0.011 A 
HETATM    6  C5  UNL     1      33.251  60.028  42.461  1.00  0.00     0.019 A 
HETATM    7  N2  UNL     1      32.095  59.349  42.569  1.00  0.00    -0.344 N 
ATOM      8  H2  UNL     1      31.303  59.653  42.003  1.00  0.00     0.167 HD
HETATM    9  C6  UNL     1      31.928  58.287  43.384  1.00  0.00     0.120 A 
HETATM   10  C7  UNL     1      33.603  61.207  41.622  1.00  0.00     0.060 C 
HETATM   11  C8  UNL     1      34.693  61.854  42.481  1.00  0.00     0.036 C 
HETATM   12  C9  UNL     1      35.491  60.603  42.870  1.00  0.00     0.120 C 
ENDROOT
BRANCH   9  13
HETATM   13  N3  UNL     1      30.815  57.650  43.474  1.00  0.00    -0.384 N 
ATOM     14  H32 UNL     1      30.394  57.403  44.369  1.00  0.00     0.157 HD
ATOM     15  H31 UNL     1      30.312  57.368  42.632  1.00  0.00     0.157 HD
ENDBRANCH   9  13
BRANCH  12  16
HETATM   16  N4  UNL     1      36.311  60.828  44.014  1.00  0.00    -0.352 N 
HETATM   17  C10 UNL     1      37.661  61.265  43.943  1.00  0.00     0.218 C 
HETATM   18  O1  UNL     1      38.128  61.454  42.808  1.00  0.00    -0.274 OA
ATOM     19  H4  UNL     1      35.906  60.666  44.936  1.00  0.00     0.163 HD
BRANCH  17  20
HETATM   20  C11 UNL     1      38.444  61.477  45.154  1.00  0.00     0.115 C 
BRANCH  20  21
HETATM   21  C12 UNL     1      39.723  60.776  45.334  1.00  0.00     0.117 C 
BRANCH  21  22
HETATM   22  S1  UNL     1      39.789  59.473  46.521  1.00  0.00     0.010 S 
HETATM   23  O2  UNL     1      40.185  60.149  47.838  1.00  0.00    -0.259 OA
HETATM   24  S2  UNL     1      40.932  58.334  46.099  1.00  0.00     0.008 SA
BRANCH  22  25
HETATM   25  C13 UNL     1      38.153  58.811  46.643  1.00  0.00     0.112 C 
BRANCH  25  26
HETATM   26  C14 UNL     1      38.030  57.370  46.898  1.00  0.00    -0.003 C 
HETATM   27  C15 UNL     1      37.558  56.938  48.252  1.00  0.00     0.005 C 
HETATM   28  C16 UNL     1      37.800  55.415  48.294  1.00  0.00     0.000 C 
HETATM   29  C17 UNL     1      36.777  54.713  47.447  1.00  0.00     0.000 C 
HETATM   30  C18 UNL     1      36.197  55.718  46.478  1.00  0.00     0.000 C 
HETATM   31  C19 UNL     1      37.249  56.605  45.854  1.00  0.00     0.005 C 
ENDBRANCH  25  26
ENDBRANCH  22  25
ENDBRANCH  21  22
ENDBRANCH  20  21
ENDBRANCH  17  20
ENDBRANCH  12  16
TORSDOF 7
ENDMDL
MODEL 3
REMARK VINA RESULT: -8.453519824      1.573      2.491
REMARK  7 active torsions:
REMARK  status: ('A' for Active; 'I' for Inactive)
REMARK    1  A    between atoms: C6_9  and  N3_10 
REMARK    2  A    between atoms: C9_15  and  N4_16 
REMARK       I    between atoms: N4_16  and  C10_18 
REMARK    3  A    between atoms: C10_18  and  C11_20 
REMARK    4  A    between atoms: C11_20  and  C12_21 
REMARK    5  A    between atoms: C12_21  and  S1_22 
REMARK    6  A    between atoms: S1_22  and  C13_25 
REMARK    7  A    between atoms: C13_25  and  C14_26 
ROOT
HETATM    1  N1  UNL     1      39.008  60.416  46.652  1.00  0.00    -0.191 NA
HETATM    2  C1  UNL     1      38.590  60.877  45.672  1.00  0.00     0.103 C 
HETATM    3  C2  UNL     1      38.054  61.466  44.465  1.00  0.00     0.088 A 
HETATM    4  C3  UNL     1      36.847  61.018  43.931  1.00  0.00     0.037 A 
HETATM    5  C4  UNL     1      36.325  61.571  42.781  1.00  0.00    -0.011 A 
HETATM    6  C5  UNL     1      37.069  62.587  42.200  1.00  0.00     0.019 A 
HETATM    7  N2  UNL     1      38.231  62.998  42.739  1.00  0.00    -0.344 N 
ATOM      8  H2  UNL     1      38.740  63.749  42.273  1.00  0.00     0.167 HD
HETATM    9  C6  UNL     1      38.758  62.470  43.863  1.00  0.00     0.120 A 
HETATM   10  C7  UNL     1      36.353  63.054  40.980  1.00  0.00     0.060 C 
HETATM   11  C8  UNL     1      35.605  61.778  40.581  1.00  0.00     0.036 C 
HETATM   12  C9  UNL     1      35.095  61.338  41.960  1.00  0.00     0.120 C 
ENDROOT
BRANCH   9  13
HETATM   13  N3  UNL     1      39.870  62.876  44.364  1.00  0.00    -0.384 N 
ATOM     14  H32 UNL     1      40.761  62.771  43.880  1.00  0.00     0.157 HD
ATOM     15  H31 UNL     1      39.891  63.323  45.281  1.00  0.00     0.157 HD
ENDBRANCH   9  13
BRANCH  12  16
HETATM   16  N4  UNL     1      34.732  59.959  41.978  1.00  0.00    -0.352 N 
HETATM   17  C10 UNL     1      33.577  59.457  42.634  1.00  0.00     0.218 C 
HETATM   18  O1  UNL     1      32.859  60.287  43.216  1.00  0.00    -0.274 OA
ATOM     19  H4  UNL     1      35.337  59.296  41.494  1.00  0.00     0.163 HD
BRANCH  17  20
HETATM   20  C11 UNL     1      33.264  58.034  42.614  1.00  0.00     0.115 C 
BRANCH  20  21
HETATM   21  C12 UNL     1      32.411  57.454  43.661  1.00  0.00     0.117 C 
BRANCH  21  22
HETATM   22  S1  UNL     1      33.103  57.258  45.272  1.00  0.00     0.010 S 
HETATM   23  O2  UNL     1      32.660  55.864  45.732  1.00  0.00    -0.259 OA
HETATM   24  S2  UNL     1      32.520  58.416  46.320  1.00  0.00     0.008 SA
BRANCH  22  25
HETATM   25  C13 UNL     1      34.861  57.306  45.082  1.00  0.00     0.112 C 
BRANCH  25  26
HETATM   26  C14 UNL     1      35.670  56.776  46.187  1.00  0.00    -0.003 C 
HETATM   27  C15 UNL     1      36.215  55.387  46.049  1.00  0.00     0.005 C 
HETATM   28  C16 UNL     1      36.761  55.030  47.447  1.00  0.00     0.000 C 
HETATM   29  C17 UNL     1      38.045  55.770  47.696  1.00  0.00     0.000 C 
HETATM   30  C18 UNL     1      38.103  56.946  46.750  1.00  0.00     0.000 C 
HETATM   31  C19 UNL     1      36.787  57.683  46.648  1.00  0.00     0.005 C 
ENDBRANCH  25  26
ENDBRANCH  22  25
ENDBRANCH  21  22
ENDBRANCH  20  21
ENDBRANCH  17  20
ENDBRANCH  12  16
TORSDOF 7
ENDMDL
MODEL 4
REMARK VINA RESULT: -8.407453051      3.183      4.999
REMARK  7 active torsions:
REMARK  status: ('A' for Active; 'I' for Inactive)
REMARK    1  A    between atoms: C6_9  and  N3_10 
REMARK    2  A    between atoms: C9_15  and  N4_16 
REMARK       I    between atoms: N4_16  and  C10_18 
REMARK    3  A    between atoms: C10_18  and  C11_20 
REMARK    4  A    between atoms: C11_20  and  C12_21 
REMARK    5  A    between atoms: C12_21  and  S1_22 
REMARK    6  A    between atoms: S1_22  and  C13_25 
REMARK    7  A    between atoms: C13_25  and  C14_26 
ROOT
HETATM    1  N1  UNL     1      34.050  58.455  42.016  1.00  0.00    -0.191 NA
HETATM    2  C1  UNL     1      34.473  59.461  41.620  1.00  0.00     0.103 C 
HETATM    3  C2  UNL     1      35.014  60.701  41.110  1.00  0.00     0.088 A 
HETATM    4  C3  UNL     1      36.272  61.147  41.513  1.00  0.00     0.037 A 
HETATM    5  C4  UNL     1      36.799  62.327  41.034  1.00  0.00    -0.011 A 
HETATM    6  C5  UNL     1      36.007  63.031  40.138  1.00  0.00     0.019 A 
HETATM    7  N2  UNL     1      34.797  62.575  39.769  1.00  0.00    -0.344 N 
ATOM      8  H2  UNL     1      34.253  63.130  39.108  1.00  0.00     0.167 HD
HETATM    9  C6  UNL     1      34.264  61.422  40.225  1.00  0.00     0.120 A 
HETATM   10  C7  UNL     1      36.736  64.266  39.737  1.00  0.00     0.060 C 
HETATM   11  C8  UNL     1      37.592  64.511  40.984  1.00  0.00     0.036 C 
HETATM   12  C9  UNL     1      38.076  63.079  41.249  1.00  0.00     0.120 C 
ENDROOT
BRANCH   9  13
HETATM   13  N3  UNL     1      33.105  61.002  39.861  1.00  0.00    -0.384 N 
ATOM     14  H32 UNL     1      32.342  60.854  40.520  1.00  0.00     0.157 HD
ATOM     15  H31 UNL     1      32.914  60.801  38.879  1.00  0.00     0.157 HD
ENDBRANCH   9  13
BRANCH  12  16
HETATM   16  N4  UNL     1      38.538  62.912  42.588  1.00  0.00    -0.352 N 
HETATM   17  C10 UNL     1      39.422  61.877  42.993  1.00  0.00     0.218 C 
HETATM   18  O1  UNL     1      39.799  61.087  42.111  1.00  0.00    -0.274 OA
ATOM     19  H4  UNL     1      38.215  63.573  43.294  1.00  0.00     0.163 HD
BRANCH  17  20
HETATM   20  C11 UNL     1      39.857  61.764  44.379  1.00  0.00     0.115 C 
BRANCH  20  21
HETATM   21  C12 UNL     1      38.931  61.254  45.400  1.00  0.00     0.117 C 
BRANCH  21  22
HETATM   22  S1  UNL     1      39.262  59.666  46.094  1.00  0.00     0.010 S 
HETATM   23  O2  UNL     1      39.848  59.949  47.482  1.00  0.00    -0.259 OA
HETATM   24  S2  UNL     1      40.365  58.826  45.170  1.00  0.00     0.008 SA
BRANCH  22  25
HETATM   25  C13 UNL     1      37.704  58.842  46.247  1.00  0.00     0.112 C 
BRANCH  25  26
HETATM   26  C14 UNL     1      37.731  57.421  46.619  1.00  0.00    -0.003 C 
HETATM   27  C15 UNL     1      37.389  57.062  48.033  1.00  0.00     0.005 C 
HETATM   28  C16 UNL     1      37.772  55.576  48.173  1.00  0.00     0.000 C 
HETATM   29  C17 UNL     1      36.766  54.720  47.457  1.00  0.00     0.000 C 
HETATM   30  C18 UNL     1      36.035  55.587  46.459  1.00  0.00     0.000 C 
HETATM   31  C19 UNL     1      36.959  56.508  45.695  1.00  0.00     0.005 C 
ENDBRANCH  25  26
ENDBRANCH  22  25
ENDBRANCH  21  22
ENDBRANCH  20  21
ENDBRANCH  17  20
ENDBRANCH  12  16
TORSDOF 7
ENDMDL
MODEL 5
REMARK VINA RESULT: -8.356978861      3.360      5.153
REMARK  7 active torsions:
REMARK  status: ('A' for Active; 'I' for Inactive)
REMARK    1  A    between atoms: C6_9  and  N3_10 
REMARK    2  A    between atoms: C9_15  and  N4_16 
REMARK       I    between atoms: N4_16  and  C10_18 
REMARK    3  A    between atoms: C10_18  and  C11_20 
REMARK    4  A    between atoms: C11_20  and  C12_21 
REMARK    5  A    between atoms: C12_21  and  S1_22 
REMARK    6  A    between atoms: S1_22  and  C13_25 
REMARK    7  A    between atoms: C13_25  and  C14_26 
ROOT
HETATM    1  N1  UNL     1      32.352  59.288  44.620  1.00  0.00    -0.191 NA
HETATM    2  C1  UNL     1      32.899  59.895  43.795  1.00  0.00     0.103 C 
HETATM    3  C2  UNL     1      33.585  60.629  42.756  1.00  0.00     0.088 A 
HETATM    4  C3  UNL     1      34.974  60.743  42.764  1.00  0.00     0.037 A 
HETATM    5  C4  UNL     1      35.640  61.441  41.779  1.00  0.00    -0.011 A 
HETATM    6  C5  UNL     1      34.849  62.013  40.794  1.00  0.00     0.019 A 
HETATM    7  N2  UNL     1      33.510  61.885  40.812  1.00  0.00    -0.344 N 
ATOM      8  H2  UNL     1      32.973  62.325  40.065  1.00  0.00     0.167 HD
HETATM    9  C6  UNL     1      32.840  61.207  41.767  1.00  0.00     0.120 A 
HETATM   10  C7  UNL     1      35.738  62.717  39.829  1.00  0.00     0.060 C 
HETATM   11  C8  UNL     1      36.917  63.079  40.737  1.00  0.00     0.036 C 
HETATM   12  C9  UNL     1      37.076  61.753  41.492  1.00  0.00     0.120 C 
ENDROOT
BRANCH   9  13
HETATM   13  N3  UNL     1      31.559  61.096  41.768  1.00  0.00    -0.384 N 
ATOM     14  H32 UNL     1      31.084  60.208  41.928  1.00  0.00     0.157 HD
ATOM     15  H31 UNL     1      30.970  61.913  41.605  1.00  0.00     0.157 HD
ENDBRANCH   9  13
BRANCH  12  16
HETATM   16  N4  UNL     1      37.808  61.914  42.705  1.00  0.00    -0.352 N 
HETATM   17  C10 UNL     1      39.127  61.426  42.901  1.00  0.00     0.218 C 
HETATM   18  O1  UNL     1      39.650  60.828  41.945  1.00  0.00    -0.274 OA
ATOM     19  H4  UNL     1      37.359  62.408  43.476  1.00  0.00     0.163 HD
BRANCH  17  20
HETATM   20  C11 UNL     1      39.819  61.626  44.167  1.00  0.00     0.115 C 
BRANCH  20  21
HETATM   21  C12 UNL     1      39.147  61.298  45.433  1.00  0.00     0.117 C 
BRANCH  21  22
HETATM   22  S1  UNL     1      39.429  59.699  46.124  1.00  0.00     0.010 S 
HETATM   23  O2  UNL     1      40.016  59.961  47.515  1.00  0.00    -0.259 OA
HETATM   24  S2  UNL     1      40.511  58.829  45.202  1.00  0.00     0.008 SA
BRANCH  22  25
HETATM   25  C13 UNL     1      37.847  58.920  46.268  1.00  0.00     0.112 C 
BRANCH  25  26
HETATM   26  C14 UNL     1      37.829  57.503  46.650  1.00  0.00    -0.003 C 
HETATM   27  C15 UNL     1      37.394  57.160  48.042  1.00  0.00     0.005 C 
HETATM   28  C16 UNL     1      37.747  55.669  48.217  1.00  0.00     0.000 C 
HETATM   29  C17 UNL     1      36.775  54.821  47.445  1.00  0.00     0.000 C 
HETATM   30  C18 UNL     1      36.120  55.691  46.397  1.00  0.00     0.000 C 
HETATM   31  C19 UNL     1      37.103  56.593  45.686  1.00  0.00     0.005 C 
ENDBRANCH  25  26
ENDBRANCH  22  25
ENDBRANCH  21  22
ENDBRANCH  20  21
ENDBRANCH  17  20
ENDBRANCH  12  16
TORSDOF 7
ENDMDL
