MODEL 1
REMARK VINA RESULT: -6.097636221      0.000      0.000
REMARK  4 active torsions:
REMARK  status: ('A' for Active; 'I' for Inactive)
REMARK    1  A    between atoms: N1_2  and  N2_4 
REMARK    2  A    between atoms: N2_4  and  C2_6 
REMARK    3  A    between atoms: C4_12  and  N5_13 
REMARK    4  A    between atoms: N5_13  and  O1_14 
REMARK       I    between atoms: N5_13  and  C5_16 
REMARK       I    between atoms: C5_16  and  N6_17 
REMARK       I    between atoms: C5_16  and  N7_21 
ROOT
HETATM    1  C2  UNL     1      47.236  16.424 -13.201  1.00  0.00     0.162 A 
HETATM    2  N3  UNL     1      47.485  17.755 -13.042  1.00  0.00    -0.335 N 
ATOM      3  H3  UNL     1      47.474  18.453 -13.786  1.00  0.00     0.168 HD
HETATM    4  C3  UNL     1      47.748  17.995 -11.750  1.00  0.00     0.183 A 
HETATM    5  N4  UNL     1      47.680  16.851 -11.077  1.00  0.00    -0.338 N 
ATOM      6  H4  UNL     1      47.837  16.735 -10.076  1.00  0.00     0.167 HD
HETATM    7  C4  UNL     1      47.364  15.856 -11.959  1.00  0.00     0.157 A 
ENDROOT
BRANCH   7   8
HETATM    8  N5  UNL     1      47.209  14.521 -11.511  1.00  0.00    -0.088 NA
HETATM    9  C5  UNL     1      46.566  14.448 -10.229  1.00  0.00     0.485 C 
HETATM   10  N6  UNL     1      46.648  13.120  -9.669  1.00  0.00    -0.035 N 
HETATM   11  N7  UNL     1      47.213  15.374  -9.334  1.00  0.00    -0.035 N 
ATOM     12  H63 UNL     1      46.276  12.420 -10.312  1.00  0.00     0.278 HD
ATOM     13  H62 UNL     1      47.613  12.794  -9.621  1.00  0.00     0.278 HD
ATOM     14  H61 UNL     1      46.191  13.068  -8.758  1.00  0.00     0.278 HD
ATOM     15  H73 UNL     1      48.220  15.220  -9.276  1.00  0.00     0.278 HD
ATOM     16  H72 UNL     1      47.238  16.324  -9.706  1.00  0.00     0.278 HD
ATOM     17  H71 UNL     1      46.756  15.322  -8.423  1.00  0.00     0.278 HD
BRANCH   8  18
HETATM   18  O1  UNL     1      46.618  13.750 -12.455  1.00  0.00    -0.303 OA
ATOM     19  H1  UNL     1      47.229  13.119 -12.818  1.00  0.00     0.237 HD
ENDBRANCH   8  18
ENDBRANCH   7   8
BRANCH   1  20
HETATM   20  N2  UNL     1      46.933  15.743 -14.392  1.00  0.00    -0.287 N 
ATOM     21  H2  UNL     1      47.287  14.791 -14.481  1.00  0.00     0.188 HD
BRANCH  20  22
HETATM   22  N1  UNL     1      46.215  16.231 -15.435  1.00  0.00    -0.339 N 
HETATM   23  C1  UNL     1      46.868  17.041 -16.399  1.00  0.00     0.167 C 
ATOM     24  H1  UNL     1      45.221  16.020 -15.524  1.00  0.00     0.179 HD
ENDBRANCH  20  22
ENDBRANCH   1  20
TORSDOF 4
ENDMDL
MODEL 2
REMARK VINA RESULT: -5.568659994      1.991      4.449
REMARK  4 active torsions:
REMARK  status: ('A' for Active; 'I' for Inactive)
REMARK    1  A    between atoms: N1_2  and  N2_4 
REMARK    2  A    between atoms: N2_4  and  C2_6 
REMARK    3  A    between atoms: C4_12  and  N5_13 
REMARK    4  A    between atoms: N5_13  and  O1_14 
REMARK       I    between atoms: N5_13  and  C5_16 
REMARK       I    between atoms: C5_16  and  N6_17 
REMARK       I    between atoms: C5_16  and  N7_21 
ROOT
HETATM    1  C2  UNL     1      47.564  17.088 -11.607  1.00  0.00     0.162 A 
HETATM    2  N3  UNL     1      47.461  16.136 -10.637  1.00  0.00    -0.335 N 
ATOM      3  H3  UNL     1      47.484  16.308  -9.632  1.00  0.00     0.168 HD
HETATM    4  C3  UNL     1      47.326  14.937 -11.221  1.00  0.00     0.183 A 
HETATM    5  N4  UNL     1      47.346  15.096 -12.541  1.00  0.00    -0.338 N 
ATOM      6  H4  UNL     1      47.265  14.352 -13.234  1.00  0.00     0.167 HD
HETATM    7  C4  UNL     1      47.495  16.427 -12.806  1.00  0.00     0.157 A 
ENDROOT
BRANCH   7   8
HETATM    8  N5  UNL     1      47.532  16.893 -14.144  1.00  0.00    -0.088 NA
HETATM    9  C5  UNL     1      46.444  16.380 -14.930  1.00  0.00     0.485 C 
HETATM   10  N6  UNL     1      46.635  16.644 -16.337  1.00  0.00    -0.035 N 
HETATM   11  N7  UNL     1      46.360  14.956 -14.728  1.00  0.00    -0.035 N 
ATOM     12  H63 UNL     1      46.786  17.638 -16.513  1.00  0.00     0.278 HD
ATOM     13  H62 UNL     1      47.533  16.287 -16.665  1.00  0.00     0.278 HD
ATOM     14  H61 UNL     1      45.862  16.280 -16.895  1.00  0.00     0.278 HD
ATOM     15  H73 UNL     1      47.241  14.481 -14.925  1.00  0.00     0.278 HD
ATOM     16  H72 UNL     1      46.283  14.705 -13.743  1.00  0.00     0.278 HD
ATOM     17  H71 UNL     1      45.587  14.591 -15.286  1.00  0.00     0.278 HD
BRANCH   8  18
HETATM   18  O1  UNL     1      47.644  18.241 -14.195  1.00  0.00    -0.303 OA
ATOM     19  H1  UNL     1      48.453  18.506 -14.618  1.00  0.00     0.237 HD
ENDBRANCH   8  18
ENDBRANCH   7   8
BRANCH   1  20
HETATM   20  N2  UNL     1      47.733  18.473 -11.437  1.00  0.00    -0.287 N 
ATOM     21  H2  UNL     1      48.606  18.782 -11.010  1.00  0.00     0.188 HD
BRANCH  20  22
HETATM   22  N1  UNL     1      46.846  19.439 -11.787  1.00  0.00    -0.339 N 
HETATM   23  C1  UNL     1      47.092  20.776 -11.384  1.00  0.00     0.167 C 
ATOM     24  H1  UNL     1      46.015  19.206 -12.332  1.00  0.00     0.179 HD
ENDBRANCH  20  22
ENDBRANCH   1  20
TORSDOF 4
ENDMDL
MODEL 3
REMARK VINA RESULT: -5.538739276      4.143      6.140
REMARK  4 active torsions:
REMARK  status: ('A' for Active; 'I' for Inactive)
REMARK    1  A    between atoms: N1_2  and  N2_4 
REMARK    2  A    between atoms: N2_4  and  C2_6 
REMARK    3  A    between atoms: C4_12  and  N5_13 
REMARK    4  A    between atoms: N5_13  and  O1_14 
REMARK       I    between atoms: N5_13  and  C5_16 
REMARK       I    between atoms: C5_16  and  N6_17 
REMARK       I    between atoms: C5_16  and  N7_21 
ROOT
HETATM    1  C2  UNL     1      46.854  17.721 -16.583  1.00  0.00     0.162 A 
HETATM    2  N3  UNL     1      46.499  16.535 -16.012  1.00  0.00    -0.335 N 
ATOM      3  H3  UNL     1      45.936  15.809 -16.454  1.00  0.00     0.168 HD
HETATM    4  C3  UNL     1      47.012  16.481 -14.775  1.00  0.00     0.183 A 
HETATM    5  N4  UNL     1      47.680  17.604 -14.535  1.00  0.00    -0.338 N 
ATOM      6  H4  UNL     1      48.171  17.836 -13.672  1.00  0.00     0.167 HD
HETATM    7  C4  UNL     1      47.596  18.394 -15.647  1.00  0.00     0.157 A 
ENDROOT
BRANCH   7   8
HETATM    8  N5  UNL     1      48.237  19.657 -15.681  1.00  0.00    -0.088 NA
HETATM    9  C5  UNL     1      49.332  19.687 -16.609  1.00  0.00     0.485 C 
HETATM   10  N6  UNL     1      50.133  20.879 -16.447  1.00  0.00    -0.035 N 
HETATM   11  N7  UNL     1      50.162  18.531 -16.382  1.00  0.00    -0.035 N 
ATOM     12  H63 UNL     1      49.564  21.722 -16.515  1.00  0.00     0.278 HD
ATOM     13  H62 UNL     1      50.456  20.982 -15.485  1.00  0.00     0.278 HD
ATOM     14  H61 UNL     1      50.911  20.900 -17.107  1.00  0.00     0.278 HD
ATOM     15  H73 UNL     1      50.473  18.458 -15.414  1.00  0.00     0.278 HD
ATOM     16  H72 UNL     1      49.636  17.658 -16.427  1.00  0.00     0.278 HD
ATOM     17  H71 UNL     1      50.940  18.553 -17.042  1.00  0.00     0.278 HD
BRANCH   8  18
HETATM   18  O1  UNL     1      47.345  20.659 -15.867  1.00  0.00    -0.303 OA
ATOM     19  H1  UNL     1      47.085  21.050 -15.041  1.00  0.00     0.237 HD
ENDBRANCH   8  18
ENDBRANCH   7   8
BRANCH   1  20
HETATM   20  N2  UNL     1      46.517  18.192 -17.864  1.00  0.00    -0.287 N 
ATOM     21  H2  UNL     1      46.623  17.539 -18.639  1.00  0.00     0.188 HD
BRANCH  20  22
HETATM   22  N1  UNL     1      46.063  19.435 -18.167  1.00  0.00    -0.339 N 
HETATM   23  C1  UNL     1      46.620  20.117 -19.278  1.00  0.00     0.167 C 
ATOM     24  H1  UNL     1      45.333  19.872 -17.604  1.00  0.00     0.179 HD
ENDBRANCH  20  22
ENDBRANCH   1  20
TORSDOF 4
ENDMDL
MODEL 4
REMARK VINA RESULT: -5.527540764      1.664      2.936
REMARK  4 active torsions:
REMARK  status: ('A' for Active; 'I' for Inactive)
REMARK    1  A    between atoms: N1_2  and  N2_4 
REMARK    2  A    between atoms: N2_4  and  C2_6 
REMARK    3  A    between atoms: C4_12  and  N5_13 
REMARK    4  A    between atoms: N5_13  and  O1_14 
REMARK       I    between atoms: N5_13  and  C5_16 
REMARK       I    between atoms: C5_16  and  N6_17 
REMARK       I    between atoms: C5_16  and  N7_21 
ROOT
HETATM    1  C2  UNL     1      47.238  16.102 -13.079  1.00  0.00     0.162 A 
HETATM    2  N3  UNL     1      46.675  15.587 -14.207  1.00  0.00    -0.335 N 
ATOM      3  H3  UNL     1      46.469  16.109 -15.059  1.00  0.00     0.168 HD
HETATM    4  C3  UNL     1      46.436  14.282 -14.015  1.00  0.00     0.183 A 
HETATM    5  N4  UNL     1      46.825  13.950 -12.788  1.00  0.00    -0.338 N 
ATOM      6  H4  UNL     1      46.761  13.021 -12.371  1.00  0.00     0.167 HD
HETATM    7  C4  UNL     1      47.328  15.067 -12.184  1.00  0.00     0.157 A 
ENDROOT
BRANCH   7   8
HETATM    8  N5  UNL     1      47.837  15.002 -10.863  1.00  0.00    -0.088 NA
HETATM    9  C5  UNL     1      47.105  14.080 -10.042  1.00  0.00     0.485 C 
HETATM   10  N6  UNL     1      47.459  14.213  -8.648  1.00  0.00    -0.035 N 
HETATM   11  N7  UNL     1      45.696  14.343 -10.194  1.00  0.00    -0.035 N 
ATOM     12  H63 UNL     1      48.465  14.119  -8.508  1.00  0.00     0.278 HD
ATOM     13  H62 UNL     1      47.343  15.174  -8.325  1.00  0.00     0.278 HD
ATOM     14  H61 UNL     1      46.938  13.558  -8.064  1.00  0.00     0.278 HD
ATOM     15  H73 UNL     1      45.458  15.315  -9.998  1.00  0.00     0.278 HD
ATOM     16  H72 UNL     1      45.398  14.320 -11.169  1.00  0.00     0.278 HD
ATOM     17  H71 UNL     1      45.176  13.687  -9.610  1.00  0.00     0.278 HD
BRANCH   8  18
HETATM   18  O1  UNL     1      49.173  14.783 -10.860  1.00  0.00    -0.303 OA
ATOM     19  H1  UNL     1      49.481  14.501 -11.714  1.00  0.00     0.237 HD
ENDBRANCH   8  18
ENDBRANCH   7   8
BRANCH   1  20
HETATM   20  N2  UNL     1      47.632  17.431 -12.845  1.00  0.00    -0.287 N 
ATOM     21  H2  UNL     1      48.072  17.925 -13.621  1.00  0.00     0.188 HD
BRANCH  20  22
HETATM   22  N1  UNL     1      47.482  18.120 -11.685  1.00  0.00    -0.339 N 
HETATM   23  C1  UNL     1      47.365  19.532 -11.735  1.00  0.00     0.167 C 
ATOM     24  H1  UNL     1      47.455  17.629 -10.791  1.00  0.00     0.179 HD
ENDBRANCH  20  22
ENDBRANCH   1  20
TORSDOF 4
ENDMDL
MODEL 5
REMARK VINA RESULT: -5.509125411      8.587      9.510
REMARK  4 active torsions:
REMARK  status: ('A' for Active; 'I' for Inactive)
REMARK    1  A    between atoms: N1_2  and  N2_4 
REMARK    2  A    between atoms: N2_4  and  C2_6 
REMARK    3  A    between atoms: C4_12  and  N5_13 
REMARK    4  A    between atoms: N5_13  and  O1_14 
REMARK       I    between atoms: N5_13  and  C5_16 
REMARK       I    between atoms: C5_16  and  N6_17 
REMARK       I    between atoms: C5_16  and  N7_21 
ROOT
HETATM    1  C2  UNL     1      52.633  20.478  -7.648  1.00  0.00     0.162 A 
HETATM    2  N3  UNL     1      51.766  20.977  -8.573  1.00  0.00    -0.335 N 
ATOM      3  H3  UNL     1      51.898  20.955  -9.584  1.00  0.00     0.168 HD
HETATM    4  C3  UNL     1      50.711  21.504  -7.936  1.00  0.00     0.183 A 
HETATM    5  N4  UNL     1      50.883  21.360  -6.625  1.00  0.00    -0.338 N 
ATOM      6  H4  UNL     1      50.237  21.671  -5.899  1.00  0.00     0.167 HD
HETATM    7  C4  UNL     1      52.075  20.725  -6.421  1.00  0.00     0.157 A 
ENDROOT
BRANCH   7   8
HETATM    8  N5  UNL     1      52.511  20.423  -5.107  1.00  0.00    -0.088 NA
HETATM    9  C5  UNL     1      52.722  19.016  -4.913  1.00  0.00     0.485 C 
HETATM   10  N6  UNL     1      52.910  18.695  -3.517  1.00  0.00    -0.035 N 
HETATM   11  N7  UNL     1      51.571  18.304  -5.406  1.00  0.00    -0.035 N 
ATOM     12  H63 UNL     1      53.664  19.245  -3.106  1.00  0.00     0.278 HD
ATOM     13  H62 UNL     1      52.135  19.038  -2.949  1.00  0.00     0.278 HD
ATOM     14  H61 UNL     1      53.060  17.695  -3.379  1.00  0.00     0.278 HD
ATOM     15  H73 UNL     1      50.701  18.630  -4.985  1.00  0.00     0.278 HD
ATOM     16  H72 UNL     1      51.353  18.536  -6.375  1.00  0.00     0.278 HD
ATOM     17  H71 UNL     1      51.721  17.304  -5.268  1.00  0.00     0.278 HD
BRANCH   8  18
HETATM   18  O1  UNL     1      53.577  21.182  -4.754  1.00  0.00    -0.303 OA
ATOM     19  H1  UNL     1      53.303  21.989  -4.333  1.00  0.00     0.237 HD
ENDBRANCH   8  18
ENDBRANCH   7   8
BRANCH   1  20
HETATM   20  N2  UNL     1      53.872  19.855  -7.881  1.00  0.00    -0.287 N 
ATOM     21  H2  UNL     1      54.121  19.081  -7.265  1.00  0.00     0.188 HD
BRANCH  20  22
HETATM   22  N1  UNL     1      54.766  20.183  -8.847  1.00  0.00    -0.339 N 
HETATM   23  C1  UNL     1      55.139  21.542  -9.005  1.00  0.00     0.167 C 
ATOM     24  H1  UNL     1      55.164  19.464  -9.451  1.00  0.00     0.179 HD
ENDBRANCH  20  22
ENDBRANCH   1  20
TORSDOF 4
ENDMDL
