MODEL 1
REMARK VINA RESULT: -5.203643642      0.000      0.000
REMARK  7 active torsions:
REMARK  status: ('A' for Active; 'I' for Inactive)
REMARK    1  A    between atoms: N1_2  and  C2_3 
REMARK    2  A    between atoms: N1_2  and  C5_10 
REMARK    3  A    between atoms: C2_3  and  C3_4 
REMARK    4  A    between atoms: C3_4  and  C4_5 
REMARK    5  A    between atoms: C4_5  and  N2_6 
REMARK    6  A    between atoms: C6_15  and  N5_16 
REMARK    7  A    between atoms: N6_19  and  N7_20 
ROOT
HETATM    1  C5  UNL     1      47.499  17.168 -14.119  1.00  0.00     0.731 A 
HETATM    2  N3  UNL     1      48.138  18.244 -14.680  1.00  0.00    -0.115 N 
ATOM      3  H3  UNL     1      48.700  18.924 -14.168  1.00  0.00     0.206 HD
HETATM    4  N4  UNL     1      47.915  18.267 -15.981  1.00  0.00    -0.116 N 
ATOM      5  H4  UNL     1      48.275  18.964 -16.634  1.00  0.00     0.206 HD
HETATM    6  C6  UNL     1      47.136  17.221 -16.302  1.00  0.00     0.726 A 
HETATM    7  N6  UNL     1      46.889  16.556 -15.144  1.00  0.00     0.085 N 
ENDROOT
BRANCH   1   8
HETATM    8  N1  UNL     1      47.506  16.837 -12.736  1.00  0.00    -0.218 N 
HETATM    9  C1  UNL     1      47.457  17.960 -11.799  1.00  0.00     0.168 C 
BRANCH   8  10
HETATM   10  C2  UNL     1      47.554  15.475 -12.257  1.00  0.00     0.142 C 
BRANCH  10  11
HETATM   11  C3  UNL     1      48.346  15.413 -10.972  1.00  0.00     0.048 C 
BRANCH  11  12
HETATM   12  C4  UNL     1      47.753  14.459  -9.963  1.00  0.00     0.231 C 
BRANCH  12  13
HETATM   13  N2  UNL     1      46.601  13.849 -10.542  1.00  0.00    -0.079 N 
ATOM     14  H23 UNL     1      45.771  14.439 -10.478  1.00  0.00     0.274 HD
ATOM     15  H22 UNL     1      46.656  13.796 -11.560  1.00  0.00     0.274 HD
ATOM     16  H21 UNL     1      46.466  12.936 -10.108  1.00  0.00     0.274 HD
ENDBRANCH  12  13
ENDBRANCH  11  12
ENDBRANCH  10  11
ENDBRANCH   8  10
ENDBRANCH   1   8
BRANCH   7  17
HETATM   17  N7  UNL     1      46.100  15.394 -15.014  1.00  0.00    -0.309 N 
ATOM     18  H72 UNL     1      46.181  14.699 -14.271  1.00  0.00     0.178 HD
ATOM     19  H71 UNL     1      45.363  15.128 -15.667  1.00  0.00     0.178 HD
ENDBRANCH   7  17
BRANCH   6  20
HETATM   20  N5  UNL     1      46.672  16.861 -17.452  1.00  0.00    -0.231 N 
ATOM     21  H52 UNL     1      47.046  16.084 -17.999  1.00  0.00     0.174 HD
ATOM     22  H51 UNL     1      45.899  17.249 -17.994  1.00  0.00     0.174 HD
ENDBRANCH   6  20
TORSDOF 7
ENDMDL
MODEL 2
REMARK VINA RESULT: -5.063975543      0.766      1.794
REMARK  7 active torsions:
REMARK  status: ('A' for Active; 'I' for Inactive)
REMARK    1  A    between atoms: N1_2  and  C2_3 
REMARK    2  A    between atoms: N1_2  and  C5_10 
REMARK    3  A    between atoms: C2_3  and  C3_4 
REMARK    4  A    between atoms: C3_4  and  C4_5 
REMARK    5  A    between atoms: C4_5  and  N2_6 
REMARK    6  A    between atoms: C6_15  and  N5_16 
REMARK    7  A    between atoms: N6_19  and  N7_20 
ROOT
HETATM    1  C5  UNL     1      47.227  16.557 -13.643  1.00  0.00     0.731 A 
HETATM    2  N3  UNL     1      46.541  15.435 -14.032  1.00  0.00    -0.115 N 
ATOM      3  H3  UNL     1      46.276  14.667 -13.416  1.00  0.00     0.206 HD
HETATM    4  N4  UNL     1      46.276  15.499 -15.324  1.00  0.00    -0.116 N 
ATOM      5  H4  UNL     1      45.777  14.793 -15.865  1.00  0.00     0.206 HD
HETATM    6  C6  UNL     1      46.775  16.649 -15.807  1.00  0.00     0.726 A 
HETATM    7  N6  UNL     1      47.357  17.287 -14.760  1.00  0.00     0.085 N 
ENDROOT
BRANCH   1   8
HETATM    8  N1  UNL     1      47.690  16.821 -12.324  1.00  0.00    -0.218 N 
HETATM    9  C1  UNL     1      47.461  18.173 -11.812  1.00  0.00     0.168 C 
BRANCH   8  10
HETATM   10  C2  UNL     1      48.349  15.824 -11.512  1.00  0.00     0.142 C 
BRANCH  10  11
HETATM   11  C3  UNL     1      47.463  15.446 -10.348  1.00  0.00     0.048 C 
BRANCH  11  12
HETATM   12  C4  UNL     1      47.841  14.121  -9.730  1.00  0.00     0.231 C 
BRANCH  12  13
HETATM   13  N2  UNL     1      46.657  13.340  -9.579  1.00  0.00    -0.079 N 
ATOM     14  H23 UNL     1      45.946  13.810  -9.018  1.00  0.00     0.274 HD
ATOM     15  H22 UNL     1      46.123  13.266 -10.445  1.00  0.00     0.274 HD
ATOM     16  H21 UNL     1      46.917  12.430  -9.199  1.00  0.00     0.274 HD
ENDBRANCH  12  13
ENDBRANCH  11  12
ENDBRANCH  10  11
ENDBRANCH   8  10
ENDBRANCH   1   8
BRANCH   7  17
HETATM   17  N7  UNL     1      48.016  18.533 -14.817  1.00  0.00    -0.309 N 
ATOM     18  H72 UNL     1      47.964  19.200 -15.587  1.00  0.00     0.178 HD
ATOM     19  H71 UNL     1      48.626  18.890 -14.082  1.00  0.00     0.178 HD
ENDBRANCH   7  17
BRANCH   6  20
HETATM   20  N5  UNL     1      46.750  17.117 -17.011  1.00  0.00    -0.231 N 
ATOM     21  H52 UNL     1      46.154  17.891 -17.308  1.00  0.00     0.174 HD
ATOM     22  H51 UNL     1      47.282  16.830 -17.833  1.00  0.00     0.174 HD
ENDBRANCH   6  20
TORSDOF 7
ENDMDL
MODEL 3
REMARK VINA RESULT: -4.626372934      1.431      5.280
REMARK  7 active torsions:
REMARK  status: ('A' for Active; 'I' for Inactive)
REMARK    1  A    between atoms: N1_2  and  C2_3 
REMARK    2  A    between atoms: N1_2  and  C5_10 
REMARK    3  A    between atoms: C2_3  and  C3_4 
REMARK    4  A    between atoms: C3_4  and  C4_5 
REMARK    5  A    between atoms: C4_5  and  N2_6 
REMARK    6  A    between atoms: C6_15  and  N5_16 
REMARK    7  A    between atoms: N6_19  and  N7_20 
ROOT
HETATM    1  C5  UNL     1      47.389  15.853 -10.933  1.00  0.00     0.731 A 
HETATM    2  N3  UNL     1      47.661  16.126  -9.617  1.00  0.00    -0.115 N 
ATOM      3  H3  UNL     1      47.966  17.030  -9.257  1.00  0.00     0.206 HD
HETATM    4  N4  UNL     1      47.470  15.042  -8.888  1.00  0.00    -0.116 N 
ATOM      5  H4  UNL     1      47.603  14.973  -7.879  1.00  0.00     0.206 HD
HETATM    6  C6  UNL     1      47.073  14.046  -9.696  1.00  0.00     0.726 A 
HETATM    7  N6  UNL     1      47.029  14.562 -10.951  1.00  0.00     0.085 N 
ENDROOT
BRANCH   1   8
HETATM    8  N1  UNL     1      47.501  16.782 -12.005  1.00  0.00    -0.218 N 
HETATM    9  C1  UNL     1      47.496  18.199 -11.641  1.00  0.00     0.168 C 
BRANCH   8  10
HETATM   10  C2  UNL     1      47.620  16.373 -13.385  1.00  0.00     0.142 C 
BRANCH  10  11
HETATM   11  C3  UNL     1      47.716  17.592 -14.273  1.00  0.00     0.048 C 
BRANCH  11  12
HETATM   12  C4  UNL     1      47.230  17.333 -15.679  1.00  0.00     0.231 C 
BRANCH  12  13
HETATM   13  N2  UNL     1      46.275  16.275 -15.638  1.00  0.00    -0.079 N 
ATOM     14  H23 UNL     1      46.058  15.978 -14.686  1.00  0.00     0.274 HD
ATOM     15  H22 UNL     1      45.339  16.581 -15.904  1.00  0.00     0.274 HD
ATOM     16  H21 UNL     1      46.617  15.508 -16.218  1.00  0.00     0.274 HD
ENDBRANCH  12  13
ENDBRANCH  11  12
ENDBRANCH  10  11
ENDBRANCH   8  10
ENDBRANCH   1   8
BRANCH   7  17
HETATM   17  N7  UNL     1      46.669  13.859 -12.119  1.00  0.00    -0.309 N 
ATOM     18  H72 UNL     1      45.733  13.817 -12.526  1.00  0.00     0.178 HD
ATOM     19  H71 UNL     1      47.320  13.308 -12.678  1.00  0.00     0.178 HD
ENDBRANCH   7  17
BRANCH   6  20
HETATM   20  N5  UNL     1      46.780  12.820  -9.412  1.00  0.00    -0.231 N 
ATOM     21  H52 UNL     1      47.472  12.115  -9.155  1.00  0.00     0.174 HD
ATOM     22  H51 UNL     1      45.872  12.356  -9.385  1.00  0.00     0.174 HD
ENDBRANCH   6  20
TORSDOF 7
ENDMDL
MODEL 4
REMARK VINA RESULT: -4.541808154      1.663      5.191
REMARK  7 active torsions:
REMARK  status: ('A' for Active; 'I' for Inactive)
REMARK    1  A    between atoms: N1_2  and  C2_3 
REMARK    2  A    between atoms: N1_2  and  C5_10 
REMARK    3  A    between atoms: C2_3  and  C3_4 
REMARK    4  A    between atoms: C3_4  and  C4_5 
REMARK    5  A    between atoms: C4_5  and  N2_6 
REMARK    6  A    between atoms: C6_15  and  N5_16 
REMARK    7  A    between atoms: N6_19  and  N7_20 
ROOT
HETATM    1  C5  UNL     1      47.295  16.200 -12.955  1.00  0.00     0.731 A 
HETATM    2  N3  UNL     1      47.598  16.935 -11.837  1.00  0.00    -0.115 N 
ATOM      3  H3  UNL     1      47.835  17.927 -11.834  1.00  0.00     0.206 HD
HETATM    4  N4  UNL     1      47.539  16.164 -10.766  1.00  0.00    -0.116 N 
ATOM      5  H4  UNL     1      47.721  16.462  -9.808  1.00  0.00     0.206 HD
HETATM    6  C6  UNL     1      47.199  14.923 -11.150  1.00  0.00     0.726 A 
HETATM    7  N6  UNL     1      47.053  14.963 -12.499  1.00  0.00     0.085 N 
ENDROOT
BRANCH   1   8
HETATM    8  N1  UNL     1      47.276  16.700 -14.286  1.00  0.00    -0.218 N 
HETATM    9  C1  UNL     1      46.259  16.140 -15.177  1.00  0.00     0.168 C 
BRANCH   8  10
HETATM   10  C2  UNL     1      48.196  17.709 -14.756  1.00  0.00     0.142 C 
BRANCH  10  11
HETATM   11  C3  UNL     1      47.784  18.176 -16.133  1.00  0.00     0.048 C 
BRANCH  11  12
HETATM   12  C4  UNL     1      48.948  18.284 -17.088  1.00  0.00     0.231 C 
BRANCH  12  13
HETATM   13  N2  UNL     1      50.105  18.665 -16.348  1.00  0.00    -0.079 N 
ATOM     14  H23 UNL     1      49.882  18.963 -15.398  1.00  0.00     0.274 HD
ATOM     15  H22 UNL     1      50.697  17.870 -16.108  1.00  0.00     0.274 HD
ATOM     16  H21 UNL     1      50.605  19.382 -16.876  1.00  0.00     0.274 HD
ENDBRANCH  12  13
ENDBRANCH  11  12
ENDBRANCH  10  11
ENDBRANCH   8  10
ENDBRANCH   1   8
BRANCH   7  17
HETATM   17  N7  UNL     1      46.708  13.871 -13.323  1.00  0.00    -0.309 N 
ATOM     18  H72 UNL     1      45.808  13.391 -13.331  1.00  0.00     0.178 HD
ATOM     19  H71 UNL     1      47.341  13.445 -14.000  1.00  0.00     0.178 HD
ENDBRANCH   7  17
BRANCH   6  20
HETATM   20  N5  UNL     1      47.032  13.857 -10.439  1.00  0.00    -0.231 N 
ATOM     21  H52 UNL     1      47.791  13.236 -10.158  1.00  0.00     0.174 HD
ATOM     22  H51 UNL     1      46.176  13.463 -10.048  1.00  0.00     0.174 HD
ENDBRANCH   6  20
TORSDOF 7
ENDMDL
MODEL 5
REMARK VINA RESULT: -4.530646280      1.661      2.914
REMARK  7 active torsions:
REMARK  status: ('A' for Active; 'I' for Inactive)
REMARK    1  A    between atoms: N1_2  and  C2_3 
REMARK    2  A    between atoms: N1_2  and  C5_10 
REMARK    3  A    between atoms: C2_3  and  C3_4 
REMARK    4  A    between atoms: C3_4  and  C4_5 
REMARK    5  A    between atoms: C4_5  and  N2_6 
REMARK    6  A    between atoms: C6_15  and  N5_16 
REMARK    7  A    between atoms: N6_19  and  N7_20 
ROOT
HETATM    1  C5  UNL     1      47.741  17.585 -16.131  1.00  0.00     0.731 A 
HETATM    2  N3  UNL     1      46.729  16.927 -16.782  1.00  0.00    -0.115 N 
ATOM      3  H3  UNL     1      45.849  16.636 -16.356  1.00  0.00     0.206 HD
HETATM    4  N4  UNL     1      47.064  16.729 -18.044  1.00  0.00    -0.116 N 
ATOM      5  H4  UNL     1      46.490  16.262 -18.746  1.00  0.00     0.206 HD
HETATM    6  C6  UNL     1      48.288  17.244 -18.248  1.00  0.00     0.726 A 
HETATM    7  N6  UNL     1      48.689  17.766 -17.061  1.00  0.00     0.085 N 
ENDROOT
BRANCH   1   8
HETATM    8  N1  UNL     1      47.732  17.951 -14.756  1.00  0.00    -0.218 N 
HETATM    9  C1  UNL     1      47.777  19.384 -14.464  1.00  0.00     0.168 C 
BRANCH   8  10
HETATM   10  C2  UNL     1      47.678  16.979 -13.689  1.00  0.00     0.142 C 
BRANCH  10  11
HETATM   11  C3  UNL     1      47.559  17.688 -12.359  1.00  0.00     0.048 C 
BRANCH  11  12
HETATM   12  C4  UNL     1      47.507  16.734 -11.190  1.00  0.00     0.231 C 
BRANCH  12  13
HETATM   13  N2  UNL     1      48.477  15.710 -11.399  1.00  0.00    -0.079 N 
ATOM     14  H23 UNL     1      49.136  15.629 -10.625  1.00  0.00     0.274 HD
ATOM     15  H22 UNL     1      48.077  14.773 -11.340  1.00  0.00     0.274 HD
ATOM     16  H21 UNL     1      48.941  15.882 -12.292  1.00  0.00     0.274 HD
ENDBRANCH  12  13
ENDBRANCH  11  12
ENDBRANCH  10  11
ENDBRANCH   8  10
ENDBRANCH   1   8
BRANCH   7  17
HETATM   17  N7  UNL     1      49.924  18.402 -16.816  1.00  0.00    -0.309 N 
ATOM     18  H72 UNL     1      50.580  18.725 -17.528  1.00  0.00     0.178 HD
ATOM     19  H71 UNL     1      50.291  18.599 -15.885  1.00  0.00     0.178 HD
ENDBRANCH   7  17
BRANCH   6  20
HETATM   20  N5  UNL     1      49.002  17.270 -19.324  1.00  0.00    -0.231 N 
ATOM     21  H52 UNL     1      48.616  17.192 -20.266  1.00  0.00     0.174 HD
ATOM     22  H51 UNL     1      50.011  17.371 -19.434  1.00  0.00     0.174 HD
ENDBRANCH   6  20
TORSDOF 7
ENDMDL
