MODEL 1
REMARK VINA RESULT: -5.381065707      0.000      0.000
REMARK  7 active torsions:
REMARK  status: ('A' for Active; 'I' for Inactive)
REMARK    1  A    between atoms: N1_1  and  N2_4 
REMARK    2  A    between atoms: N3_6  and  C1_8 
REMARK    3  A    between atoms: C2_11  and  N5_12 
REMARK    4  A    between atoms: C3_17  and  N7_18 
REMARK    5  A    between atoms: N7_18  and  C4_20 
REMARK    6  A    between atoms: C4_20  and  C5_21 
REMARK    7  A    between atoms: C5_21  and  N8_22 
ROOT
HETATM    1  C1  UNL     1      47.482  15.355 -11.074  1.00  0.00     0.727 A 
HETATM    2  N4  UNL     1      47.004  14.282 -11.765  1.00  0.00    -0.020 N 
ATOM      3  H4  UNL     1      46.822  13.403 -11.279  1.00  0.00     0.203 HD
HETATM    4  C2  UNL     1      46.770  14.381 -13.085  1.00  0.00     0.705 A 
HETATM    5  N6  UNL     1      47.013  15.544 -13.717  1.00  0.00    -0.022 N 
ATOM      6  H6  UNL     1      46.833  15.610 -14.719  1.00  0.00     0.203 HD
HETATM    7  C3  UNL     1      47.485  16.624 -13.065  1.00  0.00     0.707 A 
HETATM    8  N9  UNL     1      47.711  16.503 -11.745  1.00  0.00    -0.020 N 
ATOM      9  H9  UNL     1      48.069  17.309 -11.232  1.00  0.00     0.203 HD
ENDROOT
BRANCH   7  10
HETATM   10  N7  UNL     1      47.684  17.683 -13.747  1.00  0.00    -0.223 N 
ATOM     11  H7  UNL     1      47.398  18.564 -13.320  1.00  0.00     0.177 HD
BRANCH  10  12
HETATM   12  C4  UNL     1      48.266  17.761 -15.043  1.00  0.00     0.165 C 
BRANCH  12  13
HETATM   13  C5  UNL     1      47.214  18.090 -16.111  1.00  0.00     0.249 C 
BRANCH  13  14
HETATM   14  N8  UNL     1      46.860  16.911 -16.861  1.00  0.00    -0.078 N 
ATOM     15  H83 UNL     1      46.865  16.075 -16.276  1.00  0.00     0.274 HD
ATOM     16  H82 UNL     1      45.873  16.911 -17.121  1.00  0.00     0.274 HD
ATOM     17  H81 UNL     1      47.465  16.804 -17.675  1.00  0.00     0.274 HD
ENDBRANCH  13  14
ENDBRANCH  12  13
ENDBRANCH  10  12
ENDBRANCH   7  10
BRANCH   4  18
HETATM   18  N5  UNL     1      46.314  13.368 -13.755  1.00  0.00    -0.234 N 
ATOM     19  H52 UNL     1      45.492  12.867 -13.418  1.00  0.00     0.174 HD
ATOM     20  H51 UNL     1      46.769  13.066 -14.617  1.00  0.00     0.174 HD
ENDBRANCH   4  18
BRANCH   1  21
HETATM   21  N3  UNL     1      47.705  15.187  -9.699  1.00  0.00    -0.117 N 
HETATM   22  N2  UNL     1      47.621  14.084  -9.149  1.00  0.00    -0.235 N 
ATOM     23  H2  UNL     1      48.572  13.727  -9.243  1.00  0.00     0.208 HD
ATOM     24  H3  UNL     1      47.945  16.002  -9.135  1.00  0.00     0.207 HD
BRANCH  22  25
HETATM   25  N1  UNL     1      47.060  13.162  -8.553  1.00  0.00    -0.330 N 
ATOM     26  H12 UNL     1      46.089  13.448  -8.682  1.00  0.00     0.178 HD
ATOM     27  H11 UNL     1      47.004  12.296  -8.016  1.00  0.00     0.178 HD
ENDBRANCH  22  25
ENDBRANCH   1  21
TORSDOF 7
ENDMDL
MODEL 2
REMARK VINA RESULT: -5.304906148      0.989      1.016
REMARK  7 active torsions:
REMARK  status: ('A' for Active; 'I' for Inactive)
REMARK    1  A    between atoms: N1_1  and  N2_4 
REMARK    2  A    between atoms: N3_6  and  C1_8 
REMARK    3  A    between atoms: C2_11  and  N5_12 
REMARK    4  A    between atoms: C3_17  and  N7_18 
REMARK    5  A    between atoms: N7_18  and  C4_20 
REMARK    6  A    between atoms: C4_20  and  C5_21 
REMARK    7  A    between atoms: C5_21  and  N8_22 
ROOT
HETATM    1  C1  UNL     1      47.376  15.423 -11.044  1.00  0.00     0.727 A 
HETATM    2  N4  UNL     1      46.917  14.338 -11.730  1.00  0.00    -0.020 N 
ATOM      3  H4  UNL     1      46.683  13.481 -11.230  1.00  0.00     0.203 HD
HETATM    4  C2  UNL     1      46.772  14.398 -13.066  1.00  0.00     0.705 A 
HETATM    5  N6  UNL     1      47.084  15.534 -13.717  1.00  0.00    -0.022 N 
ATOM      6  H6  UNL     1      46.972  15.570 -14.731  1.00  0.00     0.203 HD
HETATM    7  C3  UNL     1      47.540  16.624 -13.071  1.00  0.00     0.707 A 
HETATM    8  N9  UNL     1      47.676  16.543 -11.736  1.00  0.00    -0.020 N 
ATOM      9  H9  UNL     1      48.019  17.357 -11.226  1.00  0.00     0.203 HD
ENDROOT
BRANCH   7  10
HETATM   10  N7  UNL     1      47.809  17.655 -13.772  1.00  0.00    -0.223 N 
ATOM     11  H7  UNL     1      48.156  18.472 -13.270  1.00  0.00     0.177 HD
BRANCH  10  12
HETATM   12  C4  UNL     1      47.674  17.780 -15.182  1.00  0.00     0.165 C 
BRANCH  12  13
HETATM   13  C5  UNL     1      48.471  18.977 -15.718  1.00  0.00     0.249 C 
BRANCH  13  14
HETATM   14  N8  UNL     1      49.746  18.551 -16.240  1.00  0.00    -0.078 N 
ATOM     15  H83 UNL     1      50.458  18.509 -15.511  1.00  0.00     0.274 HD
ATOM     16  H82 UNL     1      49.736  17.565 -16.502  1.00  0.00     0.274 HD
ATOM     17  H81 UNL     1      50.036  19.145 -17.017  1.00  0.00     0.274 HD
ENDBRANCH  13  14
ENDBRANCH  12  13
ENDBRANCH  10  12
ENDBRANCH   7  10
BRANCH   4  18
HETATM   18  N5  UNL     1      46.336  13.373 -13.731  1.00  0.00    -0.234 N 
ATOM     19  H52 UNL     1      46.042  12.534 -13.232  1.00  0.00     0.174 HD
ATOM     20  H51 UNL     1      46.284  13.398 -14.750  1.00  0.00     0.174 HD
ENDBRANCH   4  18
BRANCH   1  21
HETATM   21  N3  UNL     1      47.504  15.297  -9.653  1.00  0.00    -0.117 N 
HETATM   22  N2  UNL     1      47.521  14.196  -9.091  1.00  0.00    -0.235 N 
ATOM     23  H2  UNL     1      48.515  13.968  -9.101  1.00  0.00     0.208 HD
ATOM     24  H3  UNL     1      47.587  16.141  -9.087  1.00  0.00     0.207 HD
BRANCH  22  25
HETATM   25  N1  UNL     1      47.038  13.212  -8.526  1.00  0.00    -0.330 N 
ATOM     26  H12 UNL     1      46.048  13.436  -8.620  1.00  0.00     0.178 HD
ATOM     27  H11 UNL     1      47.055  12.322  -8.028  1.00  0.00     0.178 HD
ENDBRANCH  22  25
ENDBRANCH   1  21
TORSDOF 7
ENDMDL
MODEL 3
REMARK VINA RESULT: -5.271916217      1.726      5.594
REMARK  7 active torsions:
REMARK  status: ('A' for Active; 'I' for Inactive)
REMARK    1  A    between atoms: N1_1  and  N2_4 
REMARK    2  A    between atoms: N3_6  and  C1_8 
REMARK    3  A    between atoms: C2_11  and  N5_12 
REMARK    4  A    between atoms: C3_17  and  N7_18 
REMARK    5  A    between atoms: N7_18  and  C4_20 
REMARK    6  A    between atoms: C4_20  and  C5_21 
REMARK    7  A    between atoms: C5_21  and  N8_22 
ROOT
HETATM    1  C1  UNL     1      47.003  15.879 -13.493  1.00  0.00     0.727 A 
HETATM    2  N4  UNL     1      47.098  17.215 -13.245  1.00  0.00    -0.020 N 
ATOM      3  H4  UNL     1      46.847  17.887 -13.971  1.00  0.00     0.203 HD
HETATM    4  C2  UNL     1      47.524  17.649 -12.045  1.00  0.00     0.705 A 
HETATM    5  N6  UNL     1      47.854  16.755 -11.095  1.00  0.00    -0.022 N 
ATOM      6  H6  UNL     1      48.175  17.094 -10.188  1.00  0.00     0.203 HD
HETATM    7  C3  UNL     1      47.771  15.428 -11.306  1.00  0.00     0.707 A 
HETATM    8  N9  UNL     1      47.343  15.016 -12.512  1.00  0.00    -0.020 N 
ATOM      9  H9  UNL     1      47.273  14.015 -12.693  1.00  0.00     0.203 HD
ENDROOT
BRANCH   7  10
HETATM   10  N7  UNL     1      48.105  14.657 -10.346  1.00  0.00    -0.223 N 
ATOM     11  H7  UNL     1      49.079  14.692 -10.048  1.00  0.00     0.177 HD
BRANCH  10  12
HETATM   12  C4  UNL     1      47.255  13.754  -9.649  1.00  0.00     0.165 C 
BRANCH  12  13
HETATM   13  C5  UNL     1      46.144  14.496  -8.896  1.00  0.00     0.249 C 
BRANCH  13  14
HETATM   14  N8  UNL     1      44.853  14.204  -9.469  1.00  0.00    -0.078 N 
ATOM     15  H83 UNL     1      44.695  14.728 -10.329  1.00  0.00     0.274 HD
ATOM     16  H82 UNL     1      44.816  13.260  -9.854  1.00  0.00     0.274 HD
ATOM     17  H81 UNL     1      44.110  14.363  -8.788  1.00  0.00     0.274 HD
ENDBRANCH  13  14
ENDBRANCH  12  13
ENDBRANCH  10  12
ENDBRANCH   7  10
BRANCH   4  18
HETATM   18  N5  UNL     1      47.619  18.919 -11.796  1.00  0.00    -0.234 N 
ATOM     19  H52 UNL     1      47.429  19.596 -12.535  1.00  0.00     0.174 HD
ATOM     20  H51 UNL     1      47.881  19.249 -10.867  1.00  0.00     0.174 HD
ENDBRANCH   4  18
BRANCH   1  21
HETATM   21  N3  UNL     1      46.553  15.491 -14.764  1.00  0.00    -0.117 N 
HETATM   22  N2  UNL     1      46.745  16.184 -15.769  1.00  0.00    -0.235 N 
ATOM     23  H2  UNL     1      47.647  15.839 -16.095  1.00  0.00     0.208 HD
ATOM     24  H3  UNL     1      46.052  14.608 -14.862  1.00  0.00     0.207 HD
BRANCH  22  25
HETATM   25  N1  UNL     1      46.483  17.049 -16.608  1.00  0.00    -0.330 N 
ATOM     26  H12 UNL     1      45.786  17.580 -16.086  1.00  0.00     0.178 HD
ATOM     27  H11 UNL     1      46.556  17.531 -17.504  1.00  0.00     0.178 HD
ENDBRANCH  22  25
ENDBRANCH   1  21
TORSDOF 7
ENDMDL
MODEL 4
REMARK VINA RESULT: -5.187311383      1.203      5.429
REMARK  7 active torsions:
REMARK  status: ('A' for Active; 'I' for Inactive)
REMARK    1  A    between atoms: N1_1  and  N2_4 
REMARK    2  A    between atoms: N3_6  and  C1_8 
REMARK    3  A    between atoms: C2_11  and  N5_12 
REMARK    4  A    between atoms: C3_17  and  N7_18 
REMARK    5  A    between atoms: N7_18  and  C4_20 
REMARK    6  A    between atoms: C4_20  and  C5_21 
REMARK    7  A    between atoms: C5_21  and  N8_22 
ROOT
HETATM    1  C1  UNL     1      46.970  16.438 -14.500  1.00  0.00     0.727 A 
HETATM    2  N4  UNL     1      46.500  15.179 -14.727  1.00  0.00    -0.020 N 
ATOM      3  H4  UNL     1      46.130  14.932 -15.645  1.00  0.00     0.203 HD
HETATM    4  C2  UNL     1      46.525  14.263 -13.743  1.00  0.00     0.705 A 
HETATM    5  N6  UNL     1      47.015  14.599 -12.535  1.00  0.00    -0.022 N 
ATOM      6  H6  UNL     1      47.029  13.898 -11.794  1.00  0.00     0.203 HD
HETATM    7  C3  UNL     1      47.487  15.834 -12.276  1.00  0.00     0.707 A 
HETATM    8  N9  UNL     1      47.454  16.734 -13.275  1.00  0.00    -0.020 N 
ATOM      9  H9  UNL     1      47.807  17.674 -13.100  1.00  0.00     0.203 HD
ENDROOT
BRANCH   7  10
HETATM   10  N7  UNL     1      47.932  16.060 -11.103  1.00  0.00    -0.223 N 
ATOM     11  H7  UNL     1      48.733  16.686 -11.029  1.00  0.00     0.177 HD
BRANCH  10  12
HETATM   12  C4  UNL     1      47.424  15.527  -9.886  1.00  0.00     0.165 C 
BRANCH  12  13
HETATM   13  C5  UNL     1      48.060  14.170  -9.559  1.00  0.00     0.249 C 
BRANCH  13  14
HETATM   14  N8  UNL     1      47.125  13.321  -8.862  1.00  0.00    -0.078 N 
ATOM     15  H83 UNL     1      46.829  13.732  -7.977  1.00  0.00     0.274 HD
ATOM     16  H82 UNL     1      46.219  13.294  -9.331  1.00  0.00     0.274 HD
ATOM     17  H81 UNL     1      47.511  12.386  -8.733  1.00  0.00     0.274 HD
ENDBRANCH  13  14
ENDBRANCH  12  13
ENDBRANCH  10  12
ENDBRANCH   7  10
BRANCH   4  18
HETATM   18  N5  UNL     1      46.081  13.061 -13.945  1.00  0.00    -0.234 N 
ATOM     19  H52 UNL     1      45.091  12.915 -14.149  1.00  0.00     0.174 HD
ATOM     20  H51 UNL     1      46.711  12.260 -13.905  1.00  0.00     0.174 HD
ENDBRANCH   4  18
BRANCH   1  21
HETATM   21  N3  UNL     1      46.917  17.347 -15.567  1.00  0.00    -0.117 N 
HETATM   22  N2  UNL     1      46.828  16.976 -16.743  1.00  0.00    -0.235 N 
ATOM     23  H2  UNL     1      45.818  16.923 -16.872  1.00  0.00     0.208 HD
ATOM     24  H3  UNL     1      46.953  18.346 -15.367  1.00  0.00     0.207 HD
BRANCH  22  25
HETATM   25  N1  UNL     1      47.246  16.633 -17.851  1.00  0.00    -0.330 N 
ATOM     26  H12 UNL     1      47.958  17.351 -17.988  1.00  0.00     0.178 HD
ATOM     27  H11 UNL     1      47.293  16.060 -18.693  1.00  0.00     0.178 HD
ENDBRANCH  22  25
ENDBRANCH   1  21
TORSDOF 7
ENDMDL
MODEL 5
REMARK VINA RESULT: -5.104741634      1.426      2.556
REMARK  7 active torsions:
REMARK  status: ('A' for Active; 'I' for Inactive)
REMARK    1  A    between atoms: N1_1  and  N2_4 
REMARK    2  A    between atoms: N3_6  and  C1_8 
REMARK    3  A    between atoms: C2_11  and  N5_12 
REMARK    4  A    between atoms: C3_17  and  N7_18 
REMARK    5  A    between atoms: N7_18  and  C4_20 
REMARK    6  A    between atoms: C4_20  and  C5_21 
REMARK    7  A    between atoms: C5_21  and  N8_22 
ROOT
HETATM    1  C1  UNL     1      47.445  15.677 -11.679  1.00  0.00     0.727 A 
HETATM    2  N4  UNL     1      47.583  16.917 -11.131  1.00  0.00    -0.020 N 
ATOM      3  H4  UNL     1      47.699  17.019 -10.122  1.00  0.00     0.203 HD
HETATM    4  C2  UNL     1      47.566  18.007 -11.919  1.00  0.00     0.705 A 
HETATM    5  N6  UNL     1      47.411  17.863 -13.248  1.00  0.00    -0.022 N 
ATOM      6  H6  UNL     1      47.398  18.696 -13.837  1.00  0.00     0.203 HD
HETATM    7  C3  UNL     1      47.272  16.653 -13.822  1.00  0.00     0.707 A 
HETATM    8  N9  UNL     1      47.293  15.577 -13.016  1.00  0.00    -0.020 N 
ATOM      9  H9  UNL     1      47.190  14.651 -13.431  1.00  0.00     0.203 HD
ENDROOT
BRANCH   7  10
HETATM   10  N7  UNL     1      47.131  16.615 -15.089  1.00  0.00    -0.223 N 
ATOM     11  H7  UNL     1      46.768  15.748 -15.484  1.00  0.00     0.177 HD
BRANCH  10  12
HETATM   12  C4  UNL     1      47.429  17.660 -16.007  1.00  0.00     0.165 C 
BRANCH  12  13
HETATM   13  C5  UNL     1      46.679  17.472 -17.333  1.00  0.00     0.249 C 
BRANCH  13  14
HETATM   14  N8  UNL     1      47.443  16.654 -18.242  1.00  0.00    -0.078 N 
ATOM     15  H83 UNL     1      48.292  17.126 -18.553  1.00  0.00     0.274 HD
ATOM     16  H82 UNL     1      47.874  15.861 -17.765  1.00  0.00     0.274 HD
ATOM     17  H81 UNL     1      46.869  16.354 -19.030  1.00  0.00     0.274 HD
ENDBRANCH  13  14
ENDBRANCH  12  13
ENDBRANCH  10  12
ENDBRANCH   7  10
BRANCH   4  18
HETATM   18  N5  UNL     1      47.696  19.194 -11.410  1.00  0.00    -0.234 N 
ATOM     19  H52 UNL     1      48.558  19.718 -11.563  1.00  0.00     0.174 HD
ATOM     20  H51 UNL     1      46.944  19.610 -10.860  1.00  0.00     0.174 HD
ENDBRANCH   4  18
BRANCH   1  21
HETATM   21  N3  UNL     1      47.471  14.581 -10.804  1.00  0.00    -0.117 N 
HETATM   22  N2  UNL     1      46.438  14.078 -10.348  1.00  0.00    -0.235 N 
ATOM     23  H2  UNL     1      46.213  13.379 -11.056  1.00  0.00     0.208 HD
ATOM     24  H3  UNL     1      48.372  14.185 -10.535  1.00  0.00     0.207 HD
BRANCH  22  25
HETATM   25  N1  UNL     1      45.520  13.928  -9.539  1.00  0.00    -0.330 N 
ATOM     26  H12 UNL     1      45.673  12.950  -9.295  1.00  0.00     0.178 HD
ATOM     27  H11 UNL     1      44.712  14.210  -8.983  1.00  0.00     0.178 HD
ENDBRANCH  22  25
ENDBRANCH   1  21
TORSDOF 7
ENDMDL
