MODEL 1
REMARK VINA RESULT: -5.510967400      0.000      0.000
REMARK  6 active torsions:
REMARK  status: ('A' for Active; 'I' for Inactive)
REMARK    1  A    between atoms: N1_1  and  C1_5 
REMARK    2  A    between atoms: C1_5  and  C2_6 
REMARK    3  A    between atoms: C2_6  and  N2_7 
REMARK    4  A    between atoms: N2_7  and  C3_9 
REMARK    5  A    between atoms: C3_9  and  C4_10 
REMARK    6  A    between atoms: N5_15  and  O1_16 
ROOT
HETATM    1  C4  UNL     1      47.431  15.278 -11.781  1.00  0.00     0.138 A 
HETATM    2  N3  UNL     1      47.601  16.393 -12.427  1.00  0.00    -0.311 N 
ATOM      3  H3  UNL     1      48.006  17.167 -11.901  1.00  0.00     0.170 HD
HETATM    4  C5  UNL     1      47.288  16.645 -13.767  1.00  0.00     0.239 A 
HETATM    5  N4  UNL     1      47.527  17.904 -14.375  1.00  0.00    -0.059 NA
HETATM    6  N5  UNL     1      46.771  15.677 -14.452  1.00  0.00    -0.116 N 
HETATM    7  N6  UNL     1      46.547  14.441 -13.848  1.00  0.00    -0.212 N 
ATOM      8  H6  UNL     1      46.136  13.687 -14.399  1.00  0.00     0.211 HD
HETATM    9  N7  UNL     1      46.873  14.203 -12.492  1.00  0.00    -0.268 N 
ATOM     10  H7  UNL     1      46.711  13.297 -12.052  1.00  0.00     0.190 HD
ENDROOT
BRANCH   1  11
HETATM   11  C3  UNL     1      47.843  15.251 -10.346  1.00  0.00     0.133 C 
BRANCH  11  12
HETATM   12  N2  UNL     1      47.893  13.942  -9.839  1.00  0.00    -0.394 N 
ATOM     13  H2  UNL     1      48.715  13.355  -9.985  1.00  0.00     0.159 HD
BRANCH  12  14
HETATM   14  C2  UNL     1      46.780  13.462  -9.125  1.00  0.00     0.146 C 
BRANCH  14  15
HETATM   15  C1  UNL     1      45.800  14.596  -8.765  1.00  0.00     0.249 C 
BRANCH  15  16
HETATM   16  N1  UNL     1      44.549  14.287  -9.390  1.00  0.00    -0.078 N 
ATOM     17  H13 UNL     1      44.011  13.583  -8.883  1.00  0.00     0.274 HD
ATOM     18  H12 UNL     1      43.870  15.045  -9.322  1.00  0.00     0.274 HD
ATOM     19  H11 UNL     1      44.751  14.018 -10.353  1.00  0.00     0.274 HD
ENDBRANCH  15  16
ENDBRANCH  14  15
ENDBRANCH  12  14
ENDBRANCH  11  12
ENDBRANCH   1  11
BRANCH   6  20
HETATM   20  O1  UNL     1      46.442  15.860 -15.770  1.00  0.00    -0.264 OA
ATOM     21  H1  UNL     1      45.598  15.572 -16.099  1.00  0.00     0.247 HD
ENDBRANCH   6  20
TORSDOF 6
ENDMDL
MODEL 2
REMARK VINA RESULT: -5.478658799      2.421      5.199
REMARK  6 active torsions:
REMARK  status: ('A' for Active; 'I' for Inactive)
REMARK    1  A    between atoms: N1_1  and  C1_5 
REMARK    2  A    between atoms: C1_5  and  C2_6 
REMARK    3  A    between atoms: C2_6  and  N2_7 
REMARK    4  A    between atoms: N2_7  and  C3_9 
REMARK    5  A    between atoms: C3_9  and  C4_10 
REMARK    6  A    between atoms: N5_15  and  O1_16 
ROOT
HETATM    1  C4  UNL     1      47.413  16.272 -12.109  1.00  0.00     0.138 A 
HETATM    2  N3  UNL     1      47.403  16.367 -10.812  1.00  0.00    -0.311 N 
ATOM      3  H3  UNL     1      47.604  17.288 -10.421  1.00  0.00     0.170 HD
HETATM    4  C5  UNL     1      47.146  15.343  -9.896  1.00  0.00     0.239 A 
HETATM    5  N4  UNL     1      47.151  15.563  -8.495  1.00  0.00    -0.059 NA
HETATM    6  N5  UNL     1      46.891  14.166 -10.371  1.00  0.00    -0.116 N 
HETATM    7  N6  UNL     1      46.880  13.962 -11.750  1.00  0.00    -0.212 N 
ATOM      8  H6  UNL     1      46.680  13.029 -12.111  1.00  0.00     0.211 HD
HETATM    9  N7  UNL     1      47.140  15.011 -12.662  1.00  0.00    -0.268 N 
ATOM     10  H7  UNL     1      47.129  14.860 -13.671  1.00  0.00     0.190 HD
ENDROOT
BRANCH   1  11
HETATM   11  C3  UNL     1      47.718  17.514 -12.882  1.00  0.00     0.133 C 
BRANCH  11  12
HETATM   12  N2  UNL     1      48.028  17.234 -14.222  1.00  0.00    -0.394 N 
ATOM     13  H2  UNL     1      48.499  16.366 -14.480  1.00  0.00     0.159 HD
BRANCH  12  14
HETATM   14  C2  UNL     1      47.672  18.181 -15.200  1.00  0.00     0.146 C 
BRANCH  14  15
HETATM   15  C1  UNL     1      46.961  17.523 -16.398  1.00  0.00     0.249 C 
BRANCH  15  16
HETATM   16  N1  UNL     1      46.338  16.326 -15.915  1.00  0.00    -0.078 N 
ATOM     17  H13 UNL     1      46.998  15.563 -15.768  1.00  0.00     0.274 HD
ATOM     18  H12 UNL     1      46.012  16.406 -14.952  1.00  0.00     0.274 HD
ATOM     19  H11 UNL     1      45.593  16.090 -16.570  1.00  0.00     0.274 HD
ENDBRANCH  15  16
ENDBRANCH  14  15
ENDBRANCH  12  14
ENDBRANCH  11  12
ENDBRANCH   1  11
BRANCH   6  20
HETATM   20  O1  UNL     1      46.631  13.120  -9.526  1.00  0.00    -0.264 OA
ATOM     21  H1  UNL     1      45.874  13.142  -8.952  1.00  0.00     0.247 HD
ENDBRANCH   6  20
TORSDOF 6
ENDMDL
MODEL 3
REMARK VINA RESULT: -5.455452994      0.952      1.860
REMARK  6 active torsions:
REMARK  status: ('A' for Active; 'I' for Inactive)
REMARK    1  A    between atoms: N1_1  and  C1_5 
REMARK    2  A    between atoms: C1_5  and  C2_6 
REMARK    3  A    between atoms: C2_6  and  N2_7 
REMARK    4  A    between atoms: N2_7  and  C3_9 
REMARK    5  A    between atoms: C3_9  and  C4_10 
REMARK    6  A    between atoms: N5_15  and  O1_16 
ROOT
HETATM    1  C4  UNL     1      47.662  15.871 -11.096  1.00  0.00     0.138 A 
HETATM    2  N3  UNL     1      47.293  15.029 -12.016  1.00  0.00    -0.311 N 
ATOM      3  H3  UNL     1      47.187  14.056 -11.728  1.00  0.00     0.170 HD
HETATM    4  C5  UNL     1      47.024  15.315 -13.358  1.00  0.00     0.239 A 
HETATM    5  N4  UNL     1      46.615  14.316 -14.277  1.00  0.00    -0.059 NA
HETATM    6  N5  UNL     1      47.153  16.543 -13.745  1.00  0.00    -0.116 N 
HETATM    7  N6  UNL     1      47.548  17.521 -12.832  1.00  0.00    -0.212 N 
ATOM      8  H6  UNL     1      47.649  18.485 -13.151  1.00  0.00     0.211 HD
HETATM    9  N7  UNL     1      47.813  17.213 -11.477  1.00  0.00    -0.268 N 
ATOM     10  H7  UNL     1      48.099  17.931 -10.811  1.00  0.00     0.190 HD
ENDROOT
BRANCH   1  11
HETATM   11  C3  UNL     1      47.893  15.325  -9.725  1.00  0.00     0.133 C 
BRANCH  11  12
HETATM   12  N2  UNL     1      47.865  13.921  -9.708  1.00  0.00    -0.394 N 
ATOM     13  H2  UNL     1      48.621  13.377 -10.125  1.00  0.00     0.159 HD
BRANCH  12  14
HETATM   14  C2  UNL     1      46.767  13.284  -9.102  1.00  0.00     0.146 C 
BRANCH  14  15
HETATM   15  C1  UNL     1      45.743  14.301  -8.565  1.00  0.00     0.249 C 
BRANCH  15  16
HETATM   16  N1  UNL     1      44.599  14.245  -9.426  1.00  0.00    -0.078 N 
ATOM     17  H13 UNL     1      43.735  14.527  -8.963  1.00  0.00     0.274 HD
ATOM     18  H12 UNL     1      44.604  14.967 -10.145  1.00  0.00     0.274 HD
ATOM     19  H11 UNL     1      44.557  13.301  -9.808  1.00  0.00     0.274 HD
ENDBRANCH  15  16
ENDBRANCH  14  15
ENDBRANCH  12  14
ENDBRANCH  11  12
ENDBRANCH   1  11
BRANCH   6  20
HETATM   20  O1  UNL     1      46.905  16.889 -15.047  1.00  0.00    -0.264 OA
ATOM     21  H1  UNL     1      47.278  17.683 -15.414  1.00  0.00     0.247 HD
ENDBRANCH   6  20
TORSDOF 6
ENDMDL
MODEL 4
REMARK VINA RESULT: -5.433710656      2.639      5.360
REMARK  6 active torsions:
REMARK  status: ('A' for Active; 'I' for Inactive)
REMARK    1  A    between atoms: N1_1  and  C1_5 
REMARK    2  A    between atoms: C1_5  and  C2_6 
REMARK    3  A    between atoms: C2_6  and  N2_7 
REMARK    4  A    between atoms: N2_7  and  C3_9 
REMARK    5  A    between atoms: C3_9  and  C4_10 
REMARK    6  A    between atoms: N5_15  and  O1_16 
ROOT
HETATM    1  C4  UNL     1      47.529  16.076 -11.069  1.00  0.00     0.138 A 
HETATM    2  N3  UNL     1      46.475  16.014 -10.310  1.00  0.00    -0.311 N 
ATOM      3  H3  UNL     1      45.776  16.746 -10.440  1.00  0.00     0.170 HD
HETATM    4  C5  UNL     1      46.197  15.052  -9.334  1.00  0.00     0.239 A 
HETATM    5  N4  UNL     1      45.004  15.075  -8.567  1.00  0.00    -0.059 NA
HETATM    6  N5  UNL     1      47.071  14.116  -9.152  1.00  0.00    -0.116 N 
HETATM    7  N6  UNL     1      48.237  14.096  -9.916  1.00  0.00    -0.212 N 
ATOM      8  H6  UNL     1      48.920  13.354  -9.761  1.00  0.00     0.211 HD
HETATM    9  N7  UNL     1      48.500  15.077 -10.902  1.00  0.00    -0.268 N 
ATOM     10  H7  UNL     1      49.353  15.059 -11.462  1.00  0.00     0.190 HD
ENDROOT
BRANCH   1  11
HETATM   11  C3  UNL     1      47.602  17.206 -12.044  1.00  0.00     0.133 C 
BRANCH  11  12
HETATM   12  N2  UNL     1      47.476  16.763 -13.370  1.00  0.00    -0.394 N 
ATOM     13  H2  UNL     1      47.117  15.831 -13.579  1.00  0.00     0.159 HD
BRANCH  12  14
HETATM   14  C2  UNL     1      47.857  17.639 -14.404  1.00  0.00     0.146 C 
BRANCH  14  15
HETATM   15  C1  UNL     1      47.125  17.319 -15.721  1.00  0.00     0.249 C 
BRANCH  15  16
HETATM   16  N1  UNL     1      46.339  16.143 -15.493  1.00  0.00    -0.078 N 
ATOM     17  H13 UNL     1      46.543  15.391 -16.150  1.00  0.00     0.274 HD
ATOM     18  H12 UNL     1      46.599  15.647 -14.641  1.00  0.00     0.274 HD
ATOM     19  H11 UNL     1      45.360  16.429 -15.504  1.00  0.00     0.274 HD
ENDBRANCH  15  16
ENDBRANCH  14  15
ENDBRANCH  12  14
ENDBRANCH  11  12
ENDBRANCH   1  11
BRANCH   6  20
HETATM   20  O1  UNL     1      46.859  13.143  -8.211  1.00  0.00    -0.264 OA
ATOM     21  H1  UNL     1      47.587  12.781  -7.720  1.00  0.00     0.247 HD
ENDBRANCH   6  20
TORSDOF 6
ENDMDL
MODEL 5
REMARK VINA RESULT: -5.382278023      1.404      1.666
REMARK  6 active torsions:
REMARK  status: ('A' for Active; 'I' for Inactive)
REMARK    1  A    between atoms: N1_1  and  C1_5 
REMARK    2  A    between atoms: C1_5  and  C2_6 
REMARK    3  A    between atoms: C2_6  and  N2_7 
REMARK    4  A    between atoms: N2_7  and  C3_9 
REMARK    5  A    between atoms: C3_9  and  C4_10 
REMARK    6  A    between atoms: N5_15  and  O1_16 
ROOT
HETATM    1  C4  UNL     1      47.580  15.937 -12.843  1.00  0.00     0.138 A 
HETATM    2  N3  UNL     1      47.763  17.069 -13.458  1.00  0.00    -0.311 N 
ATOM      3  H3  UNL     1      48.291  17.781 -12.954  1.00  0.00     0.170 HD
HETATM    4  C5  UNL     1      47.315  17.412 -14.737  1.00  0.00     0.239 A 
HETATM    5  N4  UNL     1      47.583  18.678 -15.317  1.00  0.00    -0.059 NA
HETATM    6  N5  UNL     1      46.642  16.523 -15.394  1.00  0.00    -0.116 N 
HETATM    7  N6  UNL     1      46.391  15.278 -14.819  1.00  0.00    -0.212 N 
ATOM      8  H6  UNL     1      45.857  14.587 -15.346  1.00  0.00     0.211 HD
HETATM    9  N7  UNL     1      46.855  14.947 -13.524  1.00  0.00    -0.268 N 
ATOM     10  H7  UNL     1      46.672  14.034 -13.106  1.00  0.00     0.190 HD
ENDROOT
BRANCH   1  11
HETATM   11  C3  UNL     1      48.157  15.805 -11.472  1.00  0.00     0.133 C 
BRANCH  11  12
HETATM   12  N2  UNL     1      47.228  16.150 -10.477  1.00  0.00    -0.394 N 
ATOM     13  H2  UNL     1      46.945  17.121 -10.338  1.00  0.00     0.159 HD
BRANCH  12  14
HETATM   14  C2  UNL     1      46.696  15.122  -9.677  1.00  0.00     0.146 C 
BRANCH  14  15
HETATM   15  C1  UNL     1      47.662  13.927  -9.567  1.00  0.00     0.249 C 
BRANCH  15  16
HETATM   16  N1  UNL     1      47.008  12.926  -8.778  1.00  0.00    -0.078 N 
ATOM     17  H13 UNL     1      46.832  12.064  -9.293  1.00  0.00     0.274 HD
ATOM     18  H12 UNL     1      47.610  12.528  -8.058  1.00  0.00     0.274 HD
ATOM     19  H11 UNL     1      46.160  13.347  -8.401  1.00  0.00     0.274 HD
ENDBRANCH  15  16
ENDBRANCH  14  15
ENDBRANCH  12  14
ENDBRANCH  11  12
ENDBRANCH   1  11
BRANCH   6  20
HETATM   20  O1  UNL     1      46.175  16.798 -16.652  1.00  0.00    -0.264 OA
ATOM     21  H1  UNL     1      45.429  16.325 -17.002  1.00  0.00     0.247 HD
ENDBRANCH   6  20
TORSDOF 6
ENDMDL
