MODEL 1
REMARK VINA RESULT: -4.918880958      0.000      0.000
REMARK  7 active torsions:
REMARK  status: ('A' for Active; 'I' for Inactive)
REMARK    1  A    between atoms: C2_2  and  C4_4 
REMARK    2  A    between atoms: C4_4  and  C5_5 
REMARK    3  A    between atoms: C5_5  and  N1_6 
REMARK    4  A    between atoms: N1_6  and  C6_9 
REMARK    5  A    between atoms: C6_9  and  C7_10 
REMARK    6  A    between atoms: C7_10  and  C8_11 
REMARK    7  A    between atoms: C8_11  and  C9_12 
ROOT
HETATM    1  N1  UNL     1       6.929 -19.976  -1.819  1.00  0.00    -0.075 N 
ATOM      2  H11 UNL     1       7.409 -19.083  -1.927  1.00  0.00     0.277 HD
ATOM      3  H12 UNL     1       6.129 -19.791  -2.424  1.00  0.00     0.277 HD
ENDROOT
BRANCH   1   4
HETATM    4  C5  UNL     1       6.533 -20.207  -0.468  1.00  0.00     0.232 C 
BRANCH   4   5
HETATM    5  C4  UNL     1       7.464 -21.051   0.351  1.00  0.00     0.031 C 
BRANCH   5   6
HETATM    6  C2  UNL     1       6.678 -21.810   1.385  1.00  0.00    -0.021 C 
HETATM    7  C1  UNL     1       7.233 -23.163   1.727  1.00  0.00     0.009 C 
HETATM    8  C3  UNL     1       5.241 -21.886   0.910  1.00  0.00     0.009 C 
ENDBRANCH   5   6
ENDBRANCH   4   5
ENDBRANCH   1   4
BRANCH   1   9
HETATM    9  C6  UNL     1       7.717 -21.067  -2.295  1.00  0.00     0.232 C 
BRANCH   9  10
HETATM   10  C7  UNL     1       7.110 -21.702  -3.509  1.00  0.00     0.028 C 
BRANCH  10  11
HETATM   11  C8  UNL     1       6.667 -23.095  -3.193  1.00  0.00     0.006 C 
BRANCH  11  12
HETATM   12  C9  UNL     1       7.580 -23.767  -2.187  1.00  0.00    -0.014 A 
HETATM   13  C10 UNL     1       7.178 -25.034  -1.546  1.00  0.00     0.005 A 
HETATM   14  C11 UNL     1       8.155 -25.092  -2.678  1.00  0.00     0.005 A 
ENDBRANCH  11  12
ENDBRANCH  10  11
ENDBRANCH   9  10
ENDBRANCH   1   9
TORSDOF 7
ENDMDL
MODEL 2
REMARK VINA RESULT: -4.892124369      1.967      3.181
REMARK  7 active torsions:
REMARK  status: ('A' for Active; 'I' for Inactive)
REMARK    1  A    between atoms: C2_2  and  C4_4 
REMARK    2  A    between atoms: C4_4  and  C5_5 
REMARK    3  A    between atoms: C5_5  and  N1_6 
REMARK    4  A    between atoms: N1_6  and  C6_9 
REMARK    5  A    between atoms: C6_9  and  C7_10 
REMARK    6  A    between atoms: C7_10  and  C8_11 
REMARK    7  A    between atoms: C8_11  and  C9_12 
ROOT
HETATM    1  N1  UNL     1       6.431 -23.564  -2.041  1.00  0.00    -0.075 N 
ATOM      2  H11 UNL     1       6.485 -22.874  -2.789  1.00  0.00     0.277 HD
ATOM      3  H12 UNL     1       5.435 -23.485  -1.835  1.00  0.00     0.277 HD
ENDROOT
BRANCH   1   4
HETATM    4  C5  UNL     1       7.237 -23.202  -0.922  1.00  0.00     0.232 C 
BRANCH   4   5
HETATM    5  C4  UNL     1       7.003 -21.829  -0.364  1.00  0.00     0.031 C 
BRANCH   5   6
HETATM    6  C2  UNL     1       6.563 -21.937   1.071  1.00  0.00    -0.021 C 
HETATM    7  C1  UNL     1       7.060 -23.160   1.788  1.00  0.00     0.009 C 
HETATM    8  C3  UNL     1       5.052 -21.831   1.101  1.00  0.00     0.009 C 
ENDBRANCH   5   6
ENDBRANCH   4   5
ENDBRANCH   1   4
BRANCH   1   9
HETATM    9  C6  UNL     1       6.778 -24.872  -2.495  1.00  0.00     0.232 C 
BRANCH   9  10
HETATM   10  C7  UNL     1       6.786 -24.956  -3.991  1.00  0.00     0.028 C 
BRANCH  10  11
HETATM   11  C8  UNL     1       7.350 -23.700  -4.574  1.00  0.00     0.006 C 
BRANCH  11  12
HETATM   12  C9  UNL     1       6.581 -23.247  -5.799  1.00  0.00    -0.014 A 
HETATM   13  C10 UNL     1       5.759 -22.022  -5.752  1.00  0.00     0.005 A 
HETATM   14  C11 UNL     1       7.107 -21.947  -6.400  1.00  0.00     0.005 A 
ENDBRANCH  11  12
ENDBRANCH  10  11
ENDBRANCH   9  10
ENDBRANCH   1   9
TORSDOF 7
ENDMDL
MODEL 3
REMARK VINA RESULT: -4.877385885      1.951      3.222
REMARK  7 active torsions:
REMARK  status: ('A' for Active; 'I' for Inactive)
REMARK    1  A    between atoms: C2_2  and  C4_4 
REMARK    2  A    between atoms: C4_4  and  C5_5 
REMARK    3  A    between atoms: C5_5  and  N1_6 
REMARK    4  A    between atoms: N1_6  and  C6_9 
REMARK    5  A    between atoms: C6_9  and  C7_10 
REMARK    6  A    between atoms: C7_10  and  C8_11 
REMARK    7  A    between atoms: C8_11  and  C9_12 
ROOT
HETATM    1  N1  UNL     1       7.271 -24.664  -1.641  1.00  0.00    -0.075 N 
ATOM      2  H11 UNL     1       6.278 -24.897  -1.632  1.00  0.00     0.277 HD
ATOM      3  H12 UNL     1       7.599 -25.379  -0.992  1.00  0.00     0.277 HD
ENDROOT
BRANCH   1   4
HETATM    4  C5  UNL     1       7.515 -23.347  -1.152  1.00  0.00     0.232 C 
BRANCH   4   5
HETATM    5  C4  UNL     1       6.298 -22.550  -0.783  1.00  0.00     0.031 C 
BRANCH   5   6
HETATM    6  C2  UNL     1       6.397 -22.116   0.654  1.00  0.00    -0.021 C 
HETATM    7  C1  UNL     1       7.063 -23.108   1.564  1.00  0.00     0.009 C 
HETATM    8  C3  UNL     1       5.003 -21.754   1.125  1.00  0.00     0.009 C 
ENDBRANCH   5   6
ENDBRANCH   4   5
ENDBRANCH   1   4
BRANCH   1   9
HETATM    9  C6  UNL     1       7.842 -24.820  -2.940  1.00  0.00     0.232 C 
BRANCH   9  10
HETATM   10  C7  UNL     1       6.792 -25.041  -3.986  1.00  0.00     0.028 C 
BRANCH  10  11
HETATM   11  C8  UNL     1       6.875 -23.976  -5.032  1.00  0.00     0.006 C 
BRANCH  11  12
HETATM   12  C9  UNL     1       6.182 -22.699  -4.599  1.00  0.00    -0.014 A 
HETATM   13  C10 UNL     1       6.952 -21.451  -4.436  1.00  0.00     0.005 A 
HETATM   14  C11 UNL     1       6.146 -21.629  -5.685  1.00  0.00     0.005 A 
ENDBRANCH  11  12
ENDBRANCH  10  11
ENDBRANCH   9  10
ENDBRANCH   1   9
TORSDOF 7
ENDMDL
MODEL 4
REMARK VINA RESULT: -4.868849653      1.899      3.205
REMARK  7 active torsions:
REMARK  status: ('A' for Active; 'I' for Inactive)
REMARK    1  A    between atoms: C2_2  and  C4_4 
REMARK    2  A    between atoms: C4_4  and  C5_5 
REMARK    3  A    between atoms: C5_5  and  N1_6 
REMARK    4  A    between atoms: N1_6  and  C6_9 
REMARK    5  A    between atoms: C6_9  and  C7_10 
REMARK    6  A    between atoms: C7_10  and  C8_11 
REMARK    7  A    between atoms: C8_11  and  C9_12 
ROOT
HETATM    1  N1  UNL     1       7.166 -22.617  -2.210  1.00  0.00    -0.075 N 
ATOM      2  H11 UNL     1       7.899 -22.476  -2.905  1.00  0.00     0.277 HD
ATOM      3  H12 UNL     1       6.598 -21.797  -2.423  1.00  0.00     0.277 HD
ENDROOT
BRANCH   1   4
HETATM    4  C5  UNL     1       7.678 -22.579  -0.879  1.00  0.00     0.232 C 
BRANCH   4   5
HETATM    5  C4  UNL     1       6.986 -23.466   0.113  1.00  0.00     0.031 C 
BRANCH   5   6
HETATM    6  C2  UNL     1       6.519 -22.644   1.283  1.00  0.00    -0.021 C 
HETATM    7  C1  UNL     1       5.228 -21.911   1.059  1.00  0.00     0.009 C 
HETATM    8  C3  UNL     1       7.647 -21.709   1.671  1.00  0.00     0.009 C 
ENDBRANCH   5   6
ENDBRANCH   4   5
ENDBRANCH   1   4
BRANCH   1   9
HETATM    9  C6  UNL     1       6.451 -23.833  -2.428  1.00  0.00     0.232 C 
BRANCH   9  10
HETATM   10  C7  UNL     1       6.813 -24.462  -3.738  1.00  0.00     0.028 C 
BRANCH  10  11
HETATM   11  C8  UNL     1       7.544 -23.479  -4.596  1.00  0.00     0.006 C 
BRANCH  11  12
HETATM   12  C9  UNL     1       6.742 -23.091  -5.823  1.00  0.00    -0.014 A 
HETATM   13  C10 UNL     1       5.796 -21.959  -5.768  1.00  0.00     0.005 A 
HETATM   14  C11 UNL     1       7.135 -21.734  -6.400  1.00  0.00     0.005 A 
ENDBRANCH  11  12
ENDBRANCH  10  11
ENDBRANCH   9  10
ENDBRANCH   1   9
TORSDOF 7
ENDMDL
MODEL 5
REMARK VINA RESULT: -4.840395600      1.481      2.215
REMARK  7 active torsions:
REMARK  status: ('A' for Active; 'I' for Inactive)
REMARK    1  A    between atoms: C2_2  and  C4_4 
REMARK    2  A    between atoms: C4_4  and  C5_5 
REMARK    3  A    between atoms: C5_5  and  N1_6 
REMARK    4  A    between atoms: N1_6  and  C6_9 
REMARK    5  A    between atoms: C6_9  and  C7_10 
REMARK    6  A    between atoms: C7_10  and  C8_11 
REMARK    7  A    between atoms: C8_11  and  C9_12 
ROOT
HETATM    1  N1  UNL     1       8.457 -19.183   0.297  1.00  0.00    -0.075 N 
ATOM      2  H11 UNL     1       9.269 -18.567   0.277  1.00  0.00     0.277 HD
ATOM      3  H12 UNL     1       7.933 -18.715   1.037  1.00  0.00     0.277 HD
ENDROOT
BRANCH   1   4
HETATM    4  C5  UNL     1       8.808 -20.518   0.655  1.00  0.00     0.232 C 
BRANCH   4   5
HETATM    5  C4  UNL     1       7.954 -21.158   1.710  1.00  0.00     0.031 C 
BRANCH   5   6
HETATM    6  C2  UNL     1       7.000 -22.127   1.066  1.00  0.00    -0.021 C 
HETATM    7  C1  UNL     1       5.591 -21.625   0.932  1.00  0.00     0.009 C 
HETATM    8  C3  UNL     1       7.072 -23.429   1.837  1.00  0.00     0.009 C 
ENDBRANCH   5   6
ENDBRANCH   4   5
ENDBRANCH   1   4
BRANCH   1   9
HETATM    9  C6  UNL     1       7.751 -19.175  -0.943  1.00  0.00     0.232 C 
BRANCH   9  10
HETATM   10  C7  UNL     1       8.276 -20.212  -1.888  1.00  0.00     0.028 C 
BRANCH  10  11
HETATM   11  C8  UNL     1       7.141 -20.946  -2.529  1.00  0.00     0.006 C 
BRANCH  11  12
HETATM   12  C9  UNL     1       7.422 -22.431  -2.650  1.00  0.00    -0.014 A 
HETATM   13  C10 UNL     1       6.378 -23.417  -2.310  1.00  0.00     0.005 A 
HETATM   14  C11 UNL     1       6.621 -23.112  -3.755  1.00  0.00     0.005 A 
ENDBRANCH  11  12
ENDBRANCH  10  11
ENDBRANCH   9  10
ENDBRANCH   1   9
TORSDOF 7
ENDMDL
