MODEL 1
REMARK VINA RESULT: -5.549676680      0.000      0.000
REMARK  7 active torsions:
REMARK  status: ('A' for Active; 'I' for Inactive)
REMARK    1  A    between atoms: C2_2  and  C3_3 
REMARK    2  A    between atoms: C3_3  and  C4_4 
REMARK    3  A    between atoms: C4_4  and  N1_5 
REMARK    4  A    between atoms: N1_5  and  C5_8 
REMARK    5  A    between atoms: C5_8  and  C6_9 
REMARK    6  A    between atoms: C6_9  and  C7_10 
REMARK    7  A    between atoms: C7_10  and  C8_11 
ROOT
HETATM    1  C5  UNL     1       7.700 -24.070  -3.681  1.00  0.00     0.232 C 
ENDROOT
BRANCH   1   2
HETATM    2  N1  UNL     1       7.672 -23.029  -4.654  1.00  0.00    -0.075 N 
ATOM      3  H12 UNL     1       8.609 -22.814  -4.994  1.00  0.00     0.277 HD
ATOM      4  H11 UNL     1       7.444 -22.130  -4.228  1.00  0.00     0.277 HD
BRANCH   2   5
HETATM    5  C4  UNL     1       6.762 -23.336  -5.766  1.00  0.00     0.236 C 
BRANCH   5   6
HETATM    6  C3  UNL     1       5.804 -22.094  -5.815  1.00  0.00     0.054 C 
BRANCH   6   7
HETATM    7  C2  UNL     1       6.712 -20.956  -5.396  1.00  0.00    -0.035 C 
HETATM    8  C1  UNL     1       6.399 -19.713  -5.337  1.00  0.00     0.007 C 
ENDBRANCH   6   7
ENDBRANCH   5   6
ENDBRANCH   2   5
ENDBRANCH   1   2
BRANCH   1   9
HETATM    9  C6  UNL     1       6.677 -23.775  -2.565  1.00  0.00     0.028 C 
BRANCH   9  10
HETATM   10  C7  UNL     1       7.090 -22.453  -1.902  1.00  0.00     0.006 C 
BRANCH  10  11
HETATM   11  C8  UNL     1       6.527 -22.396  -0.520  1.00  0.00    -0.014 C 
HETATM   12  C9  UNL     1       6.982 -23.622   0.297  1.00  0.00     0.004 C 
HETATM   13  C10 UNL     1       7.088 -23.059   1.685  1.00  0.00     0.000 C 
HETATM   14  C11 UNL     1       7.790 -21.720   1.452  1.00  0.00     0.000 C 
HETATM   15  C12 UNL     1       6.984 -21.187   0.265  1.00  0.00     0.004 C 
ENDBRANCH  10  11
ENDBRANCH   9  10
ENDBRANCH   1   9
TORSDOF 7
ENDMDL
MODEL 2
REMARK VINA RESULT: -5.548655242      0.817      1.089
REMARK  7 active torsions:
REMARK  status: ('A' for Active; 'I' for Inactive)
REMARK    1  A    between atoms: C2_2  and  C3_3 
REMARK    2  A    between atoms: C3_3  and  C4_4 
REMARK    3  A    between atoms: C4_4  and  N1_5 
REMARK    4  A    between atoms: N1_5  and  C5_8 
REMARK    5  A    between atoms: C5_8  and  C6_9 
REMARK    6  A    between atoms: C6_9  and  C7_10 
REMARK    7  A    between atoms: C7_10  and  C8_11 
ROOT
HETATM    1  C5  UNL     1       6.926 -24.593  -3.043  1.00  0.00     0.232 C 
ENDROOT
BRANCH   1   2
HETATM    2  N1  UNL     1       8.043 -24.339  -3.892  1.00  0.00    -0.075 N 
ATOM      3  H12 UNL     1       8.273 -25.158  -4.454  1.00  0.00     0.277 HD
ATOM      4  H11 UNL     1       8.906 -24.264  -3.354  1.00  0.00     0.277 HD
BRANCH   2   5
HETATM    5  C4  UNL     1       7.837 -23.155  -4.736  1.00  0.00     0.236 C 
BRANCH   5   6
HETATM    6  C3  UNL     1       6.536 -23.496  -5.544  1.00  0.00     0.054 C 
BRANCH   6   7
HETATM    7  C2  UNL     1       5.954 -22.127  -5.832  1.00  0.00    -0.035 C 
HETATM    8  C1  UNL     1       6.367 -21.009  -5.358  1.00  0.00     0.007 C 
ENDBRANCH   6   7
ENDBRANCH   5   6
ENDBRANCH   2   5
ENDBRANCH   1   2
BRANCH   1   9
HETATM    9  C6  UNL     1       7.203 -24.040  -1.630  1.00  0.00     0.028 C 
BRANCH   9  10
HETATM   10  C7  UNL     1       6.414 -22.731  -1.486  1.00  0.00     0.006 C 
BRANCH  10  11
HETATM   11  C8  UNL     1       6.254 -22.406  -0.038  1.00  0.00    -0.014 C 
HETATM   12  C9  UNL     1       6.928 -23.486   0.832  1.00  0.00     0.004 C 
HETATM   13  C10 UNL     1       7.410 -22.691   2.012  1.00  0.00     0.000 C 
HETATM   14  C11 UNL     1       8.008 -21.445   1.355  1.00  0.00     0.000 C 
HETATM   15  C12 UNL     1       6.900 -21.098   0.358  1.00  0.00     0.004 C 
ENDBRANCH  10  11
ENDBRANCH   9  10
ENDBRANCH   1   9
TORSDOF 7
ENDMDL
MODEL 3
REMARK VINA RESULT: -5.510364547      2.194      5.464
REMARK  7 active torsions:
REMARK  status: ('A' for Active; 'I' for Inactive)
REMARK    1  A    between atoms: C2_2  and  C3_3 
REMARK    2  A    between atoms: C3_3  and  C4_4 
REMARK    3  A    between atoms: C4_4  and  N1_5 
REMARK    4  A    between atoms: N1_5  and  C5_8 
REMARK    5  A    between atoms: C5_8  and  C6_9 
REMARK    6  A    between atoms: C6_9  and  C7_10 
REMARK    7  A    between atoms: C7_10  and  C8_11 
ROOT
HETATM    1  C5  UNL     1       7.574 -20.278  -1.916  1.00  0.00     0.232 C 
ENDROOT
BRANCH   1   2
HETATM    2  N1  UNL     1       8.567 -20.391  -0.900  1.00  0.00    -0.075 N 
ATOM      3  H12 UNL     1       9.438 -19.941  -1.182  1.00  0.00     0.277 HD
ATOM      4  H11 UNL     1       8.902 -21.351  -0.815  1.00  0.00     0.277 HD
BRANCH   2   5
HETATM    5  C4  UNL     1       8.097 -19.876   0.393  1.00  0.00     0.236 C 
BRANCH   5   6
HETATM    6  C3  UNL     1       8.630 -20.928   1.428  1.00  0.00     0.054 C 
BRANCH   6   7
HETATM    7  C2  UNL     1       7.386 -21.727   1.762  1.00  0.00    -0.035 C 
HETATM    8  C1  UNL     1       7.295 -23.005   1.824  1.00  0.00     0.007 C 
ENDBRANCH   6   7
ENDBRANCH   5   6
ENDBRANCH   2   5
ENDBRANCH   1   2
BRANCH   1   9
HETATM    9  C6  UNL     1       7.391 -21.634  -2.627  1.00  0.00     0.028 C 
BRANCH   9  10
HETATM   10  C7  UNL     1       6.652 -22.566  -1.656  1.00  0.00     0.006 C 
BRANCH  10  11
HETATM   11  C8  UNL     1       6.422 -23.886  -2.314  1.00  0.00    -0.014 C 
HETATM   12  C9  UNL     1       6.603 -23.763  -3.840  1.00  0.00     0.004 C 
HETATM   13  C10 UNL     1       7.158 -25.110  -4.205  1.00  0.00     0.000 C 
HETATM   14  C11 UNL     1       8.198 -25.352  -3.110  1.00  0.00     0.000 C 
HETATM   15  C12 UNL     1       7.393 -24.955  -1.870  1.00  0.00     0.004 C 
ENDBRANCH  10  11
ENDBRANCH   9  10
ENDBRANCH   1   9
TORSDOF 7
ENDMDL
MODEL 4
REMARK VINA RESULT: -5.503248056      1.554      3.008
REMARK  7 active torsions:
REMARK  status: ('A' for Active; 'I' for Inactive)
REMARK    1  A    between atoms: C2_2  and  C3_3 
REMARK    2  A    between atoms: C3_3  and  C4_4 
REMARK    3  A    between atoms: C4_4  and  N1_5 
REMARK    4  A    between atoms: N1_5  and  C5_8 
REMARK    5  A    between atoms: C5_8  and  C6_9 
REMARK    6  A    between atoms: C6_9  and  C7_10 
REMARK    7  A    between atoms: C7_10  and  C8_11 
ROOT
HETATM    1  C5  UNL     1       7.692 -21.065  -3.557  1.00  0.00     0.232 C 
ENDROOT
BRANCH   1   2
HETATM    2  N1  UNL     1       6.905 -22.224  -3.823  1.00  0.00    -0.075 N 
ATOM      3  H12 UNL     1       6.132 -22.010  -4.453  1.00  0.00     0.277 HD
ATOM      4  H11 UNL     1       6.371 -22.505  -3.001  1.00  0.00     0.277 HD
BRANCH   2   5
HETATM    5  C4  UNL     1       7.717 -23.336  -4.336  1.00  0.00     0.236 C 
BRANCH   5   6
HETATM    6  C3  UNL     1       6.860 -24.607  -3.997  1.00  0.00     0.054 C 
BRANCH   6   7
HETATM    7  C2  UNL     1       6.581 -24.436  -2.518  1.00  0.00    -0.035 C 
HETATM    8  C1  UNL     1       7.243 -24.961  -1.552  1.00  0.00     0.007 C 
ENDBRANCH   6   7
ENDBRANCH   5   6
ENDBRANCH   2   5
ENDBRANCH   1   2
BRANCH   1   9
HETATM    9  C6  UNL     1       7.280 -20.449  -2.204  1.00  0.00     0.028 C 
BRANCH   9  10
HETATM   10  C7  UNL     1       8.070 -21.178  -1.108  1.00  0.00     0.006 C 
BRANCH  10  11
HETATM   11  C8  UNL     1       7.303 -21.127   0.172  1.00  0.00    -0.014 C 
HETATM   12  C9  UNL     1       5.900 -21.738  -0.018  1.00  0.00     0.004 C 
HETATM   13  C10 UNL     1       5.636 -22.355   1.326  1.00  0.00     0.000 C 
HETATM   14  C11 UNL     1       6.968 -23.036   1.650  1.00  0.00     0.000 C 
HETATM   15  C12 UNL     1       7.946 -21.916   1.289  1.00  0.00     0.004 C 
ENDBRANCH  10  11
ENDBRANCH   9  10
ENDBRANCH   1   9
TORSDOF 7
ENDMDL
MODEL 5
REMARK VINA RESULT: -5.485898859      3.340      4.426
REMARK  7 active torsions:
REMARK  status: ('A' for Active; 'I' for Inactive)
REMARK    1  A    between atoms: C2_2  and  C3_3 
REMARK    2  A    between atoms: C3_3  and  C4_4 
REMARK    3  A    between atoms: C4_4  and  N1_5 
REMARK    4  A    between atoms: N1_5  and  C5_8 
REMARK    5  A    between atoms: C5_8  and  C6_9 
REMARK    6  A    between atoms: C6_9  and  C7_10 
REMARK    7  A    between atoms: C7_10  and  C8_11 
ROOT
HETATM    1  C5  UNL     1       8.788 -19.646  -2.437  1.00  0.00     0.232 C 
ENDROOT
BRANCH   1   2
HETATM    2  N1  UNL     1       9.162 -18.611  -1.531  1.00  0.00    -0.075 N 
ATOM      3  H12 UNL     1      10.164 -18.423  -1.577  1.00  0.00     0.277 HD
ATOM      4  H11 UNL     1       9.102 -18.927  -0.563  1.00  0.00     0.277 HD
BRANCH   2   5
HETATM    5  C4  UNL     1       8.381 -17.384  -1.739  1.00  0.00     0.236 C 
BRANCH   5   6
HETATM    6  C3  UNL     1       7.562 -17.236  -0.410  1.00  0.00     0.054 C 
BRANCH   6   7
HETATM    7  C2  UNL     1       6.139 -17.488  -0.864  1.00  0.00    -0.035 C 
HETATM    8  C1  UNL     1       5.735 -17.594  -2.077  1.00  0.00     0.007 C 
ENDBRANCH   6   7
ENDBRANCH   5   6
ENDBRANCH   2   5
ENDBRANCH   1   2
BRANCH   1   9
HETATM    9  C6  UNL     1       7.953 -20.713  -1.701  1.00  0.00     0.028 C 
BRANCH   9  10
HETATM   10  C7  UNL     1       8.578 -20.907  -0.312  1.00  0.00     0.006 C 
BRANCH  10  11
HETATM   11  C8  UNL     1       7.495 -20.964   0.715  1.00  0.00    -0.014 C 
HETATM   12  C9  UNL     1       6.117 -21.092   0.034  1.00  0.00     0.004 C 
HETATM   13  C10 UNL     1       5.351 -21.926   1.021  1.00  0.00     0.000 C 
HETATM   14  C11 UNL     1       6.361 -23.009   1.402  1.00  0.00     0.000 C 
HETATM   15  C12 UNL     1       7.608 -22.154   1.640  1.00  0.00     0.004 C 
ENDBRANCH  10  11
ENDBRANCH   9  10
ENDBRANCH   1   9
TORSDOF 7
ENDMDL
