MODEL 1
REMARK VINA RESULT: -9.946222714      0.000      0.000
REMARK  3 active torsions:
REMARK  status: ('A' for Active; 'I' for Inactive)
REMARK    1  A    between atoms: C6_6  and  N1_7 
REMARK    2  A    between atoms: N1_7  and  C7_9 
REMARK    3  A    between atoms: C12_14  and  C13_15 
ROOT
HETATM    1  C7  UNL     1      -7.356  20.209  12.745  1.00  0.00     0.041 A 
HETATM    2  C8  UNL     1      -6.512  19.928  11.665  1.00  0.00     0.030 A 
HETATM    3  C9  UNL     1      -5.884  18.697  11.608  1.00  0.00     0.002 A 
HETATM    4  C10 UNL     1      -6.105  17.778  12.613  1.00  0.00     0.001 A 
HETATM    5  C11 UNL     1      -6.928  18.049  13.666  1.00  0.00     0.016 A 
HETATM    6  C12 UNL     1      -7.563  19.278  13.735  1.00  0.00     0.019 A 
ENDROOT
BRANCH   6   7
HETATM    7  C13 UNL     1      -8.493  19.568  14.820  1.00  0.00     0.071 A 
HETATM    8  N2  UNL     1      -9.793  19.210  14.710  1.00  0.00    -0.296 N 
HETATM    9  N3  UNL     1     -10.693  19.428  15.626  1.00  0.00    -0.265 N 
ATOM     10  H2  UNL     1     -10.087  18.737  13.855  1.00  0.00     0.187 HD
HETATM   11  C14 UNL     1     -10.318  20.048  16.757  1.00  0.00     0.271 A 
ATOM     12  H3  UNL     1     -11.660  19.134  15.488  1.00  0.00     0.190 HD
HETATM   13  O1  UNL     1     -11.153  20.278  17.666  1.00  0.00    -0.266 OA
HETATM   14  C15 UNL     1      -9.012  20.453  16.959  1.00  0.00     0.046 A 
HETATM   15  C16 UNL     1      -8.619  21.094  18.110  1.00  0.00     0.018 A 
HETATM   16  C20 UNL     1      -8.077  20.204  15.960  1.00  0.00     0.009 A 
HETATM   17  C17 UNL     1      -7.322  21.513  18.329  1.00  0.00     0.001 A 
HETATM   18  C18 UNL     1      -6.420  21.256  17.328  1.00  0.00     0.001 A 
HETATM   19  C19 UNL     1      -6.789  20.611  16.159  1.00  0.00     0.015 A 
ENDBRANCH   6   7
BRANCH   1  20
HETATM   20  N1  UNL     1      -7.968  21.490  12.756  1.00  0.00    -0.384 N 
ATOM     21  H1  UNL     1      -8.915  21.583  12.390  1.00  0.00     0.160 HD
BRANCH  20  22
HETATM   22  C6  UNL     1      -7.305  22.666  13.265  1.00  0.00     0.085 C 
HETATM   23  C5  UNL     1      -6.945  23.611  12.121  1.00  0.00     0.026 C 
HETATM   24  C4  UNL     1      -6.845  25.038  12.600  1.00  0.00     0.006 C 
HETATM   25  C3  UNL     1      -6.417  25.160  14.045  1.00  0.00     0.033 C 
HETATM   26  C2  UNL     1      -7.362  24.395  14.918  1.00  0.00    -0.087 C 
HETATM   27  C1  UNL     1      -7.367  24.592  16.210  1.00  0.00     0.014 C 
HETATM   28  C21 UNL     1      -8.243  23.438  14.198  1.00  0.00     0.058 C 
ENDBRANCH  20  22
ENDBRANCH   1  20
TORSDOF 3
ENDMDL
MODEL 2
REMARK VINA RESULT: -9.631303807      2.528      4.572
REMARK  3 active torsions:
REMARK  status: ('A' for Active; 'I' for Inactive)
REMARK    1  A    between atoms: C6_6  and  N1_7 
REMARK    2  A    between atoms: N1_7  and  C7_9 
REMARK    3  A    between atoms: C12_14  and  C13_15 
ROOT
HETATM    1  C7  UNL     1      -7.274  21.210  13.725  1.00  0.00     0.041 A 
HETATM    2  C8  UNL     1      -6.840  22.455  13.256  1.00  0.00     0.030 A 
HETATM    3  C9  UNL     1      -6.340  22.550  11.969  1.00  0.00     0.002 A 
HETATM    4  C10 UNL     1      -6.281  21.419  11.182  1.00  0.00     0.001 A 
HETATM    5  C11 UNL     1      -6.703  20.204  11.636  1.00  0.00     0.016 A 
HETATM    6  C12 UNL     1      -7.206  20.095  12.921  1.00  0.00     0.019 A 
ENDROOT
BRANCH   6   7
HETATM    7  C13 UNL     1      -7.718  18.820  13.409  1.00  0.00     0.071 A 
HETATM    8  N2  UNL     1      -6.896  17.965  14.059  1.00  0.00    -0.296 N 
HETATM    9  N3  UNL     1      -7.265  16.807  14.529  1.00  0.00    -0.265 N 
ATOM     10  H2  UNL     1      -5.924  18.245  14.190  1.00  0.00     0.187 HD
HETATM   11  C14 UNL     1      -8.543  16.428  14.363  1.00  0.00     0.271 A 
ATOM     12  H3  UNL     1      -6.599  16.204  15.011  1.00  0.00     0.190 HD
HETATM   13  O1  UNL     1      -8.942  15.320  14.800  1.00  0.00    -0.266 OA
HETATM   14  C15 UNL     1      -9.457  17.234  13.712  1.00  0.00     0.046 A 
HETATM   15  C16 UNL     1     -10.765  16.853  13.531  1.00  0.00     0.018 A 
HETATM   16  C20 UNL     1      -9.028  18.463  13.223  1.00  0.00     0.009 A 
HETATM   17  C17 UNL     1     -11.693  17.639  12.877  1.00  0.00     0.001 A 
HETATM   18  C18 UNL     1     -11.244  18.846  12.404  1.00  0.00     0.001 A 
HETATM   19  C19 UNL     1      -9.931  19.255  12.573  1.00  0.00     0.015 A 
ENDBRANCH   6   7
BRANCH   1  20
HETATM   20  N1  UNL     1      -7.770  21.169  15.054  1.00  0.00    -0.384 N 
ATOM     21  H1  UNL     1      -8.584  20.589  15.254  1.00  0.00     0.160 HD
BRANCH  20  22
HETATM   22  C6  UNL     1      -7.170  21.915  16.133  1.00  0.00     0.085 C 
HETATM   23  C5  UNL     1      -8.228  22.739  16.863  1.00  0.00     0.026 C 
HETATM   24  C4  UNL     1      -7.821  23.012  18.291  1.00  0.00     0.006 C 
HETATM   25  C3  UNL     1      -6.323  23.082  18.487  1.00  0.00     0.033 C 
HETATM   26  C2  UNL     1      -5.691  21.810  18.011  1.00  0.00    -0.087 C 
HETATM   27  C1  UNL     1      -4.460  21.525  18.345  1.00  0.00     0.014 C 
HETATM   28  C21 UNL     1      -6.565  20.957  17.163  1.00  0.00     0.058 C 
ENDBRANCH  20  22
ENDBRANCH   1  20
TORSDOF 3
ENDMDL
MODEL 3
REMARK VINA RESULT: -9.560352865      2.160      4.065
REMARK  3 active torsions:
REMARK  status: ('A' for Active; 'I' for Inactive)
REMARK    1  A    between atoms: C6_6  and  N1_7 
REMARK    2  A    between atoms: N1_7  and  C7_9 
REMARK    3  A    between atoms: C12_14  and  C13_15 
ROOT
HETATM    1  C7  UNL     1      -7.337  21.603  13.710  1.00  0.00     0.041 A 
HETATM    2  C8  UNL     1      -6.687  22.784  13.333  1.00  0.00     0.030 A 
HETATM    3  C9  UNL     1      -6.164  22.882  12.056  1.00  0.00     0.002 A 
HETATM    4  C10 UNL     1      -6.295  21.818  11.188  1.00  0.00     0.001 A 
HETATM    5  C11 UNL     1      -6.929  20.667  11.552  1.00  0.00     0.016 A 
HETATM    6  C12 UNL     1      -7.458  20.556  12.827  1.00  0.00     0.019 A 
ENDROOT
BRANCH   6   7
HETATM    7  C13 UNL     1      -8.191  19.359  13.221  1.00  0.00     0.071 A 
HETATM    8  N2  UNL     1      -9.505  19.240  12.918  1.00  0.00    -0.296 N 
HETATM    9  N3  UNL     1     -10.238  18.209  13.229  1.00  0.00    -0.265 N 
ATOM     10  H2  UNL     1      -9.950  20.008  12.415  1.00  0.00     0.187 HD
HETATM   11  C14 UNL     1      -9.664  17.192  13.892  1.00  0.00     0.271 A 
ATOM     12  H3  UNL     1     -11.225  18.176  12.974  1.00  0.00     0.190 HD
HETATM   13  O1  UNL     1     -10.334  16.178  14.211  1.00  0.00    -0.266 OA
HETATM   14  C15 UNL     1      -8.328  17.222  14.244  1.00  0.00     0.046 A 
HETATM   15  C16 UNL     1      -7.732  16.190  14.928  1.00  0.00     0.018 A 
HETATM   16  C20 UNL     1      -7.575  18.339  13.897  1.00  0.00     0.009 A 
HETATM   17  C17 UNL     1      -6.402  16.203  15.297  1.00  0.00     0.001 A 
HETATM   18  C18 UNL     1      -5.681  17.316  14.943  1.00  0.00     0.001 A 
HETATM   19  C19 UNL     1      -6.257  18.370  14.253  1.00  0.00     0.015 A 
ENDBRANCH   6   7
BRANCH   1  20
HETATM   20  N1  UNL     1      -7.848  21.555  15.033  1.00  0.00    -0.384 N 
ATOM     21  H1  UNL     1      -8.722  21.058  15.202  1.00  0.00     0.160 HD
BRANCH  20  22
HETATM   22  C6  UNL     1      -7.182  22.179  16.150  1.00  0.00     0.085 C 
HETATM   23  C5  UNL     1      -8.173  23.001  16.970  1.00  0.00     0.026 C 
HETATM   24  C4  UNL     1      -7.718  23.138  18.402  1.00  0.00     0.006 C 
HETATM   25  C3  UNL     1      -6.214  23.108  18.562  1.00  0.00     0.033 C 
HETATM   26  C2  UNL     1      -5.669  21.844  17.974  1.00  0.00    -0.087 C 
HETATM   27  C1  UNL     1      -4.449  21.465  18.251  1.00  0.00     0.014 C 
HETATM   28  C21 UNL     1      -6.610  21.111  17.087  1.00  0.00     0.058 C 
ENDBRANCH  20  22
ENDBRANCH   1  20
TORSDOF 3
ENDMDL
MODEL 4
REMARK VINA RESULT: -9.485931288      2.570      4.682
REMARK  3 active torsions:
REMARK  status: ('A' for Active; 'I' for Inactive)
REMARK    1  A    between atoms: C6_6  and  N1_7 
REMARK    2  A    between atoms: N1_7  and  C7_9 
REMARK    3  A    between atoms: C12_14  and  C13_15 
ROOT
HETATM    1  C7  UNL     1      -7.313  21.034  13.735  1.00  0.00     0.041 A 
HETATM    2  C8  UNL     1      -7.335  22.259  13.060  1.00  0.00     0.030 A 
HETATM    3  C9  UNL     1      -6.872  22.315  11.758  1.00  0.00     0.002 A 
HETATM    4  C10 UNL     1      -6.400  21.166  11.157  1.00  0.00     0.001 A 
HETATM    5  C11 UNL     1      -6.378  19.969  11.813  1.00  0.00     0.016 A 
HETATM    6  C12 UNL     1      -6.839  19.900  13.117  1.00  0.00     0.019 A 
ENDROOT
BRANCH   6   7
HETATM    7  C13 UNL     1      -6.881  18.622  13.818  1.00  0.00     0.071 A 
HETATM    8  N2  UNL     1      -5.869  18.272  14.645  1.00  0.00    -0.296 N 
HETATM    9  N3  UNL     1      -5.821  17.153  15.312  1.00  0.00    -0.265 N 
ATOM     10  H2  UNL     1      -5.093  18.925  14.754  1.00  0.00     0.187 HD
HETATM   11  C14 UNL     1      -6.837  16.285  15.178  1.00  0.00     0.271 A 
ATOM     12  H3  UNL     1      -5.031  16.943  15.921  1.00  0.00     0.190 HD
HETATM   13  O1  UNL     1      -6.832  15.195  15.802  1.00  0.00    -0.266 OA
HETATM   14  C15 UNL     1      -7.915  16.555  14.356  1.00  0.00     0.046 A 
HETATM   15  C16 UNL     1      -8.956  15.671  14.206  1.00  0.00     0.018 A 
HETATM   16  C20 UNL     1      -7.932  17.758  13.659  1.00  0.00     0.009 A 
HETATM   17  C17 UNL     1     -10.038  15.917  13.385  1.00  0.00     0.001 A 
HETATM   18  C18 UNL     1     -10.031  17.111  12.708  1.00  0.00     0.001 A 
HETATM   19  C19 UNL     1      -8.994  18.020  12.841  1.00  0.00     0.015 A 
ENDBRANCH   6   7
BRANCH   1  20
HETATM   20  N1  UNL     1      -7.793  21.036  15.071  1.00  0.00    -0.384 N 
ATOM     21  H1  UNL     1      -8.600  20.458  15.301  1.00  0.00     0.160 HD
BRANCH  20  22
HETATM   22  C6  UNL     1      -7.185  21.822  16.116  1.00  0.00     0.085 C 
HETATM   23  C5  UNL     1      -8.238  22.674  16.822  1.00  0.00     0.026 C 
HETATM   24  C4  UNL     1      -7.821  23.002  18.235  1.00  0.00     0.006 C 
HETATM   25  C3  UNL     1      -6.321  23.078  18.417  1.00  0.00     0.033 C 
HETATM   26  C2  UNL     1      -5.693  21.790  17.987  1.00  0.00    -0.087 C 
HETATM   27  C1  UNL     1      -4.460  21.517  18.323  1.00  0.00     0.014 C 
HETATM   28  C21 UNL     1      -6.573  20.905  17.178  1.00  0.00     0.058 C 
ENDBRANCH  20  22
ENDBRANCH   1  20
TORSDOF 3
ENDMDL
MODEL 5
REMARK VINA RESULT: -9.419305390      2.624      5.028
REMARK  3 active torsions:
REMARK  status: ('A' for Active; 'I' for Inactive)
REMARK    1  A    between atoms: C6_6  and  N1_7 
REMARK    2  A    between atoms: N1_7  and  C7_9 
REMARK    3  A    between atoms: C12_14  and  C13_15 
ROOT
HETATM    1  C7  UNL     1      -7.070  21.668  13.396  1.00  0.00     0.041 A 
HETATM    2  C8  UNL     1      -6.851  23.037  13.207  1.00  0.00     0.030 A 
HETATM    3  C9  UNL     1      -6.431  23.483  11.967  1.00  0.00     0.002 A 
HETATM    4  C10 UNL     1      -6.239  22.572  10.949  1.00  0.00     0.001 A 
HETATM    5  C11 UNL     1      -6.453  21.236  11.131  1.00  0.00     0.016 A 
HETATM    6  C12 UNL     1      -6.873  20.777  12.367  1.00  0.00     0.019 A 
ENDROOT
BRANCH   6   7
HETATM    7  C13 UNL     1      -7.165  19.363  12.569  1.00  0.00     0.071 A 
HETATM    8  N2  UNL     1      -6.213  18.540  13.066  1.00  0.00    -0.296 N 
HETATM    9  N3  UNL     1      -6.384  17.266  13.279  1.00  0.00    -0.265 N 
ATOM     10  H2  UNL     1      -5.302  18.943  13.287  1.00  0.00     0.187 HD
HETATM   11  C14 UNL     1      -7.579  16.724  12.992  1.00  0.00     0.271 A 
ATOM     12  H3  UNL     1      -5.628  16.695  13.656  1.00  0.00     0.190 HD
HETATM   13  O1  UNL     1      -7.787  15.500  13.183  1.00  0.00    -0.266 OA
HETATM   14  C15 UNL     1      -8.613  17.484  12.481  1.00  0.00     0.046 A 
HETATM   15  C16 UNL     1      -9.837  16.938  12.177  1.00  0.00     0.018 A 
HETATM   16  C20 UNL     1      -8.395  18.841  12.265  1.00  0.00     0.009 A 
HETATM   17  C17 UNL     1     -10.881  17.678  11.659  1.00  0.00     0.001 A 
HETATM   18  C18 UNL     1     -10.640  19.014  11.455  1.00  0.00     0.001 A 
HETATM   19  C19 UNL     1      -9.416  19.589  11.752  1.00  0.00     0.015 A 
ENDBRANCH   6   7
BRANCH   1  20
HETATM   20  N1  UNL     1      -7.492  21.266  14.690  1.00  0.00    -0.384 N 
ATOM     21  H1  UNL     1      -8.128  20.473  14.772  1.00  0.00     0.160 HD
BRANCH  20  22
HETATM   22  C6  UNL     1      -7.058  21.931  15.894  1.00  0.00     0.085 C 
HETATM   23  C5  UNL     1      -8.249  22.557  16.615  1.00  0.00     0.026 C 
HETATM   24  C4  UNL     1      -7.984  22.695  18.094  1.00  0.00     0.006 C 
HETATM   25  C3  UNL     1      -6.521  22.884  18.428  1.00  0.00     0.033 C 
HETATM   26  C2  UNL     1      -5.724  21.745  17.872  1.00  0.00    -0.087 C 
HETATM   27  C1  UNL     1      -4.499  21.540  18.279  1.00  0.00     0.014 C 
HETATM   28  C21 UNL     1      -6.437  20.919  16.861  1.00  0.00     0.058 C 
ENDBRANCH  20  22
ENDBRANCH   1  20
TORSDOF 3
ENDMDL
