MODEL 1
REMARK VINA RESULT: -4.946999402      0.000      0.000
REMARK  5 active torsions:
REMARK  status: ('A' for Active; 'I' for Inactive)
REMARK    1  A    between atoms: C1_4  and  O1_5 
REMARK    2  A    between atoms: C1_4  and  C2_7 
REMARK    3  A    between atoms: C2_7  and  C5_12 
REMARK    4  A    between atoms: C3_8  and  C4_9 
REMARK    5  A    between atoms: C4_9  and  O2_10 
ROOT
HETATM    1  C2  UNL     1      -7.655  21.056  17.796  1.00  0.00     0.077 C 
HETATM    2  C3  UNL     1      -6.839  20.468  16.980  1.00  0.00     0.020 C 
ENDROOT
BRANCH   1   3
HETATM    3  C1  UNL     1      -9.004  20.696  18.138  1.00  0.00     0.148 C 
HETATM    4  N1  UNL     1     -10.082  20.775  17.558  1.00  0.00    -0.379 N 
ATOM      5  H12 UNL     1     -11.039  20.519  17.800  1.00  0.00     0.158 HD
ATOM      6  H11 UNL     1      -9.973  21.191  16.633  1.00  0.00     0.158 HD
BRANCH   3   7
HETATM    7  O1  UNL     1      -9.161  20.104  19.454  1.00  0.00    -0.346 OA
ATOM      8  H1  UNL     1      -8.658  20.579  20.105  1.00  0.00     0.219 HD
ENDBRANCH   3   7
ENDBRANCH   1   3
BRANCH   1   9
HETATM    9  C5  UNL     1      -7.090  22.269  18.455  1.00  0.00     0.269 C 
HETATM   10  N2  UNL     1      -7.972  23.106  19.161  1.00  0.00    -0.057 NA
HETATM   11  O3  UNL     1      -5.882  22.492  18.358  1.00  0.00    -0.271 OA
ENDBRANCH   1   9
BRANCH   2  12
HETATM   12  C4  UNL     1      -7.053  19.277  16.177  1.00  0.00     0.192 C 
BRANCH  12  13
HETATM   13  O2  UNL     1      -6.065  18.319  16.462  1.00  0.00    -0.397 OA
ATOM     14  H2  UNL     1      -6.441  17.446  16.435  1.00  0.00     0.209 HD
ENDBRANCH  12  13
ENDBRANCH   2  12
TORSDOF 5
ENDMDL
MODEL 2
REMARK VINA RESULT: -4.922628122      2.402      3.103
REMARK  5 active torsions:
REMARK  status: ('A' for Active; 'I' for Inactive)
REMARK    1  A    between atoms: C1_4  and  O1_5 
REMARK    2  A    between atoms: C1_4  and  C2_7 
REMARK    3  A    between atoms: C2_7  and  C5_12 
REMARK    4  A    between atoms: C3_8  and  C4_9 
REMARK    5  A    between atoms: C4_9  and  O2_10 
ROOT
HETATM    1  C2  UNL     1      -7.151  21.694  17.285  1.00  0.00     0.077 C 
HETATM    2  C3  UNL     1      -5.856  21.737  17.317  1.00  0.00     0.020 C 
ENDROOT
BRANCH   1   3
HETATM    3  C1  UNL     1      -8.084  21.794  18.374  1.00  0.00     0.148 C 
HETATM    4  N1  UNL     1      -8.879  21.015  18.891  1.00  0.00    -0.379 N 
ATOM      5  H12 UNL     1      -9.540  21.086  19.664  1.00  0.00     0.158 HD
ATOM      6  H11 UNL     1      -8.855  20.106  18.431  1.00  0.00     0.158 HD
BRANCH   3   7
HETATM    7  O1  UNL     1      -8.118  23.088  19.031  1.00  0.00    -0.346 OA
ATOM      8  H1  UNL     1      -7.866  23.782  18.432  1.00  0.00     0.219 HD
ENDBRANCH   3   7
ENDBRANCH   1   3
BRANCH   1   9
HETATM    9  C5  UNL     1      -7.721  21.516  15.919  1.00  0.00     0.269 C 
HETATM   10  N2  UNL     1      -7.225  22.331  14.886  1.00  0.00    -0.057 NA
HETATM   11  O3  UNL     1      -8.599  20.670  15.746  1.00  0.00    -0.271 OA
ENDBRANCH   1   9
BRANCH   2  12
HETATM   12  C4  UNL     1      -4.977  21.898  18.463  1.00  0.00     0.192 C 
BRANCH  12  13
HETATM   13  O2  UNL     1      -3.807  21.141  18.283  1.00  0.00    -0.397 OA
ATOM     14  H2  UNL     1      -3.048  21.647  18.548  1.00  0.00     0.209 HD
ENDBRANCH  12  13
ENDBRANCH   2  12
TORSDOF 5
ENDMDL
MODEL 3
REMARK VINA RESULT: -4.901071674      2.123      3.222
REMARK  5 active torsions:
REMARK  status: ('A' for Active; 'I' for Inactive)
REMARK    1  A    between atoms: C1_4  and  O1_5 
REMARK    2  A    between atoms: C1_4  and  C2_7 
REMARK    3  A    between atoms: C2_7  and  C5_12 
REMARK    4  A    between atoms: C3_8  and  C4_9 
REMARK    5  A    between atoms: C4_9  and  O2_10 
ROOT
HETATM    1  C2  UNL     1      -6.978  21.120  17.536  1.00  0.00     0.077 C 
HETATM    2  C3  UNL     1      -5.684  21.144  17.477  1.00  0.00     0.020 C 
ENDROOT
BRANCH   1   3
HETATM    3  C1  UNL     1      -7.852  21.810  18.445  1.00  0.00     0.148 C 
HETATM    4  N1  UNL     1      -7.885  22.950  18.899  1.00  0.00    -0.379 N 
ATOM      5  H12 UNL     1      -8.506  23.439  19.543  1.00  0.00     0.158 HD
ATOM      6  H11 UNL     1      -7.114  23.511  18.538  1.00  0.00     0.158 HD
BRANCH   3   7
HETATM    7  O1  UNL     1      -8.950  21.012  18.958  1.00  0.00    -0.346 OA
ATOM      8  H1  UNL     1      -9.495  20.684  18.251  1.00  0.00     0.219 HD
ENDBRANCH   3   7
ENDBRANCH   1   3
BRANCH   1   9
HETATM    9  C5  UNL     1      -7.620  20.249  16.510  1.00  0.00     0.269 C 
HETATM   10  N2  UNL     1      -6.983  19.039  16.181  1.00  0.00    -0.057 NA
HETATM   11  O3  UNL     1      -8.674  20.618  15.990  1.00  0.00    -0.271 OA
ENDBRANCH   1   9
BRANCH   2  12
HETATM   12  C4  UNL     1      -4.746  21.875  18.311  1.00  0.00     0.192 C 
BRANCH  12  13
HETATM   13  O2  UNL     1      -3.650  21.057  18.636  1.00  0.00    -0.397 OA
ATOM     14  H2  UNL     1      -2.851  21.571  18.642  1.00  0.00     0.209 HD
ENDBRANCH  12  13
ENDBRANCH   2  12
TORSDOF 5
ENDMDL
MODEL 4
REMARK VINA RESULT: -4.896899693      2.271      3.028
REMARK  5 active torsions:
REMARK  status: ('A' for Active; 'I' for Inactive)
REMARK    1  A    between atoms: C1_4  and  O1_5 
REMARK    2  A    between atoms: C1_4  and  C2_7 
REMARK    3  A    between atoms: C2_7  and  C5_12 
REMARK    4  A    between atoms: C3_8  and  C4_9 
REMARK    5  A    between atoms: C4_9  and  O2_10 
ROOT
HETATM    1  C2  UNL     1      -7.165  21.618  17.285  1.00  0.00     0.077 C 
HETATM    2  C3  UNL     1      -5.872  21.692  17.311  1.00  0.00     0.020 C 
ENDROOT
BRANCH   1   3
HETATM    3  C1  UNL     1      -8.096  21.716  18.377  1.00  0.00     0.148 C 
HETATM    4  N1  UNL     1      -8.875  20.931  18.908  1.00  0.00    -0.379 N 
ATOM      5  H12 UNL     1      -9.535  21.001  19.682  1.00  0.00     0.158 HD
ATOM      6  H11 UNL     1      -8.837  20.016  18.461  1.00  0.00     0.158 HD
BRANCH   3   7
HETATM    7  O1  UNL     1      -8.151  23.019  19.014  1.00  0.00    -0.346 OA
ATOM      8  H1  UNL     1      -8.751  23.015  19.751  1.00  0.00     0.219 HD
ENDBRANCH   3   7
ENDBRANCH   1   3
BRANCH   1   9
HETATM    9  C5  UNL     1      -7.736  21.400  15.925  1.00  0.00     0.269 C 
HETATM   10  N2  UNL     1      -8.685  20.374  15.766  1.00  0.00    -0.057 NA
HETATM   11  O3  UNL     1      -7.360  22.119  14.999  1.00  0.00    -0.271 OA
ENDBRANCH   1   9
BRANCH   2  12
HETATM   12  C4  UNL     1      -4.993  21.895  18.450  1.00  0.00     0.192 C 
BRANCH  12  13
HETATM   13  O2  UNL     1      -3.809  21.157  18.283  1.00  0.00    -0.397 OA
ATOM     14  H2  UNL     1      -3.890  20.311  18.708  1.00  0.00     0.209 HD
ENDBRANCH  12  13
ENDBRANCH   2  12
TORSDOF 5
ENDMDL
MODEL 5
REMARK VINA RESULT: -4.880360547      1.057      1.057
REMARK  5 active torsions:
REMARK  status: ('A' for Active; 'I' for Inactive)
REMARK    1  A    between atoms: C1_4  and  O1_5 
REMARK    2  A    between atoms: C1_4  and  C2_7 
REMARK    3  A    between atoms: C2_7  and  C5_12 
REMARK    4  A    between atoms: C3_8  and  C4_9 
REMARK    5  A    between atoms: C4_9  and  O2_10 
ROOT
HETATM    1  C2  UNL     1      -7.783  21.178  17.873  1.00  0.00     0.077 C 
HETATM    2  C3  UNL     1      -6.921  20.695  17.036  1.00  0.00     0.020 C 
ENDROOT
BRANCH   1   3
HETATM    3  C1  UNL     1      -9.101  20.699  18.188  1.00  0.00     0.148 C 
HETATM    4  N1  UNL     1     -10.172  20.687  17.588  1.00  0.00    -0.379 N 
ATOM      5  H12 UNL     1     -11.106  20.346  17.811  1.00  0.00     0.158 HD
ATOM      6  H11 UNL     1     -10.082  21.116  16.668  1.00  0.00     0.158 HD
BRANCH   3   7
HETATM    7  O1  UNL     1      -9.230  20.087  19.498  1.00  0.00    -0.346 OA
ATOM      8  H1  UNL     1      -8.455  20.242  20.026  1.00  0.00     0.219 HD
ENDBRANCH   3   7
ENDBRANCH   1   3
BRANCH   1   9
HETATM    9  C5  UNL     1      -7.316  22.398  18.593  1.00  0.00     0.269 C 
HETATM   10  N2  UNL     1      -5.965  22.762  18.464  1.00  0.00    -0.057 NA
HETATM   11  O3  UNL     1      -8.124  23.036  19.270  1.00  0.00    -0.271 OA
ENDBRANCH   1   9
BRANCH   2  12
HETATM   12  C4  UNL     1      -7.039  19.531  16.175  1.00  0.00     0.192 C 
BRANCH  12  13
HETATM   13  O2  UNL     1      -5.982  18.638  16.422  1.00  0.00    -0.397 OA
ATOM     14  H2  UNL     1      -5.577  18.379  15.602  1.00  0.00     0.209 HD
ENDBRANCH  12  13
ENDBRANCH   2  12
TORSDOF 5
ENDMDL
