MODEL 1
REMARK VINA RESULT: -6.051940797      0.000      0.000
REMARK  10 active torsions:
REMARK  status: ('A' for Active; 'I' for Inactive)
REMARK    1  A    between atoms: C2_2  and  C3_3 
REMARK    2  A    between atoms: C3_3  and  C4_4 
REMARK    3  A    between atoms: C4_4  and  N1_5 
REMARK    4  A    between atoms: N1_5  and  C5_8 
REMARK    5  A    between atoms: C5_8  and  C6_9 
REMARK    6  A    between atoms: C6_9  and  C7_10 
REMARK    7  A    between atoms: C7_10  and  C8_11 
REMARK    8  A    between atoms: C8_11  and  C9_12 
REMARK    9  A    between atoms: C9_12  and  C10_13 
REMARK   10  A    between atoms: C10_13  and  C11_14 
ROOT
HETATM    1  C7  UNL     1      -6.902 -19.864   3.507  1.00  0.00     0.002 C 
ENDROOT
BRANCH   1   2
HETATM    2  C6  UNL     1      -6.780 -20.825   4.661  1.00  0.00     0.027 C 
BRANCH   2   3
HETATM    3  C5  UNL     1      -8.056 -21.428   5.127  1.00  0.00     0.232 C 
BRANCH   3   4
HETATM    4  N1  UNL     1      -8.091 -22.865   5.022  1.00  0.00    -0.075 N 
ATOM      5  H12 UNL     1      -8.718 -23.179   4.282  1.00  0.00     0.277 HD
ATOM      6  H11 UNL     1      -8.568 -23.295   5.814  1.00  0.00     0.277 HD
BRANCH   4   7
HETATM    7  C4  UNL     1      -6.772 -23.372   4.855  1.00  0.00     0.236 C 
BRANCH   7   8
HETATM    8  C3  UNL     1      -6.707 -24.488   3.818  1.00  0.00     0.054 C 
BRANCH   8   9
HETATM    9  C2  UNL     1      -6.794 -23.867   2.489  1.00  0.00    -0.035 C 
HETATM   10  C1  UNL     1      -7.774 -24.171   1.668  1.00  0.00     0.007 C 
ENDBRANCH   8   9
ENDBRANCH   7   8
ENDBRANCH   4   7
ENDBRANCH   3   4
ENDBRANCH   2   3
ENDBRANCH   1   2
BRANCH   1  11
HETATM   11  C8  UNL     1      -8.007 -20.356   2.574  1.00  0.00     0.000 C 
BRANCH  11  12
HETATM   12  C9  UNL     1      -8.308 -19.359   1.518  1.00  0.00     0.000 C 
BRANCH  12  13
HETATM   13  C10 UNL     1      -7.690 -19.597   0.200  1.00  0.00     0.004 C 
BRANCH  13  14
HETATM   14  C11 UNL     1      -7.204 -20.926  -0.194  1.00  0.00    -0.014 C 
HETATM   15  C12 UNL     1      -5.738 -21.114  -0.203  1.00  0.00     0.004 C 
HETATM   16  C13 UNL     1      -5.315 -21.928  -1.435  1.00  0.00     0.000 C 
HETATM   17  C14 UNL     1      -6.166 -23.175  -1.541  1.00  0.00     0.000 C 
HETATM   18  C15 UNL     1      -7.619 -22.806  -1.782  1.00  0.00     0.000 C 
HETATM   19  C16 UNL     1      -7.800 -21.323  -1.545  1.00  0.00     0.004 C 
ENDBRANCH  13  14
ENDBRANCH  12  13
ENDBRANCH  11  12
ENDBRANCH   1  11
TORSDOF 10
ENDMDL
MODEL 2
REMARK VINA RESULT: -6.043149882      2.108      5.316
REMARK  10 active torsions:
REMARK  status: ('A' for Active; 'I' for Inactive)
REMARK    1  A    between atoms: C2_2  and  C3_3 
REMARK    2  A    between atoms: C3_3  and  C4_4 
REMARK    3  A    between atoms: C4_4  and  N1_5 
REMARK    4  A    between atoms: N1_5  and  C5_8 
REMARK    5  A    between atoms: C5_8  and  C6_9 
REMARK    6  A    between atoms: C6_9  and  C7_10 
REMARK    7  A    between atoms: C7_10  and  C8_11 
REMARK    8  A    between atoms: C8_11  and  C9_12 
REMARK    9  A    between atoms: C9_12  and  C10_13 
REMARK   10  A    between atoms: C10_13  and  C11_14 
ROOT
HETATM    1  C7  UNL     1      -9.169 -19.924   1.038  1.00  0.00     0.002 C 
ENDROOT
BRANCH   1   2
HETATM    2  C6  UNL     1      -9.629 -20.735  -0.144  1.00  0.00     0.027 C 
BRANCH   2   3
HETATM    3  C5  UNL     1      -8.836 -20.557  -1.389  1.00  0.00     0.232 C 
BRANCH   3   4
HETATM    4  N1  UNL     1      -8.377 -21.795  -1.967  1.00  0.00    -0.075 N 
ATOM      5  H12 UNL     1      -8.745 -21.938  -2.907  1.00  0.00     0.277 HD
ATOM      6  H11 UNL     1      -8.799 -22.607  -1.517  1.00  0.00     0.277 HD
BRANCH   4   7
HETATM    7  C4  UNL     1      -6.956 -21.846  -1.937  1.00  0.00     0.236 C 
BRANCH   7   8
HETATM    8  C3  UNL     1      -6.434 -23.188  -1.432  1.00  0.00     0.054 C 
BRANCH   8   9
HETATM    9  C2  UNL     1      -6.623 -23.219   0.025  1.00  0.00    -0.035 C 
HETATM   10  C1  UNL     1      -7.340 -24.163   0.589  1.00  0.00     0.007 C 
ENDBRANCH   8   9
ENDBRANCH   7   8
ENDBRANCH   4   7
ENDBRANCH   3   4
ENDBRANCH   2   3
ENDBRANCH   1   2
BRANCH   1  11
HETATM   11  C8  UNL     1      -7.661 -19.710   0.930  1.00  0.00     0.000 C 
BRANCH  11  12
HETATM   12  C9  UNL     1      -6.957 -20.186   2.146  1.00  0.00     0.000 C 
BRANCH  12  13
HETATM   13  C10 UNL     1      -7.773 -20.304   3.369  1.00  0.00     0.004 C 
BRANCH  13  14
HETATM   14  C11 UNL     1      -7.490 -21.325   4.387  1.00  0.00    -0.014 C 
HETATM   15  C12 UNL     1      -6.731 -20.878   5.573  1.00  0.00     0.004 C 
HETATM   16  C13 UNL     1      -5.687 -21.934   5.965  1.00  0.00     0.000 C 
HETATM   17  C14 UNL     1      -6.343 -23.295   6.045  1.00  0.00     0.000 C 
HETATM   18  C15 UNL     1      -6.852 -23.720   4.678  1.00  0.00     0.000 C 
HETATM   19  C16 UNL     1      -6.808 -22.533   3.742  1.00  0.00     0.004 C 
ENDBRANCH  13  14
ENDBRANCH  12  13
ENDBRANCH  11  12
ENDBRANCH   1  11
TORSDOF 10
ENDMDL
MODEL 3
REMARK VINA RESULT: -6.041334288      1.362      3.989
REMARK  10 active torsions:
REMARK  status: ('A' for Active; 'I' for Inactive)
REMARK    1  A    between atoms: C2_2  and  C3_3 
REMARK    2  A    between atoms: C3_3  and  C4_4 
REMARK    3  A    between atoms: C4_4  and  N1_5 
REMARK    4  A    between atoms: N1_5  and  C5_8 
REMARK    5  A    between atoms: C5_8  and  C6_9 
REMARK    6  A    between atoms: C6_9  and  C7_10 
REMARK    7  A    between atoms: C7_10  and  C8_11 
REMARK    8  A    between atoms: C8_11  and  C9_12 
REMARK    9  A    between atoms: C9_12  and  C10_13 
REMARK   10  A    between atoms: C10_13  and  C11_14 
ROOT
HETATM    1  C7  UNL     1      -6.842 -25.180   3.910  1.00  0.00     0.002 C 
ENDROOT
BRANCH   1   2
HETATM    2  C6  UNL     1      -6.706 -23.933   4.744  1.00  0.00     0.027 C 
BRANCH   2   3
HETATM    3  C5  UNL     1      -7.741 -22.892   4.509  1.00  0.00     0.232 C 
BRANCH   3   4
HETATM    4  N1  UNL     1      -8.066 -22.122   5.684  1.00  0.00    -0.075 N 
ATOM      5  H12 UNL     1      -7.373 -22.240   6.422  1.00  0.00     0.277 HD
ATOM      6  H11 UNL     1      -8.875 -22.500   6.177  1.00  0.00     0.277 HD
BRANCH   4   7
HETATM    7  C4  UNL     1      -8.245 -20.756   5.333  1.00  0.00     0.236 C 
BRANCH   7   8
HETATM    8  C3  UNL     1      -7.203 -20.273   4.329  1.00  0.00     0.054 C 
BRANCH   8   9
HETATM    9  C2  UNL     1      -6.177 -19.530   5.074  1.00  0.00    -0.035 C 
HETATM   10  C1  UNL     1      -6.506 -18.514   5.839  1.00  0.00     0.007 C 
ENDBRANCH   8   9
ENDBRANCH   7   8
ENDBRANCH   4   7
ENDBRANCH   3   4
ENDBRANCH   2   3
ENDBRANCH   1   2
BRANCH   1  11
HETATM   11  C8  UNL     1      -8.039 -25.017   2.975  1.00  0.00     0.000 C 
BRANCH  11  12
HETATM   12  C9  UNL     1      -7.655 -25.233   1.559  1.00  0.00     0.000 C 
BRANCH  12  13
HETATM   13  C10 UNL     1      -7.008 -24.096   0.877  1.00  0.00     0.004 C 
BRANCH  13  14
HETATM   14  C11 UNL     1      -7.793 -23.081   0.160  1.00  0.00    -0.014 C 
HETATM   15  C12 UNL     1      -7.574 -22.991  -1.298  1.00  0.00     0.004 C 
HETATM   16  C13 UNL     1      -7.530 -21.520  -1.739  1.00  0.00     0.000 C 
HETATM   17  C14 UNL     1      -8.726 -20.782  -1.178  1.00  0.00     0.000 C 
HETATM   18  C15 UNL     1      -8.666 -20.750   0.339  1.00  0.00     0.000 C 
HETATM   19  C16 UNL     1      -7.599 -21.712   0.814  1.00  0.00     0.004 C 
ENDBRANCH  13  14
ENDBRANCH  12  13
ENDBRANCH  11  12
ENDBRANCH   1  11
TORSDOF 10
ENDMDL
MODEL 4
REMARK VINA RESULT: -6.040111378      1.488      3.952
REMARK  10 active torsions:
REMARK  status: ('A' for Active; 'I' for Inactive)
REMARK    1  A    between atoms: C2_2  and  C3_3 
REMARK    2  A    between atoms: C3_3  and  C4_4 
REMARK    3  A    between atoms: C4_4  and  N1_5 
REMARK    4  A    between atoms: N1_5  and  C5_8 
REMARK    5  A    between atoms: C5_8  and  C6_9 
REMARK    6  A    between atoms: C6_9  and  C7_10 
REMARK    7  A    between atoms: C7_10  and  C8_11 
REMARK    8  A    between atoms: C8_11  and  C9_12 
REMARK    9  A    between atoms: C9_12  and  C10_13 
REMARK   10  A    between atoms: C10_13  and  C11_14 
ROOT
HETATM    1  C7  UNL     1      -6.714 -25.150   3.794  1.00  0.00     0.002 C 
ENDROOT
BRANCH   1   2
HETATM    2  C6  UNL     1      -6.606 -24.046   4.813  1.00  0.00     0.027 C 
BRANCH   2   3
HETATM    3  C5  UNL     1      -7.676 -23.016   4.755  1.00  0.00     0.232 C 
BRANCH   3   4
HETATM    4  N1  UNL     1      -7.700 -22.139   5.898  1.00  0.00    -0.075 N 
ATOM      5  H12 UNL     1      -7.614 -22.651   6.775  1.00  0.00     0.277 HD
ATOM      6  H11 UNL     1      -8.624 -21.735   6.051  1.00  0.00     0.277 HD
BRANCH   4   7
HETATM    7  C4  UNL     1      -6.697 -21.140   5.763  1.00  0.00     0.236 C 
BRANCH   7   8
HETATM    8  C3  UNL     1      -6.781 -20.408   4.427  1.00  0.00     0.054 C 
BRANCH   8   9
HETATM    9  C2  UNL     1      -6.304 -19.034   4.641  1.00  0.00    -0.035 C 
HETATM   10  C1  UNL     1      -6.438 -18.451   5.810  1.00  0.00     0.007 C 
ENDBRANCH   8   9
ENDBRANCH   7   8
ENDBRANCH   4   7
ENDBRANCH   3   4
ENDBRANCH   2   3
ENDBRANCH   1   2
BRANCH   1  11
HETATM   11  C8  UNL     1      -8.108 -25.108   3.171  1.00  0.00     0.000 C 
BRANCH  11  12
HETATM   12  C9  UNL     1      -8.039 -25.077   1.689  1.00  0.00     0.000 C 
BRANCH  12  13
HETATM   13  C10 UNL     1      -6.876 -24.384   1.104  1.00  0.00     0.004 C 
BRANCH  13  14
HETATM   14  C11 UNL     1      -7.015 -23.093   0.416  1.00  0.00    -0.014 C 
HETATM   15  C12 UNL     1      -7.936 -22.116   1.033  1.00  0.00     0.004 C 
HETATM   16  C13 UNL     1      -8.763 -21.408  -0.050  1.00  0.00     0.000 C 
HETATM   17  C14 UNL     1      -7.847 -20.894  -1.139  1.00  0.00     0.000 C 
HETATM   18  C15 UNL     1      -7.163 -22.051  -1.847  1.00  0.00     0.000 C 
HETATM   19  C16 UNL     1      -7.382 -23.318  -1.051  1.00  0.00     0.004 C 
ENDBRANCH  13  14
ENDBRANCH  12  13
ENDBRANCH  11  12
ENDBRANCH   1  11
TORSDOF 10
ENDMDL
MODEL 5
REMARK VINA RESULT: -5.986841257      1.552      3.948
REMARK  10 active torsions:
REMARK  status: ('A' for Active; 'I' for Inactive)
REMARK    1  A    between atoms: C2_2  and  C3_3 
REMARK    2  A    between atoms: C3_3  and  C4_4 
REMARK    3  A    between atoms: C4_4  and  N1_5 
REMARK    4  A    between atoms: N1_5  and  C5_8 
REMARK    5  A    between atoms: C5_8  and  C6_9 
REMARK    6  A    between atoms: C6_9  and  C7_10 
REMARK    7  A    between atoms: C7_10  and  C8_11 
REMARK    8  A    between atoms: C8_11  and  C9_12 
REMARK    9  A    between atoms: C9_12  and  C10_13 
REMARK   10  A    between atoms: C10_13  and  C11_14 
ROOT
HETATM    1  C7  UNL     1      -7.575 -23.789   3.916  1.00  0.00     0.002 C 
ENDROOT
BRANCH   1   2
HETATM    2  C6  UNL     1      -6.523 -23.998   4.974  1.00  0.00     0.027 C 
BRANCH   2   3
HETATM    3  C5  UNL     1      -6.485 -22.970   6.048  1.00  0.00     0.232 C 
BRANCH   3   4
HETATM    4  N1  UNL     1      -7.634 -22.101   6.060  1.00  0.00    -0.075 N 
ATOM      5  H12 UNL     1      -8.375 -22.455   6.666  1.00  0.00     0.277 HD
ATOM      6  H11 UNL     1      -8.141 -22.124   5.176  1.00  0.00     0.277 HD
BRANCH   4   7
HETATM    7  C4  UNL     1      -7.241 -20.781   6.415  1.00  0.00     0.236 C 
BRANCH   7   8
HETATM    8  C3  UNL     1      -6.439 -20.098   5.312  1.00  0.00     0.054 C 
BRANCH   8   9
HETATM    9  C2  UNL     1      -6.418 -18.658   5.604  1.00  0.00    -0.035 C 
HETATM   10  C1  UNL     1      -6.375 -17.776   4.632  1.00  0.00     0.007 C 
ENDBRANCH   8   9
ENDBRANCH   7   8
ENDBRANCH   4   7
ENDBRANCH   3   4
ENDBRANCH   2   3
ENDBRANCH   1   2
BRANCH   1  11
HETATM   11  C8  UNL     1      -7.997 -25.151   3.369  1.00  0.00     0.000 C 
BRANCH  11  12
HETATM   12  C9  UNL     1      -7.974 -25.171   1.886  1.00  0.00     0.000 C 
BRANCH  12  13
HETATM   13  C10 UNL     1      -7.069 -24.206   1.234  1.00  0.00     0.004 C 
BRANCH  13  14
HETATM   14  C11 UNL     1      -7.518 -23.362   0.119  1.00  0.00    -0.014 C 
HETATM   15  C12 UNL     1      -6.568 -23.189  -1.000  1.00  0.00     0.004 C 
HETATM   16  C13 UNL     1      -6.575 -21.732  -1.483  1.00  0.00     0.000 C 
HETATM   17  C14 UNL     1      -7.999 -21.277  -1.717  1.00  0.00     0.000 C 
HETATM   18  C15 UNL     1      -8.776 -21.273  -0.412  1.00  0.00     0.000 C 
HETATM   19  C16 UNL     1      -7.975 -22.000   0.644  1.00  0.00     0.004 C 
ENDBRANCH  13  14
ENDBRANCH  12  13
ENDBRANCH  11  12
ENDBRANCH   1  11
TORSDOF 10
ENDMDL
