MODEL 1
REMARK VINA RESULT: -6.227651717      0.000      0.000
REMARK  10 active torsions:
REMARK  status: ('A' for Active; 'I' for Inactive)
REMARK    1  A    between atoms: C2_2  and  C3_3 
REMARK    2  A    between atoms: C3_3  and  C4_4 
REMARK    3  A    between atoms: C4_4  and  C5_5 
REMARK    4  A    between atoms: C5_5  and  C6_6 
REMARK    5  A    between atoms: C6_6  and  C7_7 
REMARK    6  A    between atoms: C10_10  and  C11_11 
REMARK    7  A    between atoms: C11_11  and  C12_12 
REMARK    8  A    between atoms: C12_12  and  C13_13 
REMARK    9  A    between atoms: C13_13  and  N1_14 
REMARK   10  A    between atoms: N1_14  and  C14_17 
ROOT
HETATM    1  C7  UNL     1      -7.345 -23.063   2.055  1.00  0.00    -0.010 C 
HETATM    2  C8  UNL     1      -6.553 -24.245   2.489  1.00  0.00     0.005 C 
HETATM    3  C9  UNL     1      -7.385 -25.045   1.507  1.00  0.00     0.005 C 
HETATM    4  C10 UNL     1      -7.599 -23.783   0.754  1.00  0.00    -0.010 C 
ENDROOT
BRANCH   4   5
HETATM    5  C11 UNL     1      -6.906 -23.464  -0.463  1.00  0.00     0.006 C 
BRANCH   5   6
HETATM    6  C12 UNL     1      -7.427 -22.870  -1.669  1.00  0.00     0.028 C 
BRANCH   6   7
HETATM    7  C13 UNL     1      -7.623 -21.393  -1.774  1.00  0.00     0.232 C 
BRANCH   7   8
HETATM    8  N1  UNL     1      -9.015 -20.977  -1.773  1.00  0.00    -0.075 N 
ATOM      9  H12 UNL     1      -9.187 -20.187  -2.394  1.00  0.00     0.277 HD
ATOM     10  H11 UNL     1      -9.625 -21.653  -2.232  1.00  0.00     0.277 HD
BRANCH   8  11
HETATM   11  C14 UNL     1      -9.415 -20.707  -0.410  1.00  0.00     0.228 C 
HETATM   12  C15 UNL     1     -10.873 -20.349  -0.389  1.00  0.00     0.034 C 
ENDBRANCH   8  11
ENDBRANCH   7   8
ENDBRANCH   6   7
ENDBRANCH   5   6
ENDBRANCH   4   5
BRANCH   1  13
HETATM   13  C6  UNL     1      -6.744 -21.737   2.023  1.00  0.00     0.005 C 
BRANCH  13  14
HETATM   14  C5  UNL     1      -7.586 -20.768   2.872  1.00  0.00     0.000 C 
BRANCH  14  15
HETATM   15  C4  UNL     1      -7.644 -21.217   4.263  1.00  0.00     0.000 C 
BRANCH  15  16
HETATM   16  C3  UNL     1      -6.564 -20.901   5.208  1.00  0.00    -0.000 C 
BRANCH  16  17
HETATM   17  C2  UNL     1      -5.712 -21.956   5.772  1.00  0.00    -0.005 C 
HETATM   18  C1  UNL     1      -6.447 -23.222   6.082  1.00  0.00     0.005 C 
ENDBRANCH  16  17
ENDBRANCH  15  16
ENDBRANCH  14  15
ENDBRANCH  13  14
ENDBRANCH   1  13
TORSDOF 10
ENDMDL
MODEL 2
REMARK VINA RESULT: -5.990478710      2.343      5.610
REMARK  10 active torsions:
REMARK  status: ('A' for Active; 'I' for Inactive)
REMARK    1  A    between atoms: C2_2  and  C3_3 
REMARK    2  A    between atoms: C3_3  and  C4_4 
REMARK    3  A    between atoms: C4_4  and  C5_5 
REMARK    4  A    between atoms: C5_5  and  C6_6 
REMARK    5  A    between atoms: C6_6  and  C7_7 
REMARK    6  A    between atoms: C10_10  and  C11_11 
REMARK    7  A    between atoms: C11_11  and  C12_12 
REMARK    8  A    between atoms: C12_12  and  C13_13 
REMARK    9  A    between atoms: C13_13  and  N1_14 
REMARK   10  A    between atoms: N1_14  and  C14_17 
ROOT
HETATM    1  C7  UNL     1      -8.328 -19.882   0.815  1.00  0.00    -0.010 C 
HETATM    2  C8  UNL     1      -7.043 -19.327   0.310  1.00  0.00     0.005 C 
HETATM    3  C9  UNL     1      -6.653 -19.158   1.764  1.00  0.00     0.005 C 
HETATM    4  C10 UNL     1      -7.601 -20.257   2.083  1.00  0.00    -0.010 C 
ENDROOT
BRANCH   4   5
HETATM    5  C11 UNL     1      -7.183 -21.599   2.376  1.00  0.00     0.006 C 
BRANCH   5   6
HETATM    6  C12 UNL     1      -6.958 -22.213   3.660  1.00  0.00     0.028 C 
BRANCH   6   7
HETATM    7  C13 UNL     1      -7.860 -23.292   4.165  1.00  0.00     0.232 C 
BRANCH   7   8
HETATM    8  N1  UNL     1      -7.453 -24.633   3.785  1.00  0.00    -0.075 N 
ATOM      9  H12 UNL     1      -6.474 -24.679   3.502  1.00  0.00     0.277 HD
ATOM     10  H11 UNL     1      -7.398 -25.265   4.584  1.00  0.00     0.277 HD
BRANCH   8  11
HETATM   11  C14 UNL     1      -8.349 -25.115   2.758  1.00  0.00     0.228 C 
HETATM   12  C15 UNL     1      -7.632 -25.110   1.440  1.00  0.00     0.034 C 
ENDBRANCH   8  11
ENDBRANCH   7   8
ENDBRANCH   6   7
ENDBRANCH   5   6
ENDBRANCH   4   5
BRANCH   1  13
HETATM   13  C6  UNL     1      -9.032 -20.918   0.073  1.00  0.00     0.005 C 
BRANCH  13  14
HETATM   14  C5  UNL     1      -8.352 -21.130  -1.291  1.00  0.00     0.000 C 
BRANCH  14  15
HETATM   15  C4  UNL     1      -7.981 -22.534  -1.470  1.00  0.00     0.000 C 
BRANCH  15  16
HETATM   16  C3  UNL     1      -6.578 -22.929  -1.663  1.00  0.00    -0.000 C 
BRANCH  16  17
HETATM   17  C2  UNL     1      -5.525 -22.467  -0.749  1.00  0.00    -0.005 C 
HETATM   18  C1  UNL     1      -4.548 -21.528  -1.383  1.00  0.00     0.005 C 
ENDBRANCH  16  17
ENDBRANCH  15  16
ENDBRANCH  14  15
ENDBRANCH  13  14
ENDBRANCH   1  13
TORSDOF 10
ENDMDL
MODEL 3
REMARK VINA RESULT: -5.965725756      1.288      2.778
REMARK  10 active torsions:
REMARK  status: ('A' for Active; 'I' for Inactive)
REMARK    1  A    between atoms: C2_2  and  C3_3 
REMARK    2  A    between atoms: C3_3  and  C4_4 
REMARK    3  A    between atoms: C4_4  and  C5_5 
REMARK    4  A    between atoms: C5_5  and  C6_6 
REMARK    5  A    between atoms: C6_6  and  C7_7 
REMARK    6  A    between atoms: C10_10  and  C11_11 
REMARK    7  A    between atoms: C11_11  and  C12_12 
REMARK    8  A    between atoms: C12_12  and  C13_13 
REMARK    9  A    between atoms: C13_13  and  N1_14 
REMARK   10  A    between atoms: N1_14  and  C14_17 
ROOT
HETATM    1  C7  UNL     1      -7.829 -24.059   3.453  1.00  0.00    -0.010 C 
HETATM    2  C8  UNL     1      -6.743 -25.034   3.167  1.00  0.00     0.005 C 
HETATM    3  C9  UNL     1      -7.016 -24.765   1.701  1.00  0.00     0.005 C 
HETATM    4  C10 UNL     1      -7.549 -23.440   2.107  1.00  0.00    -0.010 C 
ENDROOT
BRANCH   4   5
HETATM    5  C11 UNL     1      -6.818 -22.214   1.948  1.00  0.00     0.006 C 
BRANCH   5   6
HETATM    6  C12 UNL     1      -7.326 -20.877   1.762  1.00  0.00     0.028 C 
BRANCH   6   7
HETATM    7  C13 UNL     1      -8.198 -20.542   0.597  1.00  0.00     0.232 C 
BRANCH   7   8
HETATM    8  N1  UNL     1      -7.564 -20.736  -0.695  1.00  0.00    -0.075 N 
ATOM      9  H12 UNL     1      -7.463 -19.864  -1.215  1.00  0.00     0.277 HD
ATOM     10  H11 UNL     1      -6.574 -20.966  -0.613  1.00  0.00     0.277 HD
BRANCH   8  11
HETATM   11  C14 UNL     1      -8.306 -21.736  -1.429  1.00  0.00     0.228 C 
HETATM   12  C15 UNL     1      -7.390 -22.876  -1.767  1.00  0.00     0.034 C 
ENDBRANCH   8  11
ENDBRANCH   7   8
ENDBRANCH   6   7
ENDBRANCH   5   6
ENDBRANCH   4   5
BRANCH   1  13
HETATM   13  C6  UNL     1      -7.780 -23.219   4.641  1.00  0.00     0.005 C 
BRANCH  13  14
HETATM   14  C5  UNL     1      -6.448 -23.444   5.378  1.00  0.00     0.000 C 
BRANCH  14  15
HETATM   15  C4  UNL     1      -5.847 -22.166   5.760  1.00  0.00     0.000 C 
BRANCH  15  16
HETATM   16  C3  UNL     1      -6.653 -20.937   5.823  1.00  0.00    -0.000 C 
BRANCH  16  17
HETATM   17  C2  UNL     1      -6.222 -19.709   5.143  1.00  0.00    -0.005 C 
HETATM   18  C1  UNL     1      -6.572 -18.457   5.884  1.00  0.00     0.005 C 
ENDBRANCH  16  17
ENDBRANCH  15  16
ENDBRANCH  14  15
ENDBRANCH  13  14
ENDBRANCH   1  13
TORSDOF 10
ENDMDL
MODEL 4
REMARK VINA RESULT: -5.942354585      2.330      5.777
REMARK  10 active torsions:
REMARK  status: ('A' for Active; 'I' for Inactive)
REMARK    1  A    between atoms: C2_2  and  C3_3 
REMARK    2  A    between atoms: C3_3  and  C4_4 
REMARK    3  A    between atoms: C4_4  and  C5_5 
REMARK    4  A    between atoms: C5_5  and  C6_6 
REMARK    5  A    between atoms: C6_6  and  C7_7 
REMARK    6  A    between atoms: C10_10  and  C11_11 
REMARK    7  A    between atoms: C11_11  and  C12_12 
REMARK    8  A    between atoms: C12_12  and  C13_13 
REMARK    9  A    between atoms: C13_13  and  N1_14 
REMARK   10  A    between atoms: N1_14  and  C14_17 
ROOT
HETATM    1  C7  UNL     1      -8.388 -20.232   0.881  1.00  0.00    -0.010 C 
HETATM    2  C8  UNL     1      -7.162 -19.503   0.459  1.00  0.00     0.005 C 
HETATM    3  C9  UNL     1      -6.717 -19.609   1.903  1.00  0.00     0.005 C 
HETATM    4  C10 UNL     1      -7.585 -20.808   2.020  1.00  0.00    -0.010 C 
ENDROOT
BRANCH   4   5
HETATM    5  C11 UNL     1      -7.078 -22.152   2.017  1.00  0.00     0.006 C 
BRANCH   5   6
HETATM    6  C12 UNL     1      -7.514 -23.282   2.798  1.00  0.00     0.028 C 
BRANCH   6   7
HETATM    7  C13 UNL     1      -7.206 -23.372   4.257  1.00  0.00     0.232 C 
BRANCH   7   8
HETATM    8  N1  UNL     1      -8.127 -22.636   5.105  1.00  0.00    -0.075 N 
ATOM      9  H12 UNL     1      -8.928 -22.273   4.589  1.00  0.00     0.277 HD
ATOM     10  H11 UNL     1      -8.638 -23.244   5.746  1.00  0.00     0.277 HD
BRANCH   8  11
HETATM   11  C14 UNL     1      -7.394 -21.598   5.793  1.00  0.00     0.228 C 
HETATM   12  C15 UNL     1      -5.938 -21.960   5.820  1.00  0.00     0.034 C 
ENDBRANCH   8  11
ENDBRANCH   7   8
ENDBRANCH   6   7
ENDBRANCH   5   6
ENDBRANCH   4   5
BRANCH   1  13
HETATM   13  C6  UNL     1      -9.066 -21.139  -0.036  1.00  0.00     0.005 C 
BRANCH  13  14
HETATM   14  C5  UNL     1      -8.283 -21.217  -1.358  1.00  0.00     0.000 C 
BRANCH  14  15
HETATM   15  C4  UNL     1      -7.879 -22.595  -1.638  1.00  0.00     0.000 C 
BRANCH  15  16
HETATM   16  C3  UNL     1      -6.462 -22.951  -1.802  1.00  0.00    -0.000 C 
BRANCH  16  17
HETATM   17  C2  UNL     1      -5.438 -22.444  -0.878  1.00  0.00    -0.005 C 
HETATM   18  C1  UNL     1      -4.492 -21.468  -1.505  1.00  0.00     0.005 C 
ENDBRANCH  16  17
ENDBRANCH  15  16
ENDBRANCH  14  15
ENDBRANCH  13  14
ENDBRANCH   1  13
TORSDOF 10
ENDMDL
MODEL 5
REMARK VINA RESULT: -5.928320995      2.078      5.655
REMARK  10 active torsions:
REMARK  status: ('A' for Active; 'I' for Inactive)
REMARK    1  A    between atoms: C2_2  and  C3_3 
REMARK    2  A    between atoms: C3_3  and  C4_4 
REMARK    3  A    between atoms: C4_4  and  C5_5 
REMARK    4  A    between atoms: C5_5  and  C6_6 
REMARK    5  A    between atoms: C6_6  and  C7_7 
REMARK    6  A    between atoms: C10_10  and  C11_11 
REMARK    7  A    between atoms: C11_11  and  C12_12 
REMARK    8  A    between atoms: C12_12  and  C13_13 
REMARK    9  A    between atoms: C13_13  and  N1_14 
REMARK   10  A    between atoms: N1_14  and  C14_17 
ROOT
HETATM    1  C7  UNL     1      -6.379 -23.245   1.139  1.00  0.00    -0.010 C 
HETATM    2  C8  UNL     1      -7.625 -24.057   1.175  1.00  0.00     0.005 C 
HETATM    3  C9  UNL     1      -7.554 -23.927   2.682  1.00  0.00     0.005 C 
HETATM    4  C10 UNL     1      -6.779 -22.676   2.477  1.00  0.00    -0.010 C 
ENDROOT
BRANCH   4   5
HETATM    5  C11 UNL     1      -7.344 -21.365   2.631  1.00  0.00     0.006 C 
BRANCH   5   6
HETATM    6  C12 UNL     1      -7.351 -20.516   3.796  1.00  0.00     0.028 C 
BRANCH   6   7
HETATM    7  C13 UNL     1      -8.407 -20.657   4.843  1.00  0.00     0.232 C 
BRANCH   7   8
HETATM    8  N1  UNL     1      -8.268 -21.842   5.671  1.00  0.00    -0.075 N 
ATOM      9  H12 UNL     1      -9.012 -21.923   6.364  1.00  0.00     0.277 HD
ATOM     10  H11 UNL     1      -8.461 -22.701   5.157  1.00  0.00     0.277 HD
BRANCH   8  11
HETATM   11  C14 UNL     1      -6.952 -21.838   6.269  1.00  0.00     0.228 C 
HETATM   12  C15 UNL     1      -6.357 -23.210   6.153  1.00  0.00     0.034 C 
ENDBRANCH   8  11
ENDBRANCH   7   8
ENDBRANCH   6   7
ENDBRANCH   5   6
ENDBRANCH   4   5
BRANCH   1  13
HETATM   13  C6  UNL     1      -6.118 -22.334   0.034  1.00  0.00     0.005 C 
BRANCH  13  14
HETATM   14  C5  UNL     1      -6.934 -22.766  -1.197  1.00  0.00     0.000 C 
BRANCH  14  15
HETATM   15  C4  UNL     1      -7.652 -21.626  -1.767  1.00  0.00     0.000 C 
BRANCH  15  16
HETATM   16  C3  UNL     1      -8.432 -20.717  -0.914  1.00  0.00    -0.000 C 
BRANCH  16  17
HETATM   17  C2  UNL     1      -9.645 -21.175  -0.224  1.00  0.00    -0.005 C 
HETATM   18  C1  UNL     1     -10.811 -20.250  -0.379  1.00  0.00     0.005 C 
ENDBRANCH  16  17
ENDBRANCH  15  16
ENDBRANCH  14  15
ENDBRANCH  13  14
ENDBRANCH   1  13
TORSDOF 10
ENDMDL
