MODEL 1
REMARK VINA RESULT: -6.760061338      0.000      0.000
REMARK  10 active torsions:
REMARK  status: ('A' for Active; 'I' for Inactive)
REMARK    1  A    between atoms: C2_2  and  C3_3 
REMARK    2  A    between atoms: C3_3  and  N1_4 
REMARK    3  A    between atoms: N1_4  and  C4_6 
REMARK    4  A    between atoms: C4_6  and  C5_7 
REMARK    5  A    between atoms: C5_7  and  C6_8 
REMARK    6  A    between atoms: C6_8  and  C7_9 
REMARK    7  A    between atoms: C7_9  and  C8_10 
REMARK    8  A    between atoms: C8_10  and  C9_11 
REMARK    9  A    between atoms: C9_11  and  C10_12 
REMARK   10  A    between atoms: C10_12  and  C11_13 
ROOT
HETATM    1  C7  UNL     1      -7.614 -23.977   0.486  1.00  0.00     0.000 C 
ENDROOT
BRANCH   1   2
HETATM    2  C6  UNL     1      -6.372 -23.147   0.333  1.00  0.00     0.002 C 
BRANCH   2   3
HETATM    3  C5  UNL     1      -6.385 -22.433  -0.977  1.00  0.00     0.019 C 
BRANCH   3   4
HETATM    4  C4  UNL     1      -7.669 -22.872  -1.711  1.00  0.00     0.114 C 
BRANCH   4   5
HETATM    5  N1  UNL     1      -8.425 -21.722  -2.121  1.00  0.00    -0.418 N 
ATOM      6  H1  UNL     1      -8.866 -21.669  -3.039  1.00  0.00     0.153 HD
BRANCH   5   7
HETATM    7  C3  UNL     1      -8.527 -20.663  -1.183  1.00  0.00     0.140 C 
BRANCH   7   8
HETATM    8  C2  UNL     1      -9.595 -20.786  -0.173  1.00  0.00    -0.018 C 
HETATM    9  C1  UNL     1     -10.816 -20.354  -0.362  1.00  0.00     0.008 C 
ENDBRANCH   7   8
ENDBRANCH   5   7
ENDBRANCH   4   5
ENDBRANCH   3   4
ENDBRANCH   2   3
ENDBRANCH   1   2
BRANCH   1  10
HETATM   10  C8  UNL     1      -7.364 -25.114   1.407  1.00  0.00     0.000 C 
BRANCH  10  11
HETATM   11  C9  UNL     1      -7.989 -24.960   2.762  1.00  0.00     0.005 C 
BRANCH  11  12
HETATM   12  C10 UNL     1      -7.058 -24.875   3.913  1.00  0.00     0.038 C 
BRANCH  12  13
HETATM   13  C11 UNL     1      -6.815 -23.517   4.436  1.00  0.00    -0.058 A 
HETATM   14  C12 UNL     1      -7.197 -22.377   3.779  1.00  0.00     0.007 A 
HETATM   15  C13 UNL     1      -6.954 -21.106   4.308  1.00  0.00     0.001 A 
HETATM   16  C14 UNL     1      -6.316 -20.961   5.519  1.00  0.00     0.000 A 
HETATM   17  C15 UNL     1      -5.930 -22.100   6.185  1.00  0.00     0.001 A 
HETATM   18  C16 UNL     1      -6.168 -23.351   5.665  1.00  0.00     0.007 A 
ENDBRANCH  12  13
ENDBRANCH  11  12
ENDBRANCH  10  11
ENDBRANCH   1  10
TORSDOF 10
ENDMDL
MODEL 2
REMARK VINA RESULT: -6.683671976      1.235      3.844
REMARK  10 active torsions:
REMARK  status: ('A' for Active; 'I' for Inactive)
REMARK    1  A    between atoms: C2_2  and  C3_3 
REMARK    2  A    between atoms: C3_3  and  N1_4 
REMARK    3  A    between atoms: N1_4  and  C4_6 
REMARK    4  A    between atoms: C4_6  and  C5_7 
REMARK    5  A    between atoms: C5_7  and  C6_8 
REMARK    6  A    between atoms: C6_8  and  C7_9 
REMARK    7  A    between atoms: C7_9  and  C8_10 
REMARK    8  A    between atoms: C8_10  and  C9_11 
REMARK    9  A    between atoms: C9_11  and  C10_12 
REMARK   10  A    between atoms: C10_12  and  C11_13 
ROOT
HETATM    1  C7  UNL     1      -8.117 -20.089   2.562  1.00  0.00     0.000 C 
ENDROOT
BRANCH   1   2
HETATM    2  C6  UNL     1      -7.634 -20.321   1.159  1.00  0.00     0.002 C 
BRANCH   2   3
HETATM    3  C5  UNL     1      -8.546 -21.262   0.447  1.00  0.00     0.019 C 
BRANCH   3   4
HETATM    4  C4  UNL     1      -8.798 -20.666  -0.953  1.00  0.00     0.114 C 
BRANCH   4   5
HETATM    5  N1  UNL     1      -8.474 -21.629  -1.969  1.00  0.00    -0.418 N 
ATOM      6  H1  UNL     1      -8.713 -21.476  -2.948  1.00  0.00     0.153 HD
BRANCH   5   7
HETATM    7  C3  UNL     1      -7.804 -22.802  -1.539  1.00  0.00     0.140 C 
BRANCH   7   8
HETATM    8  C2  UNL     1      -6.382 -22.917  -1.914  1.00  0.00    -0.018 C 
HETATM    9  C1  UNL     1      -5.427 -22.241  -1.327  1.00  0.00     0.008 C 
ENDBRANCH   7   8
ENDBRANCH   5   7
ENDBRANCH   4   5
ENDBRANCH   3   4
ENDBRANCH   2   3
ENDBRANCH   1   2
BRANCH   1  10
HETATM   10  C8  UNL     1      -6.981 -20.151   3.515  1.00  0.00     0.000 C 
BRANCH  10  11
HETATM   11  C9  UNL     1      -7.150 -21.156   4.615  1.00  0.00     0.005 C 
BRANCH  11  12
HETATM   12  C10 UNL     1      -6.351 -22.400   4.502  1.00  0.00     0.038 C 
BRANCH  12  13
HETATM   13  C11 UNL     1      -6.828 -23.374   3.502  1.00  0.00    -0.058 A 
HETATM   14  C12 UNL     1      -6.216 -23.575   2.294  1.00  0.00     0.007 A 
HETATM   15  C13 UNL     1      -6.694 -24.511   1.372  1.00  0.00     0.001 A 
HETATM   16  C14 UNL     1      -7.809 -25.267   1.656  1.00  0.00     0.000 A 
HETATM   17  C15 UNL     1      -8.429 -25.073   2.868  1.00  0.00     0.001 A 
HETATM   18  C16 UNL     1      -7.959 -24.152   3.774  1.00  0.00     0.007 A 
ENDBRANCH  12  13
ENDBRANCH  11  12
ENDBRANCH  10  11
ENDBRANCH   1  10
TORSDOF 10
ENDMDL
MODEL 3
REMARK VINA RESULT: -6.578844161      0.885      1.196
REMARK  10 active torsions:
REMARK  status: ('A' for Active; 'I' for Inactive)
REMARK    1  A    between atoms: C2_2  and  C3_3 
REMARK    2  A    between atoms: C3_3  and  N1_4 
REMARK    3  A    between atoms: N1_4  and  C4_6 
REMARK    4  A    between atoms: C4_6  and  C5_7 
REMARK    5  A    between atoms: C5_7  and  C6_8 
REMARK    6  A    between atoms: C6_8  and  C7_9 
REMARK    7  A    between atoms: C7_9  and  C8_10 
REMARK    8  A    between atoms: C8_10  and  C9_11 
REMARK    9  A    between atoms: C9_11  and  C10_12 
REMARK   10  A    between atoms: C10_12  and  C11_13 
ROOT
HETATM    1  C7  UNL     1      -6.509 -23.231   0.390  1.00  0.00     0.000 C 
ENDROOT
BRANCH   1   2
HETATM    2  C6  UNL     1      -6.327 -23.245  -1.100  1.00  0.00     0.002 C 
BRANCH   2   3
HETATM    3  C5  UNL     1      -7.602 -22.881  -1.781  1.00  0.00     0.019 C 
BRANCH   3   4
HETATM    4  C4  UNL     1      -7.710 -21.343  -1.734  1.00  0.00     0.114 C 
BRANCH   4   5
HETATM    5  N1  UNL     1      -9.088 -20.940  -1.753  1.00  0.00    -0.418 N 
ATOM      6  H1  UNL     1      -9.612 -20.864  -2.625  1.00  0.00     0.153 HD
BRANCH   5   7
HETATM    7  C3  UNL     1      -9.682 -20.652  -0.498  1.00  0.00     0.140 C 
BRANCH   7   8
HETATM    8  C2  UNL     1      -8.760 -20.288   0.594  1.00  0.00    -0.018 C 
HETATM    9  C1  UNL     1      -9.098 -19.511   1.591  1.00  0.00     0.008 C 
ENDBRANCH   7   8
ENDBRANCH   5   7
ENDBRANCH   4   5
ENDBRANCH   3   4
ENDBRANCH   2   3
ENDBRANCH   1   2
BRANCH   1  10
HETATM   10  C8  UNL     1      -7.187 -24.474   0.838  1.00  0.00     0.000 C 
BRANCH  10  11
HETATM   11  C9  UNL     1      -8.165 -24.276   1.958  1.00  0.00     0.005 C 
BRANCH  11  12
HETATM   12  C10 UNL     1      -7.673 -24.575   3.324  1.00  0.00     0.038 C 
BRANCH  12  13
HETATM   13  C11 UNL     1      -7.187 -23.415   4.094  1.00  0.00    -0.058 A 
HETATM   14  C12 UNL     1      -7.381 -22.116   3.703  1.00  0.00     0.007 A 
HETATM   15  C13 UNL     1      -6.909 -21.040   4.461  1.00  0.00     0.001 A 
HETATM   16  C14 UNL     1      -6.227 -21.258   5.637  1.00  0.00     0.000 A 
HETATM   17  C15 UNL     1      -6.029 -22.558   6.038  1.00  0.00     0.001 A 
HETATM   18  C16 UNL     1      -6.493 -23.617   5.292  1.00  0.00     0.007 A 
ENDBRANCH  12  13
ENDBRANCH  11  12
ENDBRANCH  10  11
ENDBRANCH   1  10
TORSDOF 10
ENDMDL
MODEL 4
REMARK VINA RESULT: -6.570888079      0.881      1.646
REMARK  10 active torsions:
REMARK  status: ('A' for Active; 'I' for Inactive)
REMARK    1  A    between atoms: C2_2  and  C3_3 
REMARK    2  A    between atoms: C3_3  and  N1_4 
REMARK    3  A    between atoms: N1_4  and  C4_6 
REMARK    4  A    between atoms: C4_6  and  C5_7 
REMARK    5  A    between atoms: C5_7  and  C6_8 
REMARK    6  A    between atoms: C6_8  and  C7_9 
REMARK    7  A    between atoms: C7_9  and  C8_10 
REMARK    8  A    between atoms: C8_10  and  C9_11 
REMARK    9  A    between atoms: C9_11  and  C10_12 
REMARK   10  A    between atoms: C10_12  and  C11_13 
ROOT
HETATM    1  C7  UNL     1      -6.493 -23.229   0.381  1.00  0.00     0.000 C 
ENDROOT
BRANCH   1   2
HETATM    2  C6  UNL     1      -6.310 -23.239  -1.110  1.00  0.00     0.002 C 
BRANCH   2   3
HETATM    3  C5  UNL     1      -7.587 -22.879  -1.791  1.00  0.00     0.019 C 
BRANCH   3   4
HETATM    4  C4  UNL     1      -7.706 -21.342  -1.731  1.00  0.00     0.114 C 
BRANCH   4   5
HETATM    5  N1  UNL     1      -9.088 -20.949  -1.750  1.00  0.00    -0.418 N 
ATOM      6  H1  UNL     1      -9.615 -20.884  -2.621  1.00  0.00     0.153 HD
BRANCH   5   7
HETATM    7  C3  UNL     1      -9.681 -20.656  -0.496  1.00  0.00     0.140 C 
BRANCH   7   8
HETATM    8  C2  UNL     1      -8.756 -20.312   0.600  1.00  0.00    -0.018 C 
HETATM    9  C1  UNL     1      -9.081 -19.527   1.596  1.00  0.00     0.008 C 
ENDBRANCH   7   8
ENDBRANCH   5   7
ENDBRANCH   4   5
ENDBRANCH   3   4
ENDBRANCH   2   3
ENDBRANCH   1   2
BRANCH   1  10
HETATM   10  C8  UNL     1      -7.221 -24.446   0.818  1.00  0.00     0.000 C 
BRANCH  10  11
HETATM   11  C9  UNL     1      -8.173 -24.223   1.955  1.00  0.00     0.005 C 
BRANCH  11  12
HETATM   12  C10 UNL     1      -7.684 -24.584   3.307  1.00  0.00     0.038 C 
BRANCH  12  13
HETATM   13  C11 UNL     1      -7.181 -23.462   4.122  1.00  0.00    -0.058 A 
HETATM   14  C12 UNL     1      -6.492 -23.631   5.294  1.00  0.00     0.007 A 
HETATM   15  C13 UNL     1      -6.027 -22.543   6.038  1.00  0.00     0.001 A 
HETATM   16  C14 UNL     1      -6.250 -21.254   5.609  1.00  0.00     0.000 A 
HETATM   17  C15 UNL     1      -6.939 -21.076   4.434  1.00  0.00     0.001 A 
HETATM   18  C16 UNL     1      -7.398 -22.146   3.702  1.00  0.00     0.007 A 
ENDBRANCH  12  13
ENDBRANCH  11  12
ENDBRANCH  10  11
ENDBRANCH   1  10
TORSDOF 10
ENDMDL
MODEL 5
REMARK VINA RESULT: -6.563467797      2.298      5.750
REMARK  10 active torsions:
REMARK  status: ('A' for Active; 'I' for Inactive)
REMARK    1  A    between atoms: C2_2  and  C3_3 
REMARK    2  A    between atoms: C3_3  and  N1_4 
REMARK    3  A    between atoms: N1_4  and  C4_6 
REMARK    4  A    between atoms: C4_6  and  C5_7 
REMARK    5  A    between atoms: C5_7  and  C6_8 
REMARK    6  A    between atoms: C6_8  and  C7_9 
REMARK    7  A    between atoms: C7_9  and  C8_10 
REMARK    8  A    between atoms: C8_10  and  C9_11 
REMARK    9  A    between atoms: C9_11  and  C10_12 
REMARK   10  A    between atoms: C10_12  and  C11_13 
ROOT
HETATM    1  C7  UNL     1      -6.613 -24.905   3.920  1.00  0.00     0.000 C 
ENDROOT
BRANCH   1   2
HETATM    2  C6  UNL     1      -6.712 -23.812   4.946  1.00  0.00     0.002 C 
BRANCH   2   3
HETATM    3  C5  UNL     1      -6.601 -22.477   4.292  1.00  0.00     0.019 C 
BRANCH   3   4
HETATM    4  C4  UNL     1      -7.919 -21.728   4.579  1.00  0.00     0.114 C 
BRANCH   4   5
HETATM    5  N1  UNL     1      -8.092 -21.551   5.993  1.00  0.00    -0.418 N 
ATOM      6  H1  UNL     1      -8.758 -22.110   6.527  1.00  0.00     0.153 HD
BRANCH   5   7
HETATM    7  C3  UNL     1      -7.290 -20.558   6.611  1.00  0.00     0.140 C 
BRANCH   7   8
HETATM    8  C2  UNL     1      -7.377 -19.200   6.041  1.00  0.00    -0.018 C 
HETATM    9  C1  UNL     1      -6.333 -18.526   5.629  1.00  0.00     0.008 C 
ENDBRANCH   7   8
ENDBRANCH   5   7
ENDBRANCH   4   5
ENDBRANCH   3   4
ENDBRANCH   2   3
ENDBRANCH   1   2
BRANCH   1  10
HETATM   10  C8  UNL     1      -7.958 -25.231   3.384  1.00  0.00     0.000 C 
BRANCH  10  11
HETATM   11  C9  UNL     1      -8.048 -25.214   1.887  1.00  0.00     0.005 C 
BRANCH  11  12
HETATM   12  C10 UNL     1      -6.933 -24.555   1.166  1.00  0.00     0.038 C 
BRANCH  12  13
HETATM   13  C11 UNL     1      -7.323 -23.468   0.248  1.00  0.00    -0.058 A 
HETATM   14  C12 UNL     1      -6.856 -23.361  -1.035  1.00  0.00     0.007 A 
HETATM   15  C13 UNL     1      -7.252 -22.318  -1.879  1.00  0.00     0.001 A 
HETATM   16  C14 UNL     1      -8.133 -21.357  -1.438  1.00  0.00     0.000 A 
HETATM   17  C15 UNL     1      -8.608 -21.458  -0.152  1.00  0.00     0.001 A 
HETATM   18  C16 UNL     1      -8.218 -22.483   0.678  1.00  0.00     0.007 A 
ENDBRANCH  12  13
ENDBRANCH  11  12
ENDBRANCH  10  11
ENDBRANCH   1  10
TORSDOF 10
ENDMDL
