MODEL 1
REMARK VINA RESULT: -5.746238763      0.000      0.000
REMARK  10 active torsions:
REMARK  status: ('A' for Active; 'I' for Inactive)
REMARK    1  A    between atoms: C2_2  and  C3_3 
REMARK    2  A    between atoms: C3_3  and  C4_4 
REMARK    3  A    between atoms: C4_4  and  C5_5 
REMARK    4  A    between atoms: C5_5  and  C6_6 
REMARK    5  A    between atoms: C6_6  and  C7_7 
REMARK    6  A    between atoms: C9_9  and  C10_10 
REMARK    7  A    between atoms: C10_10  and  N1_11 
REMARK    8  A    between atoms: N1_11  and  C11_14 
REMARK    9  A    between atoms: C11_14  and  C12_15 
REMARK   10  A    between atoms: C12_15  and  C13_16 
ROOT
HETATM    1  C7  UNL     1      -6.711 -23.727   0.055  1.00  0.00    -0.014 C 
HETATM    2  C8  UNL     1      -7.885 -24.031   0.877  1.00  0.00     0.011 C 
HETATM    3  C9  UNL     1      -7.093 -23.682   2.120  1.00  0.00     0.012 C 
HETATM    4  C15 UNL     1      -6.119 -22.953   1.236  1.00  0.00     0.011 C 
ENDROOT
BRANCH   3   5
HETATM    5  C10 UNL     1      -6.542 -24.908   2.825  1.00  0.00     0.237 C 
BRANCH   5   6
HETATM    6  N1  UNL     1      -7.052 -24.911   4.176  1.00  0.00    -0.075 N 
ATOM      7  H12 UNL     1      -7.876 -25.506   4.264  1.00  0.00     0.277 HD
ATOM      8  H11 UNL     1      -6.430 -25.411   4.811  1.00  0.00     0.277 HD
BRANCH   6   9
HETATM    9  C11 UNL     1      -7.314 -23.573   4.632  1.00  0.00     0.232 C 
BRANCH   9  10
HETATM   10  C12 UNL     1      -6.504 -23.265   5.850  1.00  0.00     0.027 C 
BRANCH  10  11
HETATM   11  C13 UNL     1      -5.792 -21.924   5.731  1.00  0.00    -0.003 C 
HETATM   12  C14 UNL     1      -6.637 -21.080   4.784  1.00  0.00     0.005 C 
ENDBRANCH  10  11
ENDBRANCH   9  10
ENDBRANCH   6   9
ENDBRANCH   5   6
ENDBRANCH   3   5
BRANCH   1  13
HETATM   13  C6  UNL     1      -6.730 -22.995  -1.211  1.00  0.00     0.005 C 
BRANCH  13  14
HETATM   14  C5  UNL     1      -7.949 -22.430  -1.786  1.00  0.00     0.000 C 
BRANCH  14  15
HETATM   15  C4  UNL     1      -8.331 -21.037  -1.468  1.00  0.00     0.000 C 
BRANCH  15  16
HETATM   16  C3  UNL     1      -9.363 -20.865  -0.400  1.00  0.00    -0.000 C 
BRANCH  16  17
HETATM   17  C2  UNL     1      -8.738 -20.286   0.858  1.00  0.00    -0.005 C 
HETATM   18  C1  UNL     1      -7.465 -19.570   0.428  1.00  0.00     0.005 C 
ENDBRANCH  16  17
ENDBRANCH  15  16
ENDBRANCH  14  15
ENDBRANCH  13  14
ENDBRANCH   1  13
TORSDOF 10
ENDMDL
MODEL 2
REMARK VINA RESULT: -5.607196660      1.245      2.120
REMARK  10 active torsions:
REMARK  status: ('A' for Active; 'I' for Inactive)
REMARK    1  A    between atoms: C2_2  and  C3_3 
REMARK    2  A    between atoms: C3_3  and  C4_4 
REMARK    3  A    between atoms: C4_4  and  C5_5 
REMARK    4  A    between atoms: C5_5  and  C6_6 
REMARK    5  A    between atoms: C6_6  and  C7_7 
REMARK    6  A    between atoms: C9_9  and  C10_10 
REMARK    7  A    between atoms: C10_10  and  N1_11 
REMARK    8  A    between atoms: N1_11  and  C11_14 
REMARK    9  A    between atoms: C11_14  and  C12_15 
REMARK   10  A    between atoms: C12_15  and  C13_16 
ROOT
HETATM    1  C7  UNL     1      -7.409 -23.694   1.611  1.00  0.00    -0.014 C 
HETATM    2  C8  UNL     1      -6.819 -22.541   2.295  1.00  0.00     0.011 C 
HETATM    3  C9  UNL     1      -6.437 -23.436   3.456  1.00  0.00     0.012 C 
HETATM    4  C15 UNL     1      -6.614 -24.616   2.541  1.00  0.00     0.011 C 
ENDROOT
BRANCH   3   5
HETATM    5  C10 UNL     1      -7.422 -23.351   4.608  1.00  0.00     0.237 C 
BRANCH   5   6
HETATM    6  N1  UNL     1      -6.666 -23.250   5.833  1.00  0.00    -0.075 N 
ATOM      7  H12 UNL     1      -7.268 -23.318   6.653  1.00  0.00     0.277 HD
ATOM      8  H11 UNL     1      -6.094 -24.079   5.991  1.00  0.00     0.277 HD
BRANCH   6   9
HETATM    9  C11 UNL     1      -5.875 -22.049   5.855  1.00  0.00     0.232 C 
BRANCH   9  10
HETATM   10  C12 UNL     1      -6.745 -20.850   6.055  1.00  0.00     0.027 C 
BRANCH  10  11
HETATM   11  C13 UNL     1      -6.428 -19.748   5.052  1.00  0.00    -0.003 C 
HETATM   12  C14 UNL     1      -6.428 -18.445   5.843  1.00  0.00     0.005 C 
ENDBRANCH  10  11
ENDBRANCH   9  10
ENDBRANCH   6   9
ENDBRANCH   5   6
ENDBRANCH   3   5
BRANCH   1  13
HETATM   13  C6  UNL     1      -7.274 -23.994   0.186  1.00  0.00     0.005 C 
BRANCH  13  14
HETATM   14  C5  UNL     1      -6.477 -23.179  -0.727  1.00  0.00     0.000 C 
BRANCH  14  15
HETATM   15  C4  UNL     1      -7.147 -22.423  -1.808  1.00  0.00     0.000 C 
BRANCH  15  16
HETATM   16  C3  UNL     1      -8.379 -21.670  -1.419  1.00  0.00    -0.000 C 
BRANCH  16  17
HETATM   17  C2  UNL     1      -8.013 -20.404  -0.662  1.00  0.00    -0.005 C 
HETATM   18  C1  UNL     1      -9.075 -20.211   0.411  1.00  0.00     0.005 C 
ENDBRANCH  16  17
ENDBRANCH  15  16
ENDBRANCH  14  15
ENDBRANCH  13  14
ENDBRANCH   1  13
TORSDOF 10
ENDMDL
MODEL 3
REMARK VINA RESULT: -5.590057375      1.300      2.237
REMARK  10 active torsions:
REMARK  status: ('A' for Active; 'I' for Inactive)
REMARK    1  A    between atoms: C2_2  and  C3_3 
REMARK    2  A    between atoms: C3_3  and  C4_4 
REMARK    3  A    between atoms: C4_4  and  C5_5 
REMARK    4  A    between atoms: C5_5  and  C6_6 
REMARK    5  A    between atoms: C6_6  and  C7_7 
REMARK    6  A    between atoms: C9_9  and  C10_10 
REMARK    7  A    between atoms: C10_10  and  N1_11 
REMARK    8  A    between atoms: N1_11  and  C11_14 
REMARK    9  A    between atoms: C11_14  and  C12_15 
REMARK   10  A    between atoms: C12_15  and  C13_16 
ROOT
HETATM    1  C7  UNL     1      -7.048 -24.328   1.952  1.00  0.00    -0.014 C 
HETATM    2  C8  UNL     1      -8.040 -24.713   2.959  1.00  0.00     0.011 C 
HETATM    3  C9  UNL     1      -7.615 -23.536   3.814  1.00  0.00     0.012 C 
HETATM    4  C15 UNL     1      -6.984 -22.936   2.588  1.00  0.00     0.011 C 
ENDROOT
BRANCH   3   5
HETATM    5  C10 UNL     1      -6.650 -23.932   4.916  1.00  0.00     0.237 C 
BRANCH   5   6
HETATM    6  N1  UNL     1      -6.928 -23.108   6.068  1.00  0.00    -0.075 N 
ATOM      7  H12 UNL     1      -7.916 -22.859   6.123  1.00  0.00     0.277 HD
ATOM      8  H11 UNL     1      -6.852 -23.638   6.936  1.00  0.00     0.277 HD
BRANCH   6   9
HETATM    9  C11 UNL     1      -6.087 -21.942   6.084  1.00  0.00     0.232 C 
BRANCH   9  10
HETATM   10  C12 UNL     1      -6.913 -20.697   6.074  1.00  0.00     0.027 C 
BRANCH  10  11
HETATM   11  C13 UNL     1      -6.451 -19.719   5.002  1.00  0.00    -0.003 C 
HETATM   12  C14 UNL     1      -6.386 -18.354   5.676  1.00  0.00     0.005 C 
ENDBRANCH  10  11
ENDBRANCH   9  10
ENDBRANCH   6   9
ENDBRANCH   5   6
ENDBRANCH   3   5
BRANCH   1  13
HETATM   13  C6  UNL     1      -7.263 -24.334   0.506  1.00  0.00     0.005 C 
BRANCH  13  14
HETATM   14  C5  UNL     1      -6.810 -23.257  -0.372  1.00  0.00     0.000 C 
BRANCH  14  15
HETATM   15  C4  UNL     1      -7.629 -22.872  -1.542  1.00  0.00     0.000 C 
BRANCH  15  16
HETATM   16  C3  UNL     1      -8.037 -21.436  -1.615  1.00  0.00    -0.000 C 
BRANCH  16  17
HETATM   17  C2  UNL     1      -8.439 -20.923  -0.242  1.00  0.00    -0.005 C 
HETATM   18  C1  UNL     1      -9.944 -20.695  -0.281  1.00  0.00     0.005 C 
ENDBRANCH  16  17
ENDBRANCH  15  16
ENDBRANCH  14  15
ENDBRANCH  13  14
ENDBRANCH   1  13
TORSDOF 10
ENDMDL
MODEL 4
REMARK VINA RESULT: -5.586712730      1.676      5.445
REMARK  10 active torsions:
REMARK  status: ('A' for Active; 'I' for Inactive)
REMARK    1  A    between atoms: C2_2  and  C3_3 
REMARK    2  A    between atoms: C3_3  and  C4_4 
REMARK    3  A    between atoms: C4_4  and  C5_5 
REMARK    4  A    between atoms: C5_5  and  C6_6 
REMARK    5  A    between atoms: C6_6  and  C7_7 
REMARK    6  A    between atoms: C9_9  and  C10_10 
REMARK    7  A    between atoms: C10_10  and  N1_11 
REMARK    8  A    between atoms: N1_11  and  C11_14 
REMARK    9  A    between atoms: C11_14  and  C12_15 
REMARK   10  A    between atoms: C12_15  and  C13_16 
ROOT
HETATM    1  C7  UNL     1      -6.532 -24.246   2.522  1.00  0.00    -0.014 C 
HETATM    2  C8  UNL     1      -6.967 -22.930   2.046  1.00  0.00     0.011 C 
HETATM    3  C9  UNL     1      -7.644 -23.592   0.863  1.00  0.00     0.012 C 
HETATM    4  C15 UNL     1      -7.590 -24.890   1.621  1.00  0.00     0.011 C 
ENDROOT
BRANCH   3   5
HETATM    5  C10 UNL     1      -6.802 -23.537  -0.398  1.00  0.00     0.237 C 
BRANCH   5   6
HETATM    6  N1  UNL     1      -7.623 -23.005  -1.459  1.00  0.00    -0.075 N 
ATOM      7  H12 UNL     1      -7.554 -23.568  -2.306  1.00  0.00     0.277 HD
ATOM      8  H11 UNL     1      -8.616 -23.134  -1.266  1.00  0.00     0.277 HD
BRANCH   6   9
HETATM    9  C11 UNL     1      -7.308 -21.625  -1.714  1.00  0.00     0.232 C 
BRANCH   9  10
HETATM   10  C12 UNL     1      -8.486 -20.754  -1.422  1.00  0.00     0.027 C 
BRANCH  10  11
HETATM   11  C13 UNL     1      -8.390 -20.119  -0.041  1.00  0.00    -0.003 C 
HETATM   12  C14 UNL     1      -6.921 -19.770   0.163  1.00  0.00     0.005 C 
ENDBRANCH  10  11
ENDBRANCH   9  10
ENDBRANCH   6   9
ENDBRANCH   5   6
ENDBRANCH   3   5
BRANCH   1  13
HETATM   13  C6  UNL     1      -6.556 -24.693   3.913  1.00  0.00     0.005 C 
BRANCH  13  14
HETATM   14  C5  UNL     1      -7.118 -23.892   4.998  1.00  0.00     0.000 C 
BRANCH  14  15
HETATM   15  C4  UNL     1      -6.217 -23.265   5.989  1.00  0.00     0.000 C 
BRANCH  15  16
HETATM   16  C3  UNL     1      -5.848 -21.839   5.734  1.00  0.00    -0.000 C 
BRANCH  16  17
HETATM   17  C2  UNL     1      -7.074 -21.033   5.335  1.00  0.00    -0.005 C 
HETATM   18  C1  UNL     1      -6.576 -19.851   4.515  1.00  0.00     0.005 C 
ENDBRANCH  16  17
ENDBRANCH  15  16
ENDBRANCH  14  15
ENDBRANCH  13  14
ENDBRANCH   1  13
TORSDOF 10
ENDMDL
MODEL 5
REMARK VINA RESULT: -5.556099436      1.818      3.727
REMARK  10 active torsions:
REMARK  status: ('A' for Active; 'I' for Inactive)
REMARK    1  A    between atoms: C2_2  and  C3_3 
REMARK    2  A    between atoms: C3_3  and  C4_4 
REMARK    3  A    between atoms: C4_4  and  C5_5 
REMARK    4  A    between atoms: C5_5  and  C6_6 
REMARK    5  A    between atoms: C6_6  and  C7_7 
REMARK    6  A    between atoms: C9_9  and  C10_10 
REMARK    7  A    between atoms: C10_10  and  N1_11 
REMARK    8  A    between atoms: N1_11  and  C11_14 
REMARK    9  A    between atoms: C11_14  and  C12_15 
REMARK   10  A    between atoms: C12_15  and  C13_16 
ROOT
HETATM    1  C7  UNL     1      -7.660 -19.804   0.023  1.00  0.00    -0.014 C 
HETATM    2  C8  UNL     1      -6.325 -19.915   0.615  1.00  0.00     0.011 C 
HETATM    3  C9  UNL     1      -6.955 -20.078   1.983  1.00  0.00     0.012 C 
HETATM    4  C15 UNL     1      -8.245 -20.429   1.294  1.00  0.00     0.011 C 
ENDROOT
BRANCH   3   5
HETATM    5  C10 UNL     1      -6.971 -18.784   2.777  1.00  0.00     0.237 C 
BRANCH   5   6
HETATM    6  N1  UNL     1      -6.389 -19.049   4.071  1.00  0.00    -0.075 N 
ATOM      7  H12 UNL     1      -5.446 -19.429   3.988  1.00  0.00     0.277 HD
ATOM      8  H11 UNL     1      -6.165 -18.185   4.566  1.00  0.00     0.277 HD
BRANCH   6   9
HETATM    9  C11 UNL     1      -7.238 -19.904   4.855  1.00  0.00     0.232 C 
BRANCH   9  10
HETATM   10  C12 UNL     1      -6.421 -20.817   5.710  1.00  0.00     0.027 C 
BRANCH  10  11
HETATM   11  C13 UNL     1      -6.169 -22.155   5.028  1.00  0.00    -0.003 C 
HETATM   12  C14 UNL     1      -6.353 -23.218   6.105  1.00  0.00     0.005 C 
ENDBRANCH  10  11
ENDBRANCH   9  10
ENDBRANCH   6   9
ENDBRANCH   5   6
ENDBRANCH   3   5
BRANCH   1  13
HETATM   13  C6  UNL     1      -8.088 -20.435  -1.224  1.00  0.00     0.005 C 
BRANCH  13  14
HETATM   14  C5  UNL     1      -8.475 -21.841  -1.314  1.00  0.00     0.000 C 
BRANCH  14  15
HETATM   15  C4  UNL     1      -7.480 -22.849  -1.743  1.00  0.00     0.000 C 
BRANCH  15  16
HETATM   16  C3  UNL     1      -6.524 -23.318  -0.693  1.00  0.00    -0.000 C 
BRANCH  16  17
HETATM   17  C2  UNL     1      -7.272 -23.981   0.452  1.00  0.00    -0.005 C 
HETATM   18  C1  UNL     1      -6.455 -23.733   1.713  1.00  0.00     0.005 C 
ENDBRANCH  16  17
ENDBRANCH  15  16
ENDBRANCH  14  15
ENDBRANCH  13  14
ENDBRANCH   1  13
TORSDOF 10
ENDMDL
