MODEL 1
REMARK VINA RESULT: -6.685142131      0.000      0.000
REMARK  2 active torsions:
REMARK  status: ('A' for Active; 'I' for Inactive)
REMARK    1  A    between atoms: C1_2  and  C2_4 
REMARK    2  A    between atoms: C3_10  and  C4_11 
ROOT
HETATM    1  C2  UNL     1       7.712 -17.997  -1.531  1.00  0.00     0.133 A 
HETATM    2  N2  UNL     1       8.453 -17.021  -2.028  1.00  0.00    -0.288 N 
ATOM      3  H2  UNL     1       8.055 -16.090  -2.146  1.00  0.00     0.188 HD
HETATM    4  N3  UNL     1       9.671 -17.242  -2.363  1.00  0.00    -0.269 N 
ATOM      5  H3  UNL     1      10.343 -16.582  -2.756  1.00  0.00     0.195 HD
HETATM    6  S1  UNL     1       9.905 -18.860  -2.009  1.00  0.00     0.005 SA
HETATM    7  C3  UNL     1       8.308 -19.201  -1.397  1.00  0.00     0.072 A 
ENDROOT
BRANCH   7   8
HETATM    8  C4  UNL     1       7.839 -20.541  -0.944  1.00  0.00     0.064 A 
HETATM    9  C5  UNL     1       7.330 -21.389  -1.921  1.00  0.00     0.050 A 
HETATM   10 CL1  UNL     1       7.188 -20.702  -3.550  1.00  0.00    -0.083 Cl
HETATM   11  C6  UNL     1       6.927 -22.672  -1.793  1.00  0.00     0.032 A 
HETATM   12  C7  UNL     1       6.945 -23.410  -0.624  1.00  0.00     0.055 A 
HETATM   13  S2  UNL     1       7.542 -22.554   0.719  1.00  0.00    -0.059 SA
HETATM   14  C8  UNL     1       8.004 -20.943   0.356  1.00  0.00     0.226 A 
HETATM   15  O2  UNL     1       8.480 -20.180   1.248  1.00  0.00    -0.279 OA
ENDBRANCH   7   8
BRANCH   1  16
HETATM   16  C1  UNL     1       6.270 -17.713  -1.242  1.00  0.00     0.284 C 
HETATM   17  N1  UNL     1       5.266 -17.977  -2.218  1.00  0.00    -0.056 NA
HETATM   18  O1  UNL     1       5.859 -17.242  -0.167  1.00  0.00    -0.269 OA
ENDBRANCH   1  16
TORSDOF 2
ENDMDL
MODEL 2
REMARK VINA RESULT: -6.611451414      3.435      4.145
REMARK  2 active torsions:
REMARK  status: ('A' for Active; 'I' for Inactive)
REMARK    1  A    between atoms: C1_2  and  C2_4 
REMARK    2  A    between atoms: C3_10  and  C4_11 
ROOT
HETATM    1  C2  UNL     1       7.394 -21.582   1.005  1.00  0.00     0.133 A 
HETATM    2  N2  UNL     1       8.054 -21.203   2.087  1.00  0.00    -0.288 N 
ATOM      3  H2  UNL     1       7.629 -21.313   3.007  1.00  0.00     0.188 HD
HETATM    4  N3  UNL     1       9.227 -20.696   1.982  1.00  0.00    -0.269 N 
ATOM      5  H3  UNL     1       9.837 -20.366   2.730  1.00  0.00     0.195 HD
HETATM    6  S1  UNL     1       9.529 -20.701   0.336  1.00  0.00     0.005 SA
HETATM    7  C3  UNL     1       8.022 -21.412  -0.177  1.00  0.00     0.072 A 
ENDROOT
BRANCH   7   8
HETATM    8  C4  UNL     1       7.633 -21.646  -1.597  1.00  0.00     0.064 A 
HETATM    9  C5  UNL     1       7.309 -20.525  -2.350  1.00  0.00     0.050 A 
HETATM   10 CL1  UNL     1       7.275 -18.982  -1.475  1.00  0.00    -0.083 Cl
HETATM   11  C6  UNL     1       7.013 -20.453  -3.666  1.00  0.00     0.032 A 
HETATM   12  C7  UNL     1       6.976 -21.521  -4.543  1.00  0.00     0.055 A 
HETATM   13  S2  UNL     1       7.348 -23.015  -3.821  1.00  0.00    -0.059 SA
HETATM   14  C8  UNL     1       7.696 -22.900  -2.146  1.00  0.00     0.226 A 
HETATM   15  O2  UNL     1       8.005 -23.925  -1.469  1.00  0.00    -0.279 OA
ENDBRANCH   7   8
BRANCH   1  16
HETATM   16  C1  UNL     1       5.991 -22.081   1.172  1.00  0.00     0.284 C 
HETATM   17  N1  UNL     1       4.880 -21.218   0.945  1.00  0.00    -0.056 NA
HETATM   18  O1  UNL     1       5.705 -23.242   1.509  1.00  0.00    -0.269 OA
ENDBRANCH   1  16
TORSDOF 2
ENDMDL
MODEL 3
REMARK VINA RESULT: -6.593283046      3.316      3.959
REMARK  2 active torsions:
REMARK  status: ('A' for Active; 'I' for Inactive)
REMARK    1  A    between atoms: C1_2  and  C2_4 
REMARK    2  A    between atoms: C3_10  and  C4_11 
ROOT
HETATM    1  C2  UNL     1       7.361 -21.223   0.775  1.00  0.00     0.133 A 
HETATM    2  N2  UNL     1       8.010 -21.114   1.922  1.00  0.00    -0.288 N 
ATOM      3  H2  UNL     1       7.517 -21.262   2.802  1.00  0.00     0.188 HD
HETATM    4  N3  UNL     1       9.259 -20.820   1.931  1.00  0.00    -0.269 N 
ATOM      5  H3  UNL     1       9.870 -20.706   2.740  1.00  0.00     0.195 HD
HETATM    6  S1  UNL     1       9.655 -20.668   0.313  1.00  0.00     0.005 SA
HETATM    7  C3  UNL     1       8.080 -21.019  -0.349  1.00  0.00     0.072 A 
ENDROOT
BRANCH   7   8
HETATM    8  C4  UNL     1       7.743 -20.993  -1.801  1.00  0.00     0.064 A 
HETATM    9  C5  UNL     1       7.582 -22.222  -2.428  1.00  0.00     0.050 A 
HETATM   10 CL1  UNL     1       7.934 -23.653  -1.441  1.00  0.00    -0.083 Cl
HETATM   11  C6  UNL     1       7.193 -22.474  -3.697  1.00  0.00     0.032 A 
HETATM   12  C7  UNL     1       6.869 -21.520  -4.645  1.00  0.00     0.055 A 
HETATM   13  S2  UNL     1       6.998 -19.921  -4.081  1.00  0.00    -0.059 SA
HETATM   14  C8  UNL     1       7.503 -19.808  -2.446  1.00  0.00     0.226 A 
HETATM   15  O2  UNL     1       7.634 -18.684  -1.876  1.00  0.00    -0.279 OA
ENDBRANCH   7   8
BRANCH   1  16
HETATM   16  C1  UNL     1       5.885 -21.475   0.820  1.00  0.00     0.284 C 
HETATM   17  N1  UNL     1       5.371 -22.695   1.348  1.00  0.00    -0.056 NA
HETATM   18  O1  UNL     1       5.032 -20.668   0.414  1.00  0.00    -0.269 OA
ENDBRANCH   1  16
TORSDOF 2
ENDMDL
MODEL 4
REMARK VINA RESULT: -6.549200387      3.358      4.640
REMARK  2 active torsions:
REMARK  status: ('A' for Active; 'I' for Inactive)
REMARK    1  A    between atoms: C1_2  and  C2_4 
REMARK    2  A    between atoms: C3_10  and  C4_11 
ROOT
HETATM    1  C2  UNL     1       8.875 -20.674   0.386  1.00  0.00     0.133 A 
HETATM    2  N2  UNL     1       8.900 -21.175   1.610  1.00  0.00    -0.288 N 
ATOM      3  H2  UNL     1       9.743 -21.088   2.178  1.00  0.00     0.188 HD
HETATM    4  N3  UNL     1       7.868 -21.768   2.086  1.00  0.00    -0.269 N 
ATOM      5  H3  UNL     1       7.758 -22.194   3.006  1.00  0.00     0.195 HD
HETATM    6  S1  UNL     1       6.743 -21.684   0.851  1.00  0.00     0.005 SA
HETATM    7  C3  UNL     1       7.724 -20.820  -0.303  1.00  0.00     0.072 A 
ENDROOT
BRANCH   7   8
HETATM    8  C4  UNL     1       7.297 -20.466  -1.686  1.00  0.00     0.064 A 
HETATM    9  C5  UNL     1       6.856 -19.164  -1.891  1.00  0.00     0.050 A 
HETATM   10 CL1  UNL     1       6.738 -18.146  -0.443  1.00  0.00    -0.083 Cl
HETATM   11  C6  UNL     1       6.502 -18.568  -3.051  1.00  0.00     0.032 A 
HETATM   12  C7  UNL     1       6.513 -19.164  -4.298  1.00  0.00     0.055 A 
HETATM   13  S2  UNL     1       7.029 -20.785  -4.280  1.00  0.00    -0.059 SA
HETATM   14  C8  UNL     1       7.435 -21.359  -2.717  1.00  0.00     0.226 A 
HETATM   15  O2  UNL     1       7.850 -22.543  -2.540  1.00  0.00    -0.279 OA
ENDBRANCH   7   8
BRANCH   1  16
HETATM   16  C1  UNL     1      10.135 -20.073  -0.157  1.00  0.00     0.284 C 
HETATM   17  N1  UNL     1      11.357 -20.165   0.569  1.00  0.00    -0.056 NA
HETATM   18  O1  UNL     1      10.203 -19.472  -1.243  1.00  0.00    -0.269 OA
ENDBRANCH   1  16
TORSDOF 2
ENDMDL
MODEL 5
REMARK VINA RESULT: -6.535228155      2.255      2.569
REMARK  2 active torsions:
REMARK  status: ('A' for Active; 'I' for Inactive)
REMARK    1  A    between atoms: C1_2  and  C2_4 
REMARK    2  A    between atoms: C3_10  and  C4_11 
ROOT
HETATM    1  C2  UNL     1       7.460 -17.431  -2.114  1.00  0.00     0.133 A 
HETATM    2  N2  UNL     1       8.203 -16.352  -1.929  1.00  0.00    -0.288 N 
ATOM      3  H2  UNL     1       7.849 -15.581  -1.364  1.00  0.00     0.188 HD
HETATM    4  N3  UNL     1       9.368 -16.272  -2.460  1.00  0.00    -0.269 N 
ATOM      5  H3  UNL     1      10.035 -15.502  -2.396  1.00  0.00     0.195 HD
HETATM    6  S1  UNL     1       9.543 -17.719  -3.281  1.00  0.00     0.005 SA
HETATM    7  C3  UNL     1       7.998 -18.413  -2.868  1.00  0.00     0.072 A 
ENDROOT
BRANCH   7   8
HETATM    8  C4  UNL     1       7.500 -19.731  -3.355  1.00  0.00     0.064 A 
HETATM    9  C5  UNL     1       6.910 -19.751  -4.612  1.00  0.00     0.050 A 
HETATM   10 CL1  UNL     1       6.712 -18.177  -5.405  1.00  0.00    -0.083 Cl
HETATM   11  C6  UNL     1       6.463 -20.815  -5.314  1.00  0.00     0.032 A 
HETATM   12  C7  UNL     1       6.511 -22.133  -4.898  1.00  0.00     0.055 A 
HETATM   13  S2  UNL     1       7.208 -22.342  -3.361  1.00  0.00    -0.059 SA
HETATM   14  C8  UNL     1       7.714 -20.875  -2.631  1.00  0.00     0.226 A 
HETATM   15  O2  UNL     1       8.265 -20.866  -1.490  1.00  0.00    -0.279 OA
ENDBRANCH   7   8
BRANCH   1  16
HETATM   16  C1  UNL     1       6.072 -17.438  -1.551  1.00  0.00     0.284 C 
HETATM   17  N1  UNL     1       4.938 -17.494  -2.412  1.00  0.00    -0.056 NA
HETATM   18  O1  UNL     1       5.817 -17.396  -0.336  1.00  0.00    -0.269 OA
ENDBRANCH   1  16
TORSDOF 2
ENDMDL
