MODEL 1
REMARK VINA RESULT: -6.624085782      0.000      0.000
REMARK  2 active torsions:
REMARK  status: ('A' for Active; 'I' for Inactive)
REMARK    1  A    between atoms: S1_2  and  C1_4 
REMARK    2  A    between atoms: S1_2  and  N3_13 
ROOT
HETATM    1  C1  UNL     1       7.667 -19.954   0.183  1.00  0.00     0.094 A 
HETATM    2  C2  UNL     1       8.818 -19.912   0.864  1.00  0.00     0.132 A 
HETATM    3  N1  UNL     1       9.155 -20.935   1.794  1.00  0.00    -0.309 N 
ATOM      4  H1  UNL     1      10.040 -20.877   2.298  1.00  0.00     0.186 HD
HETATM    5  N2  UNL     1       8.311 -22.011   2.031  1.00  0.00    -0.290 N 
ATOM      6  H2  UNL     1       8.557 -22.742   2.699  1.00  0.00     0.188 HD
HETATM    7  C3  UNL     1       7.086 -22.053   1.303  1.00  0.00     0.119 A 
HETATM    8 CL1  UNL     1       5.969 -23.379   1.547  1.00  0.00    -0.063 Cl
HETATM    9  C4  UNL     1       6.791 -21.092   0.443  1.00  0.00     0.069 A 
ENDROOT
BRANCH   1  10
HETATM   10  S1  UNL     1       7.192 -18.750  -0.960  1.00  0.00     0.245 S 
HETATM   11  O1  UNL     1       6.303 -17.737  -0.283  1.00  0.00    -0.206 OA
HETATM   12  O2  UNL     1       6.313 -19.434  -1.998  1.00  0.00    -0.206 OA
BRANCH  10  13
HETATM   13  N3  UNL     1       8.488 -18.025  -1.786  1.00  0.00    -0.205 NA
HETATM   14  C5  UNL     1       8.149 -16.683  -2.203  1.00  0.00     0.117 C 
HETATM   15  C6  UNL     1       9.243 -15.983  -2.929  1.00  0.00     0.089 C 
HETATM   16  S2  UNL     1      10.698 -17.006  -3.227  1.00  0.00    -0.167 SA
HETATM   17  C7  UNL     1      10.253 -18.783  -3.189  1.00  0.00     0.089 C 
HETATM   18  C8  UNL     1       8.733 -18.801  -2.993  1.00  0.00     0.117 C 
ENDBRANCH  10  13
ENDBRANCH   1  10
TORSDOF 2
ENDMDL
MODEL 2
REMARK VINA RESULT: -6.554291549      5.494      7.166
REMARK  2 active torsions:
REMARK  status: ('A' for Active; 'I' for Inactive)
REMARK    1  A    between atoms: S1_2  and  C1_4 
REMARK    2  A    between atoms: S1_2  and  N3_13 
ROOT
HETATM    1  C1  UNL     1      11.443 -17.729  -5.112  1.00  0.00     0.094 A 
HETATM    2  C2  UNL     1      12.614 -18.168  -4.634  1.00  0.00     0.132 A 
HETATM    3  N1  UNL     1      13.603 -17.255  -4.173  1.00  0.00    -0.309 N 
ATOM      4  H1  UNL     1      14.486 -17.619  -3.813  1.00  0.00     0.186 HD
HETATM    5  N2  UNL     1      13.398 -15.882  -4.201  1.00  0.00    -0.290 N 
ATOM      6  H2  UNL     1      14.111 -15.232  -3.870  1.00  0.00     0.188 HD
HETATM    7  C3  UNL     1      12.150 -15.420  -4.710  1.00  0.00     0.119 A 
HETATM    8 CL1  UNL     1      11.815 -13.702  -4.777  1.00  0.00    -0.063 Cl
HETATM    9  C4  UNL     1      11.243 -16.284  -5.134  1.00  0.00     0.069 A 
ENDROOT
BRANCH   1  10
HETATM   10  S1  UNL     1      10.197 -18.777  -5.687  1.00  0.00     0.245 S 
HETATM   11  O1  UNL     1      10.672 -20.208  -5.619  1.00  0.00    -0.206 OA
HETATM   12  O2  UNL     1      10.006 -18.482  -7.169  1.00  0.00    -0.206 OA
BRANCH  10  13
HETATM   13  N3  UNL     1       8.695 -18.557  -4.925  1.00  0.00    -0.205 NA
HETATM   14  C5  UNL     1       8.726 -19.045  -3.565  1.00  0.00     0.117 C 
HETATM   15  C6  UNL     1       7.443 -18.878  -2.833  1.00  0.00     0.089 C 
HETATM   16  S2  UNL     1       6.105 -18.211  -3.843  1.00  0.00    -0.167 SA
HETATM   17  C7  UNL     1       6.420 -18.529  -5.620  1.00  0.00     0.089 C 
HETATM   18  C8  UNL     1       7.712 -19.353  -5.645  1.00  0.00     0.117 C 
ENDBRANCH  10  13
ENDBRANCH   1  10
TORSDOF 2
ENDMDL
MODEL 3
REMARK VINA RESULT: -6.444123388      2.406      2.895
REMARK  2 active torsions:
REMARK  status: ('A' for Active; 'I' for Inactive)
REMARK    1  A    between atoms: S1_2  and  C1_4 
REMARK    2  A    between atoms: S1_2  and  N3_13 
ROOT
HETATM    1  C1  UNL     1       8.555 -20.181  -0.352  1.00  0.00     0.094 A 
HETATM    2  C2  UNL     1       9.409 -20.541   0.614  1.00  0.00     0.132 A 
HETATM    3  N1  UNL     1       8.973 -21.318   1.723  1.00  0.00    -0.309 N 
ATOM      4  H1  UNL     1       9.647 -21.577   2.444  1.00  0.00     0.186 HD
HETATM    5  N2  UNL     1       7.655 -21.733   1.849  1.00  0.00    -0.290 N 
ATOM      6  H2  UNL     1       7.347 -22.290   2.647  1.00  0.00     0.188 HD
HETATM    7  C3  UNL     1       6.749 -21.349   0.818  1.00  0.00     0.119 A 
HETATM    8 CL1  UNL     1       5.069 -21.834   0.905  1.00  0.00    -0.063 Cl
HETATM    9  C4  UNL     1       7.173 -20.626  -0.205  1.00  0.00     0.069 A 
ENDROOT
BRANCH   1  10
HETATM   10  S1  UNL     1       9.013 -19.240  -1.725  1.00  0.00     0.245 S 
HETATM   11  O1  UNL     1      10.447 -18.797  -1.576  1.00  0.00    -0.206 OA
HETATM   12  O2  UNL     1       8.186 -17.962  -1.692  1.00  0.00    -0.206 OA
BRANCH  10  13
HETATM   13  N3  UNL     1       8.721 -19.998  -3.217  1.00  0.00    -0.205 NA
HETATM   14  C5  UNL     1       9.637 -19.521  -4.229  1.00  0.00     0.117 C 
HETATM   15  C6  UNL     1       9.443 -20.148  -5.563  1.00  0.00     0.089 C 
HETATM   16  S2  UNL     1       8.037 -21.274  -5.647  1.00  0.00    -0.167 SA
HETATM   17  C7  UNL     1       6.817 -20.878  -4.339  1.00  0.00     0.089 C 
HETATM   18  C8  UNL     1       7.379 -19.632  -3.645  1.00  0.00     0.117 C 
ENDBRANCH  10  13
ENDBRANCH   1  10
TORSDOF 2
ENDMDL
MODEL 4
REMARK VINA RESULT: -6.420643807      2.117      2.873
REMARK  2 active torsions:
REMARK  status: ('A' for Active; 'I' for Inactive)
REMARK    1  A    between atoms: S1_2  and  C1_4 
REMARK    2  A    between atoms: S1_2  and  N3_13 
ROOT
HETATM    1  C1  UNL     1       7.667 -20.135  -0.209  1.00  0.00     0.094 A 
HETATM    2  C2  UNL     1       8.852 -19.989   0.396  1.00  0.00     0.132 A 
HETATM    3  N1  UNL     1       9.258 -20.874   1.432  1.00  0.00    -0.309 N 
ATOM      4  H1  UNL     1      10.167 -20.739   1.875  1.00  0.00     0.186 HD
HETATM    5  N2  UNL     1       8.449 -21.919   1.857  1.00  0.00    -0.290 N 
ATOM      6  H2  UNL     1       8.744 -22.551   2.601  1.00  0.00     0.188 HD
HETATM    7  C3  UNL     1       7.187 -22.072   1.210  1.00  0.00     0.119 A 
HETATM    8 CL1  UNL     1       6.111 -23.366   1.690  1.00  0.00    -0.063 Cl
HETATM    9  C4  UNL     1       6.828 -21.238   0.249  1.00  0.00     0.069 A 
ENDROOT
BRANCH   1  10
HETATM   10  S1  UNL     1       7.109 -19.100  -1.472  1.00  0.00     0.245 S 
HETATM   11  O1  UNL     1       7.993 -17.880  -1.551  1.00  0.00    -0.206 OA
HETATM   12  O2  UNL     1       5.737 -18.581  -1.060  1.00  0.00    -0.206 OA
BRANCH  10  13
HETATM   13  N3  UNL     1       6.932 -19.869  -2.977  1.00  0.00    -0.205 NA
HETATM   14  C5  UNL     1       7.856 -20.973  -3.106  1.00  0.00     0.117 C 
HETATM   15  C6  UNL     1       7.751 -21.699  -4.400  1.00  0.00     0.089 C 
HETATM   16  S2  UNL     1       6.580 -20.967  -5.559  1.00  0.00    -0.167 SA
HETATM   17  C7  UNL     1       6.314 -19.196  -5.173  1.00  0.00     0.089 C 
HETATM   18  C8  UNL     1       7.270 -18.903  -4.011  1.00  0.00     0.117 C 
ENDBRANCH  10  13
ENDBRANCH   1  10
TORSDOF 2
ENDMDL
MODEL 5
REMARK VINA RESULT: -6.399841870      2.466      2.903
REMARK  2 active torsions:
REMARK  status: ('A' for Active; 'I' for Inactive)
REMARK    1  A    between atoms: S1_2  and  C1_4 
REMARK    2  A    between atoms: S1_2  and  N3_13 
ROOT
HETATM    1  C1  UNL     1       8.748 -20.492  -0.417  1.00  0.00     0.094 A 
HETATM    2  C2  UNL     1       9.079 -20.274   0.862  1.00  0.00     0.132 A 
HETATM    3  N1  UNL     1       8.771 -21.230   1.869  1.00  0.00    -0.309 N 
ATOM      4  H1  UNL     1       9.036 -21.037   2.836  1.00  0.00     0.186 HD
HETATM    5  N2  UNL     1       8.119 -22.419   1.572  1.00  0.00    -0.290 N 
ATOM      6  H2  UNL     1       7.899 -23.101   2.298  1.00  0.00     0.188 HD
HETATM    7  C3  UNL     1       7.769 -22.647   0.209  1.00  0.00     0.119 A 
HETATM    8 CL1  UNL     1       6.945 -24.123  -0.246  1.00  0.00    -0.063 Cl
HETATM    9  C4  UNL     1       8.064 -21.746  -0.713  1.00  0.00     0.069 A 
ENDROOT
BRANCH   1  10
HETATM   10  S1  UNL     1       9.090 -19.379  -1.691  1.00  0.00     0.245 S 
HETATM   11  O1  UNL     1      10.499 -18.860  -1.542  1.00  0.00    -0.206 OA
HETATM   12  O2  UNL     1       8.188 -18.169  -1.489  1.00  0.00    -0.206 OA
BRANCH  10  13
HETATM   13  N3  UNL     1       8.786 -19.987  -3.248  1.00  0.00    -0.205 NA
HETATM   14  C5  UNL     1       9.703 -19.425  -4.213  1.00  0.00     0.117 C 
HETATM   15  C6  UNL     1       9.499 -19.920  -5.600  1.00  0.00     0.089 C 
HETATM   16  S2  UNL     1       8.080 -21.017  -5.785  1.00  0.00    -0.167 SA
HETATM   17  C7  UNL     1       6.868 -20.734  -4.441  1.00  0.00     0.089 C 
HETATM   18  C8  UNL     1       7.447 -19.567  -3.633  1.00  0.00     0.117 C 
ENDBRANCH  10  13
ENDBRANCH   1  10
TORSDOF 2
ENDMDL
