MODEL 1
REMARK VINA RESULT: -9.575830637      0.000      0.000
REMARK  15 active torsions:
REMARK  status: ('A' for Active; 'I' for Inactive)
REMARK    1  A    between atoms: C2_2  and  C3_6 
REMARK    2  A    between atoms: C4_7  and  C5_8 
REMARK    3  A    between atoms: C9_12  and  C10_13 
REMARK    4  A    between atoms: C11_14  and  C12_15 
REMARK    5  A    between atoms: C12_15  and  O1_16 
REMARK    6  A    between atoms: C12_15  and  C13_18 
REMARK    7  A    between atoms: C15_20  and  O2_21 
REMARK    8  A    between atoms: C15_20  and  C16_23 
REMARK    9  A    between atoms: C18_27  and  C19_28 
REMARK   10  A    between atoms: C20_32  and  C21_33 
REMARK   11  A    between atoms: C21_33  and  C22_34 
REMARK   12  A    between atoms: C23_35  and  C24_36 
REMARK   13  A    between atoms: C24_36  and  C25_37 
REMARK   14  A    between atoms: C25_37  and  C26_38 
REMARK   15  A    between atoms: C26_38  and  C27_39 
ROOT
HETATM    1  C5  UNL     1      44.344  19.138 -10.498  1.00  0.00     0.017 C 
HETATM    2  C6  UNL     1      43.961  18.890 -11.964  1.00  0.00    -0.010 C 
HETATM    3  C7  UNL     1      44.219  17.482 -12.392  1.00  0.00     0.010 C 
HETATM    4  C8  UNL     1      44.875  19.806 -12.758  1.00  0.00     0.013 C 
HETATM    5  C9  UNL     1      46.191  19.668 -11.962  1.00  0.00     0.013 C 
HETATM    6  C20 UNL     1      45.758  19.700 -10.536  1.00  0.00     0.004 C 
ENDROOT
BRANCH   5   7
HETATM    7  C10 UNL     1      47.064  20.773 -12.390  1.00  0.00    -0.023 C 
HETATM    8  C11 UNL     1      46.606  21.925 -12.817  1.00  0.00     0.003 C 
BRANCH   8   9
HETATM    9  C12 UNL     1      47.560  23.018 -13.240  1.00  0.00     0.169 C 
BRANCH   9  10
HETATM   10  O1  UNL     1      47.760  23.814 -12.118  1.00  0.00    -0.389 OA
ATOM     11  H1  UNL     1      48.572  23.517 -11.724  1.00  0.00     0.210 HD
ENDBRANCH   9  10
BRANCH   9  12
HETATM   12  C13 UNL     1      48.855  22.466 -13.749  1.00  0.00     0.158 C 
HETATM   13  C14 UNL     1      49.853  23.587 -13.936  1.00  0.00     0.084 C 
HETATM   14  C15 UNL     1      51.195  22.890 -14.114  1.00  0.00     0.150 C 
HETATM   15  C17 UNL     1      51.054  21.533 -14.745  1.00  0.00     0.092 C 
HETATM   16  C18 UNL     1      49.805  21.333 -15.527  1.00  0.00     0.226 C 
HETATM   17  O7  UNL     1      48.668  21.876 -14.982  1.00  0.00    -0.367 OA
BRANCH  14  18
HETATM   18  O2  UNL     1      52.036  23.701 -14.897  1.00  0.00    -0.379 OA
ATOM     19  H2  UNL     1      52.882  23.775 -14.472  1.00  0.00     0.211 HD
ENDBRANCH  14  18
BRANCH  14  20
HETATM   20  C16 UNL     1      51.809  22.789 -12.772  1.00  0.00     0.209 C 
HETATM   21  O3  UNL     1      51.584  21.849 -11.963  1.00  0.00    -0.646 OA
HETATM   22  O4  UNL     1      52.685  23.763 -12.346  1.00  0.00    -0.646 OA
ENDBRANCH  14  20
BRANCH  16  23
HETATM   23  C19 UNL     1      49.583  19.869 -15.680  1.00  0.00     0.203 C 
HETATM   24  O5  UNL     1      49.551  19.326 -16.830  1.00  0.00    -0.646 OA
HETATM   25  O6  UNL     1      49.400  19.017 -14.599  1.00  0.00    -0.646 OA
ENDBRANCH  16  23
ENDBRANCH   9  12
ENDBRANCH   8   9
ENDBRANCH   5   7
BRANCH   6  26
HETATM   26  C21 UNL     1      46.635  18.793  -9.704  1.00  0.00     0.033 C 
BRANCH  26  27
HETATM   27  C22 UNL     1      47.578  18.026 -10.537  1.00  0.00    -0.030 C 
HETATM   28  C23 UNL     1      48.853  18.234 -10.676  1.00  0.00    -0.031 C 
BRANCH  28  29
HETATM   29  C24 UNL     1      49.614  19.299 -10.011  1.00  0.00     0.027 C 
BRANCH  29  30
HETATM   30  C25 UNL     1      50.131  18.724  -8.696  1.00  0.00     0.014 C 
BRANCH  30  31
HETATM   31  C26 UNL     1      50.781  19.816  -7.872  1.00  0.00     0.113 C 
BRANCH  31  32
HETATM   32  C27 UNL     1      51.837  19.224  -7.032  1.00  0.00     0.172 C 
HETATM   33  O8  UNL     1      52.157  18.028  -7.173  1.00  0.00    -0.648 OA
HETATM   34  O9  UNL     1      52.480  19.993  -6.083  1.00  0.00    -0.648 OA
ENDBRANCH  31  32
ENDBRANCH  30  31
ENDBRANCH  29  30
ENDBRANCH  28  29
ENDBRANCH  26  27
ENDBRANCH   6  26
BRANCH   1  35
HETATM   35  C4  UNL     1      44.206  17.870  -9.811  1.00  0.00    -0.019 C 
HETATM   36  C3  UNL     1      43.164  17.276  -9.324  1.00  0.00     0.020 C 
BRANCH  36  37
HETATM   37  C2  UNL     1      41.776  17.678  -9.299  1.00  0.00    -0.002 C 
HETATM   38  C1  UNL     1      40.984  17.729 -10.596  1.00  0.00     0.067 C 
HETATM   39  N1  UNL     1      41.146  18.003  -8.243  1.00  0.00    -0.403 N 
ATOM     40  H12 UNL     1      40.166  18.287  -8.226  1.00  0.00     0.156 HD
ATOM     41  H11 UNL     1      41.678  17.969  -7.373  1.00  0.00     0.156 HD
ENDBRANCH  36  37
ENDBRANCH   1  35
TORSDOF 15
ENDMDL
MODEL 2
REMARK VINA RESULT: -9.571386772      1.350      1.937
REMARK  15 active torsions:
REMARK  status: ('A' for Active; 'I' for Inactive)
REMARK    1  A    between atoms: C2_2  and  C3_6 
REMARK    2  A    between atoms: C4_7  and  C5_8 
REMARK    3  A    between atoms: C9_12  and  C10_13 
REMARK    4  A    between atoms: C11_14  and  C12_15 
REMARK    5  A    between atoms: C12_15  and  O1_16 
REMARK    6  A    between atoms: C12_15  and  C13_18 
REMARK    7  A    between atoms: C15_20  and  O2_21 
REMARK    8  A    between atoms: C15_20  and  C16_23 
REMARK    9  A    between atoms: C18_27  and  C19_28 
REMARK   10  A    between atoms: C20_32  and  C21_33 
REMARK   11  A    between atoms: C21_33  and  C22_34 
REMARK   12  A    between atoms: C23_35  and  C24_36 
REMARK   13  A    between atoms: C24_36  and  C25_37 
REMARK   14  A    between atoms: C25_37  and  C26_38 
REMARK   15  A    between atoms: C26_38  and  C27_39 
ROOT
HETATM    1  C5  UNL     1      44.643  18.669 -10.479  1.00  0.00     0.017 C 
HETATM    2  C6  UNL     1      43.345  19.433 -10.774  1.00  0.00    -0.010 C 
HETATM    3  C7  UNL     1      42.382  18.632 -11.589  1.00  0.00     0.010 C 
HETATM    4  C8  UNL     1      43.787  20.631 -11.598  1.00  0.00     0.013 C 
HETATM    5  C9  UNL     1      44.873  19.990 -12.488  1.00  0.00     0.013 C 
HETATM    6  C20 UNL     1      45.625  19.099 -11.559  1.00  0.00     0.004 C 
ENDROOT
BRANCH   5   7
HETATM    7  C10 UNL     1      45.644  21.095 -13.078  1.00  0.00    -0.023 C 
HETATM    8  C11 UNL     1      46.768  21.539 -12.569  1.00  0.00     0.003 C 
BRANCH   8   9
HETATM    9  C12 UNL     1      47.510  22.678 -13.228  1.00  0.00     0.169 C 
BRANCH   9  10
HETATM   10  O1  UNL     1      47.682  23.648 -12.246  1.00  0.00    -0.389 OA
ATOM     11  H1  UNL     1      47.319  24.451 -12.602  1.00  0.00     0.210 HD
ENDBRANCH   9  10
BRANCH   9  12
HETATM   12  C13 UNL     1      48.826  22.239 -13.791  1.00  0.00     0.158 C 
HETATM   13  C14 UNL     1      49.821  23.376 -13.716  1.00  0.00     0.084 C 
HETATM   14  C15 UNL     1      51.174  22.730 -13.982  1.00  0.00     0.150 C 
HETATM   15  C17 UNL     1      51.065  21.525 -14.874  1.00  0.00     0.092 C 
HETATM   16  C18 UNL     1      49.845  21.483 -15.724  1.00  0.00     0.226 C 
HETATM   17  O7  UNL     1      48.685  21.907 -15.122  1.00  0.00    -0.367 OA
BRANCH  14  18
HETATM   18  O2  UNL     1      52.034  23.681 -14.559  1.00  0.00    -0.379 OA
ATOM     19  H2  UNL     1      52.186  23.453 -15.468  1.00  0.00     0.211 HD
ENDBRANCH  14  18
BRANCH  14  20
HETATM   20  C16 UNL     1      51.743  22.365 -12.666  1.00  0.00     0.209 C 
HETATM   21  O3  UNL     1      52.743  22.931 -12.149  1.00  0.00    -0.646 OA
HETATM   22  O4  UNL     1      51.169  21.349 -11.932  1.00  0.00    -0.646 OA
ENDBRANCH  14  20
BRANCH  16  23
HETATM   23  C19 UNL     1      49.640  20.078 -16.172  1.00  0.00     0.203 C 
HETATM   24  O5  UNL     1      49.663  19.772 -17.407  1.00  0.00    -0.646 OA
HETATM   25  O6  UNL     1      49.414  19.030 -15.290  1.00  0.00    -0.646 OA
ENDBRANCH  16  23
ENDBRANCH   9  12
ENDBRANCH   8   9
ENDBRANCH   5   7
BRANCH   6  26
HETATM   26  C21 UNL     1      46.083  17.855 -12.285  1.00  0.00     0.033 C 
BRANCH  26  27
HETATM   27  C22 UNL     1      47.482  17.967 -12.736  1.00  0.00    -0.030 C 
HETATM   28  C23 UNL     1      48.549  17.961 -11.994  1.00  0.00    -0.031 C 
BRANCH  28  29
HETATM   29  C24 UNL     1      48.563  17.837 -10.531  1.00  0.00     0.027 C 
BRANCH  29  30
HETATM   30  C25 UNL     1      49.141  19.135  -9.977  1.00  0.00     0.014 C 
BRANCH  30  31
HETATM   31  C26 UNL     1      49.899  18.860  -8.696  1.00  0.00     0.113 C 
BRANCH  31  32
HETATM   32  C27 UNL     1      50.682  20.055  -8.331  1.00  0.00     0.172 C 
HETATM   33  O8  UNL     1      50.137  21.175  -8.287  1.00  0.00    -0.648 OA
HETATM   34  O9  UNL     1      52.025  19.939  -8.036  1.00  0.00    -0.648 OA
ENDBRANCH  31  32
ENDBRANCH  30  31
ENDBRANCH  29  30
ENDBRANCH  28  29
ENDBRANCH  26  27
ENDBRANCH   6  26
BRANCH   1  35
HETATM   35  C4  UNL     1      44.307  17.260 -10.481  1.00  0.00    -0.019 C 
HETATM   36  C3  UNL     1      44.351  16.373  -9.539  1.00  0.00     0.020 C 
BRANCH  36  37
HETATM   37  C2  UNL     1      44.753  16.488  -8.156  1.00  0.00    -0.002 C 
HETATM   38  C1  UNL     1      46.206  16.777  -7.816  1.00  0.00     0.067 C 
HETATM   39  N1  UNL     1      43.960  16.361  -7.169  1.00  0.00    -0.403 N 
ATOM     40  H12 UNL     1      44.244  16.441  -6.193  1.00  0.00     0.156 HD
ATOM     41  H11 UNL     1      42.984  16.167  -7.398  1.00  0.00     0.156 HD
ENDBRANCH  36  37
ENDBRANCH   1  35
TORSDOF 15
ENDMDL
MODEL 3
REMARK VINA RESULT: -9.483478154      1.880      2.645
REMARK  15 active torsions:
REMARK  status: ('A' for Active; 'I' for Inactive)
REMARK    1  A    between atoms: C2_2  and  C3_6 
REMARK    2  A    between atoms: C4_7  and  C5_8 
REMARK    3  A    between atoms: C9_12  and  C10_13 
REMARK    4  A    between atoms: C11_14  and  C12_15 
REMARK    5  A    between atoms: C12_15  and  O1_16 
REMARK    6  A    between atoms: C12_15  and  C13_18 
REMARK    7  A    between atoms: C15_20  and  O2_21 
REMARK    8  A    between atoms: C15_20  and  C16_23 
REMARK    9  A    between atoms: C18_27  and  C19_28 
REMARK   10  A    between atoms: C20_32  and  C21_33 
REMARK   11  A    between atoms: C21_33  and  C22_34 
REMARK   12  A    between atoms: C23_35  and  C24_36 
REMARK   13  A    between atoms: C24_36  and  C25_37 
REMARK   14  A    between atoms: C25_37  and  C26_38 
REMARK   15  A    between atoms: C26_38  and  C27_39 
ROOT
HETATM    1  C5  UNL     1      44.393  17.283  -8.684  1.00  0.00     0.017 C 
HETATM    2  C6  UNL     1      43.893  17.725 -10.066  1.00  0.00    -0.010 C 
HETATM    3  C7  UNL     1      43.925  16.617 -11.068  1.00  0.00     0.010 C 
HETATM    4  C8  UNL     1      44.880  18.794 -10.505  1.00  0.00     0.013 C 
HETATM    5  C9  UNL     1      46.208  18.194  -9.992  1.00  0.00     0.013 C 
HETATM    6  C20 UNL     1      45.868  17.658  -8.643  1.00  0.00     0.004 C 
ENDROOT
BRANCH   5   7
HETATM    7  C10 UNL     1      47.201  19.279 -10.017  1.00  0.00    -0.023 C 
HETATM    8  C11 UNL     1      48.285  19.244 -10.754  1.00  0.00     0.003 C 
BRANCH   8   9
HETATM    9  C12 UNL     1      49.264  20.395 -10.731  1.00  0.00     0.169 C 
BRANCH   9  10
HETATM   10  O1  UNL     1      50.406  19.921 -10.095  1.00  0.00    -0.389 OA
ATOM     11  H1  UNL     1      51.080  20.574 -10.239  1.00  0.00     0.210 HD
ENDBRANCH   9  10
BRANCH   9  12
HETATM   12  C13 UNL     1      49.578  20.892 -12.108  1.00  0.00     0.158 C 
HETATM   13  C14 UNL     1      49.591  22.404 -12.117  1.00  0.00     0.084 C 
HETATM   14  C15 UNL     1      50.245  22.781 -13.440  1.00  0.00     0.150 C 
HETATM   15  C17 UNL     1      49.999  21.755 -14.511  1.00  0.00     0.092 C 
HETATM   16  C18 UNL     1      48.809  20.890 -14.288  1.00  0.00     0.226 C 
HETATM   17  O7  UNL     1      48.600  20.486 -12.993  1.00  0.00    -0.367 OA
BRANCH  14  18
HETATM   18  O2  UNL     1      49.760  24.035 -13.853  1.00  0.00    -0.379 OA
ATOM     19  H2  UNL     1      50.371  24.710 -13.582  1.00  0.00     0.211 HD
ENDBRANCH  14  18
BRANCH  14  20
HETATM   20  C16 UNL     1      51.692  22.935 -13.176  1.00  0.00     0.209 C 
HETATM   21  O3  UNL     1      52.167  23.449 -12.128  1.00  0.00    -0.646 OA
HETATM   22  O4  UNL     1      52.607  22.500 -14.111  1.00  0.00    -0.646 OA
ENDBRANCH  14  20
BRANCH  16  23
HETATM   23  C19 UNL     1      48.959  19.671 -15.129  1.00  0.00     0.203 C 
HETATM   24  O5  UNL     1      49.300  18.558 -14.615  1.00  0.00    -0.646 OA
HETATM   25  O6  UNL     1      48.740  19.667 -16.499  1.00  0.00    -0.646 OA
ENDBRANCH  16  23
ENDBRANCH   9  12
ENDBRANCH   8   9
ENDBRANCH   5   7
BRANCH   6  26
HETATM   26  C21 UNL     1      46.655  16.398  -8.369  1.00  0.00     0.033 C 
BRANCH  26  27
HETATM   27  C22 UNL     1      47.408  16.486  -7.105  1.00  0.00    -0.030 C 
HETATM   28  C23 UNL     1      48.666  16.778  -6.959  1.00  0.00    -0.031 C 
BRANCH  28  29
HETATM   29  C24 UNL     1      49.596  17.085  -8.053  1.00  0.00     0.027 C 
BRANCH  29  30
HETATM   30  C25 UNL     1      50.989  17.185  -7.441  1.00  0.00     0.014 C 
BRANCH  30  31
HETATM   31  C26 UNL     1      50.983  18.174  -6.294  1.00  0.00     0.113 C 
BRANCH  31  32
HETATM   32  C27 UNL     1      52.010  19.203  -6.538  1.00  0.00     0.172 C 
HETATM   33  O8  UNL     1      52.763  19.571  -5.617  1.00  0.00    -0.648 OA
HETATM   34  O9  UNL     1      52.144  19.764  -7.791  1.00  0.00    -0.648 OA
ENDBRANCH  31  32
ENDBRANCH  30  31
ENDBRANCH  29  30
ENDBRANCH  28  29
ENDBRANCH  26  27
ENDBRANCH   6  26
BRANCH   1  35
HETATM   35  C4  UNL     1      44.117  15.865  -8.576  1.00  0.00    -0.019 C 
HETATM   36  C3  UNL     1      43.122  15.230  -8.045  1.00  0.00     0.020 C 
BRANCH  36  37
HETATM   37  C2  UNL     1      41.940  15.723  -7.376  1.00  0.00    -0.002 C 
HETATM   38  C1  UNL     1      41.513  15.110  -6.052  1.00  0.00     0.067 C 
HETATM   39  N1  UNL     1      41.204  16.660  -7.824  1.00  0.00    -0.403 N 
ATOM     40  H12 UNL     1      40.370  17.007  -7.352  1.00  0.00     0.156 HD
ATOM     41  H11 UNL     1      41.491  17.072  -8.712  1.00  0.00     0.156 HD
ENDBRANCH  36  37
ENDBRANCH   1  35
TORSDOF 15
ENDMDL
MODEL 4
REMARK VINA RESULT: -9.215902061      3.582      9.455
REMARK  15 active torsions:
REMARK  status: ('A' for Active; 'I' for Inactive)
REMARK    1  A    between atoms: C2_2  and  C3_6 
REMARK    2  A    between atoms: C4_7  and  C5_8 
REMARK    3  A    between atoms: C9_12  and  C10_13 
REMARK    4  A    between atoms: C11_14  and  C12_15 
REMARK    5  A    between atoms: C12_15  and  O1_16 
REMARK    6  A    between atoms: C12_15  and  C13_18 
REMARK    7  A    between atoms: C15_20  and  O2_21 
REMARK    8  A    between atoms: C15_20  and  C16_23 
REMARK    9  A    between atoms: C18_27  and  C19_28 
REMARK   10  A    between atoms: C20_32  and  C21_33 
REMARK   11  A    between atoms: C21_33  and  C22_34 
REMARK   12  A    between atoms: C23_35  and  C24_36 
REMARK   13  A    between atoms: C24_36  and  C25_37 
REMARK   14  A    between atoms: C25_37  and  C26_38 
REMARK   15  A    between atoms: C26_38  and  C27_39 
ROOT
HETATM    1  C5  UNL     1      49.111  17.429 -10.182  1.00  0.00     0.017 C 
HETATM    2  C6  UNL     1      48.476  16.759  -8.956  1.00  0.00    -0.010 C 
HETATM    3  C7  UNL     1      47.091  17.252  -8.686  1.00  0.00     0.010 C 
HETATM    4  C8  UNL     1      49.364  17.168  -7.794  1.00  0.00     0.013 C 
HETATM    5  C9  UNL     1      49.675  18.634  -8.165  1.00  0.00     0.013 C 
HETATM    6  C20 UNL     1      49.929  18.591  -9.633  1.00  0.00     0.004 C 
ENDROOT
BRANCH   5   7
HETATM    7  C10 UNL     1      50.814  19.050  -7.332  1.00  0.00    -0.023 C 
HETATM    8  C11 UNL     1      51.493  18.220  -6.577  1.00  0.00     0.003 C 
BRANCH   8   9
HETATM    9  C12 UNL     1      52.654  18.715  -5.747  1.00  0.00     0.169 C 
BRANCH   9  10
HETATM   10  O1  UNL     1      52.391  20.053  -5.472  1.00  0.00    -0.389 OA
ATOM     11  H1  UNL     1      52.134  20.089  -4.558  1.00  0.00     0.210 HD
ENDBRANCH   9  10
BRANCH   9  12
HETATM   12  C13 UNL     1      52.819  17.925  -4.486  1.00  0.00     0.158 C 
HETATM   13  C14 UNL     1      53.832  18.599  -3.588  1.00  0.00     0.084 C 
HETATM   14  C15 UNL     1      53.664  17.924  -2.233  1.00  0.00     0.150 C 
HETATM   15  C17 UNL     1      53.199  16.499  -2.360  1.00  0.00     0.092 C 
HETATM   16  C18 UNL     1      53.481  15.864  -3.675  1.00  0.00     0.226 C 
HETATM   17  O7  UNL     1      53.303  16.666  -4.775  1.00  0.00    -0.367 OA
BRANCH  14  18
HETATM   18  O2  UNL     1      54.886  17.971  -1.539  1.00  0.00    -0.379 OA
ATOM     19  H2  UNL     1      54.715  18.113  -0.616  1.00  0.00     0.211 HD
ENDBRANCH  14  18
BRANCH  14  20
HETATM   20  C16 UNL     1      52.692  18.732  -1.467  1.00  0.00     0.209 C 
HETATM   21  O3  UNL     1      51.476  18.429  -1.329  1.00  0.00    -0.646 OA
HETATM   22  O4  UNL     1      53.104  19.894  -0.851  1.00  0.00    -0.646 OA
ENDBRANCH  14  20
BRANCH  16  23
HETATM   23  C19 UNL     1      52.583  14.685  -3.821  1.00  0.00     0.203 C 
HETATM   24  O5  UNL     1      52.190  14.297  -4.967  1.00  0.00    -0.646 OA
HETATM   25  O6  UNL     1      52.125  13.946  -2.739  1.00  0.00    -0.646 OA
ENDBRANCH  16  23
ENDBRANCH   9  12
ENDBRANCH   8   9
ENDBRANCH   5   7
BRANCH   6  26
HETATM   26  C21 UNL     1      49.424  19.857 -10.288  1.00  0.00     0.033 C 
BRANCH  26  27
HETATM   27  C22 UNL     1      50.518  20.630 -10.902  1.00  0.00    -0.030 C 
HETATM   28  C23 UNL     1      50.606  21.019 -12.139  1.00  0.00    -0.031 C 
BRANCH  28  29
HETATM   29  C24 UNL     1      49.606  20.758 -13.182  1.00  0.00     0.027 C 
BRANCH  29  30
HETATM   30  C25 UNL     1      50.124  21.393 -14.468  1.00  0.00     0.014 C 
BRANCH  30  31
HETATM   31  C26 UNL     1      51.355  22.226 -14.176  1.00  0.00     0.113 C 
BRANCH  31  32
HETATM   32  C27 UNL     1      51.944  22.680 -15.449  1.00  0.00     0.172 C 
HETATM   33  O8  UNL     1      52.022  21.902 -16.419  1.00  0.00    -0.648 OA
HETATM   34  O9  UNL     1      52.414  23.971 -15.573  1.00  0.00    -0.648 OA
ENDBRANCH  31  32
ENDBRANCH  30  31
ENDBRANCH  29  30
ENDBRANCH  28  29
ENDBRANCH  26  27
ENDBRANCH   6  26
BRANCH   1  35
HETATM   35  C4  UNL     1      48.023  17.806 -11.061  1.00  0.00    -0.019 C 
HETATM   36  C3  UNL     1      47.813  17.549 -12.313  1.00  0.00     0.020 C 
BRANCH  36  37
HETATM   37  C2  UNL     1      48.597  16.795 -13.263  1.00  0.00    -0.002 C 
HETATM   38  C1  UNL     1      49.017  17.440 -14.574  1.00  0.00     0.067 C 
HETATM   39  N1  UNL     1      48.975  15.593 -13.083  1.00  0.00    -0.403 N 
ATOM     40  H12 UNL     1      49.528  15.061 -13.754  1.00  0.00     0.156 HD
ATOM     41  H11 UNL     1      48.694  15.160 -12.202  1.00  0.00     0.156 HD
ENDBRANCH  36  37
ENDBRANCH   1  35
TORSDOF 15
ENDMDL
MODEL 5
REMARK VINA RESULT: -9.138614566      3.565      9.513
REMARK  15 active torsions:
REMARK  status: ('A' for Active; 'I' for Inactive)
REMARK    1  A    between atoms: C2_2  and  C3_6 
REMARK    2  A    between atoms: C4_7  and  C5_8 
REMARK    3  A    between atoms: C9_12  and  C10_13 
REMARK    4  A    between atoms: C11_14  and  C12_15 
REMARK    5  A    between atoms: C12_15  and  O1_16 
REMARK    6  A    between atoms: C12_15  and  C13_18 
REMARK    7  A    between atoms: C15_20  and  O2_21 
REMARK    8  A    between atoms: C15_20  and  C16_23 
REMARK    9  A    between atoms: C18_27  and  C19_28 
REMARK   10  A    between atoms: C20_32  and  C21_33 
REMARK   11  A    between atoms: C21_33  and  C22_34 
REMARK   12  A    between atoms: C23_35  and  C24_36 
REMARK   13  A    between atoms: C24_36  and  C25_37 
REMARK   14  A    between atoms: C25_37  and  C26_38 
REMARK   15  A    between atoms: C26_38  and  C27_39 
ROOT
HETATM    1  C5  UNL     1      49.299  18.123 -10.386  1.00  0.00     0.017 C 
HETATM    2  C6  UNL     1      48.743  17.205  -9.289  1.00  0.00    -0.010 C 
HETATM    3  C7  UNL     1      47.362  17.590  -8.866  1.00  0.00     0.010 C 
HETATM    4  C8  UNL     1      49.678  17.410  -8.110  1.00  0.00     0.013 C 
HETATM    5  C9  UNL     1      49.934  18.931  -8.199  1.00  0.00     0.013 C 
HETATM    6  C20 UNL     1      50.114  19.183  -9.658  1.00  0.00     0.004 C 
ENDROOT
BRANCH   5   7
HETATM    7  C10 UNL     1      51.103  19.215  -7.353  1.00  0.00    -0.023 C 
HETATM    8  C11 UNL     1      51.549  18.383  -6.442  1.00  0.00     0.003 C 
BRANCH   8   9
HETATM    9  C12 UNL     1      52.757  18.739  -5.607  1.00  0.00     0.169 C 
BRANCH   9  10
HETATM   10  O1  UNL     1      52.645  20.096  -5.322  1.00  0.00    -0.389 OA
ATOM     11  H1  UNL     1      52.503  20.159  -4.385  1.00  0.00     0.210 HD
ENDBRANCH   9  10
BRANCH   9  12
HETATM   12  C13 UNL     1      52.830  17.927  -4.352  1.00  0.00     0.158 C 
HETATM   13  C14 UNL     1      53.701  18.631  -3.335  1.00  0.00     0.084 C 
HETATM   14  C15 UNL     1      53.427  17.912  -2.020  1.00  0.00     0.150 C 
HETATM   15  C17 UNL     1      53.059  16.469  -2.225  1.00  0.00     0.092 C 
HETATM   16  C18 UNL     1      53.516  15.884  -3.514  1.00  0.00     0.226 C 
HETATM   17  O7  UNL     1      53.413  16.704  -4.611  1.00  0.00    -0.367 OA
BRANCH  14  18
HETATM   18  O2  UNL     1      54.562  18.008  -1.197  1.00  0.00    -0.379 OA
ATOM     19  H2  UNL     1      54.535  17.317  -0.546  1.00  0.00     0.211 HD
ENDBRANCH  14  18
BRANCH  14  20
HETATM   20  C16 UNL     1      52.333  18.647  -1.348  1.00  0.00     0.209 C 
HETATM   21  O3  UNL     1      51.130  18.272  -1.345  1.00  0.00    -0.646 OA
HETATM   22  O4  UNL     1      52.609  19.816  -0.674  1.00  0.00    -0.646 OA
ENDBRANCH  14  20
BRANCH  16  23
HETATM   23  C19 UNL     1      52.708  14.662  -3.781  1.00  0.00     0.203 C 
HETATM   24  O5  UNL     1      52.554  13.769  -2.887  1.00  0.00    -0.646 OA
HETATM   25  O6  UNL     1      52.082  14.421  -4.996  1.00  0.00    -0.646 OA
ENDBRANCH  16  23
ENDBRANCH   9  12
ENDBRANCH   8   9
ENDBRANCH   5   7
BRANCH   6  26
HETATM   26  C21 UNL     1      49.547  20.534 -10.028  1.00  0.00     0.033 C 
BRANCH  26  27
HETATM   27  C22 UNL     1      50.602  21.481 -10.428  1.00  0.00    -0.030 C 
HETATM   28  C23 UNL     1      51.030  21.717 -11.632  1.00  0.00    -0.031 C 
BRANCH  28  29
HETATM   29  C24 UNL     1      50.529  21.069 -12.851  1.00  0.00     0.027 C 
BRANCH  29  30
HETATM   30  C25 UNL     1      49.718  22.114 -13.611  1.00  0.00     0.014 C 
BRANCH  30  31
HETATM   31  C26 UNL     1      48.240  21.912 -13.351  1.00  0.00     0.113 C 
BRANCH  31  32
HETATM   32  C27 UNL     1      47.543  23.203 -13.502  1.00  0.00     0.172 C 
HETATM   33  O8  UNL     1      48.030  24.242 -13.017  1.00  0.00    -0.648 OA
HETATM   34  O9  UNL     1      46.344  23.267 -14.183  1.00  0.00    -0.648 OA
ENDBRANCH  31  32
ENDBRANCH  30  31
ENDBRANCH  29  30
ENDBRANCH  28  29
ENDBRANCH  26  27
ENDBRANCH   6  26
BRANCH   1  35
HETATM   35  C4  UNL     1      48.159  18.627 -11.125  1.00  0.00    -0.019 C 
HETATM   36  C3  UNL     1      47.778  18.420 -12.345  1.00  0.00     0.020 C 
BRANCH  36  37
HETATM   37  C2  UNL     1      48.362  17.611 -13.390  1.00  0.00    -0.002 C 
HETATM   38  C1  UNL     1      48.935  18.280 -14.629  1.00  0.00     0.067 C 
HETATM   39  N1  UNL     1      48.436  16.341 -13.352  1.00  0.00    -0.403 N 
ATOM     40  H12 UNL     1      48.848  15.770 -14.090  1.00  0.00     0.156 HD
ATOM     41  H11 UNL     1      48.052  15.892 -12.520  1.00  0.00     0.156 HD
ENDBRANCH  36  37
ENDBRANCH   1  35
TORSDOF 15
ENDMDL
