MODEL 1
REMARK VINA RESULT: -8.669477951      0.000      0.000
REMARK  16 active torsions:
REMARK  status: ('A' for Active; 'I' for Inactive)
REMARK    1  A    between atoms: N1_1  and  C1_4 
REMARK    2  A    between atoms: C5_8  and  C6_9 
REMARK    3  A    between atoms: C6_9  and  C7_10 
REMARK    4  A    between atoms: C7_10  and  C8_11 
REMARK       I    between atoms: C8_11  and  N2_13 
REMARK    5  A    between atoms: N2_13  and  C9_15 
REMARK    6  A    between atoms: C9_15  and  C10_16 
REMARK    7  A    between atoms: C10_16  and  C11_17 
REMARK    8  A    between atoms: C11_17  and  C12_18 
REMARK    9  A    between atoms: C12_18  and  C13_19 
REMARK   10  A    between atoms: C13_19  and  C14_20 
REMARK   11  A    between atoms: C14_20  and  C15_21 
REMARK   12  A    between atoms: C15_21  and  N3_22 
REMARK   13  A    between atoms: N3_22  and  C16_24 
REMARK   14  A    between atoms: C18_30  and  N6_31 
REMARK   15  A    between atoms: N6_31  and  C19_33 
REMARK   16  A    between atoms: C19_33  and  C20_34 
ROOT
HETATM    1  N3  UNL     1      50.711  20.882  -7.806  1.00  0.00    -0.226 N 
ATOM      2  H3  UNL     1      51.096  21.759  -7.455  1.00  0.00     0.177 HD
ENDROOT
BRANCH   1   3
HETATM    3  C15 UNL     1      50.023  20.975  -9.034  1.00  0.00     0.138 C 
BRANCH   3   4
HETATM    4  C14 UNL     1      50.951  20.953 -10.239  1.00  0.00     0.020 C 
BRANCH   4   5
HETATM    5  C13 UNL     1      50.252  20.563 -11.512  1.00  0.00     0.002 C 
BRANCH   5   6
HETATM    6  C12 UNL     1      50.755  21.299 -12.715  1.00  0.00     0.000 C 
BRANCH   6   7
HETATM    7  C11 UNL     1      49.637  21.737 -13.634  1.00  0.00     0.002 C 
BRANCH   7   8
HETATM    8  C10 UNL     1      49.403  23.231 -13.558  1.00  0.00     0.020 C 
BRANCH   8   9
HETATM    9  C9  UNL     1      47.978  23.580 -13.299  1.00  0.00     0.122 C 
BRANCH   9  10
HETATM   10  N2  UNL     1      47.337  22.503 -12.577  1.00  0.00    -0.361 N 
HETATM   11  C8  UNL     1      46.137  21.868 -12.951  1.00  0.00     0.217 C 
HETATM   12  O1  UNL     1      45.498  22.213 -13.995  1.00  0.00    -0.274 OA
ATOM     13  H2  UNL     1      47.792  22.176 -11.724  1.00  0.00     0.162 HD
BRANCH  11  14
HETATM   14  C7  UNL     1      45.607  20.770 -12.102  1.00  0.00     0.108 C 
BRANCH  14  15
HETATM   15  C6  UNL     1      45.417  19.497 -12.892  1.00  0.00     0.066 C 
BRANCH  15  16
HETATM   16  C5  UNL     1      46.650  18.986 -13.475  1.00  0.00     0.011 A 
HETATM   17  C4  UNL     1      47.539  18.218 -12.765  1.00  0.00     0.025 A 
HETATM   18  C3  UNL     1      48.710  17.731 -13.310  1.00  0.00     0.006 A 
HETATM   19  C2  UNL     1      48.992  18.028 -14.611  1.00  0.00     0.048 A 
HETATM   20  C1  UNL     1      48.102  18.797 -15.323  1.00  0.00     0.098 A 
HETATM   21  N9  UNL     1      46.954  19.262 -14.751  1.00  0.00    -0.346 N 
ATOM     22  H9  UNL     1      46.315  19.831 -15.306  1.00  0.00     0.167 HD
BRANCH  20  23
HETATM   23  N1  UNL     1      48.399  19.060 -16.551  1.00  0.00    -0.385 N 
ATOM     24  H12 UNL     1      49.279  19.510 -16.803  1.00  0.00     0.157 HD
ATOM     25  H11 UNL     1      47.718  18.798 -17.263  1.00  0.00     0.157 HD
ENDBRANCH  20  23
ENDBRANCH  15  16
ENDBRANCH  14  15
ENDBRANCH  11  14
ENDBRANCH   9  10
ENDBRANCH   8   9
ENDBRANCH   7   8
ENDBRANCH   6   7
ENDBRANCH   5   6
ENDBRANCH   4   5
ENDBRANCH   3   4
ENDBRANCH   1   3
BRANCH   1  26
HETATM   26  C16 UNL     1      50.925  19.857  -7.066  1.00  0.00     0.693 A 
HETATM   27  N4  UNL     1      51.773  19.864  -6.029  1.00  0.00    -0.187 N 
HETATM   28  C17 UNL     1      51.954  18.751  -5.283  1.00  0.00     0.215 A 
ATOM     29  H4  UNL     1      52.286  20.716  -5.801  1.00  0.00     0.185 HD
HETATM   30  N5  UNL     1      51.283  17.625  -5.577  1.00  0.00    -0.187 N 
HETATM   31  C18 UNL     1      50.415  17.569  -6.615  1.00  0.00     0.693 A 
ATOM     32  H5  UNL     1      51.432  16.794  -5.006  1.00  0.00     0.185 HD
HETATM   33  N8  UNL     1      50.260  18.685  -7.330  1.00  0.00    -0.022 N 
ATOM     34  H8  UNL     1      49.611  18.666  -8.117  1.00  0.00     0.203 HD
BRANCH  31  35
HETATM   35  N6  UNL     1      49.757  16.498  -6.911  1.00  0.00    -0.221 N 
ATOM     36  H6  UNL     1      49.536  15.796  -6.206  1.00  0.00     0.178 HD
BRANCH  35  37
HETATM   37  C19 UNL     1      49.349  16.343  -8.293  1.00  0.00     0.184 C 
BRANCH  37  38
HETATM   38  C20 UNL     1      47.853  16.500  -8.348  1.00  0.00     0.002 A 
HETATM   39  C21 UNL     1      47.115  17.359  -9.114  1.00  0.00     0.029 A 
HETATM   40  C22 UNL     1      45.770  17.308  -8.976  1.00  0.00    -0.015 A 
HETATM   41  C23 UNL     1      44.820  18.097  -9.663  1.00  0.00     0.030 A 
HETATM   42  C26 UNL     1      45.268  16.403  -8.085  1.00  0.00     0.031 A 
HETATM   43  C24 UNL     1      43.493  17.928  -9.415  1.00  0.00     0.088 A 
HETATM   44  N7  UNL     1      42.983  17.027  -8.527  1.00  0.00    -0.374 N 
HETATM   45  C25 UNL     1      43.885  16.275  -7.873  1.00  0.00     0.107 A 
ATOM     46  H7  UNL     1      41.980  16.929  -8.369  1.00  0.00     0.164 HD
HETATM   47  S1  UNL     1      46.670  15.653  -7.466  1.00  0.00    -0.091 SA
ENDBRANCH  37  38
ENDBRANCH  35  37
ENDBRANCH  31  35
ENDBRANCH   1  26
TORSDOF 16
ENDMDL
MODEL 2
REMARK VINA RESULT: -8.509858980      1.881      3.298
REMARK  16 active torsions:
REMARK  status: ('A' for Active; 'I' for Inactive)
REMARK    1  A    between atoms: N1_1  and  C1_4 
REMARK    2  A    between atoms: C5_8  and  C6_9 
REMARK    3  A    between atoms: C6_9  and  C7_10 
REMARK    4  A    between atoms: C7_10  and  C8_11 
REMARK       I    between atoms: C8_11  and  N2_13 
REMARK    5  A    between atoms: N2_13  and  C9_15 
REMARK    6  A    between atoms: C9_15  and  C10_16 
REMARK    7  A    between atoms: C10_16  and  C11_17 
REMARK    8  A    between atoms: C11_17  and  C12_18 
REMARK    9  A    between atoms: C12_18  and  C13_19 
REMARK   10  A    between atoms: C13_19  and  C14_20 
REMARK   11  A    between atoms: C14_20  and  C15_21 
REMARK   12  A    between atoms: C15_21  and  N3_22 
REMARK   13  A    between atoms: N3_22  and  C16_24 
REMARK   14  A    between atoms: C18_30  and  N6_31 
REMARK   15  A    between atoms: N6_31  and  C19_33 
REMARK   16  A    between atoms: C19_33  and  C20_34 
ROOT
HETATM    1  N3  UNL     1      50.617  20.687  -8.317  1.00  0.00    -0.226 N 
ATOM      2  H3  UNL     1      50.011  21.455  -8.023  1.00  0.00     0.177 HD
ENDROOT
BRANCH   1   3
HETATM    3  C15 UNL     1      51.080  20.761  -9.647  1.00  0.00     0.138 C 
BRANCH   3   4
HETATM    4  C14 UNL     1      49.963  20.988 -10.654  1.00  0.00     0.020 C 
BRANCH   4   5
HETATM    5  C13 UNL     1      49.736  19.807 -11.557  1.00  0.00     0.002 C 
BRANCH   5   6
HETATM    6  C12 UNL     1      48.947  18.710 -10.912  1.00  0.00     0.000 C 
BRANCH   6   7
HETATM    7  C11 UNL     1      47.726  19.227 -10.185  1.00  0.00     0.002 C 
BRANCH   7   8
HETATM    8  C10 UNL     1      46.483  19.141 -11.046  1.00  0.00     0.020 C 
BRANCH   8   9
HETATM    9  C9  UNL     1      45.702  20.409 -11.062  1.00  0.00     0.122 C 
BRANCH   9  10
HETATM   10  N2  UNL     1      46.409  21.406 -11.835  1.00  0.00    -0.361 N 
HETATM   11  C8  UNL     1      46.063  21.834 -13.131  1.00  0.00     0.217 C 
HETATM   12  O1  UNL     1      45.060  21.350 -13.745  1.00  0.00    -0.274 OA
ATOM     13  H2  UNL     1      47.229  21.836 -11.405  1.00  0.00     0.162 HD
BRANCH  11  14
HETATM   14  C7  UNL     1      46.891  22.874 -13.793  1.00  0.00     0.108 C 
BRANCH  14  15
HETATM   15  C6  UNL     1      47.929  23.441 -12.854  1.00  0.00     0.066 C 
BRANCH  15  16
HETATM   16  C5  UNL     1      49.297  23.232 -13.306  1.00  0.00     0.011 A 
HETATM   17  C4  UNL     1      49.620  22.326 -14.287  1.00  0.00     0.025 A 
HETATM   18  C3  UNL     1      50.913  22.121 -14.720  1.00  0.00     0.006 A 
HETATM   19  C2  UNL     1      51.913  22.850 -14.146  1.00  0.00     0.048 A 
HETATM   20  C1  UNL     1      51.591  23.757 -13.164  1.00  0.00     0.098 A 
HETATM   21  N9  UNL     1      50.300  23.933 -12.761  1.00  0.00    -0.346 N 
ATOM     22  H9  UNL     1      50.095  24.613 -12.029  1.00  0.00     0.167 HD
BRANCH  20  23
HETATM   23  N1  UNL     1      52.560  24.430 -12.642  1.00  0.00    -0.385 N 
ATOM     24  H12 UNL     1      52.875  24.261 -11.687  1.00  0.00     0.157 HD
ATOM     25  H11 UNL     1      53.002  25.142 -13.224  1.00  0.00     0.157 HD
ENDBRANCH  20  23
ENDBRANCH  15  16
ENDBRANCH  14  15
ENDBRANCH  11  14
ENDBRANCH   9  10
ENDBRANCH   8   9
ENDBRANCH   7   8
ENDBRANCH   6   7
ENDBRANCH   5   6
ENDBRANCH   4   5
ENDBRANCH   3   4
ENDBRANCH   1   3
BRANCH   1  26
HETATM   26  C16 UNL     1      50.844  19.798  -7.421  1.00  0.00     0.693 A 
HETATM   27  N4  UNL     1      51.759  19.947  -6.455  1.00  0.00    -0.187 N 
HETATM   28  C17 UNL     1      51.952  18.974  -5.537  1.00  0.00     0.215 A 
ATOM     29  H4  UNL     1      52.316  20.800  -6.413  1.00  0.00     0.185 HD
HETATM   30  N5  UNL     1      51.224  17.846  -5.585  1.00  0.00    -0.187 N 
HETATM   31  C18 UNL     1      50.286  17.650  -6.543  1.00  0.00     0.693 A 
ATOM     32  H5  UNL     1      51.381  17.120  -4.886  1.00  0.00     0.185 HD
HETATM   33  N8  UNL     1      50.122  18.630  -7.434  1.00  0.00    -0.022 N 
ATOM     34  H8  UNL     1      49.422  18.505  -8.164  1.00  0.00     0.203 HD
BRANCH  31  35
HETATM   35  N6  UNL     1      49.573  16.575  -6.605  1.00  0.00    -0.221 N 
ATOM     36  H6  UNL     1      49.056  16.231  -5.797  1.00  0.00     0.178 HD
BRANCH  35  37
HETATM   37  C19 UNL     1      49.543  15.882  -7.877  1.00  0.00     0.184 C 
BRANCH  37  38
HETATM   38  C20 UNL     1      48.131  15.938  -8.396  1.00  0.00     0.002 A 
HETATM   39  C21 UNL     1      47.045  16.557  -7.843  1.00  0.00     0.029 A 
HETATM   40  C22 UNL     1      45.872  16.455  -8.509  1.00  0.00    -0.015 A 
HETATM   41  C23 UNL     1      44.631  17.012  -8.124  1.00  0.00     0.030 A 
HETATM   42  C26 UNL     1      45.876  15.745  -9.675  1.00  0.00     0.031 A 
HETATM   43  C24 UNL     1      43.533  16.822  -8.905  1.00  0.00     0.088 A 
HETATM   44  N7  UNL     1      43.528  16.115 -10.071  1.00  0.00    -0.374 N 
HETATM   45  C25 UNL     1      44.707  15.585 -10.438  1.00  0.00     0.107 A 
ATOM     46  H7  UNL     1      42.683  15.996 -10.629  1.00  0.00     0.164 HD
HETATM   47  S1  UNL     1      47.500  15.239  -9.813  1.00  0.00    -0.091 SA
ENDBRANCH  37  38
ENDBRANCH  35  37
ENDBRANCH  31  35
ENDBRANCH   1  26
TORSDOF 16
ENDMDL
MODEL 3
REMARK VINA RESULT: -8.378509296      5.882     11.453
REMARK  16 active torsions:
REMARK  status: ('A' for Active; 'I' for Inactive)
REMARK    1  A    between atoms: N1_1  and  C1_4 
REMARK    2  A    between atoms: C5_8  and  C6_9 
REMARK    3  A    between atoms: C6_9  and  C7_10 
REMARK    4  A    between atoms: C7_10  and  C8_11 
REMARK       I    between atoms: C8_11  and  N2_13 
REMARK    5  A    between atoms: N2_13  and  C9_15 
REMARK    6  A    between atoms: C9_15  and  C10_16 
REMARK    7  A    between atoms: C10_16  and  C11_17 
REMARK    8  A    between atoms: C11_17  and  C12_18 
REMARK    9  A    between atoms: C12_18  and  C13_19 
REMARK   10  A    between atoms: C13_19  and  C14_20 
REMARK   11  A    between atoms: C14_20  and  C15_21 
REMARK   12  A    between atoms: C15_21  and  N3_22 
REMARK   13  A    between atoms: N3_22  and  C16_24 
REMARK   14  A    between atoms: C18_30  and  N6_31 
REMARK   15  A    between atoms: N6_31  and  C19_33 
REMARK   16  A    between atoms: C19_33  and  C20_34 
ROOT
HETATM    1  N3  UNL     1      52.662  19.122  -4.049  1.00  0.00    -0.226 N 
ATOM      2  H3  UNL     1      52.116  19.843  -3.577  1.00  0.00     0.177 HD
ENDROOT
BRANCH   1   3
HETATM    3  C15 UNL     1      53.875  18.775  -3.418  1.00  0.00     0.138 C 
BRANCH   3   4
HETATM    4  C14 UNL     1      54.086  19.499  -2.097  1.00  0.00     0.020 C 
BRANCH   4   5
HETATM    5  C13 UNL     1      53.923  18.599  -0.901  1.00  0.00     0.002 C 
BRANCH   5   6
HETATM    6  C12 UNL     1      52.509  18.504  -0.419  1.00  0.00     0.000 C 
BRANCH   6   7
HETATM    7  C11 UNL     1      51.869  17.179  -0.764  1.00  0.00     0.002 C 
BRANCH   7   8
HETATM    8  C10 UNL     1      52.904  16.130  -1.110  1.00  0.00     0.020 C 
BRANCH   8   9
HETATM    9  C9  UNL     1      52.300  14.872  -1.631  1.00  0.00     0.122 C 
BRANCH   9  10
HETATM   10  N2  UNL     1      53.319  14.075  -2.279  1.00  0.00    -0.361 N 
HETATM   11  C8  UNL     1      53.767  14.240  -3.604  1.00  0.00     0.217 C 
HETATM   12  O1  UNL     1      53.284  15.139  -4.363  1.00  0.00    -0.274 OA
ATOM     13  H2  UNL     1      53.749  13.330  -1.730  1.00  0.00     0.162 HD
BRANCH  11  14
HETATM   14  C7  UNL     1      54.827  13.340  -4.124  1.00  0.00     0.108 C 
BRANCH  14  15
HETATM   15  C6  UNL     1      55.504  12.575  -3.011  1.00  0.00     0.066 C 
BRANCH  15  16
HETATM   16  C5  UNL     1      56.730  11.909  -3.427  1.00  0.00     0.011 A 
HETATM   17  C4  UNL     1      56.863  11.305  -4.654  1.00  0.00     0.025 A 
HETATM   18  C3  UNL     1      58.021  10.671  -5.055  1.00  0.00     0.006 A 
HETATM   19  C2  UNL     1      59.077  10.644  -4.192  1.00  0.00     0.048 A 
HETATM   20  C1  UNL     1      58.945  11.247  -2.964  1.00  0.00     0.098 A 
HETATM   21  N9  UNL     1      57.785  11.865  -2.601  1.00  0.00    -0.346 N 
ATOM     22  H9  UNL     1      57.719  12.302  -1.682  1.00  0.00     0.167 HD
BRANCH  20  23
HETATM   23  N1  UNL     1      59.963  11.202  -2.172  1.00  0.00    -0.385 N 
ATOM     24  H12 UNL     1      60.482  10.338  -2.016  1.00  0.00     0.157 HD
ATOM     25  H11 UNL     1      60.231  12.070  -1.707  1.00  0.00     0.157 HD
ENDBRANCH  20  23
ENDBRANCH  15  16
ENDBRANCH  14  15
ENDBRANCH  11  14
ENDBRANCH   9  10
ENDBRANCH   8   9
ENDBRANCH   7   8
ENDBRANCH   6   7
ENDBRANCH   5   6
ENDBRANCH   4   5
ENDBRANCH   3   4
ENDBRANCH   1   3
BRANCH   1  26
HETATM   26  C16 UNL     1      52.144  18.665  -5.130  1.00  0.00     0.693 A 
HETATM   27  N4  UNL     1      51.677  17.416  -5.248  1.00  0.00    -0.187 N 
HETATM   28  C17 UNL     1      51.139  16.992  -6.414  1.00  0.00     0.215 A 
ATOM     29  H4  UNL     1      51.727  16.779  -4.453  1.00  0.00     0.185 HD
HETATM   30  N5  UNL     1      51.070  17.823  -7.467  1.00  0.00    -0.187 N 
HETATM   31  C18 UNL     1      51.529  19.095  -7.395  1.00  0.00     0.693 A 
ATOM     32  H5  UNL     1      50.662  17.489  -8.340  1.00  0.00     0.185 HD
HETATM   33  N8  UNL     1      52.053  19.481  -6.230  1.00  0.00    -0.022 N 
ATOM     34  H8  UNL     1      52.406  20.435  -6.153  1.00  0.00     0.203 HD
BRANCH  31  35
HETATM   35  N6  UNL     1      51.467  19.912  -8.394  1.00  0.00    -0.221 N 
ATOM     36  H6  UNL     1      52.309  20.309  -8.811  1.00  0.00     0.178 HD
BRANCH  35  37
HETATM   37  C19 UNL     1      50.146  20.237  -8.893  1.00  0.00     0.184 C 
BRANCH  37  38
HETATM   38  C20 UNL     1      50.292  20.659 -10.331  1.00  0.00     0.002 A 
HETATM   39  C21 UNL     1      51.185  21.540 -10.873  1.00  0.00     0.029 A 
HETATM   40  C22 UNL     1      51.108  21.755 -12.207  1.00  0.00    -0.015 A 
HETATM   41  C23 UNL     1      51.926  22.617 -12.972  1.00  0.00     0.030 A 
HETATM   42  C26 UNL     1      50.144  21.074 -12.893  1.00  0.00     0.031 A 
HETATM   43  C24 UNL     1      51.724  22.726 -14.314  1.00  0.00     0.088 A 
HETATM   44  N7  UNL     1      50.765  22.049 -15.007  1.00  0.00    -0.374 N 
HETATM   45  C25 UNL     1      49.986  21.229 -14.281  1.00  0.00     0.107 A 
ATOM     46  H7  UNL     1      50.645  22.158 -16.014  1.00  0.00     0.164 HD
HETATM   47  S1  UNL     1      49.376  20.159 -11.675  1.00  0.00    -0.091 SA
ENDBRANCH  37  38
ENDBRANCH  35  37
ENDBRANCH  31  35
ENDBRANCH   1  26
TORSDOF 16
ENDMDL
MODEL 4
REMARK VINA RESULT: -8.304170053      1.712      2.383
REMARK  16 active torsions:
REMARK  status: ('A' for Active; 'I' for Inactive)
REMARK    1  A    between atoms: N1_1  and  C1_4 
REMARK    2  A    between atoms: C5_8  and  C6_9 
REMARK    3  A    between atoms: C6_9  and  C7_10 
REMARK    4  A    between atoms: C7_10  and  C8_11 
REMARK       I    between atoms: C8_11  and  N2_13 
REMARK    5  A    between atoms: N2_13  and  C9_15 
REMARK    6  A    between atoms: C9_15  and  C10_16 
REMARK    7  A    between atoms: C10_16  and  C11_17 
REMARK    8  A    between atoms: C11_17  and  C12_18 
REMARK    9  A    between atoms: C12_18  and  C13_19 
REMARK   10  A    between atoms: C13_19  and  C14_20 
REMARK   11  A    between atoms: C14_20  and  C15_21 
REMARK   12  A    between atoms: C15_21  and  N3_22 
REMARK   13  A    between atoms: N3_22  and  C16_24 
REMARK   14  A    between atoms: C18_30  and  N6_31 
REMARK   15  A    between atoms: N6_31  and  C19_33 
REMARK   16  A    between atoms: C19_33  and  C20_34 
ROOT
HETATM    1  N3  UNL     1      50.512  21.250  -9.688  1.00  0.00    -0.226 N 
ATOM      2  H3  UNL     1      49.965  22.077  -9.446  1.00  0.00     0.177 HD
ENDROOT
BRANCH   1   3
HETATM    3  C15 UNL     1      51.328  21.381 -10.831  1.00  0.00     0.138 C 
BRANCH   3   4
HETATM    4  C14 UNL     1      51.072  22.668 -11.600  1.00  0.00     0.020 C 
BRANCH   4   5
HETATM    5  C13 UNL     1      51.556  22.609 -13.024  1.00  0.00     0.002 C 
BRANCH   5   6
HETATM    6  C12 UNL     1      50.515  23.010 -14.022  1.00  0.00     0.000 C 
BRANCH   6   7
HETATM    7  C11 UNL     1      49.314  23.660 -13.374  1.00  0.00     0.002 C 
BRANCH   7   8
HETATM    8  C10 UNL     1      48.020  23.220 -14.025  1.00  0.00     0.020 C 
BRANCH   8   9
HETATM    9  C9  UNL     1      47.086  22.562 -13.068  1.00  0.00     0.122 C 
BRANCH   9  10
HETATM   10  N2  UNL     1      46.946  21.163 -13.410  1.00  0.00    -0.361 N 
HETATM   11  C8  UNL     1      47.458  20.083 -12.666  1.00  0.00     0.217 C 
HETATM   12  O1  UNL     1      48.115  20.267 -11.592  1.00  0.00    -0.274 OA
ATOM     13  H2  UNL     1      46.432  20.940 -14.264  1.00  0.00     0.162 HD
BRANCH  11  14
HETATM   14  C7  UNL     1      47.225  18.699 -13.150  1.00  0.00     0.108 C 
BRANCH  14  15
HETATM   15  C6  UNL     1      46.912  18.669 -14.627  1.00  0.00     0.066 C 
BRANCH  15  16
HETATM   16  C5  UNL     1      48.072  18.390 -15.462  1.00  0.00     0.011 A 
HETATM   17  C4  UNL     1      48.808  17.236 -15.339  1.00  0.00     0.025 A 
HETATM   18  C3  UNL     1      49.908  16.964 -16.125  1.00  0.00     0.006 A 
HETATM   19  C2  UNL     1      50.279  17.882 -17.063  1.00  0.00     0.048 A 
HETATM   20  C1  UNL     1      49.543  19.037 -17.186  1.00  0.00     0.098 A 
HETATM   21  N9  UNL     1      48.461  19.273 -16.391  1.00  0.00    -0.346 N 
ATOM     22  H9  UNL     1      47.936  20.140 -16.507  1.00  0.00     0.167 HD
BRANCH  20  23
HETATM   23  N1  UNL     1      49.921  19.885 -18.082  1.00  0.00    -0.385 N 
ATOM     24  H12 UNL     1      49.692  19.758 -19.068  1.00  0.00     0.157 HD
ATOM     25  H11 UNL     1      50.459  20.692 -17.765  1.00  0.00     0.157 HD
ENDBRANCH  20  23
ENDBRANCH  15  16
ENDBRANCH  14  15
ENDBRANCH  11  14
ENDBRANCH   9  10
ENDBRANCH   8   9
ENDBRANCH   7   8
ENDBRANCH   6   7
ENDBRANCH   5   6
ENDBRANCH   4   5
ENDBRANCH   3   4
ENDBRANCH   1   3
BRANCH   1  26
HETATM   26  C16 UNL     1      50.356  20.245  -8.908  1.00  0.00     0.693 A 
HETATM   27  N4  UNL     1      50.979  20.128  -7.728  1.00  0.00    -0.187 N 
HETATM   28  C17 UNL     1      50.771  19.044  -6.947  1.00  0.00     0.215 A 
ATOM     29  H4  UNL     1      51.615  20.862  -7.417  1.00  0.00     0.185 HD
HETATM   30  N5  UNL     1      49.936  18.072  -7.349  1.00  0.00    -0.187 N 
HETATM   31  C18 UNL     1      49.283  18.146  -8.533  1.00  0.00     0.693 A 
ATOM     32  H5  UNL     1      49.791  17.260  -6.749  1.00  0.00     0.185 HD
HETATM   33  N8  UNL     1      49.511  19.229  -9.279  1.00  0.00    -0.022 N 
ATOM     34  H8  UNL     1      49.030  19.306 -10.176  1.00  0.00     0.203 HD
BRANCH  31  35
HETATM   35  N6  UNL     1      48.473  17.225  -8.936  1.00  0.00    -0.221 N 
ATOM     36  H6  UNL     1      48.584  16.777  -9.845  1.00  0.00     0.178 HD
BRANCH  35  37
HETATM   37  C19 UNL     1      47.398  16.859  -8.036  1.00  0.00     0.184 C 
BRANCH  37  38
HETATM   38  C20 UNL     1      46.107  17.333  -8.648  1.00  0.00     0.002 A 
HETATM   39  C21 UNL     1      45.920  18.283  -9.612  1.00  0.00     0.029 A 
HETATM   40  C22 UNL     1      44.646  18.533  -9.994  1.00  0.00    -0.015 A 
HETATM   41  C23 UNL     1      44.224  19.467 -10.967  1.00  0.00     0.030 A 
HETATM   42  C26 UNL     1      43.660  17.815  -9.382  1.00  0.00     0.031 A 
HETATM   43  C24 UNL     1      42.898  19.604 -11.243  1.00  0.00     0.088 A 
HETATM   44  N7  UNL     1      41.907  18.890 -10.637  1.00  0.00    -0.374 N 
HETATM   45  C25 UNL     1      42.306  18.002  -9.712  1.00  0.00     0.107 A 
ATOM     46  H7  UNL     1      40.923  19.022 -10.872  1.00  0.00     0.164 HD
HETATM   47  S1  UNL     1      44.523  16.817  -8.300  1.00  0.00    -0.091 SA
ENDBRANCH  37  38
ENDBRANCH  35  37
ENDBRANCH  31  35
ENDBRANCH   1  26
TORSDOF 16
ENDMDL
MODEL 5
REMARK VINA RESULT: -8.276003888      1.991      3.086
REMARK  16 active torsions:
REMARK  status: ('A' for Active; 'I' for Inactive)
REMARK    1  A    between atoms: N1_1  and  C1_4 
REMARK    2  A    between atoms: C5_8  and  C6_9 
REMARK    3  A    between atoms: C6_9  and  C7_10 
REMARK    4  A    between atoms: C7_10  and  C8_11 
REMARK       I    between atoms: C8_11  and  N2_13 
REMARK    5  A    between atoms: N2_13  and  C9_15 
REMARK    6  A    between atoms: C9_15  and  C10_16 
REMARK    7  A    between atoms: C10_16  and  C11_17 
REMARK    8  A    between atoms: C11_17  and  C12_18 
REMARK    9  A    between atoms: C12_18  and  C13_19 
REMARK   10  A    between atoms: C13_19  and  C14_20 
REMARK   11  A    between atoms: C14_20  and  C15_21 
REMARK   12  A    between atoms: C15_21  and  N3_22 
REMARK   13  A    between atoms: N3_22  and  C16_24 
REMARK   14  A    between atoms: C18_30  and  N6_31 
REMARK   15  A    between atoms: N6_31  and  C19_33 
REMARK   16  A    between atoms: C19_33  and  C20_34 
ROOT
HETATM    1  N3  UNL     1      51.296  20.237  -8.853  1.00  0.00    -0.226 N 
ATOM      2  H3  UNL     1      52.287  20.479  -8.841  1.00  0.00     0.177 HD
ENDROOT
BRANCH   1   3
HETATM    3  C15 UNL     1      50.498  21.011  -9.720  1.00  0.00     0.138 C 
BRANCH   3   4
HETATM    4  C14 UNL     1      51.227  21.426 -10.989  1.00  0.00     0.020 C 
BRANCH   4   5
HETATM    5  C13 UNL     1      50.524  20.984 -12.243  1.00  0.00     0.002 C 
BRANCH   5   6
HETATM    6  C12 UNL     1      50.850  21.828 -13.435  1.00  0.00     0.000 C 
BRANCH   6   7
HETATM    7  C11 UNL     1      49.618  22.224 -14.218  1.00  0.00     0.002 C 
BRANCH   7   8
HETATM    8  C10 UNL     1      49.012  23.510 -13.696  1.00  0.00     0.020 C 
BRANCH   8   9
HETATM    9  C9  UNL     1      47.538  23.416 -13.502  1.00  0.00     0.122 C 
BRANCH   9  10
HETATM   10  N2  UNL     1      47.232  22.308 -12.624  1.00  0.00    -0.361 N 
HETATM   11  C8  UNL     1      46.093  21.485 -12.712  1.00  0.00     0.217 C 
HETATM   12  O1  UNL     1      45.208  21.667 -13.607  1.00  0.00    -0.274 OA
ATOM     13  H2  UNL     1      47.899  22.105 -11.879  1.00  0.00     0.162 HD
BRANCH  11  14
HETATM   14  C7  UNL     1      45.924  20.380 -11.734  1.00  0.00     0.108 C 
BRANCH  14  15
HETATM   15  C6  UNL     1      44.493  20.266 -11.264  1.00  0.00     0.066 C 
BRANCH  15  16
HETATM   16  C5  UNL     1      43.860  19.007 -11.631  1.00  0.00     0.011 A 
HETATM   17  C4  UNL     1      44.507  18.042 -12.364  1.00  0.00     0.025 A 
HETATM   18  C3  UNL     1      43.914  16.847 -12.716  1.00  0.00     0.006 A 
HETATM   19  C2  UNL     1      42.630  16.618 -12.317  1.00  0.00     0.048 A 
HETATM   20  C1  UNL     1      41.981  17.583 -11.584  1.00  0.00     0.098 A 
HETATM   21  N9  UNL     1      42.599  18.753 -11.254  1.00  0.00    -0.346 N 
ATOM     22  H9  UNL     1      42.090  19.450 -10.710  1.00  0.00     0.167 HD
BRANCH  20  23
HETATM   23  N1  UNL     1      40.768  17.335 -11.223  1.00  0.00    -0.385 N 
ATOM     24  H12 UNL     1      40.344  16.419 -11.370  1.00  0.00     0.157 HD
ATOM     25  H11 UNL     1      40.246  18.093 -10.783  1.00  0.00     0.157 HD
ENDBRANCH  20  23
ENDBRANCH  15  16
ENDBRANCH  14  15
ENDBRANCH  11  14
ENDBRANCH   9  10
ENDBRANCH   8   9
ENDBRANCH   7   8
ENDBRANCH   6   7
ENDBRANCH   5   6
ENDBRANCH   4   5
ENDBRANCH   3   4
ENDBRANCH   1   3
BRANCH   1  26
HETATM   26  C16 UNL     1      50.960  19.273  -8.077  1.00  0.00     0.693 A 
HETATM   27  N4  UNL     1      51.751  18.806  -7.102  1.00  0.00    -0.187 N 
HETATM   28  C17 UNL     1      51.340  17.788  -6.314  1.00  0.00     0.215 A 
ATOM     29  H4  UNL     1      52.670  19.223  -6.953  1.00  0.00     0.185 HD
HETATM   30  N5  UNL     1      50.131  17.232  -6.503  1.00  0.00    -0.187 N 
HETATM   31  C18 UNL     1      49.297  17.670  -7.476  1.00  0.00     0.693 A 
ATOM     32  H5  UNL     1      49.836  16.464  -5.902  1.00  0.00     0.185 HD
HETATM   33  N8  UNL     1      49.734  18.676  -8.236  1.00  0.00    -0.022 N 
ATOM     34  H8  UNL     1      49.122  19.022  -8.976  1.00  0.00     0.203 HD
BRANCH  31  35
HETATM   35  N6  UNL     1      48.130  17.153  -7.672  1.00  0.00    -0.221 N 
ATOM     36  H6  UNL     1      47.621  16.684  -6.924  1.00  0.00     0.178 HD
BRANCH  35  37
HETATM   37  C19 UNL     1      47.577  17.272  -9.007  1.00  0.00     0.184 C 
BRANCH  37  38
HETATM   38  C20 UNL     1      46.199  16.668  -8.987  1.00  0.00     0.002 A 
HETATM   39  C21 UNL     1      45.064  17.157  -8.402  1.00  0.00     0.029 A 
HETATM   40  C22 UNL     1      43.939  16.415  -8.524  1.00  0.00    -0.015 A 
HETATM   41  C23 UNL     1      42.662  16.726  -8.003  1.00  0.00     0.030 A 
HETATM   42  C26 UNL     1      44.036  15.245  -9.221  1.00  0.00     0.031 A 
HETATM   43  C24 UNL     1      41.621  15.874  -8.211  1.00  0.00     0.088 A 
HETATM   44  N7  UNL     1      41.709  14.704  -8.907  1.00  0.00    -0.374 N 
HETATM   45  C25 UNL     1      42.922  14.407  -9.403  1.00  0.00     0.107 A 
ATOM     46  H7  UNL     1      40.904  14.092  -9.042  1.00  0.00     0.164 HD
HETATM   47  S1  UNL     1      45.677  15.207  -9.684  1.00  0.00    -0.091 SA
ENDBRANCH  37  38
ENDBRANCH  35  37
ENDBRANCH  31  35
ENDBRANCH   1  26
TORSDOF 16
ENDMDL
