MODEL 1
REMARK VINA RESULT: -7.345439212      0.000      0.000
REMARK  20 active torsions:
REMARK  status: ('A' for Active; 'I' for Inactive)
REMARK    1  A    between atoms: C4_4  and  C5_5 
REMARK    2  A    between atoms: C5_5  and  C6_6 
REMARK    3  A    between atoms: C7_7  and  C9_9 
REMARK    4  A    between atoms: C9_9  and  C10_10 
REMARK    5  A    between atoms: C10_10  and  C11_11 
REMARK    6  A    between atoms: C12_12  and  C13_13 
REMARK    7  A    between atoms: C13_13  and  C14_14 
REMARK    8  A    between atoms: C14_14  and  C15_15 
REMARK    9  A    between atoms: C15_15  and  O1_16 
REMARK   10  A    between atoms: C15_15  and  C16_18 
REMARK   11  A    between atoms: C18_20  and  O2_21 
REMARK   12  A    between atoms: C18_20  and  C19_23 
REMARK   13  A    between atoms: C19_23  and  C21_25 
REMARK   14  A    between atoms: C19_23  and  N1_40 
REMARK   15  A    between atoms: C21_25  and  O3_26 
REMARK   16  A    between atoms: C21_25  and  C22_28 
REMARK   17  A    between atoms: C23_30  and  C24_31 
REMARK   18  A    between atoms: C24_31  and  O5_32 
REMARK   19  A    between atoms: C25_34  and  O6_35 
REMARK   20  A    between atoms: C26_37  and  O7_38 
ROOT
HETATM    1  C16 UNL     1      46.823  16.659 -13.104  1.00  0.00    -0.023 C 
HETATM    2  C17 UNL     1      48.039  15.846 -13.123  1.00  0.00     0.049 C 
HETATM    3  C18 UNL     1      46.732  18.089 -13.284  1.00  0.00     0.089 C 
ENDROOT
BRANCH   3   4
HETATM    4  O2  UNL     1      46.923  18.411 -14.638  1.00  0.00    -0.362 OA
ATOM      5  H2  UNL     1      46.101  18.699 -15.019  1.00  0.00     0.217 HD
ENDBRANCH   3   4
BRANCH   3   6
HETATM    6  C19 UNL     1      47.280  19.123 -12.424  1.00  0.00     0.232 C 
HETATM    7  C20 UNL     1      48.283  18.650 -11.366  1.00  0.00     0.060 C 
BRANCH   6   8
HETATM    8  C21 UNL     1      48.255  19.952 -13.350  1.00  0.00     0.195 C 
BRANCH   8   9
HETATM    9  O3  UNL     1      49.329  19.117 -13.641  1.00  0.00    -0.390 OA
ATOM     10  H3  UNL     1      49.129  18.699 -14.471  1.00  0.00     0.210 HD
ENDBRANCH   8   9
BRANCH   8  11
HETATM   11  C22 UNL     1      48.782  21.171 -12.637  1.00  0.00     0.185 C 
HETATM   12  O4  UNL     1      50.109  21.287 -12.477  1.00  0.00    -0.370 OA
HETATM   13  C23 UNL     1      50.611  22.390 -13.133  1.00  0.00     0.177 C 
HETATM   14  C25 UNL     1      49.536  23.058 -13.905  1.00  0.00     0.180 C 
HETATM   15  C26 UNL     1      48.282  22.347 -13.462  1.00  0.00     0.181 C 
BRANCH  13  16
HETATM   16  C24 UNL     1      51.336  23.393 -12.297  1.00  0.00     0.198 C 
BRANCH  16  17
HETATM   17  O5  UNL     1      52.319  24.046 -13.049  1.00  0.00    -0.398 OA
ATOM     18  H5  UNL     1      51.972  24.840 -13.439  1.00  0.00     0.209 HD
ENDBRANCH  16  17
ENDBRANCH  13  16
BRANCH  14  19
HETATM   19  O6  UNL     1      49.464  24.425 -13.700  1.00  0.00    -0.390 OA
ATOM     20  H6  UNL     1      48.638  24.717 -13.331  1.00  0.00     0.210 HD
ENDBRANCH  14  19
BRANCH  15  21
HETATM   21  O7  UNL     1      47.462  23.207 -12.722  1.00  0.00    -0.390 OA
ATOM     22  H7  UNL     1      46.872  23.707 -13.274  1.00  0.00     0.210 HD
ENDBRANCH  15  21
ENDBRANCH   8  11
ENDBRANCH   6   8
BRANCH   6  23
HETATM   23  N1  UNL     1      46.453  20.178 -11.910  1.00  0.00     0.107 N 
HETATM   24  C27 UNL     1      45.159  20.460 -12.260  1.00  0.00     0.276 A 
HETATM   25  C28 UNL     1      44.649  20.225 -10.857  1.00  0.00     0.060 A 
HETATM   26  C29 UNL     1      46.090  20.043 -10.504  1.00  0.00     0.276 A 
ENDBRANCH   6  23
ENDBRANCH   3   6
BRANCH   1  27
HETATM   27  C15 UNL     1      45.768  15.825 -13.850  1.00  0.00     0.159 C 
BRANCH  27  28
HETATM   28  C14 UNL     1      44.425  16.512 -13.857  1.00  0.00     0.121 C 
BRANCH  28  29
HETATM   29  C13 UNL     1      43.581  16.472 -12.902  1.00  0.00    -0.153 C 
BRANCH  29  30
HETATM   30  C12 UNL     1      42.677  16.450 -11.860  1.00  0.00     0.047 C 
HETATM   31  C11 UNL     1      42.102  17.557 -11.262  1.00  0.00    -0.019 C 
BRANCH  31  32
HETATM   32  C10 UNL     1      41.227  17.128 -10.203  1.00  0.00     0.032 C 
BRANCH  32  33
HETATM   33  C9  UNL     1      42.207  17.677  -9.001  1.00  0.00     0.037 C 
BRANCH  33  34
HETATM   34  C7  UNL     1      42.715  16.651  -8.225  1.00  0.00    -0.087 C 
HETATM   35  C6  UNL     1      43.985  16.308  -8.198  1.00  0.00    -0.021 C 
HETATM   36  C8  UNL     1      41.815  15.827  -7.307  1.00  0.00     0.043 C 
BRANCH  35  37
HETATM   37  C5  UNL     1      45.031  16.971  -9.020  1.00  0.00     0.054 C 
BRANCH  37  38
HETATM   38  C4  UNL     1      46.228  17.180  -8.187  1.00  0.00    -0.021 C 
HETATM   39  C2  UNL     1      47.322  16.489  -8.309  1.00  0.00    -0.091 C 
HETATM   40  C1  UNL     1      48.501  16.783  -7.396  1.00  0.00     0.042 C 
HETATM   41  C3  UNL     1      47.523  15.420  -9.294  1.00  0.00     0.042 C 
ENDBRANCH  37  38
ENDBRANCH  35  37
ENDBRANCH  33  34
ENDBRANCH  32  33
ENDBRANCH  31  32
ENDBRANCH  29  30
ENDBRANCH  28  29
ENDBRANCH  27  28
BRANCH  27  42
HETATM   42  O1  UNL     1      45.667  14.553 -13.317  1.00  0.00    -0.390 OA
ATOM     43  H1  UNL     1      46.430  14.032 -13.539  1.00  0.00     0.210 HD
ENDBRANCH  27  42
ENDBRANCH   1  27
TORSDOF 20
ENDMDL
MODEL 2
REMARK VINA RESULT: -7.273772681      2.024      4.117
REMARK  20 active torsions:
REMARK  status: ('A' for Active; 'I' for Inactive)
REMARK    1  A    between atoms: C4_4  and  C5_5 
REMARK    2  A    between atoms: C5_5  and  C6_6 
REMARK    3  A    between atoms: C7_7  and  C9_9 
REMARK    4  A    between atoms: C9_9  and  C10_10 
REMARK    5  A    between atoms: C10_10  and  C11_11 
REMARK    6  A    between atoms: C12_12  and  C13_13 
REMARK    7  A    between atoms: C13_13  and  C14_14 
REMARK    8  A    between atoms: C14_14  and  C15_15 
REMARK    9  A    between atoms: C15_15  and  O1_16 
REMARK   10  A    between atoms: C15_15  and  C16_18 
REMARK   11  A    between atoms: C18_20  and  O2_21 
REMARK   12  A    between atoms: C18_20  and  C19_23 
REMARK   13  A    between atoms: C19_23  and  C21_25 
REMARK   14  A    between atoms: C19_23  and  N1_40 
REMARK   15  A    between atoms: C21_25  and  O3_26 
REMARK   16  A    between atoms: C21_25  and  C22_28 
REMARK   17  A    between atoms: C23_30  and  C24_31 
REMARK   18  A    between atoms: C24_31  and  O5_32 
REMARK   19  A    between atoms: C25_34  and  O6_35 
REMARK   20  A    between atoms: C26_37  and  O7_38 
ROOT
HETATM    1  C16 UNL     1      45.494  18.789 -12.352  1.00  0.00    -0.023 C 
HETATM    2  C17 UNL     1      44.513  17.829 -12.857  1.00  0.00     0.049 C 
HETATM    3  C18 UNL     1      46.494  19.494 -13.120  1.00  0.00     0.089 C 
ENDROOT
BRANCH   3   4
HETATM    4  O2  UNL     1      45.885  20.514 -13.870  1.00  0.00    -0.362 OA
ATOM      5  H2  UNL     1      45.121  20.170 -14.319  1.00  0.00     0.217 HD
ENDBRANCH   3   4
BRANCH   3   6
HETATM    6  C19 UNL     1      47.619  18.923 -13.840  1.00  0.00     0.232 C 
HETATM    7  C20 UNL     1      47.285  18.252 -15.178  1.00  0.00     0.060 C 
BRANCH   6   8
HETATM    8  C21 UNL     1      48.437  20.164 -14.372  1.00  0.00     0.195 C 
BRANCH   8   9
HETATM    9  O3  UNL     1      49.455  19.653 -15.171  1.00  0.00    -0.390 OA
ATOM     10  H3  UNL     1      50.025  19.156 -14.595  1.00  0.00     0.210 HD
ENDBRANCH   8   9
BRANCH   8  11
HETATM   11  C22 UNL     1      49.065  20.933 -13.238  1.00  0.00     0.185 C 
HETATM   12  O4  UNL     1      50.390  20.827 -13.057  1.00  0.00    -0.370 OA
HETATM   13  C23 UNL     1      51.029  22.035 -13.224  1.00  0.00     0.177 C 
HETATM   14  C25 UNL     1      50.060  23.071 -13.655  1.00  0.00     0.180 C 
HETATM   15  C26 UNL     1      48.722  22.387 -13.521  1.00  0.00     0.181 C 
BRANCH  13  16
HETATM   16  C24 UNL     1      51.827  22.537 -12.064  1.00  0.00     0.198 C 
BRANCH  16  17
HETATM   17  O5  UNL     1      52.830  23.412 -12.495  1.00  0.00    -0.398 OA
ATOM     18  H5  UNL     1      52.514  23.965 -13.199  1.00  0.00     0.209 HD
ENDBRANCH  16  17
ENDBRANCH  13  16
BRANCH  14  19
HETATM   19  O6  UNL     1      50.126  24.243 -12.921  1.00  0.00    -0.390 OA
ATOM     20  H6  UNL     1      49.322  24.750 -12.930  1.00  0.00     0.210 HD
ENDBRANCH  14  19
BRANCH  15  21
HETATM   21  O7  UNL     1      47.972  22.968 -12.491  1.00  0.00    -0.390 OA
ATOM     22  H7  UNL     1      47.167  22.494 -12.320  1.00  0.00     0.210 HD
ENDBRANCH  15  21
ENDBRANCH   8  11
ENDBRANCH   6   8
BRANCH   6  23
HETATM   23  N1  UNL     1      48.654  18.206 -13.152  1.00  0.00     0.107 N 
HETATM   24  C27 UNL     1      48.718  17.925 -11.812  1.00  0.00     0.276 A 
HETATM   25  C28 UNL     1      48.704  16.433 -12.048  1.00  0.00     0.060 A 
HETATM   26  C29 UNL     1      48.755  16.792 -13.498  1.00  0.00     0.276 A 
ENDBRANCH   6  23
ENDBRANCH   3   6
BRANCH   1  27
HETATM   27  C15 UNL     1      44.737  19.631 -11.312  1.00  0.00     0.159 C 
BRANCH  27  28
HETATM   28  C14 UNL     1      44.304  18.794 -10.134  1.00  0.00     0.121 C 
BRANCH  28  29
HETATM   29  C13 UNL     1      45.085  18.082  -9.420  1.00  0.00    -0.153 C 
BRANCH  29  30
HETATM   30  C12 UNL     1      45.918  17.292  -8.656  1.00  0.00     0.047 C 
HETATM   31  C11 UNL     1      45.590  16.068  -8.100  1.00  0.00    -0.019 C 
BRANCH  31  32
HETATM   32  C10 UNL     1      46.714  15.562  -7.358  1.00  0.00     0.032 C 
BRANCH  32  33
HETATM   33  C9  UNL     1      47.758  15.671  -8.625  1.00  0.00     0.037 C 
BRANCH  33  34
HETATM   34  C7  UNL     1      49.052  15.333  -8.272  1.00  0.00    -0.087 C 
HETATM   35  C6  UNL     1      49.864  16.126  -7.607  1.00  0.00    -0.021 C 
HETATM   36  C8  UNL     1      49.644  13.971  -8.627  1.00  0.00     0.043 C 
BRANCH  35  37
HETATM   37  C5  UNL     1      49.494  17.499  -7.171  1.00  0.00     0.054 C 
BRANCH  37  38
HETATM   38  C4  UNL     1      49.779  18.438  -8.270  1.00  0.00    -0.021 C 
HETATM   39  C2  UNL     1      50.620  19.424  -8.177  1.00  0.00    -0.091 C 
HETATM   40  C1  UNL     1      50.840  20.339  -9.371  1.00  0.00     0.042 C 
HETATM   41  C3  UNL     1      51.411  19.731  -6.979  1.00  0.00     0.042 C 
ENDBRANCH  37  38
ENDBRANCH  35  37
ENDBRANCH  33  34
ENDBRANCH  32  33
ENDBRANCH  31  32
ENDBRANCH  29  30
ENDBRANCH  28  29
ENDBRANCH  27  28
BRANCH  27  42
HETATM   42  O1  UNL     1      43.654  20.276 -11.882  1.00  0.00    -0.390 OA
ATOM     43  H1  UNL     1      43.929  21.070 -12.326  1.00  0.00     0.210 HD
ENDBRANCH  27  42
ENDBRANCH   1  27
TORSDOF 20
ENDMDL
MODEL 3
REMARK VINA RESULT: -7.222612866      0.977      1.259
REMARK  20 active torsions:
REMARK  status: ('A' for Active; 'I' for Inactive)
REMARK    1  A    between atoms: C4_4  and  C5_5 
REMARK    2  A    between atoms: C5_5  and  C6_6 
REMARK    3  A    between atoms: C7_7  and  C9_9 
REMARK    4  A    between atoms: C9_9  and  C10_10 
REMARK    5  A    between atoms: C10_10  and  C11_11 
REMARK    6  A    between atoms: C12_12  and  C13_13 
REMARK    7  A    between atoms: C13_13  and  C14_14 
REMARK    8  A    between atoms: C14_14  and  C15_15 
REMARK    9  A    between atoms: C15_15  and  O1_16 
REMARK   10  A    between atoms: C15_15  and  C16_18 
REMARK   11  A    between atoms: C18_20  and  O2_21 
REMARK   12  A    between atoms: C18_20  and  C19_23 
REMARK   13  A    between atoms: C19_23  and  C21_25 
REMARK   14  A    between atoms: C19_23  and  N1_40 
REMARK   15  A    between atoms: C21_25  and  O3_26 
REMARK   16  A    between atoms: C21_25  and  C22_28 
REMARK   17  A    between atoms: C23_30  and  C24_31 
REMARK   18  A    between atoms: C24_31  and  O5_32 
REMARK   19  A    between atoms: C25_34  and  O6_35 
REMARK   20  A    between atoms: C26_37  and  O7_38 
ROOT
HETATM    1  C16 UNL     1      46.283  16.853 -13.549  1.00  0.00    -0.023 C 
HETATM    2  C17 UNL     1      47.375  15.931 -13.860  1.00  0.00     0.049 C 
HETATM    3  C18 UNL     1      46.344  18.296 -13.526  1.00  0.00     0.089 C 
ENDROOT
BRANCH   3   4
HETATM    4  O2  UNL     1      46.385  18.791 -14.841  1.00  0.00    -0.362 OA
ATOM      5  H2  UNL     1      45.618  18.497 -15.318  1.00  0.00     0.217 HD
ENDBRANCH   3   4
BRANCH   3   6
HETATM    6  C19 UNL     1      47.129  19.132 -12.635  1.00  0.00     0.232 C 
HETATM    7  C20 UNL     1      48.228  18.416 -11.842  1.00  0.00     0.060 C 
BRANCH   6   8
HETATM    8  C21 UNL     1      48.032  20.012 -13.587  1.00  0.00     0.195 C 
BRANCH   8   9
HETATM    9  O3  UNL     1      48.991  19.159 -14.122  1.00  0.00    -0.390 OA
ATOM     10  H3  UNL     1      48.641  18.841 -14.946  1.00  0.00     0.210 HD
ENDBRANCH   8   9
BRANCH   8  11
HETATM   11  C22 UNL     1      48.739  21.100 -12.819  1.00  0.00     0.185 C 
HETATM   12  O4  UNL     1      50.080  21.088 -12.794  1.00  0.00    -0.370 OA
HETATM   13  C23 UNL     1      50.615  22.209 -13.388  1.00  0.00     0.177 C 
HETATM   14  C25 UNL     1      49.536  23.043 -13.970  1.00  0.00     0.180 C 
HETATM   15  C26 UNL     1      48.271  22.395 -13.466  1.00  0.00     0.181 C 
BRANCH  13  16
HETATM   16  C24 UNL     1      51.511  23.053 -12.542  1.00  0.00     0.198 C 
BRANCH  16  17
HETATM   17  O5  UNL     1      52.342  23.847 -13.340  1.00  0.00    -0.398 OA
ATOM     18  H5  UNL     1      52.018  24.738 -13.380  1.00  0.00     0.209 HD
ENDBRANCH  16  17
ENDBRANCH  13  16
BRANCH  14  19
HETATM   19  O6  UNL     1      49.613  24.382 -13.625  1.00  0.00    -0.390 OA
ATOM     20  H6  UNL     1      48.799  24.742 -13.292  1.00  0.00     0.210 HD
ENDBRANCH  14  19
BRANCH  15  21
HETATM   21  O7  UNL     1      47.613  23.235 -12.560  1.00  0.00    -0.390 OA
ATOM     22  H7  UNL     1      47.073  23.884 -12.996  1.00  0.00     0.210 HD
ENDBRANCH  15  21
ENDBRANCH   8  11
ENDBRANCH   6   8
BRANCH   6  23
HETATM   23  N1  UNL     1      46.512  20.157 -11.843  1.00  0.00     0.107 N 
HETATM   24  C27 UNL     1      45.231  20.631 -11.954  1.00  0.00     0.276 A 
HETATM   25  C28 UNL     1      44.871  20.203 -10.551  1.00  0.00     0.060 A 
HETATM   26  C29 UNL     1      46.310  19.811 -10.441  1.00  0.00     0.276 A 
ENDBRANCH   6  23
ENDBRANCH   3   6
BRANCH   1  27
HETATM   27  C15 UNL     1      45.041  16.250 -14.224  1.00  0.00     0.159 C 
BRANCH  27  28
HETATM   28  C14 UNL     1      43.779  16.599 -13.475  1.00  0.00     0.121 C 
BRANCH  28  29
HETATM   29  C13 UNL     1      43.211  15.846 -12.616  1.00  0.00    -0.153 C 
BRANCH  29  30
HETATM   30  C12 UNL     1      42.611  15.041 -11.671  1.00  0.00     0.047 C 
HETATM   31  C11 UNL     1      41.428  15.312 -11.006  1.00  0.00    -0.019 C 
BRANCH  31  32
HETATM   32  C10 UNL     1      41.140  14.244 -10.087  1.00  0.00     0.032 C 
BRANCH  32  33
HETATM   33  C9  UNL     1      40.772  15.249  -8.838  1.00  0.00     0.037 C 
BRANCH  33  34
HETATM   34  C7  UNL     1      41.541  14.998  -7.716  1.00  0.00    -0.087 C 
HETATM   35  C6  UNL     1      42.678  15.606  -7.452  1.00  0.00    -0.021 C 
HETATM   36  C8  UNL     1      41.108  13.979  -6.665  1.00  0.00     0.043 C 
BRANCH  35  37
HETATM   37  C5  UNL     1      43.288  16.627  -8.344  1.00  0.00     0.054 C 
BRANCH  37  38
HETATM   38  C4  UNL     1      44.663  16.895  -7.888  1.00  0.00    -0.021 C 
HETATM   39  C2  UNL     1      45.720  16.663  -8.607  1.00  0.00    -0.091 C 
HETATM   40  C1  UNL     1      47.097  16.974  -8.041  1.00  0.00     0.042 C 
HETATM   41  C3  UNL     1      45.695  16.118  -9.970  1.00  0.00     0.042 C 
ENDBRANCH  37  38
ENDBRANCH  35  37
ENDBRANCH  33  34
ENDBRANCH  32  33
ENDBRANCH  31  32
ENDBRANCH  29  30
ENDBRANCH  28  29
ENDBRANCH  27  28
BRANCH  27  42
HETATM   42  O1  UNL     1      45.164  14.880 -14.368  1.00  0.00    -0.390 OA
ATOM     43  H1  UNL     1      45.293  14.645 -15.281  1.00  0.00     0.210 HD
ENDBRANCH  27  42
ENDBRANCH   1  27
TORSDOF 20
ENDMDL
MODEL 4
REMARK VINA RESULT: -7.193189777      2.230      4.404
REMARK  20 active torsions:
REMARK  status: ('A' for Active; 'I' for Inactive)
REMARK    1  A    between atoms: C4_4  and  C5_5 
REMARK    2  A    between atoms: C5_5  and  C6_6 
REMARK    3  A    between atoms: C7_7  and  C9_9 
REMARK    4  A    between atoms: C9_9  and  C10_10 
REMARK    5  A    between atoms: C10_10  and  C11_11 
REMARK    6  A    between atoms: C12_12  and  C13_13 
REMARK    7  A    between atoms: C13_13  and  C14_14 
REMARK    8  A    between atoms: C14_14  and  C15_15 
REMARK    9  A    between atoms: C15_15  and  O1_16 
REMARK   10  A    between atoms: C15_15  and  C16_18 
REMARK   11  A    between atoms: C18_20  and  O2_21 
REMARK   12  A    between atoms: C18_20  and  C19_23 
REMARK   13  A    between atoms: C19_23  and  C21_25 
REMARK   14  A    between atoms: C19_23  and  N1_40 
REMARK   15  A    between atoms: C21_25  and  O3_26 
REMARK   16  A    between atoms: C21_25  and  C22_28 
REMARK   17  A    between atoms: C23_30  and  C24_31 
REMARK   18  A    between atoms: C24_31  and  O5_32 
REMARK   19  A    between atoms: C25_34  and  O6_35 
REMARK   20  A    between atoms: C26_37  and  O7_38 
ROOT
HETATM    1  C16 UNL     1      45.782  19.153 -11.755  1.00  0.00    -0.023 C 
HETATM    2  C17 UNL     1      45.214  18.917 -13.083  1.00  0.00     0.049 C 
HETATM    3  C18 UNL     1      46.863  20.051 -11.420  1.00  0.00     0.089 C 
ENDROOT
BRANCH   3   4
HETATM    4  O2  UNL     1      46.406  21.379 -11.458  1.00  0.00    -0.362 OA
ATOM      5  H2  UNL     1      45.560  21.441 -11.030  1.00  0.00     0.217 HD
ENDBRANCH   3   4
BRANCH   3   6
HETATM    6  C19 UNL     1      48.246  19.967 -11.853  1.00  0.00     0.232 C 
HETATM    7  C20 UNL     1      48.524  19.018 -13.025  1.00  0.00     0.060 C 
BRANCH   6   8
HETATM    8  C21 UNL     1      48.537  21.347 -12.566  1.00  0.00     0.195 C 
BRANCH   8   9
HETATM    9  O3  UNL     1      47.691  21.407 -13.669  1.00  0.00    -0.390 OA
ATOM     10  H3  UNL     1      46.816  21.554 -13.330  1.00  0.00     0.210 HD
ENDBRANCH   8   9
BRANCH   8  11
HETATM   11  C22 UNL     1      49.961  21.420 -13.056  1.00  0.00     0.185 C 
HETATM   12  O4  UNL     1      50.171  21.606 -14.367  1.00  0.00    -0.370 OA
HETATM   13  C23 UNL     1      50.824  22.792 -14.620  1.00  0.00     0.177 C 
HETATM   14  C25 UNL     1      51.006  23.553 -13.361  1.00  0.00     0.180 C 
HETATM   15  C26 UNL     1      50.572  22.584 -12.291  1.00  0.00     0.181 C 
BRANCH  13  16
HETATM   16  C24 UNL     1      52.124  22.698 -15.350  1.00  0.00     0.198 C 
BRANCH  16  17
HETATM   17  O5  UNL     1      52.399  23.891 -16.027  1.00  0.00    -0.398 OA
ATOM     18  H5  UNL     1      53.083  23.760 -16.674  1.00  0.00     0.209 HD
ENDBRANCH  16  17
ENDBRANCH  13  16
BRANCH  14  19
HETATM   19  O6  UNL     1      52.297  24.011 -13.163  1.00  0.00    -0.390 OA
ATOM     20  H6  UNL     1      52.353  24.776 -12.602  1.00  0.00     0.210 HD
ENDBRANCH  14  19
BRANCH  15  21
HETATM   21  O7  UNL     1      51.664  22.192 -11.508  1.00  0.00    -0.390 OA
ATOM     22  H7  UNL     1      52.086  22.928 -11.082  1.00  0.00     0.210 HD
ENDBRANCH  15  21
ENDBRANCH   8  11
ENDBRANCH   6   8
BRANCH   6  23
HETATM   23  N1  UNL     1      49.321  19.936 -10.903  1.00  0.00     0.107 N 
HETATM   24  C27 UNL     1      49.305  20.409  -9.617  1.00  0.00     0.276 A 
HETATM   25  C28 UNL     1      49.578  19.044  -9.031  1.00  0.00     0.060 A 
HETATM   26  C29 UNL     1      49.704  18.601 -10.454  1.00  0.00     0.276 A 
ENDBRANCH   6  23
ENDBRANCH   3   6
BRANCH   1  27
HETATM   27  C15 UNL     1      44.578  19.173 -10.799  1.00  0.00     0.159 C 
BRANCH  27  28
HETATM   28  C14 UNL     1      44.384  17.837 -10.128  1.00  0.00     0.121 C 
BRANCH  28  29
HETATM   29  C13 UNL     1      45.069  17.412  -9.139  1.00  0.00    -0.153 C 
BRANCH  29  30
HETATM   30  C12 UNL     1      45.794  16.934  -8.067  1.00  0.00     0.047 C 
HETATM   31  C11 UNL     1      47.173  16.917  -7.964  1.00  0.00    -0.019 C 
BRANCH  31  32
HETATM   32  C10 UNL     1      47.552  16.327  -6.708  1.00  0.00     0.032 C 
BRANCH  32  33
HETATM   33  C9  UNL     1      48.405  15.101  -7.399  1.00  0.00     0.037 C 
BRANCH  33  34
HETATM   34  C7  UNL     1      49.691  15.480  -7.740  1.00  0.00    -0.087 C 
HETATM   35  C6  UNL     1      50.295  15.117  -8.851  1.00  0.00    -0.021 C 
HETATM   36  C8  UNL     1      50.522  16.384  -6.832  1.00  0.00     0.043 C 
BRANCH  35  37
HETATM   37  C5  UNL     1      49.672  14.232  -9.871  1.00  0.00     0.054 C 
BRANCH  37  38
HETATM   38  C4  UNL     1      48.912  15.064 -10.821  1.00  0.00    -0.021 C 
HETATM   39  C2  UNL     1      47.646  14.906 -11.066  1.00  0.00    -0.091 C 
HETATM   40  C1  UNL     1      46.955  15.818 -12.068  1.00  0.00     0.042 C 
HETATM   41  C3  UNL     1      46.796  13.894 -10.428  1.00  0.00     0.042 C 
ENDBRANCH  37  38
ENDBRANCH  35  37
ENDBRANCH  33  34
ENDBRANCH  32  33
ENDBRANCH  31  32
ENDBRANCH  29  30
ENDBRANCH  28  29
ENDBRANCH  27  28
BRANCH  27  42
HETATM   42  O1  UNL     1      43.425  19.568 -11.453  1.00  0.00    -0.390 OA
ATOM     43  H1  UNL     1      42.965  20.234 -10.956  1.00  0.00     0.210 HD
ENDBRANCH  27  42
ENDBRANCH   1  27
TORSDOF 20
ENDMDL
MODEL 5
REMARK VINA RESULT: -7.185436595      2.239      4.779
REMARK  20 active torsions:
REMARK  status: ('A' for Active; 'I' for Inactive)
REMARK    1  A    between atoms: C4_4  and  C5_5 
REMARK    2  A    between atoms: C5_5  and  C6_6 
REMARK    3  A    between atoms: C7_7  and  C9_9 
REMARK    4  A    between atoms: C9_9  and  C10_10 
REMARK    5  A    between atoms: C10_10  and  C11_11 
REMARK    6  A    between atoms: C12_12  and  C13_13 
REMARK    7  A    between atoms: C13_13  and  C14_14 
REMARK    8  A    between atoms: C14_14  and  C15_15 
REMARK    9  A    between atoms: C15_15  and  O1_16 
REMARK   10  A    between atoms: C15_15  and  C16_18 
REMARK   11  A    between atoms: C18_20  and  O2_21 
REMARK   12  A    between atoms: C18_20  and  C19_23 
REMARK   13  A    between atoms: C19_23  and  C21_25 
REMARK   14  A    between atoms: C19_23  and  N1_40 
REMARK   15  A    between atoms: C21_25  and  O3_26 
REMARK   16  A    between atoms: C21_25  and  C22_28 
REMARK   17  A    between atoms: C23_30  and  C24_31 
REMARK   18  A    between atoms: C24_31  and  O5_32 
REMARK   19  A    between atoms: C25_34  and  O6_35 
REMARK   20  A    between atoms: C26_37  and  O7_38 
ROOT
HETATM    1  C16 UNL     1      43.937  17.918 -11.278  1.00  0.00    -0.023 C 
HETATM    2  C17 UNL     1      42.996  17.141 -12.085  1.00  0.00     0.049 C 
HETATM    3  C18 UNL     1      44.972  18.802 -11.763  1.00  0.00     0.089 C 
ENDROOT
BRANCH   3   4
HETATM    4  O2  UNL     1      44.396  19.993 -12.236  1.00  0.00    -0.362 OA
ATOM      5  H2  UNL     1      45.025  20.463 -12.772  1.00  0.00     0.217 HD
ENDBRANCH   3   4
BRANCH   3   6
HETATM    6  C19 UNL     1      46.141  18.445 -12.548  1.00  0.00     0.232 C 
HETATM    7  C20 UNL     1      46.029  18.682 -14.059  1.00  0.00     0.060 C 
BRANCH   6   8
HETATM    8  C21 UNL     1      47.222  19.541 -12.195  1.00  0.00     0.195 C 
BRANCH   8   9
HETATM    9  O3  UNL     1      46.808  20.136 -11.008  1.00  0.00    -0.390 OA
ATOM     10  H3  UNL     1      46.127  20.757 -11.240  1.00  0.00     0.210 HD
ENDBRANCH   8   9
BRANCH   8  11
HETATM   11  C22 UNL     1      47.289  20.606 -13.260  1.00  0.00     0.185 C 
HETATM   12  O4  UNL     1      46.849  21.836 -12.955  1.00  0.00    -0.370 OA
HETATM   13  C23 UNL     1      47.855  22.774 -13.026  1.00  0.00     0.177 C 
HETATM   14  C25 UNL     1      49.149  22.114 -13.321  1.00  0.00     0.180 C 
HETATM   15  C26 UNL     1      48.762  20.689 -13.631  1.00  0.00     0.181 C 
BRANCH  13  16
HETATM   16  C24 UNL     1      47.641  23.916 -13.964  1.00  0.00     0.198 C 
BRANCH  16  17
HETATM   17  O5  UNL     1      46.432  23.772 -14.653  1.00  0.00    -0.398 OA
ATOM     18  H5  UNL     1      46.304  24.491 -15.261  1.00  0.00     0.209 HD
ENDBRANCH  16  17
ENDBRANCH  13  16
BRANCH  14  19
HETATM   19  O6  UNL     1      49.857  22.701 -14.355  1.00  0.00    -0.390 OA
ATOM     20  H6  UNL     1      50.243  22.079 -14.961  1.00  0.00     0.210 HD
ENDBRANCH  14  19
BRANCH  15  21
HETATM   21  O7  UNL     1      48.989  20.398 -14.981  1.00  0.00    -0.390 OA
ATOM     22  H7  UNL     1      48.632  21.063 -15.558  1.00  0.00     0.210 HD
ENDBRANCH  15  21
ENDBRANCH   8  11
ENDBRANCH   6   8
BRANCH   6  23
HETATM   23  N1  UNL     1      46.885  17.250 -12.271  1.00  0.00     0.107 N 
HETATM   24  C27 UNL     1      46.924  16.553 -11.092  1.00  0.00     0.276 A 
HETATM   25  C28 UNL     1      46.355  15.305 -11.723  1.00  0.00     0.060 A 
HETATM   26  C29 UNL     1      46.443  16.068 -13.005  1.00  0.00     0.276 A 
ENDBRANCH   6  23
ENDBRANCH   3   6
BRANCH   1  27
HETATM   27  C15 UNL     1      43.114  18.444 -10.091  1.00  0.00     0.159 C 
BRANCH  27  28
HETATM   28  C14 UNL     1      43.042  17.430  -8.977  1.00  0.00     0.121 C 
BRANCH  28  29
HETATM   29  C13 UNL     1      44.048  16.827  -8.475  1.00  0.00    -0.153 C 
BRANCH  29  30
HETATM   30  C12 UNL     1      45.150  16.184  -7.950  1.00  0.00     0.047 C 
HETATM   31  C11 UNL     1      46.329  16.789  -7.553  1.00  0.00    -0.019 C 
BRANCH  31  32
HETATM   32  C10 UNL     1      47.244  15.787  -7.077  1.00  0.00     0.032 C 
BRANCH  32  33
HETATM   33  C9  UNL     1      48.469  16.853  -6.811  1.00  0.00     0.037 C 
BRANCH  33  34
HETATM   34  C7  UNL     1      49.567  16.604  -7.616  1.00  0.00    -0.087 C 
HETATM   35  C6  UNL     1      49.938  17.378  -8.614  1.00  0.00    -0.021 C 
HETATM   36  C8  UNL     1      50.461  15.388  -7.389  1.00  0.00     0.043 C 
BRANCH  35  37
HETATM   37  C5  UNL     1      49.205  18.608  -9.014  1.00  0.00     0.054 C 
BRANCH  37  38
HETATM   38  C4  UNL     1      50.044  19.378  -9.949  1.00  0.00    -0.021 C 
HETATM   39  C2  UNL     1      50.494  20.571  -9.700  1.00  0.00    -0.091 C 
HETATM   40  C1  UNL     1      51.352  21.281 -10.735  1.00  0.00     0.042 C 
HETATM   41  C3  UNL     1      50.246  21.310  -8.456  1.00  0.00     0.042 C 
ENDBRANCH  37  38
ENDBRANCH  35  37
ENDBRANCH  33  34
ENDBRANCH  32  33
ENDBRANCH  31  32
ENDBRANCH  29  30
ENDBRANCH  28  29
ENDBRANCH  27  28
BRANCH  27  42
HETATM   42  O1  UNL     1      41.847  18.827 -10.491  1.00  0.00    -0.390 OA
ATOM     43  H1  UNL     1      41.340  19.143  -9.752  1.00  0.00     0.210 HD
ENDBRANCH  27  42
ENDBRANCH   1  27
TORSDOF 20
ENDMDL
