MODEL 1
REMARK VINA RESULT: -7.273253639      0.000      0.000
REMARK  18 active torsions:
REMARK  status: ('A' for Active; 'I' for Inactive)
REMARK    1  A    between atoms: C2_2  and  C3_3 
REMARK    2  A    between atoms: C3_3  and  N1_4 
REMARK       I    between atoms: N1_4  and  C4_6 
REMARK    3  A    between atoms: C4_6  and  C5_8 
REMARK    4  A    between atoms: C5_8  and  C6_9 
REMARK    5  A    between atoms: C6_9  and  C7_10 
REMARK    6  A    between atoms: C12_18  and  C13_19 
REMARK    7  A    between atoms: C13_19  and  C14_20 
REMARK    8  A    between atoms: C14_20  and  C15_21 
REMARK    9  A    between atoms: C15_21  and  C16_22 
REMARK   10  A    between atoms: C16_22  and  C17_23 
REMARK   11  A    between atoms: C17_23  and  C18_24 
REMARK   12  A    between atoms: C18_24  and  O3_25 
REMARK   13  A    between atoms: N3_27  and  O4_29 
REMARK   14  A    between atoms: C19_31  and  O5_32 
REMARK   15  A    between atoms: C20_36  and  C21_37 
REMARK   16  A    between atoms: C21_37  and  C22_38 
REMARK   17  A    between atoms: C22_38  and  S1_39 
REMARK   18  A    between atoms: C24_41  and  O6_42 
ROOT
HETATM    1  C7  UNL     1      46.374  18.427  -9.476  1.00  0.00     0.084 C 
HETATM    2  C8  UNL     1      45.453  19.147 -10.465  1.00  0.00     0.026 C 
HETATM    3  C9  UNL     1      45.887  20.514 -10.784  1.00  0.00     0.011 C 
HETATM    4  C10 UNL     1      46.701  20.743 -12.005  1.00  0.00     0.103 C 
HETATM    5  C11 UNL     1      46.266  20.003 -13.210  1.00  0.00     0.218 C 
HETATM    6  O2  UNL     1      44.995  19.836 -13.280  1.00  0.00    -0.274 OA
HETATM    7  N2  UNL     1      47.043  19.481 -14.249  1.00  0.00    -0.349 N 
ATOM      8  H2  UNL     1      46.799  19.812 -15.182  1.00  0.00     0.163 HD
HETATM    9  C12 UNL     1      48.154  18.530 -14.195  1.00  0.00     0.159 C 
HETATM   10  C19 UNL     1      47.907  17.413 -13.277  1.00  0.00     0.139 C 
HETATM   11  N4  UNL     1      48.563  16.653 -12.368  1.00  0.00    -0.339 N 
ATOM     12  H4  UNL     1      48.756  15.741 -12.782  1.00  0.00     0.167 HD
HETATM   13  C20 UNL     1      49.080  16.671 -11.046  1.00  0.00     0.062 C 
HETATM   14  C24 UNL     1      48.799  17.710 -10.086  1.00  0.00     0.159 C 
HETATM   15  N5  UNL     1      47.757  18.564  -9.808  1.00  0.00    -0.365 N 
ATOM     16  H5  UNL     1      48.044  19.542  -9.850  1.00  0.00     0.162 HD
ENDROOT
BRANCH   9  17
HETATM   17  C13 UNL     1      49.402  19.292 -14.155  1.00  0.00     0.033 C 
BRANCH  17  18
HETATM   18  C14 UNL     1      49.359  20.714 -14.646  1.00  0.00     0.002 C 
BRANCH  18  19
HETATM   19  C15 UNL     1      50.163  21.599 -13.709  1.00  0.00     0.001 C 
BRANCH  19  20
HETATM   20  C16 UNL     1      50.459  20.966 -12.391  1.00  0.00     0.008 C 
BRANCH  20  21
HETATM   21  C17 UNL     1      50.186  21.894 -11.238  1.00  0.00     0.086 C 
BRANCH  21  22
HETATM   22  C18 UNL     1      50.338  21.173  -9.955  1.00  0.00     0.135 C 
HETATM   23  N3  UNL     1      51.445  20.584  -9.663  1.00  0.00    -0.251 N 
ATOM     24  H3  UNL     1      52.217  20.622 -10.330  1.00  0.00     0.196 HD
BRANCH  22  25
HETATM   25  O3  UNL     1      49.298  21.114  -9.045  1.00  0.00    -0.348 OA
ATOM     26  H3  UNL     1      49.335  21.599  -8.229  1.00  0.00     0.219 HD
ENDBRANCH  22  25
BRANCH  23  27
HETATM   27  O4  UNL     1      51.620  19.907  -8.482  1.00  0.00    -0.288 OA
ATOM     28  H4  UNL     1      50.886  19.568  -7.984  1.00  0.00     0.244 HD
ENDBRANCH  23  27
ENDBRANCH  21  22
ENDBRANCH  20  21
ENDBRANCH  19  20
ENDBRANCH  18  19
ENDBRANCH  17  18
ENDBRANCH   9  17
BRANCH  10  29
HETATM   29  O5  UNL     1      46.639  17.078 -13.422  1.00  0.00    -0.348 OA
ATOM     30  H5  UNL     1      46.602  16.468 -14.149  1.00  0.00     0.219 HD
ENDBRANCH  10  29
BRANCH  13  31
HETATM   31  C21 UNL     1      48.985  15.341 -10.304  1.00  0.00     0.072 C 
BRANCH  31  32
HETATM   32  C22 UNL     1      50.227  14.505 -10.427  1.00  0.00     0.079 C 
BRANCH  32  33
HETATM   33  S1  UNL     1      50.460  13.629  -8.820  1.00  0.00    -0.173 SA
HETATM   34  C23 UNL     1      50.380  14.888  -7.504  1.00  0.00     0.089 C 
ENDBRANCH  32  33
ENDBRANCH  31  32
ENDBRANCH  13  31
BRANCH  14  35
HETATM   35  O6  UNL     1      49.815  17.882  -9.255  1.00  0.00    -0.345 OA
ATOM     36  H6  UNL     1      50.198  18.746  -9.356  1.00  0.00     0.219 HD
ENDBRANCH  14  35
BRANCH   1  37
HETATM   37  C6  UNL     1      45.875  17.052  -9.284  1.00  0.00     0.034 C 
BRANCH  37  38
HETATM   38  C5  UNL     1      45.283  16.745  -7.947  1.00  0.00     0.105 C 
BRANCH  38  39
HETATM   39  C4  UNL     1      43.846  16.530  -7.887  1.00  0.00     0.217 C 
HETATM   40  N1  UNL     1      42.973  17.290  -8.712  1.00  0.00    -0.361 N 
ATOM     41  H1  UNL     1      43.372  17.981  -9.346  1.00  0.00     0.162 HD
HETATM   42  O1  UNL     1      43.296  15.694  -7.132  1.00  0.00    -0.274 OA
BRANCH  40  43
HETATM   43  C3  UNL     1      41.529  17.114  -8.684  1.00  0.00     0.122 C 
BRANCH  43  44
HETATM   44  C2  UNL     1      40.883  18.432  -9.109  1.00  0.00     0.015 C 
HETATM   45  C1  UNL     1      41.759  19.207 -10.060  1.00  0.00     0.006 C 
ENDBRANCH  43  44
ENDBRANCH  40  43
ENDBRANCH  38  39
ENDBRANCH  37  38
ENDBRANCH   1  37
TORSDOF 18
ENDMDL
MODEL 2
REMARK VINA RESULT: -7.270551572      2.778      3.511
REMARK  18 active torsions:
REMARK  status: ('A' for Active; 'I' for Inactive)
REMARK    1  A    between atoms: C2_2  and  C3_3 
REMARK    2  A    between atoms: C3_3  and  N1_4 
REMARK       I    between atoms: N1_4  and  C4_6 
REMARK    3  A    between atoms: C4_6  and  C5_8 
REMARK    4  A    between atoms: C5_8  and  C6_9 
REMARK    5  A    between atoms: C6_9  and  C7_10 
REMARK    6  A    between atoms: C12_18  and  C13_19 
REMARK    7  A    between atoms: C13_19  and  C14_20 
REMARK    8  A    between atoms: C14_20  and  C15_21 
REMARK    9  A    between atoms: C15_21  and  C16_22 
REMARK   10  A    between atoms: C16_22  and  C17_23 
REMARK   11  A    between atoms: C17_23  and  C18_24 
REMARK   12  A    between atoms: C18_24  and  O3_25 
REMARK   13  A    between atoms: N3_27  and  O4_29 
REMARK   14  A    between atoms: C19_31  and  O5_32 
REMARK   15  A    between atoms: C20_36  and  C21_37 
REMARK   16  A    between atoms: C21_37  and  C22_38 
REMARK   17  A    between atoms: C22_38  and  S1_39 
REMARK   18  A    between atoms: C24_41  and  O6_42 
ROOT
HETATM    1  C7  UNL     1      44.834  17.701 -12.343  1.00  0.00     0.084 C 
HETATM    2  C8  UNL     1      44.584  19.166 -12.705  1.00  0.00     0.026 C 
HETATM    3  C9  UNL     1      44.907  20.104 -11.621  1.00  0.00     0.011 C 
HETATM    4  C10 UNL     1      46.240  20.759 -11.610  1.00  0.00     0.103 C 
HETATM    5  C11 UNL     1      46.726  21.239 -12.922  1.00  0.00     0.218 C 
HETATM    6  O2  UNL     1      45.789  21.652 -13.698  1.00  0.00    -0.274 OA
HETATM    7  N2  UNL     1      48.036  21.300 -13.406  1.00  0.00    -0.349 N 
ATOM      8  H2  UNL     1      48.347  22.224 -13.704  1.00  0.00     0.163 HD
HETATM    9  C12 UNL     1      49.027  20.232 -13.550  1.00  0.00     0.159 C 
HETATM   10  C19 UNL     1      48.457  18.990 -14.084  1.00  0.00     0.139 C 
HETATM   11  N4  UNL     1      48.552  17.650 -13.917  1.00  0.00    -0.339 N 
ATOM     12  H4  UNL     1      49.090  17.260 -14.691  1.00  0.00     0.167 HD
HETATM   13  C20 UNL     1      48.171  16.592 -13.049  1.00  0.00     0.062 C 
HETATM   14  C24 UNL     1      47.221  16.735 -11.975  1.00  0.00     0.159 C 
HETATM   15  N5  UNL     1      46.103  17.494 -11.719  1.00  0.00    -0.365 N 
ATOM     16  H5  UNL     1      46.204  18.049 -10.869  1.00  0.00     0.162 HD
ENDROOT
BRANCH   9  17
HETATM   17  C13 UNL     1      49.872  20.235 -12.355  1.00  0.00     0.033 C 
BRANCH  17  18
HETATM   18  C14 UNL     1      50.606  21.508 -12.031  1.00  0.00     0.002 C 
BRANCH  18  19
HETATM   19  C15 UNL     1      50.760  21.635 -10.525  1.00  0.00     0.001 C 
BRANCH  19  20
HETATM   20  C16 UNL     1      50.663  20.335  -9.799  1.00  0.00     0.008 C 
BRANCH  20  21
HETATM   21  C17 UNL     1      50.154  20.502  -8.393  1.00  0.00     0.086 C 
BRANCH  21  22
HETATM   22  C18 UNL     1      51.159  20.012  -7.424  1.00  0.00     0.135 C 
HETATM   23  N3  UNL     1      50.888  19.970  -6.166  1.00  0.00    -0.251 N 
ATOM     24  H3  UNL     1      49.970  20.281  -5.847  1.00  0.00     0.196 HD
BRANCH  22  25
HETATM   25  O3  UNL     1      52.407  19.591  -7.846  1.00  0.00    -0.348 OA
ATOM     26  H3  UNL     1      53.058  20.215  -8.146  1.00  0.00     0.219 HD
ENDBRANCH  22  25
BRANCH  23  27
HETATM   27  O4  UNL     1      51.797  19.521  -5.241  1.00  0.00    -0.288 OA
ATOM     28  H4  UNL     1      52.643  19.936  -5.124  1.00  0.00     0.244 HD
ENDBRANCH  23  27
ENDBRANCH  21  22
ENDBRANCH  20  21
ENDBRANCH  19  20
ENDBRANCH  18  19
ENDBRANCH  17  18
ENDBRANCH   9  17
BRANCH  10  29
HETATM   29  O5  UNL     1      47.594  19.342 -15.017  1.00  0.00    -0.348 OA
ATOM     30  H5  UNL     1      48.104  19.583 -15.782  1.00  0.00     0.219 HD
ENDBRANCH  10  29
BRANCH  13  31
HETATM   31  C21 UNL     1      47.859  15.273 -13.749  1.00  0.00     0.072 C 
BRANCH  31  32
HETATM   32  C22 UNL     1      48.449  15.181 -15.128  1.00  0.00     0.079 C 
BRANCH  32  33
HETATM   33  S1  UNL     1      47.888  13.582 -15.859  1.00  0.00    -0.173 SA
HETATM   34  C23 UNL     1      46.430  13.038 -14.908  1.00  0.00     0.089 C 
ENDBRANCH  32  33
ENDBRANCH  31  32
ENDBRANCH  13  31
BRANCH  14  35
HETATM   35  O6  UNL     1      47.504  15.917 -10.973  1.00  0.00    -0.345 OA
ATOM     36  H6  UNL     1      46.713  15.624 -10.535  1.00  0.00     0.219 HD
ENDBRANCH  14  35
BRANCH   1  37
HETATM   37  C6  UNL     1      44.536  16.867 -13.523  1.00  0.00     0.034 C 
BRANCH  37  38
HETATM   38  C5  UNL     1      43.525  15.784 -13.329  1.00  0.00     0.105 C 
BRANCH  38  39
HETATM   39  C4  UNL     1      42.815  15.752 -12.060  1.00  0.00     0.217 C 
HETATM   40  N1  UNL     1      41.598  16.468 -11.902  1.00  0.00    -0.361 N 
ATOM     41  H1  UNL     1      41.232  16.999 -12.692  1.00  0.00     0.162 HD
HETATM   42  O1  UNL     1      43.211  15.116 -11.054  1.00  0.00    -0.274 OA
BRANCH  40  43
HETATM   43  C3  UNL     1      40.855  16.470 -10.651  1.00  0.00     0.122 C 
BRANCH  43  44
HETATM   44  C2  UNL     1      40.780  17.910 -10.146  1.00  0.00     0.015 C 
HETATM   45  C1  UNL     1      42.132  18.433  -9.732  1.00  0.00     0.006 C 
ENDBRANCH  43  44
ENDBRANCH  40  43
ENDBRANCH  38  39
ENDBRANCH  37  38
ENDBRANCH   1  37
TORSDOF 18
ENDMDL
MODEL 3
REMARK VINA RESULT: -7.264570872      2.951      5.140
REMARK  18 active torsions:
REMARK  status: ('A' for Active; 'I' for Inactive)
REMARK    1  A    between atoms: C2_2  and  C3_3 
REMARK    2  A    between atoms: C3_3  and  N1_4 
REMARK       I    between atoms: N1_4  and  C4_6 
REMARK    3  A    between atoms: C4_6  and  C5_8 
REMARK    4  A    between atoms: C5_8  and  C6_9 
REMARK    5  A    between atoms: C6_9  and  C7_10 
REMARK    6  A    between atoms: C12_18  and  C13_19 
REMARK    7  A    between atoms: C13_19  and  C14_20 
REMARK    8  A    between atoms: C14_20  and  C15_21 
REMARK    9  A    between atoms: C15_21  and  C16_22 
REMARK   10  A    between atoms: C16_22  and  C17_23 
REMARK   11  A    between atoms: C17_23  and  C18_24 
REMARK   12  A    between atoms: C18_24  and  O3_25 
REMARK   13  A    between atoms: N3_27  and  O4_29 
REMARK   14  A    between atoms: C19_31  and  O5_32 
REMARK   15  A    between atoms: C20_36  and  C21_37 
REMARK   16  A    between atoms: C21_37  and  C22_38 
REMARK   17  A    between atoms: C22_38  and  S1_39 
REMARK   18  A    between atoms: C24_41  and  O6_42 
ROOT
HETATM    1  C7  UNL     1      48.865  19.184 -10.131  1.00  0.00     0.084 C 
HETATM    2  C8  UNL     1      49.494  20.511  -9.697  1.00  0.00     0.026 C 
HETATM    3  C9  UNL     1      50.912  20.637 -10.061  1.00  0.00     0.011 C 
HETATM    4  C10 UNL     1      51.272  21.347 -11.316  1.00  0.00     0.103 C 
HETATM    5  C11 UNL     1      50.516  22.590 -11.584  1.00  0.00     0.218 C 
HETATM    6  O2  UNL     1      50.198  23.238 -10.522  1.00  0.00    -0.274 OA
HETATM    7  N2  UNL     1      50.121  23.131 -12.812  1.00  0.00    -0.349 N 
ATOM      8  H2  UNL     1      50.445  24.081 -12.992  1.00  0.00     0.163 HD
HETATM    9  C12 UNL     1      49.312  22.535 -13.875  1.00  0.00     0.159 C 
HETATM   10  C19 UNL     1      48.148  21.800 -13.366  1.00  0.00     0.139 C 
HETATM   11  N4  UNL     1      47.450  20.667 -13.610  1.00  0.00    -0.339 N 
ATOM     12  H4  UNL     1      46.580  20.913 -14.082  1.00  0.00     0.167 HD
HETATM   13  C20 UNL     1      47.495  19.257 -13.445  1.00  0.00     0.062 C 
HETATM   14  C24 UNL     1      48.466  18.573 -12.628  1.00  0.00     0.159 C 
HETATM   15  N5  UNL     1      49.179  18.840 -11.482  1.00  0.00    -0.365 N 
ATOM     16  H5  UNL     1      50.185  18.775 -11.635  1.00  0.00     0.162 HD
ENDROOT
BRANCH   9  17
HETATM   17  C13 UNL     1      50.219  21.945 -14.859  1.00  0.00     0.033 C 
BRANCH  17  18
HETATM   18  C14 UNL     1      49.894  20.561 -15.356  1.00  0.00     0.002 C 
BRANCH  18  19
HETATM   19  C15 UNL     1      49.951  20.541 -16.874  1.00  0.00     0.001 C 
BRANCH  19  20
HETATM   20  C16 UNL     1      49.777  19.182 -17.464  1.00  0.00     0.008 C 
BRANCH  20  21
HETATM   21  C17 UNL     1      49.368  18.161 -16.437  1.00  0.00     0.086 C 
BRANCH  21  22
HETATM   22  C18 UNL     1      50.188  16.938 -16.578  1.00  0.00     0.135 C 
HETATM   23  N3  UNL     1      50.761  16.661 -17.698  1.00  0.00    -0.251 N 
ATOM     24  H3  UNL     1      50.640  17.296 -18.486  1.00  0.00     0.196 HD
BRANCH  22  25
HETATM   25  O3  UNL     1      50.356  16.069 -15.515  1.00  0.00    -0.348 OA
ATOM     26  H3  UNL     1      51.098  16.153 -14.928  1.00  0.00     0.219 HD
ENDBRANCH  22  25
BRANCH  23  27
HETATM   27  O4  UNL     1      51.529  15.535 -17.862  1.00  0.00    -0.288 OA
ATOM     28  H4  UNL     1      51.509  15.025 -18.663  1.00  0.00     0.244 HD
ENDBRANCH  23  27
ENDBRANCH  21  22
ENDBRANCH  20  21
ENDBRANCH  19  20
ENDBRANCH  18  19
ENDBRANCH  17  18
ENDBRANCH   9  17
BRANCH  10  29
HETATM   29  O5  UNL     1      47.665  22.507 -12.362  1.00  0.00    -0.348 OA
ATOM     30  H5  UNL     1      47.382  21.884 -11.704  1.00  0.00     0.219 HD
ENDBRANCH  10  29
BRANCH  13  31
HETATM   31  C21 UNL     1      46.144  18.601 -13.177  1.00  0.00     0.072 C 
BRANCH  31  32
HETATM   32  C22 UNL     1      45.657  17.759 -14.322  1.00  0.00     0.079 C 
BRANCH  32  33
HETATM   33  S1  UNL     1      44.509  16.495 -13.625  1.00  0.00    -0.173 SA
HETATM   34  C23 UNL     1      45.406  15.629 -12.294  1.00  0.00     0.089 C 
ENDBRANCH  32  33
ENDBRANCH  31  32
ENDBRANCH  13  31
BRANCH  14  35
HETATM   35  O6  UNL     1      48.738  17.371 -13.111  1.00  0.00    -0.345 OA
ATOM     36  H6  UNL     1      49.345  16.904 -12.549  1.00  0.00     0.219 HD
ENDBRANCH  14  35
BRANCH   1  37
HETATM   37  C6  UNL     1      47.436  19.200  -9.770  1.00  0.00     0.034 C 
BRANCH  37  38
HETATM   38  C5  UNL     1      46.857  17.904  -9.303  1.00  0.00     0.105 C 
BRANCH  38  39
HETATM   39  C4  UNL     1      45.412  17.831  -9.161  1.00  0.00     0.217 C 
HETATM   40  N1  UNL     1      44.565  18.455 -10.117  1.00  0.00    -0.361 N 
ATOM     41  H1  UNL     1      44.988  18.949 -10.902  1.00  0.00     0.162 HD
HETATM   42  O1  UNL     1      44.831  17.236  -8.222  1.00  0.00    -0.274 OA
BRANCH  40  43
HETATM   43  C3  UNL     1      43.114  18.412 -10.015  1.00  0.00     0.122 C 
BRANCH  43  44
HETATM   44  C2  UNL     1      42.537  19.348 -11.076  1.00  0.00     0.015 C 
HETATM   45  C1  UNL     1      43.540  20.380 -11.523  1.00  0.00     0.006 C 
ENDBRANCH  43  44
ENDBRANCH  40  43
ENDBRANCH  38  39
ENDBRANCH  37  38
ENDBRANCH   1  37
TORSDOF 18
ENDMDL
MODEL 4
REMARK VINA RESULT: -7.228949054      3.318      6.429
REMARK  18 active torsions:
REMARK  status: ('A' for Active; 'I' for Inactive)
REMARK    1  A    between atoms: C2_2  and  C3_3 
REMARK    2  A    between atoms: C3_3  and  N1_4 
REMARK       I    between atoms: N1_4  and  C4_6 
REMARK    3  A    between atoms: C4_6  and  C5_8 
REMARK    4  A    between atoms: C5_8  and  C6_9 
REMARK    5  A    between atoms: C6_9  and  C7_10 
REMARK    6  A    between atoms: C12_18  and  C13_19 
REMARK    7  A    between atoms: C13_19  and  C14_20 
REMARK    8  A    between atoms: C14_20  and  C15_21 
REMARK    9  A    between atoms: C15_21  and  C16_22 
REMARK   10  A    between atoms: C16_22  and  C17_23 
REMARK   11  A    between atoms: C17_23  and  C18_24 
REMARK   12  A    between atoms: C18_24  and  O3_25 
REMARK   13  A    between atoms: N3_27  and  O4_29 
REMARK   14  A    between atoms: C19_31  and  O5_32 
REMARK   15  A    between atoms: C20_36  and  C21_37 
REMARK   16  A    between atoms: C21_37  and  C22_38 
REMARK   17  A    between atoms: C22_38  and  S1_39 
REMARK   18  A    between atoms: C24_41  and  O6_42 
ROOT
HETATM    1  C7  UNL     1      50.217  19.803 -10.229  1.00  0.00     0.084 C 
HETATM    2  C8  UNL     1      50.072  21.127 -10.984  1.00  0.00     0.026 C 
HETATM    3  C9  UNL     1      50.421  21.033 -12.408  1.00  0.00     0.011 C 
HETATM    4  C10 UNL     1      49.337  20.819 -13.402  1.00  0.00     0.103 C 
HETATM    5  C11 UNL     1      48.105  21.608 -13.182  1.00  0.00     0.218 C 
HETATM    6  O2  UNL     1      48.321  22.767 -12.674  1.00  0.00    -0.274 OA
HETATM    7  N2  UNL     1      46.778  21.260 -13.453  1.00  0.00    -0.349 N 
ATOM      8  H2  UNL     1      46.279  21.900 -14.070  1.00  0.00     0.163 HD
HETATM    9  C12 UNL     1      46.001  20.114 -12.982  1.00  0.00     0.159 C 
HETATM   10  C19 UNL     1      46.210  19.826 -11.558  1.00  0.00     0.139 C 
HETATM   11  N4  UNL     1      46.344  18.769 -10.722  1.00  0.00    -0.339 N 
ATOM     12  H4  UNL     1      45.475  18.649 -10.203  1.00  0.00     0.167 HD
HETATM   13  C20 UNL     1      47.263  17.769 -10.309  1.00  0.00     0.062 C 
HETATM   14  C24 UNL     1      48.661  17.764 -10.663  1.00  0.00     0.159 C 
HETATM   15  N5  UNL     1      49.632  18.701 -10.927  1.00  0.00    -0.365 N 
ATOM     16  H5  UNL     1      50.038  18.580 -11.855  1.00  0.00     0.162 HD
ENDROOT
BRANCH   9  17
HETATM   17  C13 UNL     1      46.084  19.061 -13.995  1.00  0.00     0.033 C 
BRANCH  17  18
HETATM   18  C14 UNL     1      47.425  18.411 -14.207  1.00  0.00     0.002 C 
BRANCH  18  19
HETATM   19  C15 UNL     1      47.701  18.292 -15.696  1.00  0.00     0.001 C 
BRANCH  19  20
HETATM   20  C16 UNL     1      49.129  18.519 -16.063  1.00  0.00     0.008 C 
BRANCH  20  21
HETATM   21  C17 UNL     1      49.278  19.463 -17.226  1.00  0.00     0.086 C 
BRANCH  21  22
HETATM   22  C18 UNL     1      50.479  19.115 -18.016  1.00  0.00     0.135 C 
HETATM   23  N3  UNL     1      50.867  17.891 -18.110  1.00  0.00    -0.251 N 
ATOM     24  H3  UNL     1      50.335  17.164 -17.631  1.00  0.00     0.196 HD
BRANCH  22  25
HETATM   25  O3  UNL     1      51.209  20.092 -18.667  1.00  0.00    -0.348 OA
ATOM     26  H3  UNL     1      51.798  19.869 -19.379  1.00  0.00     0.219 HD
ENDBRANCH  22  25
BRANCH  23  27
HETATM   27  O4  UNL     1      51.976  17.533 -18.835  1.00  0.00    -0.288 OA
ATOM     28  H4  UNL     1      52.139  16.635 -19.095  1.00  0.00     0.244 HD
ENDBRANCH  23  27
ENDBRANCH  21  22
ENDBRANCH  20  21
ENDBRANCH  19  20
ENDBRANCH  18  19
ENDBRANCH  17  18
ENDBRANCH   9  17
BRANCH  10  29
HETATM   29  O5  UNL     1      46.275  20.992 -10.943  1.00  0.00    -0.348 OA
ATOM     30  H5  UNL     1      45.410  21.379 -11.004  1.00  0.00     0.219 HD
ENDBRANCH  10  29
BRANCH  13  31
HETATM   31  C21 UNL     1      47.175  17.389  -8.834  1.00  0.00     0.072 C 
BRANCH  31  32
HETATM   32  C22 UNL     1      46.368  16.145  -8.591  1.00  0.00     0.079 C 
BRANCH  32  33
HETATM   33  S1  UNL     1      47.353  15.064  -7.467  1.00  0.00    -0.173 SA
HETATM   34  C23 UNL     1      49.027  15.780  -7.361  1.00  0.00     0.089 C 
ENDBRANCH  32  33
ENDBRANCH  31  32
ENDBRANCH  13  31
BRANCH  14  35
HETATM   35  O6  UNL     1      49.128  16.528 -10.756  1.00  0.00    -0.345 OA
ATOM     36  H6  UNL     1      48.676  16.041 -11.436  1.00  0.00     0.219 HD
ENDBRANCH  14  35
BRANCH   1  37
HETATM   37  C6  UNL     1      49.781  20.006  -8.835  1.00  0.00     0.034 C 
BRANCH  37  38
HETATM   38  C5  UNL     1      50.853  20.340  -7.849  1.00  0.00     0.105 C 
BRANCH  38  39
HETATM   39  C4  UNL     1      51.396  19.249  -7.057  1.00  0.00     0.217 C 
HETATM   40  N1  UNL     1      51.548  19.389  -5.651  1.00  0.00    -0.361 N 
ATOM     41  H1  UNL     1      51.267  20.265  -5.210  1.00  0.00     0.162 HD
HETATM   42  O1  UNL     1      51.756  18.148  -7.539  1.00  0.00    -0.274 OA
BRANCH  40  43
HETATM   43  C3  UNL     1      52.090  18.327  -4.818  1.00  0.00     0.122 C 
BRANCH  43  44
HETATM   44  C2  UNL     1      53.571  18.620  -4.581  1.00  0.00     0.015 C 
HETATM   45  C1  UNL     1      53.907  18.669  -3.112  1.00  0.00     0.006 C 
ENDBRANCH  43  44
ENDBRANCH  40  43
ENDBRANCH  38  39
ENDBRANCH  37  38
ENDBRANCH   1  37
TORSDOF 18
ENDMDL
MODEL 5
REMARK VINA RESULT: -7.192577018      2.843      4.788
REMARK  18 active torsions:
REMARK  status: ('A' for Active; 'I' for Inactive)
REMARK    1  A    between atoms: C2_2  and  C3_3 
REMARK    2  A    between atoms: C3_3  and  N1_4 
REMARK       I    between atoms: N1_4  and  C4_6 
REMARK    3  A    between atoms: C4_6  and  C5_8 
REMARK    4  A    between atoms: C5_8  and  C6_9 
REMARK    5  A    between atoms: C6_9  and  C7_10 
REMARK    6  A    between atoms: C12_18  and  C13_19 
REMARK    7  A    between atoms: C13_19  and  C14_20 
REMARK    8  A    between atoms: C14_20  and  C15_21 
REMARK    9  A    between atoms: C15_21  and  C16_22 
REMARK   10  A    between atoms: C16_22  and  C17_23 
REMARK   11  A    between atoms: C17_23  and  C18_24 
REMARK   12  A    between atoms: C18_24  and  O3_25 
REMARK   13  A    between atoms: N3_27  and  O4_29 
REMARK   14  A    between atoms: C19_31  and  O5_32 
REMARK   15  A    between atoms: C20_36  and  C21_37 
REMARK   16  A    between atoms: C21_37  and  C22_38 
REMARK   17  A    between atoms: C22_38  and  S1_39 
REMARK   18  A    between atoms: C24_41  and  O6_42 
ROOT
HETATM    1  C7  UNL     1      44.572  18.265 -10.587  1.00  0.00     0.084 C 
HETATM    2  C8  UNL     1      44.214  16.918 -11.220  1.00  0.00     0.026 C 
HETATM    3  C9  UNL     1      43.621  17.037 -12.559  1.00  0.00     0.011 C 
HETATM    4  C10 UNL     1      44.500  16.899 -13.749  1.00  0.00     0.103 C 
HETATM    5  C11 UNL     1      45.503  15.814 -13.679  1.00  0.00     0.218 C 
HETATM    6  O2  UNL     1      45.101  14.784 -13.028  1.00  0.00    -0.274 OA
HETATM    7  N2  UNL     1      46.792  15.773 -14.220  1.00  0.00    -0.349 N 
ATOM      8  H2  UNL     1      46.973  14.992 -14.851  1.00  0.00     0.163 HD
HETATM    9  C12 UNL     1      47.919  16.683 -14.015  1.00  0.00     0.159 C 
HETATM   10  C19 UNL     1      48.083  17.084 -12.612  1.00  0.00     0.139 C 
HETATM   11  N4  UNL     1      48.398  18.175 -11.876  1.00  0.00    -0.339 N 
ATOM     12  H4  UNL     1      49.356  18.077 -11.538  1.00  0.00     0.167 HD
HETATM   13  C20 UNL     1      47.873  19.407 -11.405  1.00  0.00     0.062 C 
HETATM   14  C24 UNL     1      46.483  19.778 -11.497  1.00  0.00     0.159 C 
HETATM   15  N5  UNL     1      45.269  19.131 -11.486  1.00  0.00    -0.365 N 
ATOM     16  H5  UNL     1      44.731  19.315 -12.332  1.00  0.00     0.162 HD
ENDROOT
BRANCH   9  17
HETATM   17  C13 UNL     1      47.908  17.669 -15.095  1.00  0.00     0.033 C 
BRANCH  17  18
HETATM   18  C14 UNL     1      49.234  18.039 -15.706  1.00  0.00     0.002 C 
BRANCH  18  19
HETATM   19  C15 UNL     1      49.268  19.533 -15.976  1.00  0.00     0.001 C 
BRANCH  19  20
HETATM   20  C16 UNL     1      49.290  20.367 -14.739  1.00  0.00     0.008 C 
BRANCH  20  21
HETATM   21  C17 UNL     1      49.868  21.736 -14.983  1.00  0.00     0.086 C 
BRANCH  21  22
HETATM   22  C18 UNL     1      49.195  22.735 -14.124  1.00  0.00     0.135 C 
HETATM   23  N3  UNL     1      48.084  22.450 -13.538  1.00  0.00    -0.251 N 
ATOM     24  H3  UNL     1      47.674  21.526 -13.676  1.00  0.00     0.196 HD
BRANCH  22  25
HETATM   25  O3  UNL     1      49.741  23.991 -13.932  1.00  0.00    -0.348 OA
ATOM     26  H3  UNL     1      49.943  24.308 -13.059  1.00  0.00     0.219 HD
ENDBRANCH  22  25
BRANCH  23  27
HETATM   27  O4  UNL     1      47.434  23.353 -12.734  1.00  0.00    -0.288 OA
ATOM     28  H4  UNL     1      46.618  23.140 -12.297  1.00  0.00     0.244 HD
ENDBRANCH  23  27
ENDBRANCH  21  22
ENDBRANCH  20  21
ENDBRANCH  19  20
ENDBRANCH  18  19
ENDBRANCH  17  18
ENDBRANCH   9  17
BRANCH  10  29
HETATM   29  O5  UNL     1      47.843  16.010 -11.883  1.00  0.00    -0.348 OA
ATOM     30  H5  UNL     1      46.908  15.999 -11.718  1.00  0.00     0.219 HD
ENDBRANCH  10  29
BRANCH  13  31
HETATM   31  C21 UNL     1      48.353  19.817 -10.015  1.00  0.00     0.072 C 
BRANCH  31  32
HETATM   32  C22 UNL     1      49.845  19.739  -9.858  1.00  0.00     0.079 C 
BRANCH  32  33
HETATM   33  S1  UNL     1      50.590  20.820 -11.154  1.00  0.00    -0.173 SA
HETATM   34  C23 UNL     1      50.442  22.541 -10.570  1.00  0.00     0.089 C 
ENDBRANCH  32  33
ENDBRANCH  31  32
ENDBRANCH  13  31
BRANCH  14  35
HETATM   35  O6  UNL     1      46.344  21.088 -11.627  1.00  0.00    -0.345 OA
ATOM     36  H6  UNL     1      45.674  21.301 -12.266  1.00  0.00     0.219 HD
ENDBRANCH  14  35
BRANCH   1  37
HETATM   37  C6  UNL     1      45.213  18.017  -9.282  1.00  0.00     0.034 C 
BRANCH  37  38
HETATM   38  C5  UNL     1      45.909  16.704  -9.126  1.00  0.00     0.105 C 
BRANCH  38  39
HETATM   39  C4  UNL     1      46.797  16.550  -7.985  1.00  0.00     0.217 C 
HETATM   40  N1  UNL     1      48.153  16.969  -8.070  1.00  0.00    -0.361 N 
ATOM     41  H1  UNL     1      48.487  17.380  -8.942  1.00  0.00     0.162 HD
HETATM   42  O1  UNL     1      46.445  16.057  -6.887  1.00  0.00    -0.274 OA
BRANCH  40  43
HETATM   43  C3  UNL     1      49.080  16.832  -6.958  1.00  0.00     0.122 C 
BRANCH  43  44
HETATM   44  C2  UNL     1      50.487  16.671  -7.530  1.00  0.00     0.015 C 
HETATM   45  C1  UNL     1      50.462  16.176  -8.954  1.00  0.00     0.006 C 
ENDBRANCH  43  44
ENDBRANCH  40  43
ENDBRANCH  38  39
ENDBRANCH  37  38
ENDBRANCH   1  37
TORSDOF 18
ENDMDL
