MODEL 1
REMARK VINA RESULT: -6.342280356      0.000      0.000
REMARK  8 active torsions:
REMARK  status: ('A' for Active; 'I' for Inactive)
REMARK    1  A    between atoms: O1_2  and  C2_3 
REMARK    2  A    between atoms: C4_5  and  C5_6 
REMARK    3  A    between atoms: C7_8  and  C8_9 
REMARK    4  A    between atoms: N2_14  and  C11_15 
REMARK    5  A    between atoms: C11_15  and  C12_16 
REMARK    6  A    between atoms: C12_16  and  C13_17 
REMARK    7  A    between atoms: C13_17  and  N3_18 
REMARK    8  A    between atoms: C24_34  and  O2_35 
ROOT
HETATM    1  C5  UNL     1      -2.768   1.561   3.297  1.00  0.00     0.103 C 
HETATM    2  C6  UNL     1      -3.290   2.132   2.066  1.00  0.00     0.024 A 
HETATM    3  C7  UNL     1      -2.525   2.223   0.920  1.00  0.00     0.040 A 
HETATM    4  N1  UNL     1      -3.304   2.790  -0.039  1.00  0.00    -0.300 N 
ATOM      5  H1  UNL     1      -2.987   2.976  -0.990  1.00  0.00     0.187 HD
HETATM    6  N2  UNL     1      -4.490   3.067   0.388  1.00  0.00    -0.276 N 
HETATM    7  C17 UNL     1      -4.524   2.679   1.674  1.00  0.00     0.128 A 
HETATM    8  N5  UNL     1      -5.743   2.834   2.445  1.00  0.00    -0.361 N 
ATOM      9  H5  UNL     1      -6.313   3.663   2.276  1.00  0.00     0.162 HD
HETATM   10  C18 UNL     1      -6.222   1.848   3.481  1.00  0.00     0.149 C 
HETATM   11  C19 UNL     1      -7.271   1.004   2.737  1.00  0.00     0.045 C 
HETATM   12  C20 UNL     1      -5.050   1.186   3.942  1.00  0.00    -0.121 C 
HETATM   13  C21 UNL     1      -3.736   0.713   4.150  1.00  0.00     0.251 C 
HETATM   14  F1  UNL     1      -3.320   0.787   5.498  1.00  0.00    -0.236 F 
ENDROOT
BRANCH   1  15
HETATM   15  C4  UNL     1      -2.109   2.546   4.220  1.00  0.00    -0.043 A 
HETATM   16  C3  UNL     1      -0.884   2.220   4.753  1.00  0.00     0.047 A 
HETATM   17  C2  UNL     1      -0.231   3.083   5.594  1.00  0.00     0.101 A 
HETATM   18  C24 UNL     1      -0.795   4.298   5.919  1.00  0.00     0.099 A 
HETATM   19  C23 UNL     1      -2.020   4.643   5.395  1.00  0.00     0.040 A 
HETATM   20  C22 UNL     1      -2.665   3.753   4.545  1.00  0.00     0.011 A 
BRANCH  17  21
HETATM   21  O1  UNL     1       1.009   2.791   6.153  1.00  0.00    -0.353 OA
HETATM   22  C1  UNL     1       2.081   2.213   5.476  1.00  0.00     0.210 C 
ENDBRANCH  17  21
BRANCH  18  23
HETATM   23  O2  UNL     1      -0.109   5.161   6.778  1.00  0.00    -0.358 OA
ATOM     24  H2  UNL     1      -0.596   5.818   7.262  1.00  0.00     0.217 HD
ENDBRANCH  18  23
ENDBRANCH   1  15
BRANCH   3  25
HETATM   25  C8  UNL     1      -1.107   1.839   0.656  1.00  0.00     0.029 C 
HETATM   26  C9  UNL     1      -0.842   1.838  -0.856  1.00  0.00     0.016 C 
HETATM   27  C10 UNL     1      -0.198   2.928   1.193  1.00  0.00     0.016 C 
ENDBRANCH   3  25
BRANCH   6  28
HETATM   28  C11 UNL     1      -5.589   3.686  -0.364  1.00  0.00     0.152 C 
BRANCH  28  29
HETATM   29  C12 UNL     1      -6.336   2.588  -1.058  1.00  0.00     0.042 C 
BRANCH  29  30
HETATM   30  C13 UNL     1      -6.650   2.950  -2.502  1.00  0.00     0.131 C 
BRANCH  30  31
HETATM   31  N3  UNL     1      -6.395   1.833  -3.386  1.00  0.00    -0.352 N 
HETATM   32  C14 UNL     1      -7.143   1.444  -4.455  1.00  0.00     0.108 A 
HETATM   33  C15 UNL     1      -6.546   0.340  -5.012  1.00  0.00     0.106 A 
HETATM   34  N4  UNL     1      -5.452   0.093  -4.263  1.00  0.00    -0.361 N 
HETATM   35  C16 UNL     1      -5.353   0.992  -3.275  1.00  0.00     0.182 A 
ATOM     36  H4  UNL     1      -4.795  -0.670  -4.425  1.00  0.00     0.166 HD
ENDBRANCH  30  31
ENDBRANCH  29  30
ENDBRANCH  28  29
ENDBRANCH   6  28
TORSDOF 8
ENDMDL
MODEL 2
REMARK VINA RESULT: -6.219804682      1.098      1.152
REMARK  8 active torsions:
REMARK  status: ('A' for Active; 'I' for Inactive)
REMARK    1  A    between atoms: O1_2  and  C2_3 
REMARK    2  A    between atoms: C4_5  and  C5_6 
REMARK    3  A    between atoms: C7_8  and  C8_9 
REMARK    4  A    between atoms: N2_14  and  C11_15 
REMARK    5  A    between atoms: C11_15  and  C12_16 
REMARK    6  A    between atoms: C12_16  and  C13_17 
REMARK    7  A    between atoms: C13_17  and  N3_18 
REMARK    8  A    between atoms: C24_34  and  O2_35 
ROOT
HETATM    1  C5  UNL     1      -3.741   1.617   3.602  1.00  0.00     0.103 C 
HETATM    2  C6  UNL     1      -4.023   2.139   2.275  1.00  0.00     0.024 A 
HETATM    3  C7  UNL     1      -3.045   2.240   1.305  1.00  0.00     0.040 A 
HETATM    4  N1  UNL     1      -3.634   2.752   0.192  1.00  0.00    -0.300 N 
ATOM      5  H1  UNL     1      -3.137   2.931  -0.680  1.00  0.00     0.187 HD
HETATM    6  N2  UNL     1      -4.891   2.986   0.361  1.00  0.00    -0.276 N 
HETATM    7  C17 UNL     1      -5.171   2.624   1.624  1.00  0.00     0.128 A 
HETATM    8  N5  UNL     1      -6.527   2.742   2.128  1.00  0.00    -0.361 N 
ATOM      9  H5  UNL     1      -7.082   3.542   1.823  1.00  0.00     0.162 HD
HETATM   10  C18 UNL     1      -7.169   1.758   3.074  1.00  0.00     0.149 C 
HETATM   11  C19 UNL     1      -8.011   0.854   2.158  1.00  0.00     0.045 C 
HETATM   12  C20 UNL     1      -6.091   1.158   3.782  1.00  0.00    -0.121 C 
HETATM   13  C21 UNL     1      -4.829   0.747   4.265  1.00  0.00     0.251 C 
HETATM   14  F1  UNL     1      -4.699   0.867   5.667  1.00  0.00    -0.236 F 
ENDROOT
BRANCH   1  15
HETATM   15  C4  UNL     1      -3.322   2.649   4.610  1.00  0.00    -0.043 A 
HETATM   16  C3  UNL     1      -2.235   2.377   5.407  1.00  0.00     0.047 A 
HETATM   17  C2  UNL     1      -1.801   3.284   6.338  1.00  0.00     0.101 A 
HETATM   18  C24 UNL     1      -2.450   4.490   6.490  1.00  0.00     0.099 A 
HETATM   19  C23 UNL     1      -3.539   4.782   5.701  1.00  0.00     0.040 A 
HETATM   20  C22 UNL     1      -3.963   3.848   4.763  1.00  0.00     0.011 A 
BRANCH  17  21
HETATM   21  O1  UNL     1      -0.706   3.047   7.163  1.00  0.00    -0.353 OA
HETATM   22  C1  UNL     1       0.168   1.968   7.049  1.00  0.00     0.210 C 
ENDBRANCH  17  21
BRANCH  18  23
HETATM   23  O2  UNL     1      -1.988   5.399   7.445  1.00  0.00    -0.358 OA
ATOM     24  H2  UNL     1      -2.617   5.887   7.965  1.00  0.00     0.217 HD
ENDBRANCH  18  23
ENDBRANCH   1  15
BRANCH   3  25
HETATM   25  C8  UNL     1      -1.589   1.911   1.345  1.00  0.00     0.029 C 
HETATM   26  C9  UNL     1      -1.023   1.885  -0.082  1.00  0.00     0.016 C 
HETATM   27  C10 UNL     1      -0.850   3.053   2.018  1.00  0.00     0.016 C 
ENDBRANCH   3  25
BRANCH   6  28
HETATM   28  C11 UNL     1      -5.836   3.541  -0.616  1.00  0.00     0.152 C 
BRANCH  28  29
HETATM   29  C12 UNL     1      -6.430   2.392  -1.372  1.00  0.00     0.042 C 
BRANCH  29  30
HETATM   30  C13 UNL     1      -6.872   2.809  -2.768  1.00  0.00     0.131 C 
BRANCH  30  31
HETATM   31  N3  UNL     1      -6.671   1.737  -3.718  1.00  0.00    -0.352 N 
HETATM   32  C14 UNL     1      -7.491   1.387  -4.748  1.00  0.00     0.108 A 
HETATM   33  C15 UNL     1      -6.925   0.319  -5.398  1.00  0.00     0.106 A 
HETATM   34  N4  UNL     1      -5.776   0.053  -4.743  1.00  0.00    -0.361 N 
HETATM   35  C16 UNL     1      -5.614   0.907  -3.724  1.00  0.00     0.182 A 
ATOM     36  H4  UNL     1      -5.124  -0.692  -4.988  1.00  0.00     0.166 HD
ENDBRANCH  30  31
ENDBRANCH  29  30
ENDBRANCH  28  29
ENDBRANCH   6  28
TORSDOF 8
ENDMDL
MODEL 3
REMARK VINA RESULT: -6.036251535      3.979      6.982
REMARK  8 active torsions:
REMARK  status: ('A' for Active; 'I' for Inactive)
REMARK    1  A    between atoms: O1_2  and  C2_3 
REMARK    2  A    between atoms: C4_5  and  C5_6 
REMARK    3  A    between atoms: C7_8  and  C8_9 
REMARK    4  A    between atoms: N2_14  and  C11_15 
REMARK    5  A    between atoms: C11_15  and  C12_16 
REMARK    6  A    between atoms: C12_16  and  C13_17 
REMARK    7  A    between atoms: C13_17  and  N3_18 
REMARK    8  A    between atoms: C24_34  and  O2_35 
ROOT
HETATM    1  C5  UNL     1      -1.935   2.766  -1.172  1.00  0.00     0.103 C 
HETATM    2  C6  UNL     1      -3.157   2.800  -0.386  1.00  0.00     0.024 A 
HETATM    3  C7  UNL     1      -4.405   2.711  -0.969  1.00  0.00     0.040 A 
HETATM    4  N1  UNL     1      -5.322   2.766   0.033  1.00  0.00    -0.300 N 
ATOM      5  H1  UNL     1      -6.329   2.721  -0.117  1.00  0.00     0.187 HD
HETATM    6  N2  UNL     1      -4.776   2.881   1.197  1.00  0.00    -0.276 N 
HETATM    7  C17 UNL     1      -3.449   2.905   0.986  1.00  0.00     0.128 A 
HETATM    8  N5  UNL     1      -2.538   3.004   2.111  1.00  0.00    -0.361 N 
ATOM      9  H5  UNL     1      -2.815   3.589   2.899  1.00  0.00     0.162 HD
HETATM   10  C18 UNL     1      -1.208   2.297   2.190  1.00  0.00     0.149 C 
HETATM   11  C19 UNL     1      -1.497   1.051   3.043  1.00  0.00     0.045 C 
HETATM   12  C20 UNL     1      -0.809   2.094   0.839  1.00  0.00    -0.121 C 
HETATM   13  C21 UNL     1      -0.726   2.020  -0.569  1.00  0.00     0.251 C 
HETATM   14  F1  UNL     1       0.455   2.593  -1.091  1.00  0.00    -0.236 F 
ENDROOT
BRANCH   1  15
HETATM   15  C4  UNL     1      -1.443   4.108  -1.634  1.00  0.00    -0.043 A 
HETATM   16  C3  UNL     1      -1.179   4.280  -2.972  1.00  0.00     0.047 A 
HETATM   17  C2  UNL     1      -0.737   5.485  -3.452  1.00  0.00     0.101 A 
HETATM   18  C24 UNL     1      -0.550   6.549  -2.597  1.00  0.00     0.099 A 
HETATM   19  C23 UNL     1      -0.810   6.397  -1.254  1.00  0.00     0.040 A 
HETATM   20  C22 UNL     1      -1.257   5.167  -0.788  1.00  0.00     0.011 A 
BRANCH  17  21
HETATM   21  O1  UNL     1      -0.459   5.699  -4.799  1.00  0.00    -0.353 OA
HETATM   22  C1  UNL     1       0.585   5.111  -5.509  1.00  0.00     0.210 C 
ENDBRANCH  17  21
BRANCH  18  23
HETATM   23  O2  UNL     1      -0.100   7.768  -3.111  1.00  0.00    -0.358 OA
ATOM     24  H2  UNL     1       0.396   8.354  -2.550  1.00  0.00     0.217 HD
ENDBRANCH  18  23
ENDBRANCH   1  15
BRANCH   3  25
HETATM   25  C8  UNL     1      -4.811   2.600  -2.401  1.00  0.00     0.029 C 
HETATM   26  C9  UNL     1      -6.208   1.971  -2.498  1.00  0.00     0.016 C 
HETATM   27  C10 UNL     1      -4.991   3.996  -2.968  1.00  0.00     0.016 C 
ENDBRANCH   3  25
BRANCH   6  28
HETATM   28  C11 UNL     1      -5.453   2.973   2.496  1.00  0.00     0.152 C 
BRANCH  28  29
HETATM   29  C12 UNL     1      -6.249   1.717   2.681  1.00  0.00     0.042 C 
BRANCH  29  30
HETATM   30  C13 UNL     1      -6.593   1.482   4.145  1.00  0.00     0.131 C 
BRANCH  30  31
HETATM   31  N3  UNL     1      -5.843   0.367   4.682  1.00  0.00    -0.352 N 
HETATM   32  C14 UNL     1      -6.296  -0.899   4.897  1.00  0.00     0.108 A 
HETATM   33  C15 UNL     1      -5.261  -1.637   5.417  1.00  0.00     0.106 A 
HETATM   34  N4  UNL     1      -4.211  -0.795   5.501  1.00  0.00    -0.361 N 
HETATM   35  C16 UNL     1      -4.554   0.421   5.057  1.00  0.00     0.182 A 
ATOM     36  H4  UNL     1      -3.287  -1.049   5.851  1.00  0.00     0.166 HD
ENDBRANCH  30  31
ENDBRANCH  29  30
ENDBRANCH  28  29
ENDBRANCH   6  28
TORSDOF 8
ENDMDL
MODEL 4
REMARK VINA RESULT: -5.988601317      2.849      5.256
REMARK  8 active torsions:
REMARK  status: ('A' for Active; 'I' for Inactive)
REMARK    1  A    between atoms: O1_2  and  C2_3 
REMARK    2  A    between atoms: C4_5  and  C5_6 
REMARK    3  A    between atoms: C7_8  and  C8_9 
REMARK    4  A    between atoms: N2_14  and  C11_15 
REMARK    5  A    between atoms: C11_15  and  C12_16 
REMARK    6  A    between atoms: C12_16  and  C13_17 
REMARK    7  A    between atoms: C13_17  and  N3_18 
REMARK    8  A    between atoms: C24_34  and  O2_35 
ROOT
HETATM    1  C5  UNL     1      -4.899   3.726   0.734  1.00  0.00     0.103 C 
HETATM    2  C6  UNL     1      -5.400   2.957  -0.394  1.00  0.00     0.024 A 
HETATM    3  C7  UNL     1      -6.707   2.516  -0.457  1.00  0.00     0.040 A 
HETATM    4  N1  UNL     1      -6.849   1.843  -1.629  1.00  0.00    -0.300 N 
ATOM      5  H1  UNL     1      -7.721   1.410  -1.931  1.00  0.00     0.187 HD
HETATM    6  N2  UNL     1      -5.758   1.814  -2.317  1.00  0.00    -0.276 N 
HETATM    7  C17 UNL     1      -4.844   2.486  -1.596  1.00  0.00     0.128 A 
HETATM    8  N5  UNL     1      -3.498   2.658  -2.112  1.00  0.00    -0.361 N 
ATOM      9  H5  UNL     1      -3.086   1.886  -2.636  1.00  0.00     0.162 HD
HETATM   10  C18 UNL     1      -2.670   3.903  -1.921  1.00  0.00     0.149 C 
HETATM   11  C19 UNL     1      -2.847   4.675  -3.240  1.00  0.00     0.045 C 
HETATM   12  C20 UNL     1      -3.165   4.508  -0.732  1.00  0.00    -0.121 C 
HETATM   13  C21 UNL     1      -3.892   4.855   0.428  1.00  0.00     0.251 C 
HETATM   14  F1  UNL     1      -3.076   5.041   1.566  1.00  0.00    -0.236 F 
ENDROOT
BRANCH   1  15
HETATM   15  C4  UNL     1      -4.321   2.906   1.851  1.00  0.00    -0.043 A 
HETATM   16  C3  UNL     1      -4.944   2.943   3.077  1.00  0.00     0.047 A 
HETATM   17  C2  UNL     1      -4.467   2.208   4.130  1.00  0.00     0.101 A 
HETATM   18  C24 UNL     1      -3.350   1.415   3.977  1.00  0.00     0.099 A 
HETATM   19  C23 UNL     1      -2.714   1.364   2.759  1.00  0.00     0.040 A 
HETATM   20  C22 UNL     1      -3.213   2.117   1.703  1.00  0.00     0.011 A 
BRANCH  17  21
HETATM   21  O1  UNL     1      -5.069   2.218   5.385  1.00  0.00    -0.353 OA
HETATM   22  C1  UNL     1      -6.263   1.578   5.710  1.00  0.00     0.210 C 
ENDBRANCH  17  21
BRANCH  18  23
HETATM   23  O2  UNL     1      -2.884   0.675   5.067  1.00  0.00    -0.358 OA
ATOM     24  H2  UNL     1      -3.506   0.201   5.607  1.00  0.00     0.217 HD
ENDBRANCH  18  23
ENDBRANCH   1  15
BRANCH   3  25
HETATM   25  C8  UNL     1      -7.835   2.658   0.511  1.00  0.00     0.029 C 
HETATM   26  C9  UNL     1      -9.112   3.068  -0.237  1.00  0.00     0.016 C 
HETATM   27  C10 UNL     1      -8.162   1.292   1.084  1.00  0.00     0.016 C 
ENDBRANCH   3  25
BRANCH   6  28
HETATM   28  C11 UNL     1      -5.540   1.177  -3.621  1.00  0.00     0.152 C 
BRANCH  28  29
HETATM   29  C12 UNL     1      -6.666   1.591  -4.520  1.00  0.00     0.042 C 
BRANCH  29  30
HETATM   30  C13 UNL     1      -7.378   0.386  -5.117  1.00  0.00     0.131 C 
BRANCH  30  31
HETATM   31  N3  UNL     1      -8.772   0.679  -5.369  1.00  0.00    -0.352 N 
HETATM   32  C14 UNL     1      -9.358   1.908  -5.419  1.00  0.00     0.108 A 
HETATM   33  C15 UNL     1     -10.694   1.731  -5.683  1.00  0.00     0.106 A 
HETATM   34  N4  UNL     1     -10.878   0.399  -5.786  1.00  0.00    -0.361 N 
HETATM   35  C16 UNL     1      -9.720  -0.246  -5.598  1.00  0.00     0.182 A 
ATOM     36  H4  UNL     1     -11.772  -0.052  -5.980  1.00  0.00     0.166 HD
ENDBRANCH  30  31
ENDBRANCH  29  30
ENDBRANCH  28  29
ENDBRANCH   6  28
TORSDOF 8
ENDMDL
MODEL 5
REMARK VINA RESULT: -5.949605341      3.565      6.631
REMARK  8 active torsions:
REMARK  status: ('A' for Active; 'I' for Inactive)
REMARK    1  A    between atoms: O1_2  and  C2_3 
REMARK    2  A    between atoms: C4_5  and  C5_6 
REMARK    3  A    between atoms: C7_8  and  C8_9 
REMARK    4  A    between atoms: N2_14  and  C11_15 
REMARK    5  A    between atoms: C11_15  and  C12_16 
REMARK    6  A    between atoms: C12_16  and  C13_17 
REMARK    7  A    between atoms: C13_17  and  N3_18 
REMARK    8  A    between atoms: C24_34  and  O2_35 
ROOT
HETATM    1  C5  UNL     1      -1.892   2.723  -1.262  1.00  0.00     0.103 C 
HETATM    2  C6  UNL     1      -3.117   2.781  -0.481  1.00  0.00     0.024 A 
HETATM    3  C7  UNL     1      -4.364   2.699  -1.068  1.00  0.00     0.040 A 
HETATM    4  N1  UNL     1      -5.284   2.777  -0.071  1.00  0.00    -0.300 N 
ATOM      5  H1  UNL     1      -6.291   2.742  -0.225  1.00  0.00     0.187 HD
HETATM    6  N2  UNL     1      -4.741   2.901   1.093  1.00  0.00    -0.276 N 
HETATM    7  C17 UNL     1      -3.414   2.907   0.888  1.00  0.00     0.128 A 
HETATM    8  N5  UNL     1      -2.506   3.009   2.016  1.00  0.00    -0.361 N 
ATOM      9  H5  UNL     1      -2.780   3.608   2.795  1.00  0.00     0.162 HD
HETATM   10  C18 UNL     1      -1.185   2.289   2.109  1.00  0.00     0.149 C 
HETATM   11  C19 UNL     1      -1.491   1.057   2.977  1.00  0.00     0.045 C 
HETATM   12  C20 UNL     1      -0.782   2.063   0.763  1.00  0.00    -0.121 C 
HETATM   13  C21 UNL     1      -0.694   1.971  -0.644  1.00  0.00     0.251 C 
HETATM   14  F1  UNL     1       0.495   2.524  -1.168  1.00  0.00    -0.236 F 
ENDROOT
BRANCH   1  15
HETATM   15  C4  UNL     1      -1.383   4.053  -1.738  1.00  0.00    -0.043 A 
HETATM   16  C3  UNL     1      -1.161   5.038  -0.805  1.00  0.00     0.047 A 
HETATM   17  C2  UNL     1      -0.689   6.269  -1.179  1.00  0.00     0.101 A 
HETATM   18  C24 UNL     1      -0.427   6.540  -2.505  1.00  0.00     0.099 A 
HETATM   19  C23 UNL     1      -0.642   5.567  -3.454  1.00  0.00     0.040 A 
HETATM   20  C22 UNL     1      -1.121   4.326  -3.053  1.00  0.00     0.011 A 
BRANCH  17  21
HETATM   21  O1  UNL     1      -0.450   7.291  -0.266  1.00  0.00    -0.353 OA
HETATM   22  C1  UNL     1       0.364   7.190   0.861  1.00  0.00     0.210 C 
ENDBRANCH  17  21
BRANCH  18  23
HETATM   23  O2  UNL     1       0.055   7.802  -2.862  1.00  0.00    -0.358 OA
ATOM     24  H2  UNL     1      -0.406   8.305  -3.523  1.00  0.00     0.217 HD
ENDBRANCH  18  23
ENDBRANCH   1  15
BRANCH   3  25
HETATM   25  C8  UNL     1      -4.765   2.574  -2.501  1.00  0.00     0.029 C 
HETATM   26  C9  UNL     1      -6.170   1.964  -2.595  1.00  0.00     0.016 C 
HETATM   27  C10 UNL     1      -4.922   3.965  -3.087  1.00  0.00     0.016 C 
ENDBRANCH   3  25
BRANCH   6  28
HETATM   28  C11 UNL     1      -5.422   3.017   2.389  1.00  0.00     0.152 C 
BRANCH  28  29
HETATM   29  C12 UNL     1      -6.215   1.763   2.597  1.00  0.00     0.042 C 
BRANCH  29  30
HETATM   30  C13 UNL     1      -6.564   1.558   4.064  1.00  0.00     0.131 C 
BRANCH  30  31
HETATM   31  N3  UNL     1      -5.825   0.447   4.624  1.00  0.00    -0.352 N 
HETATM   32  C14 UNL     1      -6.295  -0.805   4.883  1.00  0.00     0.108 A 
HETATM   33  C15 UNL     1      -5.265  -1.544   5.411  1.00  0.00     0.106 A 
HETATM   34  N4  UNL     1      -4.201  -0.716   5.456  1.00  0.00    -0.361 N 
HETATM   35  C16 UNL     1      -4.531   0.492   4.982  1.00  0.00     0.182 A 
ATOM     36  H4  UNL     1      -3.276  -0.975   5.802  1.00  0.00     0.166 HD
ENDBRANCH  30  31
ENDBRANCH  29  30
ENDBRANCH  28  29
ENDBRANCH   6  28
TORSDOF 8
ENDMDL
