MODEL 1
REMARK VINA RESULT: -6.561416833      0.000      0.000
REMARK  9 active torsions:
REMARK  status: ('A' for Active; 'I' for Inactive)
REMARK    1  A    between atoms: O1_2  and  C2_3 
REMARK    2  A    between atoms: C4_5  and  C5_6 
REMARK    3  A    between atoms: C6_7  and  C7_8 
REMARK    4  A    between atoms: C7_8  and  C8_10 
REMARK    5  A    between atoms: C10_13  and  O3_14 
REMARK    6  A    between atoms: C12_17  and  O4_18 
REMARK    7  A    between atoms: C16_24  and  O6_25 
REMARK    8  A    between atoms: C19_28  and  O7_29 
REMARK    9  A    between atoms: C21_31  and  O8_32 
ROOT
HETATM    1  C8  UNL     1      -6.460   2.286  -4.177  1.00  0.00     0.090 A 
HETATM    2  C9  UNL     1      -6.471   0.942  -4.460  1.00  0.00     0.167 A 
HETATM    3  F1  UNL     1      -5.444   0.129  -4.118  1.00  0.00    -0.202 F 
HETATM    4  C10 UNL     1      -7.560   0.355  -5.120  1.00  0.00     0.121 A 
HETATM    5  C11 UNL     1      -8.629   1.141  -5.486  1.00  0.00     0.074 A 
HETATM    6  C12 UNL     1      -9.829   0.919  -6.128  1.00  0.00     0.197 A 
HETATM    7  O5  UNL     1     -10.505   2.033  -6.236  1.00  0.00    -0.291 OA
HETATM    8  C13 UNL     1      -9.812   3.030  -5.685  1.00  0.00     0.066 A 
HETATM    9  C14 UNL     1     -10.228   4.457  -5.599  1.00  0.00     0.078 C 
HETATM   10  C15 UNL     1      -8.628   2.512  -5.204  1.00  0.00     0.046 A 
HETATM   11  C16 UNL     1      -7.537   3.057  -4.551  1.00  0.00     0.099 A 
ENDROOT
BRANCH   1  12
HETATM   12  C7  UNL     1      -5.332   2.912  -3.491  1.00  0.00     0.188 C 
HETATM   13  O2  UNL     1      -4.574   3.683  -4.116  1.00  0.00    -0.287 OA
BRANCH  12  14
HETATM   14  C6  UNL     1      -5.059   2.662  -2.081  1.00  0.00     0.056 C 
HETATM   15  C5  UNL     1      -3.825   2.780  -1.637  1.00  0.00     0.015 C 
BRANCH  15  16
HETATM   16  C4  UNL     1      -3.441   2.553  -0.245  1.00  0.00    -0.031 A 
HETATM   17  C3  UNL     1      -4.427   2.584   0.738  1.00  0.00     0.051 A 
HETATM   18  C2  UNL     1      -4.142   2.380   2.072  1.00  0.00     0.105 A 
HETATM   19  C21 UNL     1      -2.819   2.138   2.417  1.00  0.00     0.135 A 
HETATM   20  C19 UNL     1      -1.814   2.097   1.486  1.00  0.00     0.105 A 
HETATM   21  C18 UNL     1      -2.152   2.308   0.167  1.00  0.00     0.051 A 
BRANCH  18  22
HETATM   22  O1  UNL     1      -5.116   2.408   3.059  1.00  0.00    -0.353 OA
HETATM   23  C1  UNL     1      -6.395   1.899   2.726  1.00  0.00     0.210 C 
ENDBRANCH  18  22
BRANCH  19  24
HETATM   24  O8  UNL     1      -2.539   1.933   3.757  1.00  0.00    -0.351 OA
HETATM   25  C22 UNL     1      -2.219   3.090   4.527  1.00  0.00     0.210 C 
ENDBRANCH  19  24
BRANCH  20  26
HETATM   26  O7  UNL     1      -0.514   1.852   1.887  1.00  0.00    -0.353 OA
HETATM   27  C20 UNL     1       0.403   2.928   1.837  1.00  0.00     0.210 C 
ENDBRANCH  20  26
ENDBRANCH  15  16
ENDBRANCH  12  14
ENDBRANCH   1  12
BRANCH  11  28
HETATM   28  O6  UNL     1      -7.539   4.416  -4.271  1.00  0.00    -0.354 OA
HETATM   29  C17 UNL     1      -8.008   4.796  -2.968  1.00  0.00     0.210 C 
ENDBRANCH  11  28
BRANCH   4  30
HETATM   30  O3  UNL     1      -7.552  -0.995  -5.394  1.00  0.00    -0.357 OA
ATOM     31  H3  UNL     1      -7.544  -1.624  -4.683  1.00  0.00     0.218 HD
ENDBRANCH   4  30
BRANCH   6  32
HETATM   32  O4  UNL     1     -10.282  -0.318  -6.609  1.00  0.00    -0.340 OA
ATOM     33  H4  UNL     1     -11.190  -0.559  -6.748  1.00  0.00     0.220 HD
ENDBRANCH   6  32
TORSDOF 9
ENDMDL
MODEL 2
REMARK VINA RESULT: -6.534361021      0.241      2.311
REMARK  9 active torsions:
REMARK  status: ('A' for Active; 'I' for Inactive)
REMARK    1  A    between atoms: O1_2  and  C2_3 
REMARK    2  A    between atoms: C4_5  and  C5_6 
REMARK    3  A    between atoms: C6_7  and  C7_8 
REMARK    4  A    between atoms: C7_8  and  C8_10 
REMARK    5  A    between atoms: C10_13  and  O3_14 
REMARK    6  A    between atoms: C12_17  and  O4_18 
REMARK    7  A    between atoms: C16_24  and  O6_25 
REMARK    8  A    between atoms: C19_28  and  O7_29 
REMARK    9  A    between atoms: C21_31  and  O8_32 
ROOT
HETATM    1  C8  UNL     1      -6.456   2.274  -4.181  1.00  0.00     0.090 A 
HETATM    2  C9  UNL     1      -6.463   0.933  -4.478  1.00  0.00     0.167 A 
HETATM    3  F1  UNL     1      -5.429   0.122  -4.157  1.00  0.00    -0.202 F 
HETATM    4  C10 UNL     1      -7.556   0.347  -5.133  1.00  0.00     0.121 A 
HETATM    5  C11 UNL     1      -8.633   1.132  -5.479  1.00  0.00     0.074 A 
HETATM    6  C12 UNL     1      -9.839   0.911  -6.111  1.00  0.00     0.197 A 
HETATM    7  O5  UNL     1     -10.522   2.022  -6.198  1.00  0.00    -0.291 OA
HETATM    8  C13 UNL     1      -9.828   3.016  -5.644  1.00  0.00     0.066 A 
HETATM    9  C14 UNL     1     -10.251   4.440  -5.538  1.00  0.00     0.078 C 
HETATM   10  C15 UNL     1      -8.637   2.500  -5.182  1.00  0.00     0.046 A 
HETATM   11  C16 UNL     1      -7.541   3.043  -4.534  1.00  0.00     0.099 A 
ENDROOT
BRANCH   1  12
HETATM   12  C7  UNL     1      -5.324   2.898  -3.500  1.00  0.00     0.188 C 
HETATM   13  O2  UNL     1      -4.582   3.687  -4.122  1.00  0.00    -0.287 OA
BRANCH  12  14
HETATM   14  C6  UNL     1      -5.028   2.626  -2.099  1.00  0.00     0.056 C 
HETATM   15  C5  UNL     1      -3.794   2.777  -1.664  1.00  0.00     0.015 C 
BRANCH  15  16
HETATM   16  C4  UNL     1      -3.389   2.533  -0.281  1.00  0.00    -0.031 A 
HETATM   17  C3  UNL     1      -2.031   2.427   0.012  1.00  0.00     0.051 A 
HETATM   18  C2  UNL     1      -1.572   2.198   1.292  1.00  0.00     0.105 A 
HETATM   19  C21 UNL     1      -2.517   2.071   2.302  1.00  0.00     0.135 A 
HETATM   20  C19 UNL     1      -3.863   2.168   2.062  1.00  0.00     0.105 A 
HETATM   21  C18 UNL     1      -4.269   2.398   0.767  1.00  0.00     0.051 A 
BRANCH  18  22
HETATM   22  O1  UNL     1      -0.222   2.091   1.596  1.00  0.00    -0.353 OA
HETATM   23  C1  UNL     1       0.566   3.262   1.479  1.00  0.00     0.210 C 
ENDBRANCH  18  22
BRANCH  19  24
HETATM   24  O8  UNL     1      -2.050   1.841   3.585  1.00  0.00    -0.351 OA
HETATM   25  C22 UNL     1      -1.827   2.988   4.400  1.00  0.00     0.210 C 
ENDBRANCH  19  24
BRANCH  20  26
HETATM   26  O7  UNL     1      -4.759   2.033   3.106  1.00  0.00    -0.353 OA
HETATM   27  C20 UNL     1      -6.139   2.078   2.797  1.00  0.00     0.210 C 
ENDBRANCH  20  26
ENDBRANCH  15  16
ENDBRANCH  12  14
ENDBRANCH   1  12
BRANCH  11  28
HETATM   28  O6  UNL     1      -7.547   4.399  -4.240  1.00  0.00    -0.354 OA
HETATM   29  C17 UNL     1      -8.001   4.762  -2.926  1.00  0.00     0.210 C 
ENDBRANCH  11  28
BRANCH   4  30
HETATM   30  O3  UNL     1      -7.544  -0.999  -5.422  1.00  0.00    -0.357 OA
ATOM     31  H3  UNL     1      -8.035  -1.329  -6.165  1.00  0.00     0.218 HD
ENDBRANCH   4  30
BRANCH   6  32
HETATM   32  O4  UNL     1     -10.290  -0.324  -6.600  1.00  0.00    -0.340 OA
ATOM     33  H4  UNL     1     -10.896  -0.445  -7.322  1.00  0.00     0.220 HD
ENDBRANCH   6  32
TORSDOF 9
ENDMDL
MODEL 3
REMARK VINA RESULT: -6.427136271      0.975      2.537
REMARK  9 active torsions:
REMARK  status: ('A' for Active; 'I' for Inactive)
REMARK    1  A    between atoms: O1_2  and  C2_3 
REMARK    2  A    between atoms: C4_5  and  C5_6 
REMARK    3  A    between atoms: C6_7  and  C7_8 
REMARK    4  A    between atoms: C7_8  and  C8_10 
REMARK    5  A    between atoms: C10_13  and  O3_14 
REMARK    6  A    between atoms: C12_17  and  O4_18 
REMARK    7  A    between atoms: C16_24  and  O6_25 
REMARK    8  A    between atoms: C19_28  and  O7_29 
REMARK    9  A    between atoms: C21_31  and  O8_32 
ROOT
HETATM    1  C8  UNL     1      -5.667   2.509  -3.659  1.00  0.00     0.090 A 
HETATM    2  C9  UNL     1      -5.763   1.177  -3.982  1.00  0.00     0.167 A 
HETATM    3  F1  UNL     1      -4.888   0.260  -3.508  1.00  0.00    -0.202 F 
HETATM    4  C10 UNL     1      -6.784   0.713  -4.823  1.00  0.00     0.121 A 
HETATM    5  C11 UNL     1      -7.700   1.608  -5.329  1.00  0.00     0.074 A 
HETATM    6  C12 UNL     1      -8.797   1.518  -6.160  1.00  0.00     0.197 A 
HETATM    7  O5  UNL     1      -9.336   2.695  -6.337  1.00  0.00    -0.291 OA
HETATM    8  C13 UNL     1      -8.646   3.609  -5.653  1.00  0.00     0.066 A 
HETATM    9  C14 UNL     1      -8.931   5.070  -5.589  1.00  0.00     0.078 C 
HETATM   10  C15 UNL     1      -7.611   2.968  -5.007  1.00  0.00     0.046 A 
HETATM   11  C16 UNL     1      -6.591   3.389  -4.173  1.00  0.00     0.099 A 
ENDROOT
BRANCH   1  12
HETATM   12  C7  UNL     1      -4.609   3.007  -2.784  1.00  0.00     0.188 C 
HETATM   13  O2  UNL     1      -3.763   3.813  -3.227  1.00  0.00    -0.287 OA
BRANCH  12  14
HETATM   14  C6  UNL     1      -4.505   2.589  -1.391  1.00  0.00     0.056 C 
HETATM   15  C5  UNL     1      -3.359   2.737  -0.762  1.00  0.00     0.015 C 
BRANCH  15  16
HETATM   16  C4  UNL     1      -3.146   2.352   0.632  1.00  0.00    -0.031 A 
HETATM   17  C3  UNL     1      -1.847   2.107   1.071  1.00  0.00     0.051 A 
HETATM   18  C2  UNL     1      -1.567   1.740   2.371  1.00  0.00     0.105 A 
HETATM   19  C21 UNL     1      -2.636   1.619   3.249  1.00  0.00     0.135 A 
HETATM   20  C19 UNL     1      -3.931   1.850   2.864  1.00  0.00     0.105 A 
HETATM   21  C18 UNL     1      -4.156   2.214   1.555  1.00  0.00     0.051 A 
BRANCH  18  22
HETATM   22  O1  UNL     1      -0.277   1.493   2.819  1.00  0.00    -0.353 OA
HETATM   23  C1  UNL     1       0.623   2.586   2.842  1.00  0.00     0.210 C 
ENDBRANCH  18  22
BRANCH  19  24
HETATM   24  O8  UNL     1      -2.349   1.250   4.552  1.00  0.00    -0.351 OA
HETATM   25  C22 UNL     1      -2.060   2.305   5.467  1.00  0.00     0.210 C 
ENDBRANCH  19  24
BRANCH  20  26
HETATM   26  O7  UNL     1      -4.956   1.714   3.782  1.00  0.00    -0.353 OA
HETATM   27  C20 UNL     1      -6.259   1.486   3.281  1.00  0.00     0.210 C 
ENDBRANCH  20  26
ENDBRANCH  15  16
ENDBRANCH  12  14
ENDBRANCH   1  12
BRANCH  11  28
HETATM   28  O6  UNL     1      -6.506   4.738  -3.855  1.00  0.00    -0.354 OA
HETATM   29  C17 UNL     1      -7.121   5.139  -2.620  1.00  0.00     0.210 C 
ENDBRANCH  11  28
BRANCH   4  30
HETATM   30  O3  UNL     1      -6.863  -0.627  -5.135  1.00  0.00    -0.357 OA
ATOM     31  H3  UNL     1      -7.701  -1.071  -5.111  1.00  0.00     0.218 HD
ENDBRANCH   4  30
BRANCH   6  32
HETATM   32  O4  UNL     1      -9.284   0.340  -6.744  1.00  0.00    -0.340 OA
ATOM     33  H4  UNL     1      -9.908   0.294  -7.459  1.00  0.00     0.220 HD
ENDBRANCH   6  32
TORSDOF 9
ENDMDL
MODEL 4
REMARK VINA RESULT: -6.416408625      1.902      3.347
REMARK  9 active torsions:
REMARK  status: ('A' for Active; 'I' for Inactive)
REMARK    1  A    between atoms: O1_2  and  C2_3 
REMARK    2  A    between atoms: C4_5  and  C5_6 
REMARK    3  A    between atoms: C6_7  and  C7_8 
REMARK    4  A    between atoms: C7_8  and  C8_10 
REMARK    5  A    between atoms: C10_13  and  O3_14 
REMARK    6  A    between atoms: C12_17  and  O4_18 
REMARK    7  A    between atoms: C16_24  and  O6_25 
REMARK    8  A    between atoms: C19_28  and  O7_29 
REMARK    9  A    between atoms: C21_31  and  O8_32 
ROOT
HETATM    1  C8  UNL     1      -6.540   2.833  -2.724  1.00  0.00     0.090 A 
HETATM    2  C9  UNL     1      -5.802   1.822  -3.289  1.00  0.00     0.167 A 
HETATM    3  F1  UNL     1      -4.664   1.361  -2.719  1.00  0.00    -0.202 F 
HETATM    4  C10 UNL     1      -6.204   1.222  -4.490  1.00  0.00     0.121 A 
HETATM    5  C11 UNL     1      -7.356   1.656  -5.107  1.00  0.00     0.074 A 
HETATM    6  C12 UNL     1      -8.035   1.315  -6.258  1.00  0.00     0.197 A 
HETATM    7  O5  UNL     1      -9.105   2.054  -6.396  1.00  0.00    -0.291 OA
HETATM    8  C13 UNL     1      -9.195   2.903  -5.372  1.00  0.00     0.066 A 
HETATM    9  C14 UNL     1     -10.265   3.915  -5.152  1.00  0.00     0.078 C 
HETATM   10  C15 UNL     1      -8.117   2.687  -4.541  1.00  0.00     0.046 A 
HETATM   11  C16 UNL     1      -7.689   3.254  -3.354  1.00  0.00     0.099 A 
ENDROOT
BRANCH   1  12
HETATM   12  C7  UNL     1      -6.133   3.469  -1.473  1.00  0.00     0.188 C 
HETATM   13  O2  UNL     1      -5.797   4.671  -1.467  1.00  0.00    -0.287 OA
BRANCH  12  14
HETATM   14  C6  UNL     1      -6.105   2.734  -0.214  1.00  0.00     0.056 C 
HETATM   15  C5  UNL     1      -5.127   2.960   0.637  1.00  0.00     0.015 C 
BRANCH  15  16
HETATM   16  C4  UNL     1      -5.003   2.281   1.926  1.00  0.00    -0.031 A 
HETATM   17  C3  UNL     1      -3.743   1.865   2.348  1.00  0.00     0.051 A 
HETATM   18  C2  UNL     1      -3.547   1.218   3.551  1.00  0.00     0.105 A 
HETATM   19  C21 UNL     1      -4.662   0.987   4.346  1.00  0.00     0.135 A 
HETATM   20  C19 UNL     1      -5.922   1.378   3.973  1.00  0.00     0.105 A 
HETATM   21  C18 UNL     1      -6.063   2.020   2.763  1.00  0.00     0.051 A 
BRANCH  18  22
HETATM   22  O1  UNL     1      -2.296   0.799   3.982  1.00  0.00    -0.353 OA
HETATM   23  C1  UNL     1      -1.203   1.009   3.106  1.00  0.00     0.210 C 
ENDBRANCH  18  22
BRANCH  19  24
HETATM   24  O8  UNL     1      -4.459   0.337   5.551  1.00  0.00    -0.351 OA
HETATM   25  C22 UNL     1      -4.716  -1.065   5.573  1.00  0.00     0.210 C 
ENDBRANCH  19  24
BRANCH  20  26
HETATM   26  O7  UNL     1      -6.996   1.121   4.805  1.00  0.00    -0.353 OA
HETATM   27  C20 UNL     1      -8.138   0.512   4.234  1.00  0.00     0.210 C 
ENDBRANCH  20  26
ENDBRANCH  15  16
ENDBRANCH  12  14
ENDBRANCH   1  12
BRANCH  11  28
HETATM   28  O6  UNL     1      -8.445   4.275  -2.795  1.00  0.00    -0.354 OA
HETATM   29  C17 UNL     1      -9.337   3.897  -1.734  1.00  0.00     0.210 C 
ENDBRANCH  11  28
BRANCH   4  30
HETATM   30  O3  UNL     1      -5.450   0.209  -5.040  1.00  0.00    -0.357 OA
ATOM     31  H3  UNL     1      -4.934   0.372  -5.820  1.00  0.00     0.218 HD
ENDBRANCH   4  30
BRANCH   6  32
HETATM   32  O4  UNL     1      -7.651   0.320  -7.169  1.00  0.00    -0.340 OA
ATOM     33  H4  UNL     1      -7.899   0.283  -8.085  1.00  0.00     0.220 HD
ENDBRANCH   6  32
TORSDOF 9
ENDMDL
MODEL 5
REMARK VINA RESULT: -6.410250697      1.870      2.360
REMARK  9 active torsions:
REMARK  status: ('A' for Active; 'I' for Inactive)
REMARK    1  A    between atoms: O1_2  and  C2_3 
REMARK    2  A    between atoms: C4_5  and  C5_6 
REMARK    3  A    between atoms: C6_7  and  C7_8 
REMARK    4  A    between atoms: C7_8  and  C8_10 
REMARK    5  A    between atoms: C10_13  and  O3_14 
REMARK    6  A    between atoms: C12_17  and  O4_18 
REMARK    7  A    between atoms: C16_24  and  O6_25 
REMARK    8  A    between atoms: C19_28  and  O7_29 
REMARK    9  A    between atoms: C21_31  and  O8_32 
ROOT
HETATM    1  C8  UNL     1      -6.532   2.855  -2.740  1.00  0.00     0.090 A 
HETATM    2  C9  UNL     1      -5.792   1.843  -3.302  1.00  0.00     0.167 A 
HETATM    3  F1  UNL     1      -4.644   1.399  -2.742  1.00  0.00    -0.202 F 
HETATM    4  C10 UNL     1      -6.205   1.226  -4.492  1.00  0.00     0.121 A 
HETATM    5  C11 UNL     1      -7.368   1.643  -5.099  1.00  0.00     0.074 A 
HETATM    6  C12 UNL     1      -8.059   1.284  -6.237  1.00  0.00     0.197 A 
HETATM    7  O5  UNL     1      -9.137   2.011  -6.370  1.00  0.00    -0.291 OA
HETATM    8  C13 UNL     1      -9.221   2.872  -5.354  1.00  0.00     0.066 A 
HETATM    9  C14 UNL     1     -10.297   3.877  -5.131  1.00  0.00     0.078 C 
HETATM   10  C15 UNL     1      -8.130   2.674  -4.534  1.00  0.00     0.046 A 
HETATM   11  C16 UNL     1      -7.693   3.259  -3.360  1.00  0.00     0.099 A 
ENDROOT
BRANCH   1  12
HETATM   12  C7  UNL     1      -6.115   3.508  -1.501  1.00  0.00     0.188 C 
HETATM   13  O2  UNL     1      -5.818   4.721  -1.507  1.00  0.00    -0.287 OA
BRANCH  12  14
HETATM   14  C6  UNL     1      -6.031   2.779  -0.241  1.00  0.00     0.056 C 
HETATM   15  C5  UNL     1      -4.999   2.984   0.550  1.00  0.00     0.015 C 
BRANCH  15  16
HETATM   16  C4  UNL     1      -4.817   2.308   1.833  1.00  0.00    -0.031 A 
HETATM   17  C3  UNL     1      -5.930   2.085   2.639  1.00  0.00     0.051 A 
HETATM   18  C2  UNL     1      -5.837   1.454   3.862  1.00  0.00     0.105 A 
HETATM   19  C21 UNL     1      -4.579   1.039   4.278  1.00  0.00     0.135 A 
HETATM   20  C19 UNL     1      -3.455   1.236   3.520  1.00  0.00     0.105 A 
HETATM   21  C18 UNL     1      -3.602   1.871   2.307  1.00  0.00     0.051 A 
BRANCH  18  22
HETATM   22  O1  UNL     1      -6.940   1.226   4.674  1.00  0.00    -0.353 OA
HETATM   23  C1  UNL     1      -8.052   0.571   4.091  1.00  0.00     0.210 C 
ENDBRANCH  18  22
BRANCH  19  24
HETATM   24  O8  UNL     1      -4.492   0.407   5.507  1.00  0.00    -0.351 OA
HETATM   25  C22 UNL     1      -4.773  -0.991   5.528  1.00  0.00     0.210 C 
ENDBRANCH  19  24
BRANCH  20  26
HETATM   26  O7  UNL     1      -2.227   0.802   3.984  1.00  0.00    -0.353 OA
HETATM   27  C20 UNL     1      -1.098   1.023   3.161  1.00  0.00     0.210 C 
ENDBRANCH  20  26
ENDBRANCH  15  16
ENDBRANCH  12  14
ENDBRANCH   1  12
BRANCH  11  28
HETATM   28  O6  UNL     1      -8.450   4.279  -2.802  1.00  0.00    -0.354 OA
HETATM   29  C17 UNL     1      -9.330   3.905  -1.730  1.00  0.00     0.210 C 
ENDBRANCH  11  28
BRANCH   4  30
HETATM   30  O3  UNL     1      -5.449   0.214  -5.040  1.00  0.00    -0.357 OA
ATOM     31  H3  UNL     1      -5.723  -0.198  -5.850  1.00  0.00     0.218 HD
ENDBRANCH   4  30
BRANCH   6  32
HETATM   32  O4  UNL     1      -7.677   0.282  -7.141  1.00  0.00    -0.340 OA
ATOM     33  H4  UNL     1      -7.803   0.310  -8.082  1.00  0.00     0.220 HD
ENDBRANCH   6  32
TORSDOF 9
ENDMDL
