MODEL 1
REMARK VINA RESULT: -7.134028374      0.000      0.000
REMARK  7 active torsions:
REMARK  status: ('A' for Active; 'I' for Inactive)
REMARK    1  A    between atoms: O1_2  and  C2_3 
REMARK    2  A    between atoms: C5_6  and  C6_7 
REMARK    3  A    between atoms: C7_8  and  C8_9 
REMARK    4  A    between atoms: C10_11  and  C11_12 
REMARK    5  A    between atoms: C16_26  and  S2_27 
REMARK    6  A    between atoms: S2_27  and  C17_28 
REMARK    7  A    between atoms: C19_32  and  O2_33 
ROOT
HETATM    1  C11 UNL     1      -6.766   1.815  -4.336  1.00  0.00     0.075 A 
HETATM    2  N1  UNL     1      -6.402   0.700  -5.020  1.00  0.00    -0.350 N 
ATOM      3  H1  UNL     1      -5.430   0.396  -4.959  1.00  0.00     0.166 HD
HETATM    4  C12 UNL     1      -7.243  -0.026  -5.770  1.00  0.00     0.182 A 
HETATM    5  N2  UNL     1      -8.518   0.364  -5.856  1.00  0.00    -0.338 N 
ATOM      6  H2  UNL     1      -9.181  -0.166  -6.420  1.00  0.00     0.168 HD
HETATM    7  C13 UNL     1      -8.915   1.457  -5.196  1.00  0.00     0.123 A 
HETATM    8  N3  UNL     1     -10.139   1.840  -5.273  1.00  0.00    -0.384 N 
ATOM      9  H31 UNL     1     -10.442   2.673  -4.769  1.00  0.00     0.157 HD
ATOM     10  H32 UNL     1     -10.775   1.285  -5.846  1.00  0.00     0.157 HD
HETATM   11  C14 UNL     1      -8.035   2.225  -4.403  1.00  0.00     0.116 A 
HETATM   12  C15 UNL     1      -8.593   3.339  -3.688  1.00  0.00     0.105 C 
HETATM   13  N4  UNL     1      -9.066   4.211  -3.102  1.00  0.00    -0.191 NA
ENDROOT
BRANCH   1  14
HETATM   14  C10 UNL     1      -5.719   2.466  -3.524  1.00  0.00     0.035 A 
HETATM   15  C9  UNL     1      -4.969   2.075  -2.484  1.00  0.00     0.034 A 
HETATM   16  C8  UNL     1      -4.002   2.941  -1.999  1.00  0.00    -0.011 A 
HETATM   17  C16 UNL     1      -3.907   4.135  -2.639  1.00  0.00     0.057 A 
HETATM   18  S1  UNL     1      -5.116   4.037  -3.861  1.00  0.00    -0.080 SA
BRANCH  16  19
HETATM   19  C7  UNL     1      -3.155   2.511  -0.839  1.00  0.00     0.014 C 
HETATM   20  C6  UNL     1      -3.547   2.567   0.372  1.00  0.00     0.012 C 
BRANCH  20  21
HETATM   21  C5  UNL     1      -2.690   2.134   1.483  1.00  0.00    -0.033 A 
HETATM   22  C4  UNL     1      -1.347   2.151   1.387  1.00  0.00     0.014 A 
HETATM   23  C3  UNL     1      -0.527   1.735   2.460  1.00  0.00     0.040 A 
HETATM   24  C2  UNL     1      -1.160   1.315   3.602  1.00  0.00     0.101 A 
HETATM   25  C19 UNL     1      -2.531   1.290   3.718  1.00  0.00     0.102 A 
HETATM   26  C18 UNL     1      -3.288   1.695   2.670  1.00  0.00     0.051 A 
BRANCH  24  27
HETATM   27  O1  UNL     1      -0.392   0.900   4.675  1.00  0.00    -0.353 OA
HETATM   28  C1  UNL     1       0.998   1.145   4.750  1.00  0.00     0.210 C 
ENDBRANCH  24  27
BRANCH  25  29
HETATM   29  O2  UNL     1      -3.155   0.856   4.896  1.00  0.00    -0.353 OA
HETATM   30  C20 UNL     1      -4.497   0.445   4.881  1.00  0.00     0.210 C 
ENDBRANCH  25  29
ENDBRANCH  20  21
ENDBRANCH  16  19
BRANCH  17  31
HETATM   31  S2  UNL     1      -2.858   5.586  -2.343  1.00  0.00    -0.053 SA
BRANCH  31  32
HETATM   32  C17 UNL     1      -1.117   5.093  -2.297  1.00  0.00     0.421 C 
HETATM   33  F1  UNL     1      -0.782   4.828  -0.959  1.00  0.00    -0.202 F 
HETATM   34  F2  UNL     1      -0.805   4.037  -3.092  1.00  0.00    -0.202 F 
ENDBRANCH  31  32
ENDBRANCH  17  31
ENDBRANCH   1  14
TORSDOF 7
ENDMDL
MODEL 2
REMARK VINA RESULT: -6.963156640      0.876      1.042
REMARK  7 active torsions:
REMARK  status: ('A' for Active; 'I' for Inactive)
REMARK    1  A    between atoms: O1_2  and  C2_3 
REMARK    2  A    between atoms: C5_6  and  C6_7 
REMARK    3  A    between atoms: C7_8  and  C8_9 
REMARK    4  A    between atoms: C10_11  and  C11_12 
REMARK    5  A    between atoms: C16_26  and  S2_27 
REMARK    6  A    between atoms: S2_27  and  C17_28 
REMARK    7  A    between atoms: C19_32  and  O2_33 
ROOT
HETATM    1  C11 UNL     1      -6.716   1.812  -4.270  1.00  0.00     0.075 A 
HETATM    2  N1  UNL     1      -6.369   0.697  -4.963  1.00  0.00    -0.350 N 
ATOM      3  H1  UNL     1      -5.396   0.391  -4.922  1.00  0.00     0.166 HD
HETATM    4  C12 UNL     1      -7.226  -0.025  -5.697  1.00  0.00     0.182 A 
HETATM    5  N2  UNL     1      -8.502   0.368  -5.756  1.00  0.00    -0.338 N 
ATOM      6  H2  UNL     1      -9.178  -0.160  -6.307  1.00  0.00     0.168 HD
HETATM    7  C13 UNL     1      -8.883   1.460  -5.086  1.00  0.00     0.123 A 
HETATM    8  N3  UNL     1     -10.107   1.846  -5.138  1.00  0.00    -0.384 N 
ATOM      9  H31 UNL     1     -10.398   2.679  -4.627  1.00  0.00     0.157 HD
ATOM     10  H32 UNL     1     -10.756   1.294  -5.699  1.00  0.00     0.157 HD
HETATM   11  C14 UNL     1      -7.986   2.225  -4.310  1.00  0.00     0.116 A 
HETATM   12  C15 UNL     1      -8.526   3.339  -3.583  1.00  0.00     0.105 C 
HETATM   13  N4  UNL     1      -8.985   4.211  -2.986  1.00  0.00    -0.191 NA
ENDROOT
BRANCH   1  14
HETATM   14  C10 UNL     1      -5.651   2.460  -3.478  1.00  0.00     0.035 A 
HETATM   15  C9  UNL     1      -4.914   2.083  -2.423  1.00  0.00     0.034 A 
HETATM   16  C8  UNL     1      -3.923   2.936  -1.966  1.00  0.00    -0.011 A 
HETATM   17  C16 UNL     1      -3.792   4.103  -2.647  1.00  0.00     0.057 A 
HETATM   18  S1  UNL     1      -5.002   3.999  -3.867  1.00  0.00    -0.080 SA
BRANCH  16  19
HETATM   19  C7  UNL     1      -3.091   2.521  -0.790  1.00  0.00     0.014 C 
HETATM   20  C6  UNL     1      -3.517   2.541   0.410  1.00  0.00     0.012 C 
BRANCH  20  21
HETATM   21  C5  UNL     1      -2.673   2.124   1.538  1.00  0.00    -0.033 A 
HETATM   22  C4  UNL     1      -1.329   2.137   1.456  1.00  0.00     0.014 A 
HETATM   23  C3  UNL     1      -0.522   1.737   2.545  1.00  0.00     0.040 A 
HETATM   24  C2  UNL     1      -1.169   1.337   3.686  1.00  0.00     0.101 A 
HETATM   25  C19 UNL     1      -2.541   1.318   3.788  1.00  0.00     0.102 A 
HETATM   26  C18 UNL     1      -3.285   1.708   2.725  1.00  0.00     0.051 A 
BRANCH  24  27
HETATM   27  O1  UNL     1      -0.413   0.939   4.774  1.00  0.00    -0.353 OA
HETATM   28  C1  UNL     1       1.000   0.977   4.770  1.00  0.00     0.210 C 
ENDBRANCH  24  27
BRANCH  25  29
HETATM   29  O2  UNL     1      -3.178   0.906   4.966  1.00  0.00    -0.353 OA
HETATM   30  C20 UNL     1      -4.462   0.339   4.920  1.00  0.00     0.210 C 
ENDBRANCH  25  29
ENDBRANCH  20  21
ENDBRANCH  16  19
BRANCH  17  31
HETATM   31  S2  UNL     1      -2.700   5.532  -2.399  1.00  0.00    -0.053 SA
BRANCH  31  32
HETATM   32  C17 UNL     1      -2.767   6.070  -0.672  1.00  0.00     0.421 C 
HETATM   33  F1  UNL     1      -4.062   5.812  -0.193  1.00  0.00    -0.202 F 
HETATM   34  F2  UNL     1      -1.831   5.507   0.135  1.00  0.00    -0.202 F 
ENDBRANCH  31  32
ENDBRANCH  17  31
ENDBRANCH   1  14
TORSDOF 7
ENDMDL
MODEL 3
REMARK VINA RESULT: -6.854468582      0.943      1.863
REMARK  7 active torsions:
REMARK  status: ('A' for Active; 'I' for Inactive)
REMARK    1  A    between atoms: O1_2  and  C2_3 
REMARK    2  A    between atoms: C5_6  and  C6_7 
REMARK    3  A    between atoms: C7_8  and  C8_9 
REMARK    4  A    between atoms: C10_11  and  C11_12 
REMARK    5  A    between atoms: C16_26  and  S2_27 
REMARK    6  A    between atoms: S2_27  and  C17_28 
REMARK    7  A    between atoms: C19_32  and  O2_33 
ROOT
HETATM    1  C11 UNL     1      -6.735   1.760  -4.200  1.00  0.00     0.075 A 
HETATM    2  N1  UNL     1      -6.204   0.732  -4.911  1.00  0.00    -0.350 N 
ATOM      3  H1  UNL     1      -5.209   0.535  -4.798  1.00  0.00     0.166 HD
HETATM    4  C12 UNL     1      -6.907  -0.039  -5.751  1.00  0.00     0.182 A 
HETATM    5  N2  UNL     1      -8.211   0.212  -5.906  1.00  0.00    -0.338 N 
ATOM      6  H2  UNL     1      -8.773  -0.356  -6.539  1.00  0.00     0.168 HD
HETATM    7  C13 UNL     1      -8.771   1.215  -5.222  1.00  0.00     0.123 A 
HETATM    8  N3  UNL     1     -10.023   1.464  -5.364  1.00  0.00    -0.384 N 
ATOM      9  H31 UNL     1     -10.450   2.229  -4.842  1.00  0.00     0.157 HD
ATOM     10  H32 UNL     1     -10.554   0.876  -6.006  1.00  0.00     0.157 HD
HETATM   11  C14 UNL     1      -8.036   2.030  -4.334  1.00  0.00     0.116 A 
HETATM   12  C15 UNL     1      -8.760   3.033  -3.606  1.00  0.00     0.105 C 
HETATM   13  N4  UNL     1      -9.366   3.813  -3.012  1.00  0.00    -0.191 NA
ENDROOT
BRANCH   1  14
HETATM   14  C10 UNL     1      -5.822   2.476  -3.287  1.00  0.00     0.035 A 
HETATM   15  C9  UNL     1      -5.351   2.229  -2.056  1.00  0.00     0.034 A 
HETATM   16  C8  UNL     1      -4.426   3.103  -1.510  1.00  0.00    -0.011 A 
HETATM   17  C16 UNL     1      -4.077   4.155  -2.294  1.00  0.00     0.057 A 
HETATM   18  S1  UNL     1      -5.005   3.920  -3.725  1.00  0.00    -0.080 SA
BRANCH  16  19
HETATM   19  C7  UNL     1      -3.891   2.832  -0.136  1.00  0.00     0.014 C 
HETATM   20  C6  UNL     1      -2.754   2.298   0.079  1.00  0.00     0.012 C 
BRANCH  20  21
HETATM   21  C5  UNL     1      -2.262   2.050   1.441  1.00  0.00    -0.033 A 
HETATM   22  C4  UNL     1      -3.080   1.620   2.420  1.00  0.00     0.014 A 
HETATM   23  C3  UNL     1      -2.601   1.381   3.728  1.00  0.00     0.040 A 
HETATM   24  C2  UNL     1      -1.267   1.606   3.953  1.00  0.00     0.101 A 
HETATM   25  C19 UNL     1      -0.416   2.045   2.964  1.00  0.00     0.102 A 
HETATM   26  C18 UNL     1      -0.908   2.264   1.721  1.00  0.00     0.051 A 
BRANCH  24  27
HETATM   27  O1  UNL     1      -0.759   1.383   5.220  1.00  0.00    -0.353 OA
HETATM   28  C1  UNL     1      -0.894   2.324   6.266  1.00  0.00     0.210 C 
ENDBRANCH  24  27
BRANCH  25  29
HETATM   29  O2  UNL     1       0.944   2.267   3.220  1.00  0.00    -0.353 OA
HETATM   30  C20 UNL     1       1.405   3.549   3.556  1.00  0.00     0.210 C 
ENDBRANCH  25  29
ENDBRANCH  20  21
ENDBRANCH  16  19
BRANCH  17  31
HETATM   31  S2  UNL     1      -2.972   5.566  -2.005  1.00  0.00    -0.053 SA
BRANCH  31  32
HETATM   32  C17 UNL     1      -1.258   4.996  -1.890  1.00  0.00     0.421 C 
HETATM   33  F1  UNL     1      -0.881   5.039  -0.538  1.00  0.00    -0.202 F 
HETATM   34  F2  UNL     1      -1.033   3.764  -2.416  1.00  0.00    -0.202 F 
ENDBRANCH  31  32
ENDBRANCH  17  31
ENDBRANCH   1  14
TORSDOF 7
ENDMDL
MODEL 4
REMARK VINA RESULT: -6.596901888      0.886      1.987
REMARK  7 active torsions:
REMARK  status: ('A' for Active; 'I' for Inactive)
REMARK    1  A    between atoms: O1_2  and  C2_3 
REMARK    2  A    between atoms: C5_6  and  C6_7 
REMARK    3  A    between atoms: C7_8  and  C8_9 
REMARK    4  A    between atoms: C10_11  and  C11_12 
REMARK    5  A    between atoms: C16_26  and  S2_27 
REMARK    6  A    between atoms: S2_27  and  C17_28 
REMARK    7  A    between atoms: C19_32  and  O2_33 
ROOT
HETATM    1  C11 UNL     1      -7.675   3.110  -3.867  1.00  0.00     0.075 A 
HETATM    2  N1  UNL     1      -8.598   4.034  -3.496  1.00  0.00    -0.350 N 
ATOM      3  H1  UNL     1      -8.297   4.795  -2.887  1.00  0.00     0.166 HD
HETATM    4  C12 UNL     1      -9.882   4.005  -3.880  1.00  0.00     0.182 A 
HETATM    5  N2  UNL     1     -10.286   3.011  -4.677  1.00  0.00    -0.338 N 
ATOM      6  H2  UNL     1     -11.256   2.961  -4.986  1.00  0.00     0.168 HD
HETATM    7  C13 UNL     1      -9.405   2.083  -5.066  1.00  0.00     0.123 A 
HETATM    8  N3  UNL     1      -9.784   1.124  -5.832  1.00  0.00    -0.384 N 
ATOM      9  H31 UNL     1      -9.113   0.416  -6.128  1.00  0.00     0.157 HD
ATOM     10  H32 UNL     1     -10.762   1.105  -6.121  1.00  0.00     0.157 HD
HETATM   11  C14 UNL     1      -8.052   2.109  -4.666  1.00  0.00     0.116 A 
HETATM   12  C15 UNL     1      -7.186   1.096  -5.201  1.00  0.00     0.105 C 
HETATM   13  N4  UNL     1      -6.504   0.291  -5.664  1.00  0.00    -0.191 NA
ENDROOT
BRANCH   1  14
HETATM   14  C10 UNL     1      -6.295   3.322  -3.386  1.00  0.00     0.035 A 
HETATM   15  C9  UNL     1      -5.561   2.789  -2.398  1.00  0.00     0.034 A 
HETATM   16  C8  UNL     1      -4.237   3.178  -2.270  1.00  0.00    -0.011 A 
HETATM   17  C16 UNL     1      -3.801   4.087  -3.179  1.00  0.00     0.057 A 
HETATM   18  S1  UNL     1      -5.185   4.375  -4.162  1.00  0.00    -0.080 SA
BRANCH  16  19
HETATM   19  C7  UNL     1      -3.407   2.585  -1.172  1.00  0.00     0.014 C 
HETATM   20  C6  UNL     1      -3.507   2.937   0.049  1.00  0.00     0.012 C 
BRANCH  20  21
HETATM   21  C5  UNL     1      -2.678   2.330   1.098  1.00  0.00    -0.033 A 
HETATM   22  C4  UNL     1      -1.336   2.285   1.000  1.00  0.00     0.014 A 
HETATM   23  C3  UNL     1      -0.543   1.703   2.015  1.00  0.00     0.040 A 
HETATM   24  C2  UNL     1      -1.201   1.187   3.101  1.00  0.00     0.101 A 
HETATM   25  C19 UNL     1      -2.572   1.224   3.218  1.00  0.00     0.102 A 
HETATM   26  C18 UNL     1      -3.302   1.789   2.227  1.00  0.00     0.051 A 
BRANCH  24  27
HETATM   27  O1  UNL     1      -0.460   0.608   4.115  1.00  0.00    -0.353 OA
HETATM   28  C1  UNL     1       0.570   1.302   4.791  1.00  0.00     0.210 C 
ENDBRANCH  24  27
BRANCH  25  29
HETATM   29  O2  UNL     1      -3.221   0.689   4.340  1.00  0.00    -0.353 OA
HETATM   30  C20 UNL     1      -4.585   0.941   4.560  1.00  0.00     0.210 C 
ENDBRANCH  25  29
ENDBRANCH  20  21
ENDBRANCH  16  19
BRANCH  17  31
HETATM   31  S2  UNL     1      -2.203   4.925  -3.382  1.00  0.00    -0.053 SA
BRANCH  31  32
HETATM   32  C17 UNL     1      -1.707   5.698  -1.823  1.00  0.00     0.421 C 
HETATM   33  F1  UNL     1      -2.874   6.090  -1.148  1.00  0.00    -0.202 F 
HETATM   34  F2  UNL     1      -0.926   4.922  -1.027  1.00  0.00    -0.202 F 
ENDBRANCH  31  32
ENDBRANCH  17  31
ENDBRANCH   1  14
TORSDOF 7
ENDMDL
MODEL 5
REMARK VINA RESULT: -6.585366412      1.260      2.089
REMARK  7 active torsions:
REMARK  status: ('A' for Active; 'I' for Inactive)
REMARK    1  A    between atoms: O1_2  and  C2_3 
REMARK    2  A    between atoms: C5_6  and  C6_7 
REMARK    3  A    between atoms: C7_8  and  C8_9 
REMARK    4  A    between atoms: C10_11  and  C11_12 
REMARK    5  A    between atoms: C16_26  and  S2_27 
REMARK    6  A    between atoms: S2_27  and  C17_28 
REMARK    7  A    between atoms: C19_32  and  O2_33 
ROOT
HETATM    1  C11 UNL     1      -6.177   2.508  -3.841  1.00  0.00     0.075 A 
HETATM    2  N1  UNL     1      -7.089   3.394  -4.319  1.00  0.00    -0.350 N 
ATOM      3  H1  UNL     1      -7.004   4.370  -4.034  1.00  0.00     0.166 HD
HETATM    4  C12 UNL     1      -8.094   3.063  -5.142  1.00  0.00     0.182 A 
HETATM    5  N2  UNL     1      -8.213   1.787  -5.520  1.00  0.00    -0.338 N 
ATOM      6  H2  UNL     1      -8.968   1.504  -6.144  1.00  0.00     0.168 HD
HETATM    7  C13 UNL     1      -7.334   0.885  -5.072  1.00  0.00     0.123 A 
HETATM    8  N3  UNL     1      -7.440  -0.344  -5.430  1.00  0.00    -0.384 N 
ATOM      9  H31 UNL     1      -6.770  -1.032  -5.089  1.00  0.00     0.157 HD
ATOM     10  H32 UNL     1      -8.208  -0.592  -6.055  1.00  0.00     0.157 HD
HETATM   11  C14 UNL     1      -6.272   1.227  -4.207  1.00  0.00     0.116 A 
HETATM   12  C15 UNL     1      -5.353   0.185  -3.846  1.00  0.00     0.105 C 
HETATM   13  N4  UNL     1      -4.611  -0.660  -3.593  1.00  0.00    -0.191 NA
ENDROOT
BRANCH   1  14
HETATM   14  C10 UNL     1      -5.110   3.055  -2.980  1.00  0.00     0.035 A 
HETATM   15  C9  UNL     1      -4.674   2.773  -1.743  1.00  0.00     0.034 A 
HETATM   16  C8  UNL     1      -3.570   3.454  -1.256  1.00  0.00    -0.011 A 
HETATM   17  C16 UNL     1      -3.024   4.367  -2.100  1.00  0.00     0.057 A 
HETATM   18  S1  UNL     1      -4.015   4.267  -3.504  1.00  0.00    -0.080 SA
BRANCH  16  19
HETATM   19  C7  UNL     1      -3.073   3.142   0.123  1.00  0.00     0.014 C 
HETATM   20  C6  UNL     1      -2.191   2.255   0.365  1.00  0.00     0.012 C 
BRANCH  20  21
HETATM   21  C5  UNL     1      -1.726   1.979   1.730  1.00  0.00    -0.033 A 
HETATM   22  C4  UNL     1      -0.438   2.145   2.085  1.00  0.00     0.014 A 
HETATM   23  C3  UNL     1       0.003   1.880   3.401  1.00  0.00     0.040 A 
HETATM   24  C2  UNL     1      -0.939   1.447   4.299  1.00  0.00     0.101 A 
HETATM   25  C19 UNL     1      -2.260   1.272   3.954  1.00  0.00     0.102 A 
HETATM   26  C18 UNL     1      -2.649   1.535   2.684  1.00  0.00     0.051 A 
BRANCH  24  27
HETATM   27  O1  UNL     1      -0.546   1.178   5.597  1.00  0.00    -0.353 OA
HETATM   28  C1  UNL     1       0.332   2.023   6.313  1.00  0.00     0.210 C 
ENDBRANCH  24  27
BRANCH  25  29
HETATM   29  O2  UNL     1      -3.203   0.829   4.891  1.00  0.00    -0.353 OA
HETATM   30  C20 UNL     1      -4.577   0.935   4.622  1.00  0.00     0.210 C 
ENDBRANCH  25  29
ENDBRANCH  20  21
ENDBRANCH  16  19
BRANCH  17  31
HETATM   31  S2  UNL     1      -1.635   5.520  -1.900  1.00  0.00    -0.053 SA
BRANCH  31  32
HETATM   32  C17 UNL     1      -0.108   4.601  -1.587  1.00  0.00     0.421 C 
HETATM   33  F1  UNL     1       0.124   4.612  -0.202  1.00  0.00    -0.202 F 
HETATM   34  F2  UNL     1      -0.101   3.331  -2.068  1.00  0.00    -0.202 F 
ENDBRANCH  31  32
ENDBRANCH  17  31
ENDBRANCH   1  14
TORSDOF 7
ENDMDL
