MODEL 1
REMARK VINA RESULT: -6.723468856      0.000      0.000
REMARK  7 active torsions:
REMARK  status: ('A' for Active; 'I' for Inactive)
REMARK    1  A    between atoms: C5_6  and  C6_7 
REMARK    2  A    between atoms: C6_7  and  N1_8 
REMARK    3  A    between atoms: N1_8  and  C7_10 
REMARK    4  A    between atoms: C7_10  and  C8_11 
REMARK    5  A    between atoms: C8_11  and  C9_12 
REMARK    6  A    between atoms: C9_12  and  N2_13 
REMARK    7  A    between atoms: N3_18  and  C11_19 
ROOT
HETATM    1  C1  UNL     1     -17.305  -5.384  -1.406  1.00  0.00     0.057 C 
HETATM    2  C2  UNL     1     -16.133  -4.522  -1.037  1.00  0.00    -0.009 A 
HETATM    3  S1  UNL     1     -15.432  -4.415   0.493  1.00  0.00    -0.098 SA
HETATM    4  C3  UNL     1     -14.202  -3.276   0.145  1.00  0.00    -0.006 A 
HETATM    5  C4  UNL     1     -14.378  -3.006  -1.180  1.00  0.00    -0.004 A 
HETATM    6  C5  UNL     1     -15.393  -3.657  -1.822  1.00  0.00     0.001 A 
HETATM    7  C10 UNL     1     -13.415  -1.987  -1.788  1.00  0.00     0.313 C 
HETATM    8  N3  UNL     1     -12.869  -1.199  -0.721  1.00  0.00     0.097 N 
HETATM    9  C17 UNL     1     -12.112  -2.078   0.142  1.00  0.00     0.278 C 
HETATM   10  C18 UNL     1     -13.151  -2.707   1.043  1.00  0.00     0.077 C 
ENDROOT
BRANCH   6  11
HETATM   11  C6  UNL     1     -15.795  -3.616  -3.280  1.00  0.00     0.096 C 
BRANCH  11  12
HETATM   12  N1  UNL     1     -16.847  -2.771  -3.638  1.00  0.00    -0.398 N 
ATOM     13  H1  UNL     1     -17.800  -3.054  -3.868  1.00  0.00     0.158 HD
BRANCH  12  14
HETATM   14  C7  UNL     1     -16.321  -1.388  -3.623  1.00  0.00     0.120 C 
BRANCH  14  15
HETATM   15  C8  UNL     1     -17.049  -0.495  -4.562  1.00  0.00     0.047 C 
BRANCH  15  16
HETATM   16  C9  UNL     1     -16.974   0.922  -4.034  1.00  0.00     0.231 C 
BRANCH  16  17
HETATM   17  N2  UNL     1     -15.610   1.402  -3.900  1.00  0.00    -0.079 N 
ATOM     18  H23 UNL     1     -14.998   0.667  -3.546  1.00  0.00     0.274 HD
ATOM     19  H22 UNL     1     -15.183   1.547  -4.814  1.00  0.00     0.274 HD
ATOM     20  H21 UNL     1     -15.541   2.243  -3.326  1.00  0.00     0.274 HD
ENDBRANCH  16  17
ENDBRANCH  15  16
ENDBRANCH  14  15
ENDBRANCH  12  14
ENDBRANCH  11  12
ENDBRANCH   6  11
BRANCH   8  21
HETATM   21  C11 UNL     1     -12.062  -0.103  -1.100  1.00  0.00     0.223 C 
HETATM   22  C12 UNL     1     -10.687  -0.100  -0.477  1.00  0.00     0.036 C 
HETATM   23  C13 UNL     1      -9.918   1.108  -0.911  1.00  0.00     0.002 C 
HETATM   24  C14 UNL     1     -10.099   1.439  -2.376  1.00  0.00     0.000 C 
HETATM   25  C15 UNL     1     -10.513   0.177  -3.066  1.00  0.00     0.002 C 
HETATM   26  C16 UNL     1     -11.927  -0.148  -2.628  1.00  0.00     0.036 C 
ENDBRANCH   8  21
TORSDOF 7
ENDMDL
MODEL 2
REMARK VINA RESULT: -6.529733077      2.318      6.281
REMARK  7 active torsions:
REMARK  status: ('A' for Active; 'I' for Inactive)
REMARK    1  A    between atoms: C5_6  and  C6_7 
REMARK    2  A    between atoms: C6_7  and  N1_8 
REMARK    3  A    between atoms: N1_8  and  C7_10 
REMARK    4  A    between atoms: C7_10  and  C8_11 
REMARK    5  A    between atoms: C8_11  and  C9_12 
REMARK    6  A    between atoms: C9_12  and  N2_13 
REMARK    7  A    between atoms: N3_18  and  C11_19 
ROOT
HETATM    1  C1  UNL     1     -11.671  -0.701   0.761  1.00  0.00     0.057 C 
HETATM    2  C2  UNL     1     -12.679  -1.609   0.118  1.00  0.00    -0.009 A 
HETATM    3  S1  UNL     1     -13.316  -3.013   0.800  1.00  0.00    -0.098 SA
HETATM    4  C3  UNL     1     -14.354  -3.485  -0.477  1.00  0.00    -0.006 A 
HETATM    5  C4  UNL     1     -14.169  -2.515  -1.418  1.00  0.00    -0.004 A 
HETATM    6  C5  UNL     1     -13.289  -1.514  -1.120  1.00  0.00     0.001 A 
HETATM    7  C10 UNL     1     -14.969  -2.676  -2.710  1.00  0.00     0.313 C 
HETATM    8  N3  UNL     1     -15.354  -4.052  -2.827  1.00  0.00     0.097 N 
HETATM    9  C17 UNL     1     -16.222  -4.369  -1.714  1.00  0.00     0.278 C 
HETATM   10  C18 UNL     1     -15.276  -4.657  -0.569  1.00  0.00     0.077 C 
ENDROOT
BRANCH   6  11
HETATM   11  C6  UNL     1     -12.921  -0.283  -1.919  1.00  0.00     0.096 C 
BRANCH  11  12
HETATM   12  N1  UNL     1     -11.961  -0.425  -2.923  1.00  0.00    -0.398 N 
ATOM     13  H1  UNL     1     -12.056  -0.975  -3.778  1.00  0.00     0.158 HD
BRANCH  12  14
HETATM   14  C7  UNL     1     -10.781   0.369  -2.516  1.00  0.00     0.120 C 
BRANCH  14  15
HETATM   15  C8  UNL     1     -10.601   1.584  -3.352  1.00  0.00     0.047 C 
BRANCH  15  16
HETATM   16  C9  UNL     1      -9.472   2.407  -2.768  1.00  0.00     0.231 C 
BRANCH  16  17
HETATM   17  N2  UNL     1      -9.011   3.450  -3.667  1.00  0.00    -0.079 N 
ATOM     18  H23 UNL     1      -9.633   3.541  -4.470  1.00  0.00     0.274 HD
ATOM     19  H22 UNL     1      -9.140   4.372  -3.252  1.00  0.00     0.274 HD
ATOM     20  H21 UNL     1      -8.045   3.316  -3.966  1.00  0.00     0.274 HD
ENDBRANCH  16  17
ENDBRANCH  15  16
ENDBRANCH  14  15
ENDBRANCH  12  14
ENDBRANCH  11  12
ENDBRANCH   6  11
BRANCH   8  21
HETATM   21  C11 UNL     1     -15.983  -4.428  -4.034  1.00  0.00     0.223 C 
HETATM   22  C12 UNL     1     -17.026  -5.508  -3.882  1.00  0.00     0.036 C 
HETATM   23  C13 UNL     1     -17.614  -5.861  -5.212  1.00  0.00     0.002 C 
HETATM   24  C14 UNL     1     -17.878  -4.656  -6.088  1.00  0.00     0.000 C 
HETATM   25  C15 UNL     1     -18.009  -3.471  -5.182  1.00  0.00     0.002 C 
HETATM   26  C16 UNL     1     -16.638  -3.168  -4.614  1.00  0.00     0.036 C 
ENDBRANCH   8  21
TORSDOF 7
ENDMDL
MODEL 3
REMARK VINA RESULT: -6.298750359      2.672      5.503
REMARK  7 active torsions:
REMARK  status: ('A' for Active; 'I' for Inactive)
REMARK    1  A    between atoms: C5_6  and  C6_7 
REMARK    2  A    between atoms: C6_7  and  N1_8 
REMARK    3  A    between atoms: N1_8  and  C7_10 
REMARK    4  A    between atoms: C7_10  and  C8_11 
REMARK    5  A    between atoms: C8_11  and  C9_12 
REMARK    6  A    between atoms: C9_12  and  N2_13 
REMARK    7  A    between atoms: N3_18  and  C11_19 
ROOT
HETATM    1  C1  UNL     1     -15.331  -6.393   1.238  1.00  0.00     0.057 C 
HETATM    2  C2  UNL     1     -14.985  -5.170   0.439  1.00  0.00    -0.009 A 
HETATM    3  S1  UNL     1     -15.455  -4.868  -1.152  1.00  0.00    -0.098 SA
HETATM    4  C3  UNL     1     -14.707  -3.344  -1.368  1.00  0.00    -0.006 A 
HETATM    5  C4  UNL     1     -14.099  -3.110  -0.170  1.00  0.00    -0.004 A 
HETATM    6  C5  UNL     1     -14.237  -4.064   0.797  1.00  0.00     0.001 A 
HETATM    7  C10 UNL     1     -13.320  -1.800  -0.061  1.00  0.00     0.313 C 
HETATM    8  N3  UNL     1     -13.007  -1.356  -1.388  1.00  0.00     0.097 N 
HETATM    9  C17 UNL     1     -14.252  -1.086  -2.074  1.00  0.00     0.278 C 
HETATM   10  C18 UNL     1     -14.716  -2.441  -2.560  1.00  0.00     0.077 C 
ENDROOT
BRANCH   6  11
HETATM   11  C6  UNL     1     -13.740  -4.067   2.227  1.00  0.00     0.096 C 
BRANCH  11  12
HETATM   12  N1  UNL     1     -12.362  -4.152   2.433  1.00  0.00    -0.398 N 
ATOM     13  H1  UNL     1     -11.662  -3.469   2.142  1.00  0.00     0.158 HD
BRANCH  12  14
HETATM   14  C7  UNL     1     -12.105  -5.419   3.153  1.00  0.00     0.120 C 
BRANCH  14  15
HETATM   15  C8  UNL     1     -11.753  -5.197   4.580  1.00  0.00     0.047 C 
BRANCH  15  16
HETATM   16  C9  UNL     1     -10.325  -4.700   4.652  1.00  0.00     0.231 C 
BRANCH  16  17
HETATM   17  N2  UNL     1      -9.406  -5.512   3.874  1.00  0.00    -0.079 N 
ATOM     18  H23 UNL     1      -8.608  -5.803   4.439  1.00  0.00     0.274 HD
ATOM     19  H22 UNL     1      -9.808  -6.428   3.673  1.00  0.00     0.274 HD
ATOM     20  H21 UNL     1      -9.098  -5.052   3.017  1.00  0.00     0.274 HD
ENDBRANCH  16  17
ENDBRANCH  15  16
ENDBRANCH  14  15
ENDBRANCH  12  14
ENDBRANCH  11  12
ENDBRANCH   6  11
BRANCH   8  21
HETATM   21  C11 UNL     1     -12.161  -0.229  -1.490  1.00  0.00     0.223 C 
HETATM   22  C12 UNL     1     -10.956  -0.273  -0.583  1.00  0.00     0.036 C 
HETATM   23  C13 UNL     1     -10.137   0.970  -0.738  1.00  0.00     0.002 C 
HETATM   24  C14 UNL     1     -10.001   1.421  -2.176  1.00  0.00     0.000 C 
HETATM   25  C15 UNL     1     -10.228   0.220  -3.039  1.00  0.00     0.002 C 
HETATM   26  C16 UNL     1     -11.695  -0.145  -2.950  1.00  0.00     0.036 C 
ENDBRANCH   8  21
TORSDOF 7
ENDMDL
MODEL 4
REMARK VINA RESULT: -6.264435928      2.395      6.323
REMARK  7 active torsions:
REMARK  status: ('A' for Active; 'I' for Inactive)
REMARK    1  A    between atoms: C5_6  and  C6_7 
REMARK    2  A    between atoms: C6_7  and  N1_8 
REMARK    3  A    between atoms: N1_8  and  C7_10 
REMARK    4  A    between atoms: C7_10  and  C8_11 
REMARK    5  A    between atoms: C8_11  and  C9_12 
REMARK    6  A    between atoms: C9_12  and  N2_13 
REMARK    7  A    between atoms: N3_18  and  C11_19 
ROOT
HETATM    1  C1  UNL     1      -9.442   1.182  -0.456  1.00  0.00     0.057 C 
HETATM    2  C2  UNL     1     -10.637   0.281  -0.557  1.00  0.00    -0.009 A 
HETATM    3  S1  UNL     1     -11.402  -0.488   0.735  1.00  0.00    -0.098 SA
HETATM    4  C3  UNL     1     -12.629  -1.310  -0.131  1.00  0.00    -0.006 A 
HETATM    5  C4  UNL     1     -12.402  -0.955  -1.428  1.00  0.00    -0.004 A 
HETATM    6  C5  UNL     1     -11.355  -0.113  -1.671  1.00  0.00     0.001 A 
HETATM    7  C10 UNL     1     -13.351  -1.559  -2.462  1.00  0.00     0.313 C 
HETATM    8  N3  UNL     1     -13.949  -2.729  -1.888  1.00  0.00     0.097 N 
HETATM    9  C17 UNL     1     -14.731  -2.316  -0.744  1.00  0.00     0.278 C 
HETATM   10  C18 UNL     1     -13.722  -2.194   0.377  1.00  0.00     0.077 C 
ENDROOT
BRANCH   6  11
HETATM   11  C6  UNL     1     -10.893   0.501  -2.976  1.00  0.00     0.096 C 
BRANCH  11  12
HETATM   12  N1  UNL     1     -11.738   1.427  -3.590  1.00  0.00    -0.398 N 
ATOM     13  H1  UNL     1     -12.746   1.336  -3.718  1.00  0.00     0.158 HD
BRANCH  12  14
HETATM   14  C7  UNL     1     -10.898   2.566  -4.022  1.00  0.00     0.120 C 
BRANCH  14  15
HETATM   15  C8  UNL     1      -9.485   2.426  -3.583  1.00  0.00     0.047 C 
BRANCH  15  16
HETATM   16  C9  UNL     1      -9.023   3.752  -3.018  1.00  0.00     0.231 C 
BRANCH  16  17
HETATM   17  N2  UNL     1     -10.125   4.640  -2.691  1.00  0.00    -0.079 N 
ATOM     18  H23 UNL     1     -10.446   5.144  -3.518  1.00  0.00     0.274 HD
ATOM     19  H22 UNL     1     -10.971   4.110  -2.482  1.00  0.00     0.274 HD
ATOM     20  H21 UNL     1      -9.901   5.286  -1.934  1.00  0.00     0.274 HD
ENDBRANCH  16  17
ENDBRANCH  15  16
ENDBRANCH  14  15
ENDBRANCH  12  14
ENDBRANCH  11  12
ENDBRANCH   6  11
BRANCH   8  21
HETATM   21  C11 UNL     1     -14.752  -3.510  -2.748  1.00  0.00     0.223 C 
HETATM   22  C12 UNL     1     -15.425  -4.682  -2.076  1.00  0.00     0.036 C 
HETATM   23  C13 UNL     1     -16.227  -5.465  -3.067  1.00  0.00     0.002 C 
HETATM   24  C14 UNL     1     -16.992  -4.594  -4.040  1.00  0.00     0.000 C 
HETATM   25  C15 UNL     1     -17.175  -3.259  -3.388  1.00  0.00     0.002 C 
HETATM   26  C16 UNL     1     -15.822  -2.580  -3.336  1.00  0.00     0.036 C 
ENDBRANCH   8  21
TORSDOF 7
ENDMDL
MODEL 5
REMARK VINA RESULT: -6.250812070      1.384      2.027
REMARK  7 active torsions:
REMARK  status: ('A' for Active; 'I' for Inactive)
REMARK    1  A    between atoms: C5_6  and  C6_7 
REMARK    2  A    between atoms: C6_7  and  N1_8 
REMARK    3  A    between atoms: N1_8  and  C7_10 
REMARK    4  A    between atoms: C7_10  and  C8_11 
REMARK    5  A    between atoms: C8_11  and  C9_12 
REMARK    6  A    between atoms: C9_12  and  N2_13 
REMARK    7  A    between atoms: N3_18  and  C11_19 
ROOT
HETATM    1  C1  UNL     1     -17.266  -5.400  -1.289  1.00  0.00     0.057 C 
HETATM    2  C2  UNL     1     -16.094  -4.528  -0.944  1.00  0.00    -0.009 A 
HETATM    3  S1  UNL     1     -15.373  -4.403   0.575  1.00  0.00    -0.098 SA
HETATM    4  C3  UNL     1     -14.154  -3.260   0.200  1.00  0.00    -0.006 A 
HETATM    5  C4  UNL     1     -14.350  -3.003  -1.125  1.00  0.00    -0.004 A 
HETATM    6  C5  UNL     1     -15.369  -3.666  -1.747  1.00  0.00     0.001 A 
HETATM    7  C10 UNL     1     -13.401  -1.985  -1.756  1.00  0.00     0.313 C 
HETATM    8  N3  UNL     1     -12.845  -1.184  -0.704  1.00  0.00     0.097 N 
HETATM    9  C17 UNL     1     -12.071  -2.051   0.157  1.00  0.00     0.278 C 
HETATM   10  C18 UNL     1     -13.095  -2.677   1.078  1.00  0.00     0.077 C 
ENDROOT
BRANCH   6  11
HETATM   11  C6  UNL     1     -15.792  -3.641  -3.200  1.00  0.00     0.096 C 
BRANCH  11  12
HETATM   12  N1  UNL     1     -16.345  -2.458  -3.694  1.00  0.00    -0.398 N 
ATOM     13  H1  UNL     1     -16.099  -1.510  -3.409  1.00  0.00     0.158 HD
BRANCH  12  14
HETATM   14  C7  UNL     1     -17.355  -2.837  -4.706  1.00  0.00     0.120 C 
BRANCH  14  15
HETATM   15  C8  UNL     1     -16.977  -4.066  -5.450  1.00  0.00     0.047 C 
BRANCH  15  16
HETATM   16  C9  UNL     1     -17.949  -4.253  -6.597  1.00  0.00     0.231 C 
BRANCH  16  17
HETATM   17  N2  UNL     1     -18.359  -2.996  -7.197  1.00  0.00    -0.079 N 
ATOM     18  H23 UNL     1     -19.331  -2.783  -6.971  1.00  0.00     0.274 HD
ATOM     19  H22 UNL     1     -17.905  -2.206  -6.738  1.00  0.00     0.274 HD
ATOM     20  H21 UNL     1     -18.205  -2.970  -8.205  1.00  0.00     0.274 HD
ENDBRANCH  16  17
ENDBRANCH  15  16
ENDBRANCH  14  15
ENDBRANCH  12  14
ENDBRANCH  11  12
ENDBRANCH   6  11
BRANCH   8  21
HETATM   21  C11 UNL     1     -12.049  -0.087  -1.104  1.00  0.00     0.223 C 
HETATM   22  C12 UNL     1     -10.660  -0.080  -0.513  1.00  0.00     0.036 C 
HETATM   23  C13 UNL     1      -9.904   1.129  -0.967  1.00  0.00     0.002 C 
HETATM   24  C14 UNL     1     -10.119   1.456  -2.428  1.00  0.00     0.000 C 
HETATM   25  C15 UNL     1     -10.547   0.191  -3.105  1.00  0.00     0.002 C 
HETATM   26  C16 UNL     1     -11.949  -0.135  -2.634  1.00  0.00     0.036 C 
ENDBRANCH   8  21
TORSDOF 7
ENDMDL
