MODEL 1
REMARK VINA RESULT: -6.097899442      0.000      0.000
REMARK  9 active torsions:
REMARK  status: ('A' for Active; 'I' for Inactive)
REMARK    1  A    between atoms: C4_4  and  C5_5 
REMARK    2  A    between atoms: C10_10  and  C11_11 
REMARK    3  A    between atoms: C11_11  and  C13_13 
REMARK    4  A    between atoms: C13_13  and  O2_15 
REMARK    5  A    between atoms: O2_15  and  C14_16 
REMARK    6  A    between atoms: C14_16  and  C15_17 
REMARK    7  A    between atoms: C15_17  and  C17_19 
REMARK    8  A    between atoms: C17_19  and  O3_20 
REMARK    9  A    between atoms: C18_22  and  O4_24 
ROOT
HETATM    1  C5  UNL     1     -20.573   0.275  -4.475  1.00  0.00     0.046 C 
HETATM    2  C6  UNL     1     -20.756   0.656  -3.024  1.00  0.00    -0.008 C 
HETATM    3  C7  UNL     1     -21.043  -0.551  -2.150  1.00  0.00     0.011 C 
HETATM    4  C8  UNL     1     -19.686   1.529  -2.474  1.00  0.00     0.005 C 
HETATM    5  C9  UNL     1     -18.356   1.393  -3.174  1.00  0.00     0.009 C 
HETATM    6  C10 UNL     1     -18.225  -0.052  -3.678  1.00  0.00     0.033 C 
HETATM    7  C18 UNL     1     -19.182  -0.166  -4.826  1.00  0.00     0.066 C 
HETATM    8  C19 UNL     1     -18.652   0.537  -6.056  1.00  0.00     0.047 C 
ENDROOT
BRANCH   6   9
HETATM    9  C11 UNL     1     -16.794  -0.242  -4.052  1.00  0.00     0.088 C 
HETATM   10  C12 UNL     1     -15.920   0.898  -3.504  1.00  0.00     0.021 C 
BRANCH   9  11
HETATM   11  C13 UNL     1     -16.221  -1.510  -3.474  1.00  0.00     0.263 C 
HETATM   12  O1  UNL     1     -16.900  -2.554  -3.482  1.00  0.00    -0.265 OA
BRANCH  11  13
HETATM   13  O2  UNL     1     -14.980  -1.567  -2.938  1.00  0.00    -0.321 OA
BRANCH  13  14
HETATM   14  C14 UNL     1     -14.460  -2.141  -1.799  1.00  0.00     0.185 C 
BRANCH  14  15
HETATM   15  C15 UNL     1     -13.413  -1.455  -1.031  1.00  0.00     0.029 C 
HETATM   16  C16 UNL     1     -12.410  -0.764  -1.948  1.00  0.00     0.014 C 
BRANCH  15  17
HETATM   17  C17 UNL     1     -12.681  -2.126   0.050  1.00  0.00     0.170 C 
BRANCH  17  18
HETATM   18  O3  UNL     1     -11.450  -1.553   0.389  1.00  0.00    -0.400 OA
ATOM     19  H3  UNL     1     -10.920  -2.054   0.998  1.00  0.00     0.209 HD
ENDBRANCH  17  18
ENDBRANCH  15  17
ENDBRANCH  14  15
ENDBRANCH  13  14
ENDBRANCH  11  13
ENDBRANCH   9  11
ENDBRANCH   6   9
BRANCH   7  20
HETATM   20  O4  UNL     1     -19.250  -1.536  -5.176  1.00  0.00    -0.389 OA
ATOM     21  H4  UNL     1     -18.395  -1.914  -5.008  1.00  0.00     0.210 HD
ENDBRANCH   7  20
BRANCH   1  22
HETATM   22  C4  UNL     1     -21.060   1.428  -5.280  1.00  0.00    -0.017 C 
HETATM   23  C2  UNL     1     -22.175   1.386  -5.997  1.00  0.00    -0.091 C 
HETATM   24  C1  UNL     1     -22.665   2.511  -6.793  1.00  0.00     0.042 C 
HETATM   25  C3  UNL     1     -22.961   0.116  -5.980  1.00  0.00     0.042 C 
ENDBRANCH   1  22
TORSDOF 9
ENDMDL
MODEL 2
REMARK VINA RESULT: -5.658544096      1.210      1.610
REMARK  9 active torsions:
REMARK  status: ('A' for Active; 'I' for Inactive)
REMARK    1  A    between atoms: C4_4  and  C5_5 
REMARK    2  A    between atoms: C10_10  and  C11_11 
REMARK    3  A    between atoms: C11_11  and  C13_13 
REMARK    4  A    between atoms: C13_13  and  O2_15 
REMARK    5  A    between atoms: O2_15  and  C14_16 
REMARK    6  A    between atoms: C14_16  and  C15_17 
REMARK    7  A    between atoms: C15_17  and  C17_19 
REMARK    8  A    between atoms: C17_19  and  O3_20 
REMARK    9  A    between atoms: C18_22  and  O4_24 
ROOT
HETATM    1  C5  UNL     1     -20.635   0.101  -4.441  1.00  0.00     0.046 C 
HETATM    2  C6  UNL     1     -20.814   0.505  -2.996  1.00  0.00    -0.008 C 
HETATM    3  C7  UNL     1     -21.027  -0.695  -2.092  1.00  0.00     0.011 C 
HETATM    4  C8  UNL     1     -19.779   1.440  -2.483  1.00  0.00     0.005 C 
HETATM    5  C9  UNL     1     -18.455   1.354  -3.201  1.00  0.00     0.009 C 
HETATM    6  C10 UNL     1     -18.262  -0.094  -3.676  1.00  0.00     0.033 C 
HETATM    7  C18 UNL     1     -19.229  -0.280  -4.806  1.00  0.00     0.066 C 
HETATM    8  C19 UNL     1     -18.753   0.421  -6.059  1.00  0.00     0.047 C 
ENDROOT
BRANCH   6   9
HETATM    9  C11 UNL     1     -16.829  -0.222  -4.069  1.00  0.00     0.088 C 
HETATM   10  C12 UNL     1     -16.002   0.966  -3.552  1.00  0.00     0.021 C 
BRANCH   9  11
HETATM   11  C13 UNL     1     -16.188  -1.453  -3.482  1.00  0.00     0.263 C 
HETATM   12  O1  UNL     1     -16.737  -2.562  -3.622  1.00  0.00    -0.265 OA
BRANCH  11  13
HETATM   13  O2  UNL     1     -15.023  -1.407  -2.796  1.00  0.00    -0.321 OA
BRANCH  13  14
HETATM   14  C14 UNL     1     -14.267  -2.351  -2.138  1.00  0.00     0.185 C 
BRANCH  14  15
HETATM   15  C15 UNL     1     -14.667  -2.829  -0.807  1.00  0.00     0.029 C 
HETATM   16  C16 UNL     1     -13.606  -2.513   0.241  1.00  0.00     0.014 C 
BRANCH  15  17
HETATM   17  C17 UNL     1     -15.154  -4.197  -0.590  1.00  0.00     0.170 C 
BRANCH  17  18
HETATM   18  O3  UNL     1     -16.173  -4.615  -1.453  1.00  0.00    -0.400 OA
ATOM     19  H3  UNL     1     -15.951  -5.340  -2.026  1.00  0.00     0.209 HD
ENDBRANCH  17  18
ENDBRANCH  15  17
ENDBRANCH  14  15
ENDBRANCH  13  14
ENDBRANCH  11  13
ENDBRANCH   9  11
ENDBRANCH   6   9
BRANCH   7  20
HETATM   20  O4  UNL     1     -19.235  -1.659  -5.125  1.00  0.00    -0.389 OA
ATOM     21  H4  UNL     1     -18.931  -1.743  -6.020  1.00  0.00     0.210 HD
ENDBRANCH   7  20
BRANCH   1  22
HETATM   22  C4  UNL     1     -21.190   1.211  -5.263  1.00  0.00    -0.017 C 
HETATM   23  C2  UNL     1     -22.307   1.096  -5.968  1.00  0.00    -0.091 C 
HETATM   24  C1  UNL     1     -22.863   2.177  -6.780  1.00  0.00     0.042 C 
HETATM   25  C3  UNL     1     -23.022  -0.215  -5.921  1.00  0.00     0.042 C 
ENDBRANCH   1  22
TORSDOF 9
ENDMDL
MODEL 3
REMARK VINA RESULT: -5.594536654      4.385      9.542
REMARK  9 active torsions:
REMARK  status: ('A' for Active; 'I' for Inactive)
REMARK    1  A    between atoms: C4_4  and  C5_5 
REMARK    2  A    between atoms: C10_10  and  C11_11 
REMARK    3  A    between atoms: C11_11  and  C13_13 
REMARK    4  A    between atoms: C13_13  and  O2_15 
REMARK    5  A    between atoms: O2_15  and  C14_16 
REMARK    6  A    between atoms: C14_16  and  C15_17 
REMARK    7  A    between atoms: C15_17  and  C17_19 
REMARK    8  A    between atoms: C17_19  and  O3_20 
REMARK    9  A    between atoms: C18_22  and  O4_24 
ROOT
HETATM    1  C5  UNL     1     -13.027  -4.910   2.048  1.00  0.00     0.046 C 
HETATM    2  C6  UNL     1     -13.368  -3.471   1.737  1.00  0.00    -0.008 C 
HETATM    3  C7  UNL     1     -12.470  -2.895   0.657  1.00  0.00     0.011 C 
HETATM    4  C8  UNL     1     -14.811  -3.217   1.488  1.00  0.00     0.005 C 
HETATM    5  C9  UNL     1     -15.573  -4.417   0.982  1.00  0.00     0.009 C 
HETATM    6  C10 UNL     1     -14.612  -5.278   0.148  1.00  0.00     0.033 C 
HETATM    7  C18 UNL     1     -13.677  -5.910   1.135  1.00  0.00     0.066 C 
HETATM    8  C19 UNL     1     -14.355  -7.026   1.898  1.00  0.00     0.047 C 
ENDROOT
BRANCH   6   9
HETATM    9  C11 UNL     1     -15.457  -6.250  -0.603  1.00  0.00     0.088 C 
HETATM   10  C12 UNL     1     -16.935  -5.827  -0.590  1.00  0.00     0.021 C 
BRANCH   9  11
HETATM   11  C13 UNL     1     -15.069  -6.333  -2.057  1.00  0.00     0.263 C 
HETATM   12  O1  UNL     1     -14.105  -7.043  -2.399  1.00  0.00    -0.265 OA
BRANCH  11  13
HETATM   13  O2  UNL     1     -15.733  -5.658  -3.024  1.00  0.00    -0.321 OA
BRANCH  13  14
HETATM   14  C14 UNL     1     -15.537  -4.444  -3.645  1.00  0.00     0.185 C 
BRANCH  14  15
HETATM   15  C15 UNL     1     -15.781  -3.190  -2.920  1.00  0.00     0.029 C 
HETATM   16  C16 UNL     1     -16.575  -2.202  -3.767  1.00  0.00     0.014 C 
BRANCH  15  17
HETATM   17  C17 UNL     1     -14.700  -2.467  -2.239  1.00  0.00     0.170 C 
BRANCH  17  18
HETATM   18  O3  UNL     1     -14.408  -1.199  -2.754  1.00  0.00    -0.400 OA
ATOM     19  H3  UNL     1     -14.365  -0.498  -2.114  1.00  0.00     0.209 HD
ENDBRANCH  17  18
ENDBRANCH  15  17
ENDBRANCH  14  15
ENDBRANCH  13  14
ENDBRANCH  11  13
ENDBRANCH   9  11
ENDBRANCH   6   9
BRANCH   7  20
HETATM   20  O4  UNL     1     -12.647  -6.534   0.392  1.00  0.00    -0.389 OA
ATOM     21  H4  UNL     1     -12.231  -7.168   0.963  1.00  0.00     0.210 HD
ENDBRANCH   7  20
BRANCH   1  22
HETATM   22  C4  UNL     1     -13.342  -5.118   3.488  1.00  0.00    -0.017 C 
HETATM   23  C2  UNL     1     -12.408  -5.330   4.406  1.00  0.00    -0.091 C 
HETATM   24  C1  UNL     1     -12.702  -5.536   5.823  1.00  0.00     0.042 C 
HETATM   25  C3  UNL     1     -10.986  -5.358   3.951  1.00  0.00     0.042 C 
ENDBRANCH   1  22
TORSDOF 9
ENDMDL
MODEL 4
REMARK VINA RESULT: -5.396280480      1.902      3.264
REMARK  9 active torsions:
REMARK  status: ('A' for Active; 'I' for Inactive)
REMARK    1  A    between atoms: C4_4  and  C5_5 
REMARK    2  A    between atoms: C10_10  and  C11_11 
REMARK    3  A    between atoms: C11_11  and  C13_13 
REMARK    4  A    between atoms: C13_13  and  O2_15 
REMARK    5  A    between atoms: O2_15  and  C14_16 
REMARK    6  A    between atoms: C14_16  and  C15_17 
REMARK    7  A    between atoms: C15_17  and  C17_19 
REMARK    8  A    between atoms: C17_19  and  O3_20 
REMARK    9  A    between atoms: C18_22  and  O4_24 
ROOT
HETATM    1  C5  UNL     1     -20.452  -0.060  -4.720  1.00  0.00     0.046 C 
HETATM    2  C6  UNL     1     -20.758   0.340  -3.294  1.00  0.00    -0.008 C 
HETATM    3  C7  UNL     1     -20.985  -0.866  -2.402  1.00  0.00     0.011 C 
HETATM    4  C8  UNL     1     -19.809   1.323  -2.710  1.00  0.00     0.005 C 
HETATM    5  C9  UNL     1     -18.432   1.296  -3.325  1.00  0.00     0.009 C 
HETATM    6  C10 UNL     1     -18.137  -0.142  -3.775  1.00  0.00     0.033 C 
HETATM    7  C18 UNL     1     -19.006  -0.376  -4.974  1.00  0.00     0.066 C 
HETATM    8  C19 UNL     1     -18.468   0.342  -6.191  1.00  0.00     0.047 C 
ENDROOT
BRANCH   6   9
HETATM    9  C11 UNL     1     -16.674  -0.206  -4.058  1.00  0.00     0.088 C 
HETATM   10  C12 UNL     1     -15.946   1.029  -3.502  1.00  0.00     0.021 C 
BRANCH   9  11
HETATM   11  C13 UNL     1     -16.021  -1.395  -3.402  1.00  0.00     0.263 C 
HETATM   12  O1  UNL     1     -14.929  -1.256  -2.820  1.00  0.00    -0.265 OA
BRANCH  11  13
HETATM   13  O2  UNL     1     -16.578  -2.628  -3.417  1.00  0.00    -0.321 OA
BRANCH  13  14
HETATM   14  C14 UNL     1     -16.084  -3.894  -3.644  1.00  0.00     0.185 C 
BRANCH  14  15
HETATM   15  C15 UNL     1     -16.867  -4.873  -4.409  1.00  0.00     0.029 C 
HETATM   16  C16 UNL     1     -16.818  -4.579  -5.905  1.00  0.00     0.014 C 
BRANCH  15  17
HETATM   17  C17 UNL     1     -18.246  -5.219  -4.040  1.00  0.00     0.170 C 
BRANCH  17  18
HETATM   18  O3  UNL     1     -19.050  -4.144  -3.645  1.00  0.00    -0.400 OA
ATOM     19  H3  UNL     1     -19.728  -3.893  -4.262  1.00  0.00     0.209 HD
ENDBRANCH  17  18
ENDBRANCH  15  17
ENDBRANCH  14  15
ENDBRANCH  13  14
ENDBRANCH  11  13
ENDBRANCH   9  11
ENDBRANCH   6   9
BRANCH   7  20
HETATM   20  O4  UNL     1     -18.925  -1.755  -5.284  1.00  0.00    -0.389 OA
ATOM     21  H4  UNL     1     -19.172  -2.235  -4.503  1.00  0.00     0.210 HD
ENDBRANCH   7  20
BRANCH   1  22
HETATM   22  C4  UNL     1     -20.992   1.022  -5.588  1.00  0.00    -0.017 C 
HETATM   23  C2  UNL     1     -22.007   0.836  -6.421  1.00  0.00    -0.091 C 
HETATM   24  C1  UNL     1     -22.549   1.888  -7.280  1.00  0.00     0.042 C 
HETATM   25  C3  UNL     1     -22.619  -0.526  -6.473  1.00  0.00     0.042 C 
ENDBRANCH   1  22
TORSDOF 9
ENDMDL
MODEL 5
REMARK VINA RESULT: -5.370627347      2.194      4.011
REMARK  9 active torsions:
REMARK  status: ('A' for Active; 'I' for Inactive)
REMARK    1  A    between atoms: C4_4  and  C5_5 
REMARK    2  A    between atoms: C10_10  and  C11_11 
REMARK    3  A    between atoms: C11_11  and  C13_13 
REMARK    4  A    between atoms: C13_13  and  O2_15 
REMARK    5  A    between atoms: O2_15  and  C14_16 
REMARK    6  A    between atoms: C14_16  and  C15_17 
REMARK    7  A    between atoms: C15_17  and  C17_19 
REMARK    8  A    between atoms: C17_19  and  O3_20 
REMARK    9  A    between atoms: C18_22  and  O4_24 
ROOT
HETATM    1  C5  UNL     1     -20.793   0.449  -4.419  1.00  0.00     0.046 C 
HETATM    2  C6  UNL     1     -20.850   0.754  -2.940  1.00  0.00    -0.008 C 
HETATM    3  C7  UNL     1     -21.237  -0.465  -2.122  1.00  0.00     0.011 C 
HETATM    4  C8  UNL     1     -19.653   1.454  -2.406  1.00  0.00     0.005 C 
HETATM    5  C9  UNL     1     -18.388   1.207  -3.191  1.00  0.00     0.009 C 
HETATM    6  C10 UNL     1     -18.464  -0.207  -3.785  1.00  0.00     0.033 C 
HETATM    7  C18 UNL     1     -19.486  -0.132  -4.879  1.00  0.00     0.066 C 
HETATM    8  C19 UNL     1     -18.939   0.582  -6.095  1.00  0.00     0.047 C 
ENDROOT
BRANCH   6   9
HETATM    9  C11 UNL     1     -17.089  -0.543  -4.256  1.00  0.00     0.088 C 
HETATM   10  C12 UNL     1     -16.035   0.335  -3.561  1.00  0.00     0.021 C 
BRANCH   9  11
HETATM   11  C13 UNL     1     -16.711  -1.966  -3.934  1.00  0.00     0.263 C 
HETATM   12  O1  UNL     1     -15.780  -2.193  -3.139  1.00  0.00    -0.265 OA
BRANCH  11  13
HETATM   13  O2  UNL     1     -17.349  -3.026  -4.482  1.00  0.00    -0.321 OA
BRANCH  13  14
HETATM   14  C14 UNL     1     -16.940  -4.081  -5.268  1.00  0.00     0.185 C 
BRANCH  14  15
HETATM   15  C15 UNL     1     -17.907  -4.800  -6.109  1.00  0.00     0.029 C 
HETATM   16  C16 UNL     1     -17.355  -6.144  -6.568  1.00  0.00     0.014 C 
BRANCH  15  17
HETATM   17  C17 UNL     1     -18.578  -4.152  -7.243  1.00  0.00     0.170 C 
BRANCH  17  18
HETATM   18  O3  UNL     1     -18.350  -2.777  -7.369  1.00  0.00    -0.400 OA
ATOM     19  H3  UNL     1     -19.127  -2.244  -7.491  1.00  0.00     0.209 HD
ENDBRANCH  17  18
ENDBRANCH  15  17
ENDBRANCH  14  15
ENDBRANCH  13  14
ENDBRANCH  11  13
ENDBRANCH   9  11
ENDBRANCH   6   9
BRANCH   7  20
HETATM   20  O4  UNL     1     -19.741  -1.458  -5.303  1.00  0.00    -0.389 OA
ATOM     21  H4  UNL     1     -18.916  -1.927  -5.274  1.00  0.00     0.210 HD
ENDBRANCH   7  20
BRANCH   1  22
HETATM   22  C4  UNL     1     -21.175   1.702  -5.125  1.00  0.00    -0.017 C 
HETATM   23  C2  UNL     1     -22.327   1.844  -5.767  1.00  0.00    -0.091 C 
HETATM   24  C1  UNL     1     -22.716   3.068  -6.465  1.00  0.00     0.042 C 
HETATM   25  C3  UNL     1     -23.265   0.682  -5.768  1.00  0.00     0.042 C 
ENDBRANCH   1  22
TORSDOF 9
ENDMDL
