MODEL 1
REMARK VINA RESULT: -5.327114029      0.000      0.000
REMARK  9 active torsions:
REMARK  status: ('A' for Active; 'I' for Inactive)
REMARK    1  A    between atoms: C2_2  and  C4_4 
REMARK    2  A    between atoms: C4_4  and  C5_5 
REMARK    3  A    between atoms: C5_5  and  C6_6 
REMARK    4  A    between atoms: C6_6  and  C7_7 
REMARK    5  A    between atoms: C7_7  and  C8_8 
REMARK    6  A    between atoms: C8_8  and  C9_9 
REMARK    7  A    between atoms: C15_17  and  C16_18 
REMARK    8  A    between atoms: C17_19  and  C18_20 
REMARK    9  A    between atoms: C18_20  and  O3_23 
ROOT
HETATM    1  C6  UNL     1     -16.662  -4.076  -3.096  1.00  0.00     0.087 C 
HETATM    2  O1  UNL     1     -17.016  -5.169  -3.965  1.00  0.00    -0.308 OA
HETATM    3  C12 UNL     1     -16.598  -4.774  -5.225  1.00  0.00     0.264 C 
HETATM    4  O2  UNL     1     -16.021  -5.475  -6.127  1.00  0.00    -0.265 OA
HETATM    5  C13 UNL     1     -16.948  -3.355  -5.343  1.00  0.00     0.092 C 
HETATM    6  C14 UNL     1     -18.258  -3.259  -6.099  1.00  0.00     0.021 C 
HETATM    7  C15 UNL     1     -17.135  -2.886  -3.877  1.00  0.00     0.057 C 
ENDROOT
BRANCH   1   8
HETATM    8  C5  UNL     1     -15.146  -4.157  -2.968  1.00  0.00     0.119 C 
BRANCH   8   9
HETATM    9  C4  UNL     1     -14.725  -3.462  -1.809  1.00  0.00    -0.176 C 
BRANCH   9  10
HETATM   10  C2  UNL     1     -14.347  -2.837  -0.771  1.00  0.00     0.044 C 
HETATM   11  C1  UNL     1     -14.671  -3.134   0.639  1.00  0.00     0.022 C 
HETATM   12  C3  UNL     1     -13.433  -1.598  -0.899  1.00  0.00     0.022 C 
ENDBRANCH   9  10
ENDBRANCH   8   9
ENDBRANCH   1   8
BRANCH   1  13
HETATM   13  C7  UNL     1     -17.373  -4.351  -1.813  1.00  0.00     0.041 C 
BRANCH  13  14
HETATM   14  C8  UNL     1     -17.486  -5.787  -1.453  1.00  0.00     0.007 C 
BRANCH  14  15
HETATM   15  C9  UNL     1     -16.814  -6.113  -0.134  1.00  0.00    -0.014 A 
HETATM   16  C10 UNL     1     -16.605  -7.634   0.133  1.00  0.00     0.005 A 
HETATM   17  C11 UNL     1     -15.465  -6.751  -0.234  1.00  0.00     0.005 A 
ENDBRANCH  14  15
ENDBRANCH  13  14
ENDBRANCH   1  13
BRANCH   7  18
HETATM   18  C16 UNL     1     -16.349  -1.680  -3.647  1.00  0.00    -0.019 C 
HETATM   19  C17 UNL     1     -16.745  -0.453  -3.730  1.00  0.00     0.006 C 
BRANCH  19  20
HETATM   20  C18 UNL     1     -17.980   0.232  -4.046  1.00  0.00     0.068 C 
HETATM   21  C19 UNL     1     -19.286  -0.330  -3.660  1.00  0.00     0.050 C 
HETATM   22  C20 UNL     1     -18.011   0.361  -5.591  1.00  0.00     0.050 C 
BRANCH  20  23
HETATM   23  O3  UNL     1     -17.936   1.570  -3.533  1.00  0.00    -0.387 OA
ATOM     24  H3  UNL     1     -18.809   1.946  -3.544  1.00  0.00     0.211 HD
ENDBRANCH  20  23
ENDBRANCH  19  20
ENDBRANCH   7  18
TORSDOF 9
ENDMDL
MODEL 2
REMARK VINA RESULT: -5.208176294      2.736      6.847
REMARK  9 active torsions:
REMARK  status: ('A' for Active; 'I' for Inactive)
REMARK    1  A    between atoms: C2_2  and  C4_4 
REMARK    2  A    between atoms: C4_4  and  C5_5 
REMARK    3  A    between atoms: C5_5  and  C6_6 
REMARK    4  A    between atoms: C6_6  and  C7_7 
REMARK    5  A    between atoms: C7_7  and  C8_8 
REMARK    6  A    between atoms: C8_8  and  C9_9 
REMARK    7  A    between atoms: C15_17  and  C16_18 
REMARK    8  A    between atoms: C17_19  and  C18_20 
REMARK    9  A    between atoms: C18_20  and  O3_23 
ROOT
HETATM    1  C6  UNL     1     -15.377  -4.800  -0.454  1.00  0.00     0.087 C 
HETATM    2  O1  UNL     1     -16.792  -5.006  -0.635  1.00  0.00    -0.308 OA
HETATM    3  C12 UNL     1     -17.259  -5.395   0.610  1.00  0.00     0.264 C 
HETATM    4  O2  UNL     1     -18.338  -5.040   1.200  1.00  0.00    -0.265 OA
HETATM    5  C13 UNL     1     -16.257  -6.319   1.149  1.00  0.00     0.092 C 
HETATM    6  C14 UNL     1     -16.736  -7.732   0.885  1.00  0.00     0.021 C 
HETATM    7  C15 UNL     1     -14.979  -6.019   0.325  1.00  0.00     0.057 C 
ENDROOT
BRANCH   1   8
HETATM    8  C5  UNL     1     -15.272  -3.507   0.343  1.00  0.00     0.119 C 
BRANCH   8   9
HETATM    9  C4  UNL     1     -14.280  -2.672  -0.225  1.00  0.00    -0.176 C 
BRANCH   9  10
HETATM   10  C2  UNL     1     -13.390  -1.924  -0.733  1.00  0.00     0.044 C 
HETATM   11  C1  UNL     1     -13.419  -1.228  -2.035  1.00  0.00     0.022 C 
HETATM   12  C3  UNL     1     -12.076  -1.651   0.032  1.00  0.00     0.022 C 
ENDBRANCH   9  10
ENDBRANCH   8   9
ENDBRANCH   1   8
BRANCH   1  13
HETATM   13  C7  UNL     1     -14.820  -4.685  -1.833  1.00  0.00     0.041 C 
BRANCH  13  14
HETATM   14  C8  UNL     1     -15.716  -5.164  -2.915  1.00  0.00     0.007 C 
BRANCH  14  15
HETATM   15  C9  UNL     1     -15.980  -4.106  -3.967  1.00  0.00    -0.014 A 
HETATM   16  C10 UNL     1     -17.458  -3.621  -4.049  1.00  0.00     0.005 A 
HETATM   17  C11 UNL     1     -16.397  -2.767  -3.450  1.00  0.00     0.005 A 
ENDBRANCH  14  15
ENDBRANCH  13  14
ENDBRANCH   1  13
BRANCH   7  18
HETATM   18  C16 UNL     1     -13.856  -5.798   1.229  1.00  0.00    -0.019 C 
HETATM   19  C17 UNL     1     -12.814  -6.545   1.387  1.00  0.00     0.006 C 
BRANCH  19  20
HETATM   20  C18 UNL     1     -12.317  -7.785   0.832  1.00  0.00     0.068 C 
HETATM   21  C19 UNL     1     -13.219  -8.735   0.156  1.00  0.00     0.050 C 
HETATM   22  C20 UNL     1     -11.693  -8.563   2.020  1.00  0.00     0.050 C 
BRANCH  20  23
HETATM   23  O3  UNL     1     -11.244  -7.513  -0.077  1.00  0.00    -0.387 OA
ATOM     24  H3  UNL     1     -10.439  -7.373   0.408  1.00  0.00     0.211 HD
ENDBRANCH  20  23
ENDBRANCH  19  20
ENDBRANCH   7  18
TORSDOF 9
ENDMDL
MODEL 3
REMARK VINA RESULT: -5.170848748      3.566      6.656
REMARK  9 active torsions:
REMARK  status: ('A' for Active; 'I' for Inactive)
REMARK    1  A    between atoms: C2_2  and  C4_4 
REMARK    2  A    between atoms: C4_4  and  C5_5 
REMARK    3  A    between atoms: C5_5  and  C6_6 
REMARK    4  A    between atoms: C6_6  and  C7_7 
REMARK    5  A    between atoms: C7_7  and  C8_8 
REMARK    6  A    between atoms: C8_8  and  C9_9 
REMARK    7  A    between atoms: C15_17  and  C16_18 
REMARK    8  A    between atoms: C17_19  and  C18_20 
REMARK    9  A    between atoms: C18_20  and  O3_23 
ROOT
HETATM    1  C6  UNL     1     -13.781  -4.963   1.566  1.00  0.00     0.087 C 
HETATM    2  O1  UNL     1     -14.559  -4.855   2.774  1.00  0.00    -0.308 OA
HETATM    3  C12 UNL     1     -15.440  -5.922   2.731  1.00  0.00     0.264 C 
HETATM    4  O2  UNL     1     -15.798  -6.697   3.684  1.00  0.00    -0.265 OA
HETATM    5  C13 UNL     1     -15.906  -6.007   1.343  1.00  0.00     0.092 C 
HETATM    6  C14 UNL     1     -17.248  -5.310   1.258  1.00  0.00     0.021 C 
HETATM    7  C15 UNL     1     -14.839  -5.225   0.535  1.00  0.00     0.057 C 
ENDROOT
BRANCH   1   8
HETATM    8  C5  UNL     1     -12.857  -6.150   1.805  1.00  0.00     0.119 C 
BRANCH   8   9
HETATM    9  C4  UNL     1     -11.997  -5.877   2.895  1.00  0.00    -0.176 C 
BRANCH   9  10
HETATM   10  C2  UNL     1     -11.227  -5.633   3.874  1.00  0.00     0.044 C 
HETATM   11  C1  UNL     1      -9.769  -5.852   3.963  1.00  0.00     0.022 C 
HETATM   12  C3  UNL     1     -11.795  -5.032   5.179  1.00  0.00     0.022 C 
ENDBRANCH   9  10
ENDBRANCH   8   9
ENDBRANCH   1   8
BRANCH   1  13
HETATM   13  C7  UNL     1     -13.052  -3.666   1.453  1.00  0.00     0.041 C 
BRANCH  13  14
HETATM   14  C8  UNL     1     -13.690  -2.663   0.563  1.00  0.00     0.007 C 
BRANCH  14  15
HETATM   15  C9  UNL     1     -12.722  -2.074  -0.442  1.00  0.00    -0.014 A 
HETATM   16  C10 UNL     1     -13.278  -0.865  -1.253  1.00  0.00     0.005 A 
HETATM   17  C11 UNL     1     -12.277  -0.672  -0.169  1.00  0.00     0.005 A 
ENDBRANCH  14  15
ENDBRANCH  13  14
ENDBRANCH   1  13
BRANCH   7  18
HETATM   18  C16 UNL     1     -14.380  -6.039  -0.585  1.00  0.00    -0.019 C 
HETATM   19  C17 UNL     1     -14.716  -5.931  -1.827  1.00  0.00     0.006 C 
BRANCH  19  20
HETATM   20  C18 UNL     1     -15.583  -5.078  -2.610  1.00  0.00     0.068 C 
HETATM   21  C19 UNL     1     -15.589  -3.616  -2.421  1.00  0.00     0.050 C 
HETATM   22  C20 UNL     1     -17.029  -5.552  -2.312  1.00  0.00     0.050 C 
BRANCH  20  23
HETATM   23  O3  UNL     1     -15.363  -5.314  -4.006  1.00  0.00    -0.387 OA
ATOM     24  H3  UNL     1     -15.400  -6.247  -4.183  1.00  0.00     0.211 HD
ENDBRANCH  20  23
ENDBRANCH  19  20
ENDBRANCH   7  18
TORSDOF 9
ENDMDL
MODEL 4
REMARK VINA RESULT: -5.170335311      1.348      2.161
REMARK  9 active torsions:
REMARK  status: ('A' for Active; 'I' for Inactive)
REMARK    1  A    between atoms: C2_2  and  C4_4 
REMARK    2  A    between atoms: C4_4  and  C5_5 
REMARK    3  A    between atoms: C5_5  and  C6_6 
REMARK    4  A    between atoms: C6_6  and  C7_7 
REMARK    5  A    between atoms: C7_7  and  C8_8 
REMARK    6  A    between atoms: C8_8  and  C9_9 
REMARK    7  A    between atoms: C15_17  and  C16_18 
REMARK    8  A    between atoms: C17_19  and  C18_20 
REMARK    9  A    between atoms: C18_20  and  O3_23 
ROOT
HETATM    1  C6  UNL     1     -16.821  -4.265  -3.228  1.00  0.00     0.087 C 
HETATM    2  O1  UNL     1     -17.148  -5.324  -4.148  1.00  0.00    -0.308 OA
HETATM    3  C12 UNL     1     -16.666  -4.895  -5.374  1.00  0.00     0.264 C 
HETATM    4  O2  UNL     1     -16.057  -5.575  -6.270  1.00  0.00    -0.265 OA
HETATM    5  C13 UNL     1     -16.991  -3.468  -5.461  1.00  0.00     0.092 C 
HETATM    6  C14 UNL     1     -18.261  -3.327  -6.274  1.00  0.00     0.021 C 
HETATM    7  C15 UNL     1     -17.240  -3.043  -3.991  1.00  0.00     0.057 C 
ENDROOT
BRANCH   1   8
HETATM    8  C5  UNL     1     -15.314  -4.373  -3.032  1.00  0.00     0.119 C 
BRANCH   8   9
HETATM    9  C4  UNL     1     -14.943  -3.757  -1.813  1.00  0.00    -0.176 C 
BRANCH   9  10
HETATM   10  C2  UNL     1     -14.612  -3.204  -0.720  1.00  0.00     0.044 C 
HETATM   11  C1  UNL     1     -15.040  -3.561   0.648  1.00  0.00     0.022 C 
HETATM   12  C3  UNL     1     -13.644  -2.000  -0.721  1.00  0.00     0.022 C 
ENDBRANCH   9  10
ENDBRANCH   8   9
ENDBRANCH   1   8
BRANCH   1  13
HETATM   13  C7  UNL     1     -17.595  -4.570  -1.989  1.00  0.00     0.041 C 
BRANCH  13  14
HETATM   14  C8  UNL     1     -18.850  -5.334  -2.206  1.00  0.00     0.007 C 
BRANCH  14  15
HETATM   15  C9  UNL     1     -20.070  -4.440  -2.295  1.00  0.00    -0.014 A 
HETATM   16  C10 UNL     1     -20.754  -4.407  -3.695  1.00  0.00     0.005 A 
HETATM   17  C11 UNL     1     -21.368  -5.137  -2.554  1.00  0.00     0.005 A 
ENDBRANCH  14  15
ENDBRANCH  13  14
ENDBRANCH   1  13
BRANCH   7  18
HETATM   18  C16 UNL     1     -16.449  -1.858  -3.684  1.00  0.00    -0.019 C 
HETATM   19  C17 UNL     1     -16.832  -0.625  -3.721  1.00  0.00     0.006 C 
BRANCH  19  20
HETATM   20  C18 UNL     1     -18.051   0.088  -4.037  1.00  0.00     0.068 C 
HETATM   21  C19 UNL     1     -19.372  -0.469  -3.695  1.00  0.00     0.050 C 
HETATM   22  C20 UNL     1     -18.051   0.268  -5.577  1.00  0.00     0.050 C 
BRANCH  20  23
HETATM   23  O3  UNL     1     -18.000   1.407  -3.479  1.00  0.00    -0.387 OA
ATOM     24  H3  UNL     1     -17.616   1.373  -2.611  1.00  0.00     0.211 HD
ENDBRANCH  20  23
ENDBRANCH  19  20
ENDBRANCH   7  18
TORSDOF 9
ENDMDL
MODEL 5
REMARK VINA RESULT: -5.153345813      3.269      6.976
REMARK  9 active torsions:
REMARK  status: ('A' for Active; 'I' for Inactive)
REMARK    1  A    between atoms: C2_2  and  C4_4 
REMARK    2  A    between atoms: C4_4  and  C5_5 
REMARK    3  A    between atoms: C5_5  and  C6_6 
REMARK    4  A    between atoms: C6_6  and  C7_7 
REMARK    5  A    between atoms: C7_7  and  C8_8 
REMARK    6  A    between atoms: C8_8  and  C9_9 
REMARK    7  A    between atoms: C15_17  and  C16_18 
REMARK    8  A    between atoms: C17_19  and  C18_20 
REMARK    9  A    between atoms: C18_20  and  O3_23 
ROOT
HETATM    1  C6  UNL     1     -15.371  -5.104   0.479  1.00  0.00     0.087 C 
HETATM    2  O1  UNL     1     -16.669  -5.473  -0.026  1.00  0.00    -0.308 OA
HETATM    3  C12 UNL     1     -17.480  -5.553   1.093  1.00  0.00     0.264 C 
HETATM    4  O2  UNL     1     -18.685  -5.149   1.232  1.00  0.00    -0.265 OA
HETATM    5  C13 UNL     1     -16.677  -6.210   2.130  1.00  0.00     0.092 C 
HETATM    6  C14 UNL     1     -17.050  -7.678   2.149  1.00  0.00     0.021 C 
HETATM    7  C15 UNL     1     -15.214  -6.031   1.648  1.00  0.00     0.057 C 
ENDROOT
BRANCH   1   8
HETATM    8  C5  UNL     1     -15.510  -3.641   0.877  1.00  0.00     0.119 C 
BRANCH   8   9
HETATM    9  C4  UNL     1     -14.495  -2.876   0.254  1.00  0.00    -0.176 C 
BRANCH   9  10
HETATM   10  C2  UNL     1     -13.586  -2.189  -0.304  1.00  0.00     0.044 C 
HETATM   11  C1  UNL     1     -13.614  -1.550  -1.636  1.00  0.00     0.022 C 
HETATM   12  C3  UNL     1     -12.246  -1.936   0.423  1.00  0.00     0.022 C 
ENDBRANCH   9  10
ENDBRANCH   8   9
ENDBRANCH   1   8
BRANCH   1  13
HETATM   13  C7  UNL     1     -14.433  -5.314  -0.663  1.00  0.00     0.041 C 
BRANCH  13  14
HETATM   14  C8  UNL     1     -15.072  -5.757  -1.928  1.00  0.00     0.007 C 
BRANCH  14  15
HETATM   15  C9  UNL     1     -15.008  -4.703  -3.015  1.00  0.00    -0.014 A 
HETATM   16  C10 UNL     1     -16.137  -4.798  -4.084  1.00  0.00     0.005 A 
HETATM   17  C11 UNL     1     -16.145  -3.732  -3.046  1.00  0.00     0.005 A 
ENDBRANCH  14  15
ENDBRANCH  13  14
ENDBRANCH   1  13
BRANCH   7  18
HETATM   18  C16 UNL     1     -14.407  -5.481   2.731  1.00  0.00    -0.019 C 
HETATM   19  C17 UNL     1     -13.137  -5.623   2.918  1.00  0.00     0.006 C 
BRANCH  19  20
HETATM   20  C18 UNL     1     -12.046  -6.297   2.247  1.00  0.00     0.068 C 
HETATM   21  C19 UNL     1     -12.246  -7.596   1.580  1.00  0.00     0.050 C 
HETATM   22  C20 UNL     1     -10.964  -6.537   3.331  1.00  0.00     0.050 C 
BRANCH  20  23
HETATM   23  O3  UNL     1     -11.456  -5.419   1.280  1.00  0.00    -0.387 OA
ATOM     24  H3  UNL     1     -11.257  -5.904   0.487  1.00  0.00     0.211 HD
ENDBRANCH  20  23
ENDBRANCH  19  20
ENDBRANCH   7  18
TORSDOF 9
ENDMDL
