MODEL 1
REMARK VINA RESULT: -7.142868649      0.000      0.000
REMARK  8 active torsions:
REMARK  status: ('A' for Active; 'I' for Inactive)
REMARK    1  A    between atoms: C2_2  and  C3_3 
REMARK    2  A    between atoms: C3_3  and  C4_4 
REMARK    3  A    between atoms: C4_4  and  C5_5 
REMARK    4  A    between atoms: C5_5  and  N1_6 
REMARK    5  A    between atoms: C6_7  and  O1_8 
REMARK    6  A    between atoms: C9_12  and  O2_13 
REMARK    7  A    between atoms: N2_21  and  C16_22 
REMARK    8  A    between atoms: C16_22  and  C18_24 
ROOT
HETATM    1  N1  UNL     1     -12.911  -1.230  -1.173  1.00  0.00    -0.308 N 
HETATM    2  C6  UNL     1     -12.384  -1.541   0.026  1.00  0.00     0.151 A 
HETATM    3  C7  UNL     1     -13.099  -2.563   0.623  1.00  0.00     0.005 A 
HETATM    4  C8  UNL     1     -14.093  -2.873  -0.258  1.00  0.00     0.013 A 
HETATM    5  C9  UNL     1     -13.964  -2.046  -1.353  1.00  0.00     0.152 A 
HETATM    6  C10 UNL     1     -15.139  -3.919  -0.082  1.00  0.00     0.063 C 
HETATM    7  C11 UNL     1     -15.463  -4.165   1.348  1.00  0.00    -0.019 C 
HETATM    8  C12 UNL     1     -14.631  -4.397   2.358  1.00  0.00    -0.023 C 
HETATM    9  C13 UNL     1     -13.127  -4.461   2.231  1.00  0.00     0.030 C 
HETATM   10  C14 UNL     1     -12.683  -3.058   1.954  1.00  0.00     0.054 C 
HETATM   11  C15 UNL     1     -12.739  -5.324   1.055  1.00  0.00     0.126 C 
HETATM   12  N2  UNL     1     -13.836  -5.964   0.401  1.00  0.00    -0.407 N 
HETATM   13  C20 UNL     1     -14.500  -5.214  -0.609  1.00  0.00     0.130 C 
ENDROOT
BRANCH   1  14
HETATM   14  C5  UNL     1     -12.500  -0.253  -2.134  1.00  0.00     0.133 C 
BRANCH  14  15
HETATM   15  C4  UNL     1     -11.192  -0.489  -2.795  1.00  0.00     0.024 C 
BRANCH  15  16
HETATM   16  C3  UNL     1     -10.161   0.546  -2.433  1.00  0.00     0.028 C 
BRANCH  16  17
HETATM   17  C2  UNL     1     -10.324   1.792  -3.238  1.00  0.00    -0.037 C 
HETATM   18  C1  UNL     1      -9.382   2.720  -3.253  1.00  0.00     0.007 C 
ENDBRANCH  16  17
ENDBRANCH  15  16
ENDBRANCH  14  15
ENDBRANCH   1  14
BRANCH   2  19
HETATM   19  O1  UNL     1     -11.271  -0.892   0.548  1.00  0.00    -0.345 OA
ATOM     20  H1  UNL     1     -10.494  -1.357   0.836  1.00  0.00     0.219 HD
ENDBRANCH   2  19
BRANCH   5  21
HETATM   21  O2  UNL     1     -14.849  -2.130  -2.435  1.00  0.00    -0.345 OA
ATOM     22  H2  UNL     1     -15.765  -2.385  -2.448  1.00  0.00     0.219 HD
ENDBRANCH   5  21
BRANCH  12  23
HETATM   23  C16 UNL     1     -13.577  -7.330   0.056  1.00  0.00     0.074 C 
HETATM   24  C17 UNL     1     -14.070  -7.604  -1.357  1.00  0.00     0.032 C 
BRANCH  23  25
HETATM   25  C18 UNL     1     -12.142  -7.754   0.154  1.00  0.00     0.020 C 
HETATM   26  C19 UNL     1     -12.108  -9.045   0.947  1.00  0.00     0.007 C 
ENDBRANCH  23  25
ENDBRANCH  12  23
TORSDOF 8
ENDMDL
MODEL 2
REMARK VINA RESULT: -6.564912343      5.275      8.110
REMARK  8 active torsions:
REMARK  status: ('A' for Active; 'I' for Inactive)
REMARK    1  A    between atoms: C2_2  and  C3_3 
REMARK    2  A    between atoms: C3_3  and  C4_4 
REMARK    3  A    between atoms: C4_4  and  C5_5 
REMARK    4  A    between atoms: C5_5  and  N1_6 
REMARK    5  A    between atoms: C6_7  and  O1_8 
REMARK    6  A    between atoms: C9_12  and  O2_13 
REMARK    7  A    between atoms: N2_21  and  C16_22 
REMARK    8  A    between atoms: C16_22  and  C18_24 
ROOT
HETATM    1  N1  UNL     1     -15.495  -2.552  -2.779  1.00  0.00    -0.308 N 
HETATM    2  C6  UNL     1     -15.315  -1.244  -3.033  1.00  0.00     0.151 A 
HETATM    3  C7  UNL     1     -16.349  -0.751  -3.810  1.00  0.00     0.005 A 
HETATM    4  C8  UNL     1     -17.178  -1.812  -4.025  1.00  0.00     0.013 A 
HETATM    5  C9  UNL     1     -16.640  -2.909  -3.387  1.00  0.00     0.152 A 
HETATM    6  C10 UNL     1     -18.445  -1.802  -4.808  1.00  0.00     0.063 C 
HETATM    7  C11 UNL     1     -18.442  -0.774  -5.882  1.00  0.00    -0.019 C 
HETATM    8  C12 UNL     1     -18.132   0.515  -5.794  1.00  0.00    -0.023 C 
HETATM    9  C13 UNL     1     -17.706   1.208  -4.522  1.00  0.00     0.030 C 
HETATM   10  C14 UNL     1     -16.343   0.675  -4.204  1.00  0.00     0.054 C 
HETATM   11  C15 UNL     1     -18.636   0.841  -3.391  1.00  0.00     0.126 C 
HETATM   12  N2  UNL     1     -19.747   0.029  -3.777  1.00  0.00    -0.407 N 
HETATM   13  C20 UNL     1     -19.530  -1.376  -3.806  1.00  0.00     0.130 C 
ENDROOT
BRANCH   1  14
HETATM   14  C5  UNL     1     -14.693  -3.461  -2.019  1.00  0.00     0.133 C 
BRANCH  14  15
HETATM   15  C4  UNL     1     -15.046  -3.612  -0.586  1.00  0.00     0.024 C 
BRANCH  15  16
HETATM   16  C3  UNL     1     -14.388  -2.578   0.288  1.00  0.00     0.028 C 
BRANCH  16  17
HETATM   17  C2  UNL     1     -12.906  -2.567   0.111  1.00  0.00    -0.037 C 
HETATM   18  C1  UNL     1     -12.212  -1.451   0.254  1.00  0.00     0.007 C 
ENDBRANCH  16  17
ENDBRANCH  15  16
ENDBRANCH  14  15
ENDBRANCH   1  14
BRANCH   2  19
HETATM   19  O1  UNL     1     -14.222  -0.529  -2.557  1.00  0.00    -0.345 OA
ATOM     20  H1  UNL     1     -14.302   0.337  -2.175  1.00  0.00     0.219 HD
ENDBRANCH   2  19
BRANCH   5  21
HETATM   21  O2  UNL     1     -17.274  -4.157  -3.429  1.00  0.00    -0.345 OA
ATOM     22  H2  UNL     1     -17.966  -4.463  -4.003  1.00  0.00     0.219 HD
ENDBRANCH   5  21
BRANCH  12  23
HETATM   23  C16 UNL     1     -20.983   0.430  -3.173  1.00  0.00     0.074 C 
HETATM   24  C17 UNL     1     -20.820   1.802  -2.536  1.00  0.00     0.032 C 
BRANCH  23  25
HETATM   25  C18 UNL     1     -22.164   0.468  -4.096  1.00  0.00     0.020 C 
HETATM   26  C19 UNL     1     -21.786   1.346  -5.272  1.00  0.00     0.007 C 
ENDBRANCH  23  25
ENDBRANCH  12  23
TORSDOF 8
ENDMDL
MODEL 3
REMARK VINA RESULT: -6.430085905      1.069      1.465
REMARK  8 active torsions:
REMARK  status: ('A' for Active; 'I' for Inactive)
REMARK    1  A    between atoms: C2_2  and  C3_3 
REMARK    2  A    between atoms: C3_3  and  C4_4 
REMARK    3  A    between atoms: C4_4  and  C5_5 
REMARK    4  A    between atoms: C5_5  and  N1_6 
REMARK    5  A    between atoms: C6_7  and  O1_8 
REMARK    6  A    between atoms: C9_12  and  O2_13 
REMARK    7  A    between atoms: N2_21  and  C16_22 
REMARK    8  A    between atoms: C16_22  and  C18_24 
ROOT
HETATM    1  N1  UNL     1     -13.205  -1.672  -0.741  1.00  0.00    -0.308 N 
HETATM    2  C6  UNL     1     -12.769  -2.197   0.419  1.00  0.00     0.151 A 
HETATM    3  C7  UNL     1     -13.527  -3.298   0.772  1.00  0.00     0.005 A 
HETATM    4  C8  UNL     1     -14.453  -3.435  -0.220  1.00  0.00     0.013 A 
HETATM    5  C9  UNL     1     -14.242  -2.430  -1.140  1.00  0.00     0.152 A 
HETATM    6  C10 UNL     1     -15.509  -4.481  -0.309  1.00  0.00     0.063 C 
HETATM    7  C11 UNL     1     -15.939  -4.970   1.028  1.00  0.00    -0.019 C 
HETATM    8  C12 UNL     1     -15.185  -5.388   2.039  1.00  0.00    -0.023 C 
HETATM    9  C13 UNL     1     -13.676  -5.449   2.013  1.00  0.00     0.030 C 
HETATM   10  C14 UNL     1     -13.211  -4.025   2.022  1.00  0.00     0.054 C 
HETATM   11  C15 UNL     1     -13.202  -6.097   0.735  1.00  0.00     0.126 C 
HETATM   12  N2  UNL     1     -14.247  -6.597  -0.101  1.00  0.00    -0.407 N 
HETATM   13  C20 UNL     1     -14.835  -5.672  -1.007  1.00  0.00     0.130 C 
ENDROOT
BRANCH   1  14
HETATM   14  C5  UNL     1     -12.724  -0.547  -1.482  1.00  0.00     0.133 C 
BRANCH  14  15
HETATM   15  C4  UNL     1     -11.976  -0.851  -2.728  1.00  0.00     0.024 C 
BRANCH  15  16
HETATM   16  C3  UNL     1     -10.953   0.201  -3.064  1.00  0.00     0.028 C 
BRANCH  16  17
HETATM   17  C2  UNL     1     -10.192   0.638  -1.857  1.00  0.00    -0.037 C 
HETATM   18  C1  UNL     1      -9.671   1.852  -1.784  1.00  0.00     0.007 C 
ENDBRANCH  16  17
ENDBRANCH  15  16
ENDBRANCH  14  15
ENDBRANCH   1  14
BRANCH   2  19
HETATM   19  O1  UNL     1     -11.697  -1.665   1.127  1.00  0.00    -0.345 OA
ATOM     20  H1  UNL     1     -11.801  -1.234   1.966  1.00  0.00     0.219 HD
ENDBRANCH   2  19
BRANCH   5  21
HETATM   21  O2  UNL     1     -15.045  -2.310  -2.281  1.00  0.00    -0.345 OA
ATOM     22  H2  UNL     1     -14.954  -2.728  -3.129  1.00  0.00     0.219 HD
ENDBRANCH   5  21
BRANCH  12  23
HETATM   23  C16 UNL     1     -13.964  -7.885  -0.661  1.00  0.00     0.074 C 
HETATM   24  C17 UNL     1     -13.006  -8.638   0.249  1.00  0.00     0.032 C 
BRANCH  23  25
HETATM   25  C18 UNL     1     -15.162  -8.749  -0.917  1.00  0.00     0.020 C 
HETATM   26  C19 UNL     1     -15.851  -8.966   0.416  1.00  0.00     0.007 C 
ENDBRANCH  23  25
ENDBRANCH  12  23
TORSDOF 8
ENDMDL
MODEL 4
REMARK VINA RESULT: -6.330387113      5.304      7.811
REMARK  8 active torsions:
REMARK  status: ('A' for Active; 'I' for Inactive)
REMARK    1  A    between atoms: C2_2  and  C3_3 
REMARK    2  A    between atoms: C3_3  and  C4_4 
REMARK    3  A    between atoms: C4_4  and  C5_5 
REMARK    4  A    between atoms: C5_5  and  N1_6 
REMARK    5  A    between atoms: C6_7  and  O1_8 
REMARK    6  A    between atoms: C9_12  and  O2_13 
REMARK    7  A    between atoms: N2_21  and  C16_22 
REMARK    8  A    between atoms: C16_22  and  C18_24 
ROOT
HETATM    1  N1  UNL     1     -15.387  -2.148  -2.851  1.00  0.00    -0.308 N 
HETATM    2  C6  UNL     1     -15.461  -0.847  -3.183  1.00  0.00     0.151 A 
HETATM    3  C7  UNL     1     -16.592  -0.600  -3.940  1.00  0.00     0.005 A 
HETATM    4  C8  UNL     1     -17.217  -1.805  -4.062  1.00  0.00     0.013 A 
HETATM    5  C9  UNL     1     -16.465  -2.745  -3.389  1.00  0.00     0.152 A 
HETATM    6  C10 UNL     1     -18.489  -2.075  -4.789  1.00  0.00     0.063 C 
HETATM    7  C11 UNL     1     -18.711  -1.132  -5.917  1.00  0.00    -0.019 C 
HETATM    8  C12 UNL     1     -18.641   0.196  -5.912  1.00  0.00    -0.023 C 
HETATM    9  C13 UNL     1     -18.311   1.031  -4.698  1.00  0.00     0.030 C 
HETATM   10  C14 UNL     1     -16.862   0.777  -4.411  1.00  0.00     0.054 C 
HETATM   11  C15 UNL     1     -19.119   0.570  -3.511  1.00  0.00     0.126 C 
HETATM   12  N2  UNL     1     -20.073  -0.453  -3.804  1.00  0.00    -0.407 N 
HETATM   13  C20 UNL     1     -19.601  -1.794  -3.766  1.00  0.00     0.130 C 
ENDROOT
BRANCH   1  14
HETATM   14  C5  UNL     1     -14.407  -2.847  -2.078  1.00  0.00     0.133 C 
BRANCH  14  15
HETATM   15  C4  UNL     1     -14.686  -2.984  -0.628  1.00  0.00     0.024 C 
BRANCH  15  16
HETATM   16  C3  UNL     1     -13.527  -2.557   0.232  1.00  0.00     0.028 C 
BRANCH  16  17
HETATM   17  C2  UNL     1     -12.578  -1.681  -0.515  1.00  0.00    -0.037 C 
HETATM   18  C1  UNL     1     -11.925  -0.707   0.096  1.00  0.00     0.007 C 
ENDBRANCH  16  17
ENDBRANCH  15  16
ENDBRANCH  14  15
ENDBRANCH   1  14
BRANCH   2  19
HETATM   19  O1  UNL     1     -14.504   0.083  -2.794  1.00  0.00    -0.345 OA
ATOM     20  H1  UNL     1     -14.716   0.989  -2.604  1.00  0.00     0.219 HD
ENDBRANCH   2  19
BRANCH   5  21
HETATM   21  O2  UNL     1     -16.858  -4.088  -3.336  1.00  0.00    -0.345 OA
ATOM     22  H2  UNL     1     -17.036  -4.693  -4.047  1.00  0.00     0.219 HD
ENDBRANCH   5  21
BRANCH  12  23
HETATM   23  C16 UNL     1     -21.342  -0.249  -3.170  1.00  0.00     0.074 C 
HETATM   24  C17 UNL     1     -22.074   0.899  -3.849  1.00  0.00     0.032 C 
BRANCH  23  25
HETATM   25  C18 UNL     1     -22.245  -1.445  -3.146  1.00  0.00     0.020 C 
HETATM   26  C19 UNL     1     -22.716  -1.623  -1.716  1.00  0.00     0.007 C 
ENDBRANCH  23  25
ENDBRANCH  12  23
TORSDOF 8
ENDMDL
MODEL 5
REMARK VINA RESULT: -6.301522278      1.264      1.852
REMARK  8 active torsions:
REMARK  status: ('A' for Active; 'I' for Inactive)
REMARK    1  A    between atoms: C2_2  and  C3_3 
REMARK    2  A    between atoms: C3_3  and  C4_4 
REMARK    3  A    between atoms: C4_4  and  C5_5 
REMARK    4  A    between atoms: C5_5  and  N1_6 
REMARK    5  A    between atoms: C6_7  and  O1_8 
REMARK    6  A    between atoms: C9_12  and  O2_13 
REMARK    7  A    between atoms: N2_21  and  C16_22 
REMARK    8  A    between atoms: C16_22  and  C18_24 
ROOT
HETATM    1  N1  UNL     1     -13.050  -1.755  -0.586  1.00  0.00    -0.308 N 
HETATM    2  C6  UNL     1     -12.894  -2.405   0.582  1.00  0.00     0.151 A 
HETATM    3  C7  UNL     1     -13.815  -3.431   0.695  1.00  0.00     0.005 A 
HETATM    4  C8  UNL     1     -14.547  -3.390  -0.454  1.00  0.00     0.013 A 
HETATM    5  C9  UNL     1     -14.066  -2.356  -1.229  1.00  0.00     0.152 A 
HETATM    6  C10 UNL     1     -15.671  -4.296  -0.822  1.00  0.00     0.063 C 
HETATM    7  C11 UNL     1     -16.391  -4.821   0.368  1.00  0.00    -0.019 C 
HETATM    8  C12 UNL     1     -15.886  -5.394   1.456  1.00  0.00    -0.023 C 
HETATM    9  C13 UNL     1     -14.413  -5.630   1.693  1.00  0.00     0.030 C 
HETATM   10  C14 UNL     1     -13.814  -4.274   1.911  1.00  0.00     0.054 C 
HETATM   11  C15 UNL     1     -13.778  -6.239   0.468  1.00  0.00     0.126 C 
HETATM   12  N2  UNL     1     -14.695  -6.554  -0.582  1.00  0.00    -0.407 N 
HETATM   13  C20 UNL     1     -15.004  -5.507  -1.493  1.00  0.00     0.130 C 
ENDROOT
BRANCH   1  14
HETATM   14  C5  UNL     1     -12.325  -0.646  -1.127  1.00  0.00     0.133 C 
BRANCH  14  15
HETATM   15  C4  UNL     1     -11.249  -0.083  -0.273  1.00  0.00     0.024 C 
BRANCH  15  16
HETATM   16  C3  UNL     1     -10.202   0.653  -1.064  1.00  0.00     0.028 C 
BRANCH  16  17
HETATM   17  C2  UNL     1     -10.507   0.648  -2.525  1.00  0.00    -0.037 C 
HETATM   18  C1  UNL     1     -10.358   1.740  -3.255  1.00  0.00     0.007 C 
ENDBRANCH  16  17
ENDBRANCH  15  16
ENDBRANCH  14  15
ENDBRANCH   1  14
BRANCH   2  19
HETATM   19  O1  UNL     1     -11.925  -2.053   1.514  1.00  0.00    -0.345 OA
ATOM     20  H1  UNL     1     -11.022  -2.339   1.447  1.00  0.00     0.219 HD
ENDBRANCH   2  19
BRANCH   5  21
HETATM   21  O2  UNL     1     -14.625  -2.064  -2.480  1.00  0.00    -0.345 OA
ATOM     22  H2  UNL     1     -14.218  -1.677  -3.246  1.00  0.00     0.219 HD
ENDBRANCH   5  21
BRANCH  12  23
HETATM   23  C16 UNL     1     -14.446  -7.825  -1.195  1.00  0.00     0.074 C 
HETATM   24  C17 UNL     1     -13.669  -8.713  -0.235  1.00  0.00     0.032 C 
BRANCH  23  25
HETATM   25  C18 UNL     1     -15.667  -8.566  -1.651  1.00  0.00     0.020 C 
HETATM   26  C19 UNL     1     -16.629  -8.609  -0.480  1.00  0.00     0.007 C 
ENDBRANCH  23  25
ENDBRANCH  12  23
TORSDOF 8
ENDMDL
