MODEL 1
REMARK VINA RESULT: -4.773609212      0.000      0.000
REMARK  1 active torsions:
REMARK  status: ('A' for Active; 'I' for Inactive)
REMARK    1  A    between atoms: C2_3  and  C4_6 
REMARK       I    between atoms: C4_6  and  N3_8 
ROOT
HETATM    1  N1  UNL     1      38.203  33.978 -12.420  1.00  0.00    -0.195 NA
HETATM    2  C1  UNL     1      38.755  33.352 -13.220  1.00  0.00     0.088 C 
HETATM    3  C2  UNL     1      39.480  32.568 -14.246  1.00  0.00     0.291 C 
HETATM    4  C3  UNL     1      39.641  31.172 -13.802  1.00  0.00     0.088 C 
HETATM    5  N2  UNL     1      39.765  30.074 -13.435  1.00  0.00    -0.195 NA
ENDROOT
BRANCH   3   6
HETATM    6  C4  UNL     1      38.638  32.525 -15.468  1.00  0.00     0.259 C 
HETATM    7  O1  UNL     1      38.984  31.888 -16.492  1.00  0.00    -0.270 OA
HETATM    8  N3  UNL     1      37.399  33.214 -15.512  1.00  0.00    -0.288 N 
HETATM    9  S1  UNL     1      36.353  33.208 -16.922  1.00  0.00     0.045 SA
ATOM     10  H3  UNL     1      37.102  33.737 -14.688  1.00  0.00     0.178 HD
ENDBRANCH   3   6
TORSDOF 1
ENDMDL
MODEL 2
REMARK VINA RESULT: -4.668178587      8.063      8.907
REMARK  1 active torsions:
REMARK  status: ('A' for Active; 'I' for Inactive)
REMARK    1  A    between atoms: C2_3  and  C4_6 
REMARK       I    between atoms: C4_6  and  N3_8 
ROOT
HETATM    1  N1  UNL     1      35.713  33.100  -8.390  1.00  0.00    -0.195 NA
HETATM    2  C1  UNL     1      36.676  32.970  -7.762  1.00  0.00     0.088 C 
HETATM    3  C2  UNL     1      37.922  32.804  -6.981  1.00  0.00     0.291 C 
HETATM    4  C3  UNL     1      37.986  33.806  -5.902  1.00  0.00     0.088 C 
HETATM    5  N2  UNL     1      38.024  34.608  -5.058  1.00  0.00    -0.195 NA
ENDROOT
BRANCH   3   6
HETATM    6  C4  UNL     1      37.871  31.476  -6.316  1.00  0.00     0.259 C 
HETATM    7  O1  UNL     1      37.471  31.339  -5.135  1.00  0.00    -0.270 OA
HETATM    8  N3  UNL     1      38.282  30.309  -7.010  1.00  0.00    -0.288 N 
HETATM    9  S1  UNL     1      38.250  28.709  -6.287  1.00  0.00     0.045 SA
ATOM     10  H3  UNL     1      38.610  30.403  -7.971  1.00  0.00     0.178 HD
ENDBRANCH   3   6
TORSDOF 1
ENDMDL
MODEL 3
REMARK VINA RESULT: -4.644593985      6.905      7.662
REMARK  1 active torsions:
REMARK  status: ('A' for Active; 'I' for Inactive)
REMARK    1  A    between atoms: C2_3  and  C4_6 
REMARK       I    between atoms: C4_6  and  N3_8 
ROOT
HETATM    1  N1  UNL     1      37.763  35.529  -5.572  1.00  0.00    -0.195 NA
HETATM    2  C1  UNL     1      37.915  34.498  -6.075  1.00  0.00     0.088 C 
HETATM    3  C2  UNL     1      38.133  33.186  -6.724  1.00  0.00     0.291 C 
HETATM    4  C3  UNL     1      37.667  32.099  -5.846  1.00  0.00     0.088 C 
HETATM    5  N2  UNL     1      37.299  31.250  -5.138  1.00  0.00    -0.195 NA
ENDROOT
BRANCH   3   6
HETATM    6  C4  UNL     1      37.285  33.132  -7.943  1.00  0.00     0.259 C 
HETATM    7  O1  UNL     1      36.044  33.310  -7.898  1.00  0.00    -0.270 OA
HETATM    8  N3  UNL     1      37.865  32.871  -9.211  1.00  0.00    -0.288 N 
HETATM    9  S1  UNL     1      36.925  32.792 -10.692  1.00  0.00     0.045 SA
ATOM     10  H3  UNL     1      38.873  32.724  -9.266  1.00  0.00     0.178 HD
ENDBRANCH   3   6
TORSDOF 1
ENDMDL
MODEL 4
REMARK VINA RESULT: -4.639420817      2.408      3.514
REMARK  1 active torsions:
REMARK  status: ('A' for Active; 'I' for Inactive)
REMARK    1  A    between atoms: C2_3  and  C4_6 
REMARK       I    between atoms: C4_6  and  N3_8 
ROOT
HETATM    1  N1  UNL     1      36.160  33.111 -16.878  1.00  0.00    -0.195 NA
HETATM    2  C1  UNL     1      37.094  32.980 -16.208  1.00  0.00     0.088 C 
HETATM    3  C2  UNL     1      38.302  32.828 -15.367  1.00  0.00     0.291 C 
HETATM    4  C3  UNL     1      37.965  33.038 -13.948  1.00  0.00     0.088 C 
HETATM    5  N2  UNL     1      37.684  33.212 -12.830  1.00  0.00    -0.195 NA
ENDROOT
BRANCH   3   6
HETATM    6  C4  UNL     1      38.767  31.423 -15.483  1.00  0.00     0.259 C 
HETATM    7  O1  UNL     1      38.409  30.680 -16.429  1.00  0.00    -0.270 OA
HETATM    8  N3  UNL     1      39.641  30.871 -14.511  1.00  0.00    -0.288 N 
HETATM    9  S1  UNL     1      40.229  29.219 -14.584  1.00  0.00     0.045 SA
ATOM     10  H3  UNL     1      39.941  31.461 -13.735  1.00  0.00     0.178 HD
ENDBRANCH   3   6
TORSDOF 1
ENDMDL
MODEL 5
REMARK VINA RESULT: -4.611170541      2.466      3.832
REMARK  1 active torsions:
REMARK  status: ('A' for Active; 'I' for Inactive)
REMARK    1  A    between atoms: C2_3  and  C4_6 
REMARK       I    between atoms: C4_6  and  N3_8 
ROOT
HETATM    1  N1  UNL     1      38.661  29.880 -15.654  1.00  0.00    -0.195 NA
HETATM    2  C1  UNL     1      38.586  31.031 -15.750  1.00  0.00     0.088 C 
HETATM    3  C2  UNL     1      38.511  32.503 -15.886  1.00  0.00     0.291 C 
HETATM    4  C3  UNL     1      37.168  32.905 -16.340  1.00  0.00     0.088 C 
HETATM    5  N2  UNL     1      36.103  33.207 -16.705  1.00  0.00    -0.195 NA
ENDROOT
BRANCH   3   6
HETATM    6  C4  UNL     1      38.691  33.096 -14.537  1.00  0.00     0.259 C 
HETATM    7  O1  UNL     1      39.806  33.512 -14.137  1.00  0.00    -0.270 OA
HETATM    8  N3  UNL     1      37.591  33.210 -13.648  1.00  0.00    -0.288 N 
HETATM    9  S1  UNL     1      37.731  33.899 -12.039  1.00  0.00     0.045 SA
ATOM     10  H3  UNL     1      36.678  32.877 -13.957  1.00  0.00     0.178 HD
ENDBRANCH   3   6
TORSDOF 1
ENDMDL
