MODEL 1
REMARK VINA RESULT: -4.672903502      0.000      0.000
REMARK  1 active torsions:
REMARK  status: ('A' for Active; 'I' for Inactive)
REMARK    1  A    between atoms: C4_9  and  O2_10 
ROOT
HETATM    1  N1  UNL     1      39.305  36.251  -7.321  1.00  0.00    -0.395 N 
ATOM      2  H11 UNL     1      39.735  36.658  -6.492  1.00  0.00     0.156 HD
ATOM      3  H12 UNL     1      39.308  36.906  -8.104  1.00  0.00     0.156 HD
HETATM    4  C1  UNL     1      38.832  35.085  -7.363  1.00  0.00     0.073 C 
HETATM    5  S1  UNL     1      38.071  34.366  -8.830  1.00  0.00    -0.088 SA
HETATM    6  C2  UNL     1      37.147  32.958  -8.083  1.00  0.00     0.248 C 
HETATM    7  O1  UNL     1      36.617  33.430  -6.917  1.00  0.00    -0.378 OA
HETATM    8  C3  UNL     1      37.477  33.616  -5.886  1.00  0.00     0.207 C 
HETATM    9  C4  UNL     1      38.826  34.128  -6.220  1.00  0.00     0.198 C 
ENDROOT
BRANCH   9  10
HETATM   10  O2  UNL     1      39.340  34.777  -5.094  1.00  0.00    -0.387 OA
ATOM     11  H2  UNL     1      39.808  35.554  -5.379  1.00  0.00     0.210 HD
ENDBRANCH   9  10
TORSDOF 1
ENDMDL
MODEL 2
REMARK VINA RESULT: -4.416686961      2.410      2.676
REMARK  1 active torsions:
REMARK  status: ('A' for Active; 'I' for Inactive)
REMARK    1  A    between atoms: C4_9  and  O2_10 
ROOT
HETATM    1  N1  UNL     1      36.601  34.490 -10.153  1.00  0.00    -0.395 N 
ATOM      2  H11 UNL     1      37.087  35.357 -10.380  1.00  0.00     0.156 HD
ATOM      3  H12 UNL     1      35.822  34.320 -10.789  1.00  0.00     0.156 HD
HETATM    4  C1  UNL     1      36.930  33.733  -9.203  1.00  0.00     0.073 C 
HETATM    5  S1  UNL     1      36.071  32.200  -8.801  1.00  0.00    -0.088 SA
HETATM    6  C2  UNL     1      36.665  31.913  -7.081  1.00  0.00     0.248 C 
HETATM    7  O1  UNL     1      36.681  33.137  -6.477  1.00  0.00    -0.378 OA
HETATM    8  C3  UNL     1      37.671  33.987  -6.844  1.00  0.00     0.207 C 
HETATM    9  C4  UNL     1      38.067  33.981  -8.272  1.00  0.00     0.198 C 
ENDROOT
BRANCH   9  10
HETATM   10  O2  UNL     1      38.628  35.225  -8.576  1.00  0.00    -0.387 OA
ATOM     11  H2  UNL     1      39.538  35.222  -8.303  1.00  0.00     0.210 HD
ENDBRANCH   9  10
TORSDOF 1
ENDMDL
MODEL 3
REMARK VINA RESULT: -4.293819875      1.790      1.902
REMARK  1 active torsions:
REMARK  status: ('A' for Active; 'I' for Inactive)
REMARK    1  A    between atoms: C4_9  and  O2_10 
ROOT
HETATM    1  N1  UNL     1      37.935  34.857  -9.354  1.00  0.00    -0.395 N 
ATOM      2  H11 UNL     1      38.262  35.812  -9.491  1.00  0.00     0.156 HD
ATOM      3  H12 UNL     1      37.482  34.493 -10.193  1.00  0.00     0.156 HD
HETATM    4  C1  UNL     1      38.077  34.216  -8.280  1.00  0.00     0.073 C 
HETATM    5  S1  UNL     1      37.498  32.526  -8.039  1.00  0.00    -0.088 SA
HETATM    6  C2  UNL     1      37.512  32.417  -6.200  1.00  0.00     0.248 C 
HETATM    7  O1  UNL     1      37.045  33.616  -5.746  1.00  0.00    -0.378 OA
HETATM    8  C3  UNL     1      37.884  34.676  -5.845  1.00  0.00     0.207 C 
HETATM    9  C4  UNL     1      38.738  34.747  -7.054  1.00  0.00     0.198 C 
ENDROOT
BRANCH   9  10
HETATM   10  O2  UNL     1      39.076  36.085  -7.274  1.00  0.00    -0.387 OA
ATOM     11  H2  UNL     1      39.870  36.280  -6.790  1.00  0.00     0.210 HD
ENDBRANCH   9  10
TORSDOF 1
ENDMDL
MODEL 4
REMARK VINA RESULT: -4.272355871      3.722      4.192
REMARK  1 active torsions:
REMARK  status: ('A' for Active; 'I' for Inactive)
REMARK    1  A    between atoms: C4_9  and  O2_10 
ROOT
HETATM    1  N1  UNL     1      34.834  31.190  -9.007  1.00  0.00    -0.395 N 
ATOM      2  H11 UNL     1      34.223  30.669  -8.379  1.00  0.00     0.156 HD
ATOM      3  H12 UNL     1      34.446  31.240  -9.949  1.00  0.00     0.156 HD
HETATM    4  C1  UNL     1      35.927  31.702  -8.653  1.00  0.00     0.073 C 
HETATM    5  S1  UNL     1      37.007  32.623  -9.764  1.00  0.00    -0.088 SA
HETATM    6  C2  UNL     1      38.585  32.593  -8.814  1.00  0.00     0.248 C 
HETATM    7  O1  UNL     1      38.679  31.342  -8.276  1.00  0.00    -0.378 OA
HETATM    8  C3  UNL     1      37.863  31.062  -7.231  1.00  0.00     0.207 C 
HETATM    9  C4  UNL     1      36.495  31.629  -7.276  1.00  0.00     0.198 C 
ENDROOT
BRANCH   9  10
HETATM   10  O2  UNL     1      35.661  30.826  -6.494  1.00  0.00    -0.387 OA
ATOM     11  H2  UNL     1      35.454  31.294  -5.693  1.00  0.00     0.210 HD
ENDBRANCH   9  10
TORSDOF 1
ENDMDL
MODEL 5
REMARK VINA RESULT: -4.194253305      2.957      3.446
REMARK  1 active torsions:
REMARK  status: ('A' for Active; 'I' for Inactive)
REMARK    1  A    between atoms: C4_9  and  O2_10 
ROOT
HETATM    1  N1  UNL     1      37.283  32.884  -5.946  1.00  0.00    -0.395 N 
ATOM      2  H11 UNL     1      36.797  32.182  -5.389  1.00  0.00     0.156 HD
ATOM      3  H12 UNL     1      37.828  33.516  -5.359  1.00  0.00     0.156 HD
HETATM    4  C1  UNL     1      37.213  32.951  -7.201  1.00  0.00     0.073 C 
HETATM    5  S1  UNL     1      38.073  34.191  -8.186  1.00  0.00    -0.088 SA
HETATM    6  C2  UNL     1      37.140  34.079  -9.771  1.00  0.00     0.248 C 
HETATM    7  O1  UNL     1      35.827  33.934  -9.428  1.00  0.00    -0.378 OA
HETATM    8  C3  UNL     1      35.452  32.726  -8.940  1.00  0.00     0.207 C 
HETATM    9  C4  UNL     1      36.416  32.028  -8.059  1.00  0.00     0.198 C 
ENDROOT
BRANCH   9  10
HETATM   10  O2  UNL     1      35.703  31.156  -7.232  1.00  0.00    -0.387 OA
ATOM     11  H2  UNL     1      34.939  31.613  -6.897  1.00  0.00     0.210 HD
ENDBRANCH   9  10
TORSDOF 1
ENDMDL
