MODEL 1
REMARK VINA RESULT: -3.817877913      0.000      0.000
REMARK  2 active torsions:
REMARK  status: ('A' for Active; 'I' for Inactive)
REMARK    1  A    between atoms: O1_1  and  C1_3 
REMARK    2  A    between atoms: C4_7  and  O2_8 
ROOT
HETATM    1  C1  UNL     1      38.088  34.746  -5.851  1.00  0.00     0.157 C 
HETATM    2  C2  UNL     1      38.587  35.047  -7.264  1.00  0.00     0.045 C 
HETATM    3  C3  UNL     1      39.803  34.125  -7.433  1.00  0.00     0.079 C 
HETATM    4  S1  UNL     1      39.060  32.565  -6.797  1.00  0.00    -0.135 SA
HETATM    5  C4  UNL     1      37.559  33.315  -6.042  1.00  0.00     0.208 C 
ENDROOT
BRANCH   1   6
HETATM    6  O1  UNL     1      39.088  34.774  -4.917  1.00  0.00    -0.392 OA
ATOM      7  H1  UNL     1      38.761  34.876  -4.031  1.00  0.00     0.210 HD
ENDBRANCH   1   6
BRANCH   5   8
HETATM    8  O2  UNL     1      36.542  33.394  -6.966  1.00  0.00    -0.383 OA
ATOM      9  H2  UNL     1      36.822  34.020  -7.623  1.00  0.00     0.211 HD
ENDBRANCH   5   8
TORSDOF 2
ENDMDL
MODEL 2
REMARK VINA RESULT: -3.779507080      1.202      2.522
REMARK  2 active torsions:
REMARK  status: ('A' for Active; 'I' for Inactive)
REMARK    1  A    between atoms: O1_1  and  C1_3 
REMARK    2  A    between atoms: C4_7  and  O2_8 
ROOT
HETATM    1  C1  UNL     1      37.526  33.382  -6.020  1.00  0.00     0.157 C 
HETATM    2  C2  UNL     1      38.770  32.604  -6.449  1.00  0.00     0.045 C 
HETATM    3  C3  UNL     1      39.045  33.100  -7.875  1.00  0.00     0.079 C 
HETATM    4  S1  UNL     1      38.882  34.909  -7.577  1.00  0.00    -0.135 SA
HETATM    5  C4  UNL     1      38.110  34.800  -5.911  1.00  0.00     0.208 C 
ENDROOT
BRANCH   1   6
HETATM    6  O1  UNL     1      36.524  33.339  -6.952  1.00  0.00    -0.392 OA
ATOM      7  H1  UNL     1      36.852  33.293  -7.842  1.00  0.00     0.210 HD
ENDBRANCH   1   6
BRANCH   5   8
HETATM    8  O2  UNL     1      39.076  34.752  -4.933  1.00  0.00    -0.383 OA
ATOM      9  H2  UNL     1      39.606  35.533  -5.037  1.00  0.00     0.211 HD
ENDBRANCH   5   8
TORSDOF 2
ENDMDL
MODEL 3
REMARK VINA RESULT: -3.554891990      2.083      2.491
REMARK  2 active torsions:
REMARK  status: ('A' for Active; 'I' for Inactive)
REMARK    1  A    between atoms: O1_1  and  C1_3 
REMARK    2  A    between atoms: C4_7  and  O2_8 
ROOT
HETATM    1  C1  UNL     1      36.866  31.986  -5.831  1.00  0.00     0.157 C 
HETATM    2  C2  UNL     1      37.491  33.319  -6.239  1.00  0.00     0.045 C 
HETATM    3  C3  UNL     1      38.866  32.930  -6.802  1.00  0.00     0.079 C 
HETATM    4  S1  UNL     1      38.337  31.540  -7.888  1.00  0.00    -0.135 SA
HETATM    5  C4  UNL     1      36.637  31.352  -7.213  1.00  0.00     0.208 C 
ENDROOT
BRANCH   1   6
HETATM    6  O1  UNL     1      37.707  31.214  -5.076  1.00  0.00    -0.392 OA
ATOM      7  H1  UNL     1      38.592  31.189  -5.419  1.00  0.00     0.210 HD
ENDBRANCH   1   6
BRANCH   5   8
HETATM    8  O2  UNL     1      35.758  32.175  -7.879  1.00  0.00    -0.383 OA
ATOM      9  H2  UNL     1      34.921  31.726  -7.888  1.00  0.00     0.211 HD
ENDBRANCH   5   8
TORSDOF 2
ENDMDL
MODEL 4
REMARK VINA RESULT: -3.506916927      3.377      4.007
REMARK  2 active torsions:
REMARK  status: ('A' for Active; 'I' for Inactive)
REMARK    1  A    between atoms: O1_1  and  C1_3 
REMARK    2  A    between atoms: C4_7  and  O2_8 
ROOT
HETATM    1  C1  UNL     1      35.473  32.720  -9.167  1.00  0.00     0.157 C 
HETATM    2  C2  UNL     1      36.416  32.576 -10.360  1.00  0.00     0.045 C 
HETATM    3  C3  UNL     1      37.229  33.879 -10.352  1.00  0.00     0.079 C 
HETATM    4  S1  UNL     1      37.658  33.927  -8.562  1.00  0.00    -0.135 SA
HETATM    5  C4  UNL     1      36.478  32.630  -8.006  1.00  0.00     0.208 C 
ENDROOT
BRANCH   1   6
HETATM    6  O1  UNL     1      34.817  33.922  -9.149  1.00  0.00    -0.392 OA
ATOM      7  H1  UNL     1      34.369  34.086  -8.328  1.00  0.00     0.210 HD
ENDBRANCH   1   6
BRANCH   5   8
HETATM    8  O2  UNL     1      37.056  31.384  -8.086  1.00  0.00    -0.383 OA
ATOM      9  H2  UNL     1      36.365  30.781  -8.331  1.00  0.00     0.211 HD
ENDBRANCH   5   8
TORSDOF 2
ENDMDL
MODEL 5
REMARK VINA RESULT: -3.499278540      2.759      3.453
REMARK  2 active torsions:
REMARK  status: ('A' for Active; 'I' for Inactive)
REMARK    1  A    between atoms: O1_1  and  C1_3 
REMARK    2  A    between atoms: C4_7  and  O2_8 
ROOT
HETATM    1  C1  UNL     1      36.097  32.042  -8.578  1.00  0.00     0.157 C 
HETATM    2  C2  UNL     1      37.521  32.413  -8.994  1.00  0.00     0.045 C 
HETATM    3  C3  UNL     1      37.938  33.485  -7.977  1.00  0.00     0.079 C 
HETATM    4  S1  UNL     1      37.386  32.638  -6.438  1.00  0.00    -0.135 SA
HETATM    5  C4  UNL     1      36.374  31.330  -7.244  1.00  0.00     0.208 C 
ENDROOT
BRANCH   1   6
HETATM    6  O1  UNL     1      35.297  33.137  -8.388  1.00  0.00    -0.392 OA
ATOM      7  H1  UNL     1      35.788  33.915  -8.153  1.00  0.00     0.210 HD
ENDBRANCH   1   6
BRANCH   5   8
HETATM    8  O2  UNL     1      37.150  30.233  -7.540  1.00  0.00    -0.383 OA
ATOM      9  H2  UNL     1      36.612  29.657  -8.071  1.00  0.00     0.211 HD
ENDBRANCH   5   8
TORSDOF 2
ENDMDL
