MODEL 1
REMARK VINA RESULT: -5.471413208      0.000      0.000
REMARK  4 active torsions:
REMARK  status: ('A' for Active; 'I' for Inactive)
REMARK    1  A    between atoms: C2_2  and  C4_4 
REMARK    2  A    between atoms: C4_4  and  N1_5 
REMARK    3  A    between atoms: N1_5  and  O1_6 
REMARK    4  A    between atoms: N1_5  and  C5_8 
ROOT
HETATM    1  C5  UNL     1     -14.304  22.413   8.853  1.00  0.00     0.118 C 
HETATM    2  N2  UNL     1     -14.971  21.489   8.313  1.00  0.00    -0.375 N 
ATOM      3  H2  UNL     1     -15.942  21.716   8.096  1.00  0.00     0.160 HD
HETATM    4  C6  UNL     1     -14.553  20.163   7.962  1.00  0.00     0.140 C 
HETATM    5  C7  UNL     1     -13.265  20.063   7.216  1.00  0.00     0.018 C 
HETATM    6  C8  UNL     1     -12.573  18.764   7.638  1.00  0.00     0.028 C 
HETATM    7  C9  UNL     1     -13.553  20.070   5.740  1.00  0.00     0.028 C 
HETATM    8  S1  UNL     1     -12.137  21.408   7.707  1.00  0.00    -0.141 SA
HETATM    9  C10 UNL     1     -12.881  22.142   9.192  1.00  0.00     0.061 C 
HETATM   10  C11 UNL     1     -12.785  21.138  10.322  1.00  0.00     0.035 C 
HETATM   11  C12 UNL     1     -12.153  23.392   9.616  1.00  0.00     0.035 C 
ENDROOT
BRANCH   1  12
HETATM   12  N1  UNL     1     -14.931  23.662   9.114  1.00  0.00    -0.247 N 
BRANCH  12  13
HETATM   13  C4  UNL     1     -15.319  24.152  10.383  1.00  0.00     0.161 C 
BRANCH  13  14
HETATM   14  C2  UNL     1     -16.348  25.220  10.431  1.00  0.00    -0.002 C 
HETATM   15  C1  UNL     1     -16.425  25.677  11.896  1.00  0.00     0.011 C 
HETATM   16  C3  UNL     1     -17.743  24.736  10.075  1.00  0.00     0.011 C 
ENDBRANCH  13  14
ENDBRANCH  12  13
BRANCH  12  17
HETATM   17  O1  UNL     1     -15.168  24.423   8.001  1.00  0.00    -0.286 OA
ATOM     18  H1  UNL     1     -15.904  24.210   7.440  1.00  0.00     0.244 HD
ENDBRANCH  12  17
ENDBRANCH   1  12
TORSDOF 4
ENDMDL
MODEL 2
REMARK VINA RESULT: -5.319208927      2.332      2.876
REMARK  4 active torsions:
REMARK  status: ('A' for Active; 'I' for Inactive)
REMARK    1  A    between atoms: C2_2  and  C4_4 
REMARK    2  A    between atoms: C4_4  and  N1_5 
REMARK    3  A    between atoms: N1_5  and  O1_6 
REMARK    4  A    between atoms: N1_5  and  C5_8 
ROOT
HETATM    1  C5  UNL     1     -13.375  21.304   8.767  1.00  0.00     0.118 C 
HETATM    2  N2  UNL     1     -14.485  21.095   8.208  1.00  0.00    -0.375 N 
ATOM      3  H2  UNL     1     -15.121  21.893   8.177  1.00  0.00     0.160 HD
HETATM    4  C6  UNL     1     -14.980  19.888   7.610  1.00  0.00     0.140 C 
HETATM    5  C7  UNL     1     -14.049  19.200   6.669  1.00  0.00     0.018 C 
HETATM    6  C8  UNL     1     -14.284  17.692   6.789  1.00  0.00     0.028 C 
HETATM    7  C9  UNL     1     -14.321  19.683   5.271  1.00  0.00     0.028 C 
HETATM    8  S1  UNL     1     -12.317  19.472   7.171  1.00  0.00    -0.141 SA
HETATM    9  C10 UNL     1     -12.406  20.178   8.842  1.00  0.00     0.061 C 
HETATM   10  C11 UNL     1     -12.908  19.106   9.787  1.00  0.00     0.035 C 
HETATM   11  C12 UNL     1     -11.051  20.628   9.325  1.00  0.00     0.035 C 
ENDROOT
BRANCH   1  12
HETATM   12  N1  UNL     1     -13.096  22.593   9.298  1.00  0.00    -0.247 N 
BRANCH  12  13
HETATM   13  C4  UNL     1     -13.507  23.083  10.560  1.00  0.00     0.161 C 
BRANCH  13  14
HETATM   14  C2  UNL     1     -12.959  22.426  11.773  1.00  0.00    -0.002 C 
HETATM   15  C1  UNL     1     -13.911  22.786  12.924  1.00  0.00     0.011 C 
HETATM   16  C3  UNL     1     -11.595  22.952  12.184  1.00  0.00     0.011 C 
ENDBRANCH  13  14
ENDBRANCH  12  13
BRANCH  12  17
HETATM   17  O1  UNL     1     -12.365  23.403   8.471  1.00  0.00    -0.286 OA
ATOM     18  H1  UNL     1     -11.445  23.547   8.655  1.00  0.00     0.244 HD
ENDBRANCH  12  17
ENDBRANCH   1  12
TORSDOF 4
ENDMDL
MODEL 3
REMARK VINA RESULT: -5.276728800      2.049      2.532
REMARK  4 active torsions:
REMARK  status: ('A' for Active; 'I' for Inactive)
REMARK    1  A    between atoms: C2_2  and  C4_4 
REMARK    2  A    between atoms: C4_4  and  N1_5 
REMARK    3  A    between atoms: N1_5  and  O1_6 
REMARK    4  A    between atoms: N1_5  and  C5_8 
ROOT
HETATM    1  C5  UNL     1     -13.813  21.679   8.472  1.00  0.00     0.118 C 
HETATM    2  N2  UNL     1     -14.768  20.868   8.332  1.00  0.00    -0.375 N 
ATOM      3  H2  UNL     1     -15.677  21.197   8.660  1.00  0.00     0.160 HD
HETATM    4  C6  UNL     1     -14.753  19.546   7.776  1.00  0.00     0.140 C 
HETATM    5  C7  UNL     1     -14.056  19.399   6.467  1.00  0.00     0.018 C 
HETATM    6  C8  UNL     1     -13.407  18.013   6.429  1.00  0.00     0.028 C 
HETATM    7  C9  UNL     1     -15.060  19.559   5.358  1.00  0.00     0.028 C 
HETATM    8  S1  UNL     1     -12.683  20.592   6.336  1.00  0.00    -0.141 SA
HETATM    9  C10 UNL     1     -12.463  21.257   8.011  1.00  0.00     0.061 C 
HETATM   10  C11 UNL     1     -11.921  20.154   8.896  1.00  0.00     0.035 C 
HETATM   11  C12 UNL     1     -11.477  22.396   8.029  1.00  0.00     0.035 C 
ENDROOT
BRANCH   1  12
HETATM   12  N1  UNL     1     -14.061  22.951   9.057  1.00  0.00    -0.247 N 
BRANCH  12  13
HETATM   13  C4  UNL     1     -13.516  23.431  10.271  1.00  0.00     0.161 C 
BRANCH  13  14
HETATM   14  C2  UNL     1     -13.275  22.452  11.360  1.00  0.00    -0.002 C 
HETATM   15  C1  UNL     1     -14.023  22.986  12.592  1.00  0.00     0.011 C 
HETATM   16  C3  UNL     1     -11.817  22.351  11.773  1.00  0.00     0.011 C 
ENDBRANCH  13  14
ENDBRANCH  12  13
BRANCH  12  17
HETATM   17  O1  UNL     1     -14.919  23.747   8.347  1.00  0.00    -0.286 OA
ATOM     18  H1  UNL     1     -15.576  24.252   8.811  1.00  0.00     0.244 HD
ENDBRANCH  12  17
ENDBRANCH   1  12
TORSDOF 4
ENDMDL
MODEL 4
REMARK VINA RESULT: -5.164364516      2.264      5.399
REMARK  4 active torsions:
REMARK  status: ('A' for Active; 'I' for Inactive)
REMARK    1  A    between atoms: C2_2  and  C4_4 
REMARK    2  A    between atoms: C4_4  and  N1_5 
REMARK    3  A    between atoms: N1_5  and  O1_6 
REMARK    4  A    between atoms: N1_5  and  C5_8 
ROOT
HETATM    1  C5  UNL     1     -14.099  21.001   8.246  1.00  0.00     0.118 C 
HETATM    2  N2  UNL     1     -14.145  22.259   8.172  1.00  0.00    -0.375 N 
ATOM      3  H2  UNL     1     -14.922  22.641   7.633  1.00  0.00     0.160 HD
HETATM    4  C6  UNL     1     -13.253  23.228   8.742  1.00  0.00     0.140 C 
HETATM    5  C7  UNL     1     -12.918  23.035  10.182  1.00  0.00     0.018 C 
HETATM    6  C8  UNL     1     -11.477  23.505  10.400  1.00  0.00     0.028 C 
HETATM    7  C9  UNL     1     -13.881  23.831  11.019  1.00  0.00     0.028 C 
HETATM    8  S1  UNL     1     -12.930  21.263  10.610  1.00  0.00    -0.141 SA
HETATM    9  C10 UNL     1     -12.989  20.385   9.021  1.00  0.00     0.061 C 
HETATM   10  C11 UNL     1     -11.667  20.593   8.311  1.00  0.00     0.035 C 
HETATM   11  C12 UNL     1     -13.187  18.904   9.214  1.00  0.00     0.035 C 
ENDROOT
BRANCH   1  12
HETATM   12  N1  UNL     1     -15.100  20.230   7.594  1.00  0.00    -0.247 N 
BRANCH  12  13
HETATM   13  C4  UNL     1     -14.875  19.164   6.690  1.00  0.00     0.161 C 
BRANCH  13  14
HETATM   14  C2  UNL     1     -13.984  19.414   5.530  1.00  0.00    -0.002 C 
HETATM   15  C1  UNL     1     -14.837  19.179   4.274  1.00  0.00     0.011 C 
HETATM   16  C3  UNL     1     -12.826  18.436   5.432  1.00  0.00     0.011 C 
ENDBRANCH  13  14
ENDBRANCH  12  13
BRANCH  12  17
HETATM   17  O1  UNL     1     -16.385  20.594   7.893  1.00  0.00    -0.286 OA
ATOM     18  H1  UNL     1     -16.593  21.514   8.004  1.00  0.00     0.244 HD
ENDBRANCH  12  17
ENDBRANCH   1  12
TORSDOF 4
ENDMDL
MODEL 5
REMARK VINA RESULT: -5.119582977      2.120      3.990
REMARK  4 active torsions:
REMARK  status: ('A' for Active; 'I' for Inactive)
REMARK    1  A    between atoms: C2_2  and  C4_4 
REMARK    2  A    between atoms: C4_4  and  N1_5 
REMARK    3  A    between atoms: N1_5  and  O1_6 
REMARK    4  A    between atoms: N1_5  and  C5_8 
ROOT
HETATM    1  C5  UNL     1     -14.484  23.771   9.890  1.00  0.00     0.118 C 
HETATM    2  N2  UNL     1     -14.261  24.382  10.970  1.00  0.00    -0.375 N 
ATOM      3  H2  UNL     1     -14.975  25.054  11.251  1.00  0.00     0.160 HD
HETATM    4  C6  UNL     1     -13.141  24.263  11.858  1.00  0.00     0.140 C 
HETATM    5  C7  UNL     1     -12.749  22.872  12.227  1.00  0.00     0.018 C 
HETATM    6  C8  UNL     1     -11.229  22.840  12.404  1.00  0.00     0.028 C 
HETATM    7  C9  UNL     1     -13.452  22.488  13.501  1.00  0.00     0.028 C 
HETATM    8  S1  UNL     1     -13.113  21.722  10.861  1.00  0.00    -0.141 SA
HETATM    9  C10 UNL     1     -13.478  22.776   9.429  1.00  0.00     0.061 C 
HETATM   10  C11 UNL     1     -12.199  23.470   9.007  1.00  0.00     0.035 C 
HETATM   11  C12 UNL     1     -13.977  21.967   8.259  1.00  0.00     0.035 C 
ENDROOT
BRANCH   1  12
HETATM   12  N1  UNL     1     -15.673  24.052   9.164  1.00  0.00    -0.247 N 
BRANCH  12  13
HETATM   13  C4  UNL     1     -16.996  23.814   9.606  1.00  0.00     0.161 C 
BRANCH  13  14
HETATM   14  C2  UNL     1     -18.103  24.056   8.648  1.00  0.00    -0.002 C 
HETATM   15  C1  UNL     1     -19.170  24.852   9.416  1.00  0.00     0.011 C 
HETATM   16  C3  UNL     1     -18.792  22.785   8.183  1.00  0.00     0.011 C 
ENDBRANCH  13  14
ENDBRANCH  12  13
BRANCH  12  17
HETATM   17  O1  UNL     1     -15.469  24.595   7.924  1.00  0.00    -0.286 OA
ATOM     18  H1  UNL     1     -14.758  25.211   7.798  1.00  0.00     0.244 HD
ENDBRANCH  12  17
ENDBRANCH   1  12
TORSDOF 4
ENDMDL
