MODEL 1
REMARK VINA RESULT: -6.508697761      0.000      0.000
REMARK  3 active torsions:
REMARK  status: ('A' for Active; 'I' for Inactive)
REMARK    1  A    between atoms: C2_2  and  O1_3 
REMARK    2  A    between atoms: C2_2  and  N1_5 
REMARK    3  A    between atoms: N3_11  and  N4_13 
ROOT
HETATM    1  N1  UNL     1     -18.160  23.761   9.228  1.00  0.00    -0.210 N 
HETATM    2  N2  UNL     1     -18.835  24.651   9.880  1.00  0.00    -0.295 N 
ATOM      3  H2  UNL     1     -19.846  24.549   9.965  1.00  0.00     0.187 HD
HETATM    4  C3  UNL     1     -18.247  25.676  10.432  1.00  0.00     0.160 A 
HETATM    5  S1  UNL     1     -16.624  25.397  10.020  1.00  0.00    -0.044 SA
HETATM    6  C4  UNL     1     -16.844  23.927   9.139  1.00  0.00     0.188 A 
HETATM    7  N3  UNL     1     -15.910  23.199   8.564  1.00  0.00    -0.278 N 
ATOM      8  H3  UNL     1     -16.153  22.335   8.078  1.00  0.00     0.189 HD
ENDROOT
BRANCH   1   9
HETATM    9  C2  UNL     1     -18.870  22.633   8.650  1.00  0.00     0.154 C 
HETATM   10  C1  UNL     1     -19.680  21.851   9.310  1.00  0.00     0.073 C 
BRANCH   9  11
HETATM   11  O1  UNL     1     -18.680  22.356   7.279  1.00  0.00    -0.345 OA
ATOM     12  H1  UNL     1     -19.218  22.836   6.661  1.00  0.00     0.219 HD
ENDBRANCH   9  11
ENDBRANCH   1   9
BRANCH   7  13
HETATM   13  N4  UNL     1     -14.606  23.617   8.629  1.00  0.00    -0.307 N 
HETATM   14  C5  UNL     1     -13.582  22.817   8.719  1.00  0.00     0.004 C 
HETATM   15  C6  UNL     1     -13.796  21.362   8.752  1.00  0.00     0.054 C 
HETATM   16  C10 UNL     1     -12.251  23.469   8.778  1.00  0.00     0.054 C 
HETATM   17  C7  UNL     1     -12.499  20.628   8.839  1.00  0.00     0.006 C 
HETATM   18  C8  UNL     1     -11.548  21.251   7.831  1.00  0.00     0.001 C 
HETATM   19  C9  UNL     1     -11.142  22.618   8.266  1.00  0.00     0.006 C 
ATOM     20  H4  UNL     1     -14.426  24.621   8.606  1.00  0.00     0.186 HD
ENDBRANCH   7  13
TORSDOF 3
ENDMDL
MODEL 2
REMARK VINA RESULT: -6.364367469      2.551      5.789
REMARK  3 active torsions:
REMARK  status: ('A' for Active; 'I' for Inactive)
REMARK    1  A    between atoms: C2_2  and  O1_3 
REMARK    2  A    between atoms: C2_2  and  N1_5 
REMARK    3  A    between atoms: N3_11  and  N4_13 
ROOT
HETATM    1  N1  UNL     1     -13.812  20.182   8.456  1.00  0.00    -0.210 N 
HETATM    2  N2  UNL     1     -12.835  19.642   9.111  1.00  0.00    -0.295 N 
ATOM      3  H2  UNL     1     -12.509  18.712   8.848  1.00  0.00     0.187 HD
HETATM    4  C3  UNL     1     -12.259  20.265  10.102  1.00  0.00     0.160 A 
HETATM    5  S1  UNL     1     -13.134  21.719  10.141  1.00  0.00    -0.044 SA
HETATM    6  C4  UNL     1     -14.209  21.394   8.829  1.00  0.00     0.188 A 
HETATM    7  N3  UNL     1     -15.147  22.187   8.356  1.00  0.00    -0.278 N 
ATOM      8  H3  UNL     1     -15.719  21.897   7.563  1.00  0.00     0.189 HD
ENDROOT
BRANCH   1   9
HETATM    9  C2  UNL     1     -14.401  19.444   7.352  1.00  0.00     0.154 C 
HETATM   10  C1  UNL     1     -13.765  18.569   6.622  1.00  0.00     0.073 C 
BRANCH   9  11
HETATM   11  O1  UNL     1     -15.757  19.682   7.039  1.00  0.00    -0.345 OA
ATOM     12  H1  UNL     1     -16.363  19.755   7.766  1.00  0.00     0.219 HD
ENDBRANCH   9  11
ENDBRANCH   1   9
BRANCH   7  13
HETATM   13  N4  UNL     1     -15.344  23.409   8.946  1.00  0.00    -0.307 N 
HETATM   14  C5  UNL     1     -16.492  24.024   8.996  1.00  0.00     0.004 C 
HETATM   15  C6  UNL     1     -17.680  23.398   8.393  1.00  0.00     0.054 C 
HETATM   16  C10 UNL     1     -16.495  25.340   9.680  1.00  0.00     0.054 C 
HETATM   17  C7  UNL     1     -18.890  24.254   8.573  1.00  0.00     0.006 C 
HETATM   18  C8  UNL     1     -18.909  24.729  10.017  1.00  0.00     0.001 C 
HETATM   19  C9  UNL     1     -17.815  25.711  10.262  1.00  0.00     0.006 C 
ATOM     20  H4  UNL     1     -14.539  23.867   9.374  1.00  0.00     0.186 HD
ENDBRANCH   7  13
TORSDOF 3
ENDMDL
MODEL 3
REMARK VINA RESULT: -6.319916307      1.472      1.737
REMARK  3 active torsions:
REMARK  status: ('A' for Active; 'I' for Inactive)
REMARK    1  A    between atoms: C2_2  and  O1_3 
REMARK    2  A    between atoms: C2_2  and  N1_5 
REMARK    3  A    between atoms: N3_11  and  N4_13 
ROOT
HETATM    1  N1  UNL     1     -17.301  24.693  10.017  1.00  0.00    -0.210 N 
HETATM    2  N2  UNL     1     -17.439  25.300  11.151  1.00  0.00    -0.295 N 
ATOM      3  H2  UNL     1     -18.368  25.603  11.447  1.00  0.00     0.187 HD
HETATM    4  C3  UNL     1     -16.415  25.531  11.924  1.00  0.00     0.160 A 
HETATM    5  S1  UNL     1     -15.148  24.858  11.016  1.00  0.00    -0.044 SA
HETATM    6  C4  UNL     1     -16.077  24.313   9.665  1.00  0.00     0.188 A 
HETATM    7  N3  UNL     1     -15.634  23.678   8.601  1.00  0.00    -0.278 N 
ATOM      8  H3  UNL     1     -16.277  23.389   7.864  1.00  0.00     0.189 HD
ENDROOT
BRANCH   1   9
HETATM    9  C2  UNL     1     -18.484  24.450   9.208  1.00  0.00     0.154 C 
HETATM   10  C1  UNL     1     -19.529  25.230   9.171  1.00  0.00     0.073 C 
BRANCH   9  11
HETATM   11  O1  UNL     1     -18.514  23.293   8.401  1.00  0.00    -0.345 OA
ATOM     12  H1  UNL     1     -17.679  22.943   8.113  1.00  0.00     0.219 HD
ENDBRANCH   9  11
ENDBRANCH   1   9
BRANCH   7  13
HETATM   13  N4  UNL     1     -14.293  23.411   8.497  1.00  0.00    -0.307 N 
HETATM   14  C5  UNL     1     -13.788  22.212   8.415  1.00  0.00     0.004 C 
HETATM   15  C6  UNL     1     -14.681  21.043   8.430  1.00  0.00     0.054 C 
HETATM   16  C10 UNL     1     -12.310  22.136   8.310  1.00  0.00     0.054 C 
HETATM   17  C7  UNL     1     -13.907  19.772   8.310  1.00  0.00     0.006 C 
HETATM   18  C8  UNL     1     -12.886  19.957   7.200  1.00  0.00     0.001 C 
HETATM   19  C9  UNL     1     -11.820  20.911   7.619  1.00  0.00     0.006 C 
ATOM     20  H4  UNL     1     -13.649  24.202   8.483  1.00  0.00     0.186 HD
ENDBRANCH   7  13
TORSDOF 3
ENDMDL
MODEL 4
REMARK VINA RESULT: -6.210006617      2.345      5.892
REMARK  3 active torsions:
REMARK  status: ('A' for Active; 'I' for Inactive)
REMARK    1  A    between atoms: C2_2  and  O1_3 
REMARK    2  A    between atoms: C2_2  and  N1_5 
REMARK    3  A    between atoms: N3_11  and  N4_13 
ROOT
HETATM    1  N1  UNL     1     -13.212  21.373   8.598  1.00  0.00    -0.210 N 
HETATM    2  N2  UNL     1     -12.221  20.965   9.323  1.00  0.00    -0.295 N 
ATOM      3  H2  UNL     1     -11.666  20.169   9.009  1.00  0.00     0.187 HD
HETATM    4  C3  UNL     1     -11.919  21.553  10.447  1.00  0.00     0.160 A 
HETATM    5  S1  UNL     1     -13.098  22.772  10.519  1.00  0.00    -0.044 SA
HETATM    6  C4  UNL     1     -13.913  22.412   9.039  1.00  0.00     0.188 A 
HETATM    7  N3  UNL     1     -14.945  23.048   8.526  1.00  0.00    -0.278 N 
ATOM      8  H3  UNL     1     -15.342  22.757   7.633  1.00  0.00     0.189 HD
ENDROOT
BRANCH   1   9
HETATM    9  C2  UNL     1     -13.488  20.687   7.347  1.00  0.00     0.154 C 
HETATM   10  C1  UNL     1     -12.591  20.404   6.444  1.00  0.00     0.073 C 
BRANCH   9  11
HETATM   11  O1  UNL     1     -14.817  20.293   7.082  1.00  0.00    -0.345 OA
ATOM     12  H1  UNL     1     -15.430  20.316   7.808  1.00  0.00     0.219 HD
ENDBRANCH   9  11
ENDBRANCH   1   9
BRANCH   7  13
HETATM   13  N4  UNL     1     -15.480  24.109   9.211  1.00  0.00    -0.307 N 
HETATM   14  C5  UNL     1     -16.738  24.447   9.176  1.00  0.00     0.004 C 
HETATM   15  C6  UNL     1     -17.679  23.664   8.361  1.00  0.00     0.054 C 
HETATM   16  C10 UNL     1     -17.116  25.629   9.989  1.00  0.00     0.054 C 
HETATM   17  C7  UNL     1     -19.067  24.205   8.471  1.00  0.00     0.006 C 
HETATM   18  C8  UNL     1     -19.344  24.468   9.942  1.00  0.00     0.001 C 
HETATM   19  C9  UNL     1     -18.538  25.624  10.430  1.00  0.00     0.006 C 
ATOM     20  H4  UNL     1     -14.851  24.670   9.787  1.00  0.00     0.186 HD
ENDBRANCH   7  13
TORSDOF 3
ENDMDL
MODEL 5
REMARK VINA RESULT: -6.006003385      3.422      5.795
REMARK  3 active torsions:
REMARK  status: ('A' for Active; 'I' for Inactive)
REMARK    1  A    between atoms: C2_2  and  O1_3 
REMARK    2  A    between atoms: C2_2  and  N1_5 
REMARK    3  A    between atoms: N3_11  and  N4_13 
ROOT
HETATM    1  N1  UNL     1     -13.793  19.431   7.484  1.00  0.00    -0.210 N 
HETATM    2  N2  UNL     1     -13.212  18.300   7.726  1.00  0.00    -0.295 N 
ATOM      3  H2  UNL     1     -13.263  17.553   7.034  1.00  0.00     0.187 HD
HETATM    4  C3  UNL     1     -12.563  18.098   8.839  1.00  0.00     0.160 A 
HETATM    5  S1  UNL     1     -12.766  19.590   9.624  1.00  0.00    -0.044 SA
HETATM    6  C4  UNL     1     -13.705  20.381   8.409  1.00  0.00     0.188 A 
HETATM    7  N3  UNL     1     -14.170  21.612   8.441  1.00  0.00    -0.278 N 
ATOM      8  H3  UNL     1     -14.705  21.984   7.656  1.00  0.00     0.189 HD
ENDROOT
BRANCH   1   9
HETATM    9  C2  UNL     1     -14.486  19.600   6.218  1.00  0.00     0.154 C 
HETATM   10  C1  UNL     1     -13.949  19.398   5.046  1.00  0.00     0.073 C 
BRANCH   9  11
HETATM   11  O1  UNL     1     -15.837  20.008   6.247  1.00  0.00    -0.345 OA
ATOM     12  H1  UNL     1     -16.149  20.418   7.045  1.00  0.00     0.219 HD
ENDBRANCH   9  11
ENDBRANCH   1   9
BRANCH   7  13
HETATM   13  N4  UNL     1     -13.925  22.386   9.546  1.00  0.00    -0.307 N 
HETATM   14  C5  UNL     1     -14.602  23.456   9.857  1.00  0.00     0.004 C 
HETATM   15  C6  UNL     1     -15.711  23.892   8.995  1.00  0.00     0.054 C 
HETATM   16  C10 UNL     1     -14.178  24.154  11.095  1.00  0.00     0.054 C 
HETATM   17  C7  UNL     1     -16.363  25.121   9.536  1.00  0.00     0.006 C 
HETATM   18  C8  UNL     1     -16.572  24.915  11.027  1.00  0.00     0.001 C 
HETATM   19  C9  UNL     1     -15.267  24.932  11.748  1.00  0.00     0.006 C 
ATOM     20  H4  UNL     1     -13.163  22.107  10.164  1.00  0.00     0.186 HD
ENDBRANCH   7  13
TORSDOF 3
ENDMDL
