MODEL 1
REMARK VINA RESULT: -5.221865460      0.000      0.000
REMARK  3 active torsions:
REMARK  status: ('A' for Active; 'I' for Inactive)
REMARK    1  A    between atoms: C2_2  and  C3_3 
REMARK    2  A    between atoms: C3_3  and  C4_4 
REMARK    3  A    between atoms: C4_4  and  N1_5 
ROOT
HETATM    1  C1  UNL     1     -11.462  19.295   7.444  1.00  0.00     0.079 C 
HETATM    2  C2  UNL     1     -12.785  19.984   7.693  1.00  0.00     0.168 C 
HETATM    3  O1  UNL     1     -13.428  19.292   8.710  1.00  0.00    -0.347 OA
HETATM    4  C5  UNL     1     -13.099  19.933   9.900  1.00  0.00     0.276 C 
HETATM    5  C6  UNL     1     -12.929  21.361   9.450  1.00  0.00     0.338 C 
HETATM    6  O2  UNL     1     -14.090  22.100   9.503  1.00  0.00    -0.166 OA
HETATM    7  O3  UNL     1     -13.611  23.328   9.728  1.00  0.00    -0.195 OA
HETATM    8  C7  UNL     1     -12.696  23.093  10.712  1.00  0.00     0.203 C 
HETATM    9  C8  UNL     1     -11.835  24.240  11.088  1.00  0.00     0.072 C 
HETATM   10  C9  UNL     1     -11.324  23.873  12.482  1.00  0.00     0.006 C 
HETATM   11  C10 UNL     1     -12.234  22.767  12.974  1.00  0.00     0.006 C 
HETATM   12  C11 UNL     1     -13.437  22.803  12.022  1.00  0.00     0.072 C 
HETATM   13  O4  UNL     1     -11.998  21.984  10.263  1.00  0.00    -0.289 OA
HETATM   14  O5  UNL     1     -12.536  21.260   8.130  1.00  0.00    -0.292 OA
ENDROOT
BRANCH   2  15
HETATM   15  C3  UNL     1     -13.675  19.940   6.472  1.00  0.00     0.095 C 
BRANCH  15  16
HETATM   16  C4  UNL     1     -15.037  19.367   6.785  1.00  0.00     0.235 C 
BRANCH  16  17
HETATM   17  N1  UNL     1     -15.770  20.427   7.493  1.00  0.00    -0.079 N 
ATOM     18  H13 UNL     1     -15.253  21.304   7.561  1.00  0.00     0.274 HD
ATOM     19  H12 UNL     1     -16.565  20.792   6.969  1.00  0.00     0.274 HD
ATOM     20  H11 UNL     1     -16.026  20.034   8.399  1.00  0.00     0.274 HD
ENDBRANCH  16  17
ENDBRANCH  15  16
ENDBRANCH   2  15
TORSDOF 3
ENDMDL
MODEL 2
REMARK VINA RESULT: -5.110169848      1.338      1.640
REMARK  3 active torsions:
REMARK  status: ('A' for Active; 'I' for Inactive)
REMARK    1  A    between atoms: C2_2  and  C3_3 
REMARK    2  A    between atoms: C3_3  and  C4_4 
REMARK    3  A    between atoms: C4_4  and  N1_5 
ROOT
HETATM    1  C1  UNL     1     -11.859  17.572   7.527  1.00  0.00     0.079 C 
HETATM    2  C2  UNL     1     -13.111  18.412   7.640  1.00  0.00     0.168 C 
HETATM    3  O1  UNL     1     -13.604  18.250   8.928  1.00  0.00    -0.347 OA
HETATM    4  C5  UNL     1     -13.079  19.289   9.689  1.00  0.00     0.276 C 
HETATM    5  C6  UNL     1     -12.948  20.391   8.670  1.00  0.00     0.338 C 
HETATM    6  O2  UNL     1     -14.070  21.183   8.565  1.00  0.00    -0.166 OA
HETATM    7  O3  UNL     1     -13.534  22.351   8.195  1.00  0.00    -0.195 OA
HETATM    8  C7  UNL     1     -12.482  22.460   9.057  1.00  0.00     0.203 C 
HETATM    9  C8  UNL     1     -11.547  23.583   8.806  1.00  0.00     0.072 C 
HETATM   10  C9  UNL     1     -10.834  23.772  10.146  1.00  0.00     0.006 C 
HETATM   11  C10 UNL     1     -11.681  23.043  11.168  1.00  0.00     0.006 C 
HETATM   12  C11 UNL     1     -13.017  22.792  10.455  1.00  0.00     0.072 C 
HETATM   13  O4  UNL     1     -11.889  21.209   9.021  1.00  0.00    -0.289 OA
HETATM   14  O5  UNL     1     -12.768  19.729   7.472  1.00  0.00    -0.292 OA
ENDROOT
BRANCH   2  15
HETATM   15  C3  UNL     1     -14.181  17.951   6.676  1.00  0.00     0.095 C 
BRANCH  15  16
HETATM   16  C4  UNL     1     -14.829  19.109   5.955  1.00  0.00     0.235 C 
BRANCH  16  17
HETATM   17  N1  UNL     1     -15.781  19.699   6.908  1.00  0.00    -0.079 N 
ATOM     18  H13 UNL     1     -15.397  20.484   7.434  1.00  0.00     0.274 HD
ATOM     19  H12 UNL     1     -16.541  20.211   6.460  1.00  0.00     0.274 HD
ATOM     20  H11 UNL     1     -16.101  18.931   7.498  1.00  0.00     0.274 HD
ENDBRANCH  16  17
ENDBRANCH  15  16
ENDBRANCH   2  15
TORSDOF 3
ENDMDL
MODEL 3
REMARK VINA RESULT: -4.912515362      3.340      4.722
REMARK  3 active torsions:
REMARK  status: ('A' for Active; 'I' for Inactive)
REMARK    1  A    between atoms: C2_2  and  C3_3 
REMARK    2  A    between atoms: C3_3  and  C4_4 
REMARK    3  A    between atoms: C4_4  and  N1_5 
ROOT
HETATM    1  C1  UNL     1     -12.299  15.813   4.568  1.00  0.00     0.079 C 
HETATM    2  C2  UNL     1     -12.957  17.110   4.155  1.00  0.00     0.168 C 
HETATM    3  O1  UNL     1     -14.251  17.098   4.660  1.00  0.00    -0.347 OA
HETATM    4  C5  UNL     1     -14.205  17.747   5.890  1.00  0.00     0.276 C 
HETATM    5  C6  UNL     1     -13.094  18.742   5.679  1.00  0.00     0.338 C 
HETATM    6  O2  UNL     1     -13.523  19.953   5.183  1.00  0.00    -0.166 OA
HETATM    7  O3  UNL     1     -12.611  20.786   5.696  1.00  0.00    -0.195 OA
HETATM    8  C7  UNL     1     -12.545  20.362   6.991  1.00  0.00     0.203 C 
HETATM    9  C8  UNL     1     -11.480  20.971   7.823  1.00  0.00     0.072 C 
HETATM   10  C9  UNL     1     -11.956  20.737   9.258  1.00  0.00     0.006 C 
HETATM   11  C10 UNL     1     -13.426  20.392   9.150  1.00  0.00     0.006 C 
HETATM   12  C11 UNL     1     -13.818  20.803   7.725  1.00  0.00     0.072 C 
HETATM   13  O4  UNL     1     -12.467  18.983   6.889  1.00  0.00    -0.289 OA
HETATM   14  O5  UNL     1     -12.277  18.149   4.737  1.00  0.00    -0.292 OA
ENDROOT
BRANCH   2  15
HETATM   15  C3  UNL     1     -13.052  17.234   2.651  1.00  0.00     0.095 C 
BRANCH  15  16
HETATM   16  C4  UNL     1     -14.430  17.662   2.204  1.00  0.00     0.235 C 
BRANCH  16  17
HETATM   17  N1  UNL     1     -14.508  19.108   2.461  1.00  0.00    -0.079 N 
ATOM     18  H13 UNL     1     -15.274  19.370   3.083  1.00  0.00     0.274 HD
ATOM     19  H12 UNL     1     -13.749  19.459   3.044  1.00  0.00     0.274 HD
ATOM     20  H11 UNL     1     -14.558  19.554   1.545  1.00  0.00     0.274 HD
ENDBRANCH  16  17
ENDBRANCH  15  16
ENDBRANCH   2  15
TORSDOF 3
ENDMDL
MODEL 4
REMARK VINA RESULT: -4.912094332      1.649      2.653
REMARK  3 active torsions:
REMARK  status: ('A' for Active; 'I' for Inactive)
REMARK    1  A    between atoms: C2_2  and  C3_3 
REMARK    2  A    between atoms: C3_3  and  C4_4 
REMARK    3  A    between atoms: C4_4  and  N1_5 
ROOT
HETATM    1  C1  UNL     1     -15.047  19.658   7.396  1.00  0.00     0.079 C 
HETATM    2  C2  UNL     1     -13.594  19.861   7.760  1.00  0.00     0.168 C 
HETATM    3  O1  UNL     1     -13.162  21.012   7.114  1.00  0.00    -0.347 OA
HETATM    4  C5  UNL     1     -13.326  22.060   8.015  1.00  0.00     0.276 C 
HETATM    5  C6  UNL     1     -13.116  21.372   9.338  1.00  0.00     0.338 C 
HETATM    6  O2  UNL     1     -11.804  21.366   9.756  1.00  0.00    -0.166 OA
HETATM    7  O3  UNL     1     -11.951  21.359  11.086  1.00  0.00    -0.195 OA
HETATM    8  C7  UNL     1     -12.906  22.316  11.265  1.00  0.00     0.203 C 
HETATM    9  C8  UNL     1     -13.444  22.450  12.640  1.00  0.00     0.072 C 
HETATM   10  C9  UNL     1     -14.047  23.856  12.662  1.00  0.00     0.006 C 
HETATM   11  C10 UNL     1     -13.460  24.573  11.464  1.00  0.00     0.006 C 
HETATM   12  C11 UNL     1     -12.278  23.695  11.029  1.00  0.00     0.072 C 
HETATM   13  O4  UNL     1     -13.862  22.019  10.308  1.00  0.00    -0.289 OA
HETATM   14  O5  UNL     1     -13.508  20.068   9.112  1.00  0.00    -0.292 OA
ENDROOT
BRANCH   2  15
HETATM   15  C3  UNL     1     -12.732  18.714   7.280  1.00  0.00     0.095 C 
BRANCH  15  16
HETATM   16  C4  UNL     1     -11.427  19.195   6.692  1.00  0.00     0.235 C 
BRANCH  16  17
HETATM   17  N1  UNL     1     -10.549  19.486   7.836  1.00  0.00    -0.079 N 
ATOM     18  H13 UNL     1     -10.391  20.483   7.985  1.00  0.00     0.274 HD
ATOM     19  H12 UNL     1     -10.981  19.293   8.740  1.00  0.00     0.274 HD
ATOM     20  H11 UNL     1      -9.692  18.957   7.674  1.00  0.00     0.274 HD
ENDBRANCH  16  17
ENDBRANCH  15  16
ENDBRANCH   2  15
TORSDOF 3
ENDMDL
MODEL 5
REMARK VINA RESULT: -4.891320658      1.090      1.254
REMARK  3 active torsions:
REMARK  status: ('A' for Active; 'I' for Inactive)
REMARK    1  A    between atoms: C2_2  and  C3_3 
REMARK    2  A    between atoms: C3_3  and  C4_4 
REMARK    3  A    between atoms: C4_4  and  N1_5 
ROOT
HETATM    1  C1  UNL     1     -10.648  18.435   8.728  1.00  0.00     0.079 C 
HETATM    2  C2  UNL     1     -11.672  19.411   8.196  1.00  0.00     0.168 C 
HETATM    3  O1  UNL     1     -12.908  19.031   8.700  1.00  0.00    -0.347 OA
HETATM    4  C5  UNL     1     -13.108  19.766   9.864  1.00  0.00     0.276 C 
HETATM    5  C6  UNL     1     -12.366  21.042   9.561  1.00  0.00     0.338 C 
HETATM    6  O2  UNL     1     -13.144  22.003   8.954  1.00  0.00    -0.166 OA
HETATM    7  O3  UNL     1     -12.560  23.126   9.387  1.00  0.00    -0.195 OA
HETATM    8  C7  UNL     1     -12.401  22.862  10.716  1.00  0.00     0.203 C 
HETATM    9  C8  UNL     1     -11.610  23.851  11.486  1.00  0.00     0.072 C 
HETATM   10  C9  UNL     1     -12.029  23.605  12.937  1.00  0.00     0.006 C 
HETATM   11  C10 UNL     1     -13.309  22.800  12.863  1.00  0.00     0.006 C 
HETATM   12  C11 UNL     1     -13.769  22.936  11.405  1.00  0.00     0.072 C 
HETATM   13  O4  UNL     1     -11.884  21.577  10.743  1.00  0.00    -0.289 OA
HETATM   14  O5  UNL     1     -11.375  20.660   8.678  1.00  0.00    -0.292 OA
ENDROOT
BRANCH   2  15
HETATM   15  C3  UNL     1     -11.757  19.364   6.687  1.00  0.00     0.095 C 
BRANCH  15  16
HETATM   16  C4  UNL     1     -13.185  19.278   6.203  1.00  0.00     0.235 C 
BRANCH  16  17
HETATM   17  N1  UNL     1     -13.749  20.628   6.361  1.00  0.00    -0.079 N 
ATOM     18  H13 UNL     1     -13.075  21.374   6.183  1.00  0.00     0.274 HD
ATOM     19  H12 UNL     1     -14.410  20.881   5.627  1.00  0.00     0.274 HD
ATOM     20  H11 UNL     1     -14.150  20.656   7.298  1.00  0.00     0.274 HD
ENDBRANCH  16  17
ENDBRANCH  15  16
ENDBRANCH   2  15
TORSDOF 3
ENDMDL
