MODEL 1
REMARK VINA RESULT: -5.389368755      0.000      0.000
REMARK  2 active torsions:
REMARK  status: ('A' for Active; 'I' for Inactive)
REMARK       I    between atoms: C1_2  and  N1_3 
REMARK    1  A    between atoms: C1_2  and  C8_11 
REMARK    2  A    between atoms: N1_3  and  C2_5 
ROOT
HETATM    1  O1  UNL     1     -12.861  23.421   8.560  1.00  0.00    -0.272 OA
HETATM    2  C1  UNL     1     -13.639  22.447   8.608  1.00  0.00     0.233 C 
HETATM    3  N1  UNL     1     -15.015  22.680   8.871  1.00  0.00    -0.355 N 
ATOM      4  H1  UNL     1     -15.649  21.882   8.910  1.00  0.00     0.162 HD
ENDROOT
BRANCH   3   5
HETATM    5  C2  UNL     1     -15.558  24.020   9.087  1.00  0.00     0.084 C 
HETATM    6  C3  UNL     1     -16.976  24.132   8.632  1.00  0.00     0.025 C 
HETATM    7  C4  UNL     1     -17.966  24.454   9.694  1.00  0.00     0.002 C 
HETATM    8  C5  UNL     1     -17.523  25.401  10.740  1.00  0.00     0.000 C 
HETATM    9  C6  UNL     1     -16.061  25.688  10.775  1.00  0.00     0.002 C 
HETATM   10  C7  UNL     1     -15.362  24.342  10.546  1.00  0.00     0.025 C 
ENDBRANCH   3   5
BRANCH   2  11
HETATM   11  C8  UNL     1     -13.194  21.065   8.406  1.00  0.00     0.161 C 
HETATM   12  C9  UNL     1     -13.027  20.438   9.780  1.00  0.00     0.112 C 
HETATM   13  S1  UNL     1     -12.421  18.732   9.477  1.00  0.00    -0.084 SA
HETATM   14  S2  UNL     1     -13.874  18.148   7.986  1.00  0.00    -0.024 SA
HETATM   15  S3  UNL     1     -14.577  20.156   7.608  1.00  0.00    -0.071 SA
ENDBRANCH   2  11
TORSDOF 2
ENDMDL
MODEL 2
REMARK VINA RESULT: -5.357923385      1.033      1.297
REMARK  2 active torsions:
REMARK  status: ('A' for Active; 'I' for Inactive)
REMARK       I    between atoms: C1_2  and  N1_3 
REMARK    1  A    between atoms: C1_2  and  C8_11 
REMARK    2  A    between atoms: N1_3  and  C2_5 
ROOT
HETATM    1  O1  UNL     1     -12.782  23.233   8.494  1.00  0.00    -0.272 OA
HETATM    2  C1  UNL     1     -13.624  22.313   8.507  1.00  0.00     0.233 C 
HETATM    3  N1  UNL     1     -14.976  22.625   8.806  1.00  0.00    -0.355 N 
ATOM      4  H1  UNL     1     -15.663  21.870   8.818  1.00  0.00     0.162 HD
ENDROOT
BRANCH   3   5
HETATM    5  C2  UNL     1     -15.422  23.986   9.100  1.00  0.00     0.084 C 
HETATM    6  C3  UNL     1     -16.819  24.233   8.631  1.00  0.00     0.025 C 
HETATM    7  C4  UNL     1     -17.803  24.561   9.696  1.00  0.00     0.002 C 
HETATM    8  C5  UNL     1     -17.313  25.405  10.807  1.00  0.00     0.000 C 
HETATM    9  C6  UNL     1     -15.835  25.577  10.883  1.00  0.00     0.002 C 
HETATM   10  C7  UNL     1     -15.233  24.199  10.579  1.00  0.00     0.025 C 
ENDBRANCH   3   5
BRANCH   2  11
HETATM   11  C8  UNL     1     -13.278  20.916   8.227  1.00  0.00     0.161 C 
HETATM   12  C9  UNL     1     -14.580  20.164   8.003  1.00  0.00     0.112 C 
HETATM   13  S1  UNL     1     -14.099  18.417   7.709  1.00  0.00    -0.084 SA
HETATM   14  S2  UNL     1     -12.564  18.763   6.226  1.00  0.00    -0.024 SA
HETATM   15  S3  UNL     1     -12.398  20.883   6.615  1.00  0.00    -0.071 SA
ENDBRANCH   2  11
TORSDOF 2
ENDMDL
MODEL 3
REMARK VINA RESULT: -5.352646610      3.042      3.425
REMARK  2 active torsions:
REMARK  status: ('A' for Active; 'I' for Inactive)
REMARK       I    between atoms: C1_2  and  N1_3 
REMARK    1  A    between atoms: C1_2  and  C8_11 
REMARK    2  A    between atoms: N1_3  and  C2_5 
ROOT
HETATM    1  O1  UNL     1     -14.235  23.533   8.546  1.00  0.00    -0.272 OA
HETATM    2  C1  UNL     1     -14.294  23.550   9.792  1.00  0.00     0.233 C 
HETATM    3  N1  UNL     1     -15.412  24.163  10.417  1.00  0.00    -0.355 N 
ATOM      4  H1  UNL     1     -15.458  24.176  11.436  1.00  0.00     0.162 HD
ENDROOT
BRANCH   3   5
HETATM    5  C2  UNL     1     -16.500  24.775   9.656  1.00  0.00     0.084 C 
HETATM    6  C3  UNL     1     -17.249  23.774   8.840  1.00  0.00     0.025 C 
HETATM    7  C4  UNL     1     -18.686  23.610   9.187  1.00  0.00     0.002 C 
HETATM    8  C5  UNL     1     -19.413  24.840   9.568  1.00  0.00     0.000 C 
HETATM    9  C6  UNL     1     -18.566  26.033   9.845  1.00  0.00     0.002 C 
HETATM   10  C7  UNL     1     -17.361  25.518  10.644  1.00  0.00     0.025 C 
ENDBRANCH   3   5
BRANCH   2  11
HETATM   11  C8  UNL     1     -13.256  22.964  10.644  1.00  0.00     0.161 C 
HETATM   12  C9  UNL     1     -11.913  23.442  10.116  1.00  0.00     0.112 C 
HETATM   13  S1  UNL     1     -10.648  22.642  11.178  1.00  0.00    -0.084 SA
HETATM   14  S2  UNL     1     -11.502  23.139  13.103  1.00  0.00    -0.024 SA
HETATM   15  S3  UNL     1     -13.430  23.712  12.313  1.00  0.00    -0.071 SA
ENDBRANCH   2  11
TORSDOF 2
ENDMDL
MODEL 4
REMARK VINA RESULT: -5.239851475      1.277      1.385
REMARK  2 active torsions:
REMARK  status: ('A' for Active; 'I' for Inactive)
REMARK       I    between atoms: C1_2  and  N1_3 
REMARK    1  A    between atoms: C1_2  and  C8_11 
REMARK    2  A    between atoms: N1_3  and  C2_5 
ROOT
HETATM    1  O1  UNL     1     -12.207  22.693   8.208  1.00  0.00    -0.272 OA
HETATM    2  C1  UNL     1     -13.226  21.999   8.015  1.00  0.00     0.233 C 
HETATM    3  N1  UNL     1     -14.475  22.464   8.505  1.00  0.00    -0.355 N 
ATOM      4  H1  UNL     1     -15.306  21.894   8.347  1.00  0.00     0.162 HD
ENDROOT
BRANCH   3   5
HETATM    5  C2  UNL     1     -14.615  23.726   9.228  1.00  0.00     0.084 C 
HETATM    6  C3  UNL     1     -15.876  24.442   8.871  1.00  0.00     0.025 C 
HETATM    7  C4  UNL     1     -16.837  24.644   9.988  1.00  0.00     0.002 C 
HETATM    8  C5  UNL     1     -16.250  24.945  11.312  1.00  0.00     0.000 C 
HETATM    9  C6  UNL     1     -14.783  24.719  11.436  1.00  0.00     0.002 C 
HETATM   10  C7  UNL     1     -14.495  23.406  10.696  1.00  0.00     0.025 C 
ENDBRANCH   3   5
BRANCH   2  11
HETATM   11  C8  UNL     1     -13.191  20.719   7.303  1.00  0.00     0.161 C 
HETATM   12  C9  UNL     1     -12.059  19.899   7.901  1.00  0.00     0.112 C 
HETATM   13  S1  UNL     1     -12.022  18.332   6.944  1.00  0.00    -0.084 SA
HETATM   14  S2  UNL     1     -14.128  17.853   7.053  1.00  0.00    -0.024 SA
HETATM   15  S3  UNL     1     -14.735  19.817   7.722  1.00  0.00    -0.071 SA
ENDBRANCH   2  11
TORSDOF 2
ENDMDL
MODEL 5
REMARK VINA RESULT: -5.113739598      1.192      1.416
REMARK  2 active torsions:
REMARK  status: ('A' for Active; 'I' for Inactive)
REMARK       I    between atoms: C1_2  and  N1_3 
REMARK    1  A    between atoms: C1_2  and  C8_11 
REMARK    2  A    between atoms: N1_3  and  C2_5 
ROOT
HETATM    1  O1  UNL     1     -12.200  23.656   8.535  1.00  0.00    -0.272 OA
HETATM    2  C1  UNL     1     -12.723  22.662   9.076  1.00  0.00     0.233 C 
HETATM    3  N1  UNL     1     -13.969  22.817   9.741  1.00  0.00    -0.355 N 
ATOM      4  H1  UNL     1     -14.394  22.002  10.184  1.00  0.00     0.162 HD
ENDROOT
BRANCH   3   5
HETATM    5  C2  UNL     1     -14.664  24.101   9.816  1.00  0.00     0.084 C 
HETATM    6  C3  UNL     1     -15.741  24.218   8.787  1.00  0.00     0.025 C 
HETATM    7  C4  UNL     1     -17.120  24.372   9.319  1.00  0.00     0.002 C 
HETATM    8  C5  UNL     1     -17.267  25.200  10.535  1.00  0.00     0.000 C 
HETATM    9  C6  UNL     1     -16.001  25.532  11.248  1.00  0.00     0.002 C 
HETATM   10  C7  UNL     1     -15.160  24.249  11.231  1.00  0.00     0.025 C 
ENDBRANCH   3   5
BRANCH   2  11
HETATM   11  C8  UNL     1     -12.107  21.332   9.058  1.00  0.00     0.161 C 
HETATM   12  C9  UNL     1     -11.293  21.192  10.335  1.00  0.00     0.112 C 
HETATM   13  S1  UNL     1     -10.502  19.539  10.241  1.00  0.00    -0.084 SA
HETATM   14  S2  UNL     1     -12.256  18.385   9.725  1.00  0.00    -0.024 SA
HETATM   15  S3  UNL     1     -13.462  20.098   9.193  1.00  0.00    -0.071 SA
ENDBRANCH   2  11
TORSDOF 2
ENDMDL
