MODEL 1
REMARK VINA RESULT: -7.241335385      0.000      0.000
REMARK  10 active torsions:
REMARK  status: ('A' for Active; 'I' for Inactive)
REMARK    1  A    between atoms: C2_2  and  C3_3 
REMARK    2  A    between atoms: C3_3  and  N1_4 
REMARK    3  A    between atoms: C4_5  and  O1_6 
REMARK    4  A    between atoms: C6_9  and  N2_10 
REMARK    5  A    between atoms: N3_13  and  C9_14 
REMARK    6  A    between atoms: C9_14  and  O2_15 
REMARK    7  A    between atoms: C9_14  and  C10_17 
REMARK    8  A    between atoms: C10_17  and  C12_19 
REMARK    9  A    between atoms: C12_19  and  C13_20 
REMARK   10  A    between atoms: C21_28  and  O3_29 
ROOT
HETATM    1  N2  UNL     1     -13.463  19.630   7.262  1.00  0.00    -0.374 N 
HETATM    2  C7  UNL     1     -12.082  20.039   7.320  1.00  0.00     0.143 C 
HETATM    3  C8  UNL     1     -12.019  21.472   7.864  1.00  0.00     0.145 C 
HETATM    4  N3  UNL     1     -12.788  21.622   9.052  1.00  0.00    -0.358 N 
HETATM    5  C19 UNL     1     -13.413  20.366   9.540  1.00  0.00     0.145 C 
HETATM    6  C20 UNL     1     -14.309  19.897   8.403  1.00  0.00     0.143 C 
ENDROOT
BRANCH   1   7
HETATM    7  C6  UNL     1     -13.955  18.970   6.081  1.00  0.00     0.086 A 
HETATM    8  C5  UNL     1     -14.422  19.576   4.933  1.00  0.00     0.089 A 
HETATM    9  C4  UNL     1     -14.778  18.570   4.080  1.00  0.00     0.146 A 
HETATM   10  N1  UNL     1     -14.562  17.368   4.622  1.00  0.00    -0.307 N 
HETATM   11  C21 UNL     1     -14.055  17.612   5.856  1.00  0.00     0.171 A 
BRANCH   9  12
HETATM   12  O1  UNL     1     -15.297  18.767   2.811  1.00  0.00    -0.346 OA
ATOM     13  H1  UNL     1     -15.499  19.620   2.445  1.00  0.00     0.219 HD
ENDBRANCH   9  12
BRANCH  10  14
HETATM   14  C3  UNL     1     -14.785  16.051   4.102  1.00  0.00     0.133 C 
BRANCH  14  15
HETATM   15  C2  UNL     1     -13.840  15.627   3.033  1.00  0.00     0.016 C 
HETATM   16  C1  UNL     1     -14.489  15.485   1.674  1.00  0.00     0.006 C 
ENDBRANCH  14  15
ENDBRANCH  10  14
BRANCH  11  17
HETATM   17  O3  UNL     1     -13.673  16.638   6.802  1.00  0.00    -0.344 OA
ATOM     18  H3  UNL     1     -13.368  16.808   7.686  1.00  0.00     0.219 HD
ENDBRANCH  11  17
ENDBRANCH   1   7
BRANCH   4  19
HETATM   19  C9  UNL     1     -12.997  22.770   9.764  1.00  0.00     0.143 C 
BRANCH  19  20
HETATM   20  O2  UNL     1     -11.930  23.480  10.009  1.00  0.00    -0.346 OA
ATOM     21  H2  UNL     1     -11.932  23.948  10.835  1.00  0.00     0.219 HD
ENDBRANCH  19  20
BRANCH  19  22
HETATM   22  C10 UNL     1     -14.202  23.345  10.300  1.00  0.00    -0.015 C 
HETATM   23  C11 UNL     1     -14.642  23.424  11.694  1.00  0.00     0.052 C 
BRANCH  22  24
HETATM   24  C12 UNL     1     -15.075  23.889   9.410  1.00  0.00    -0.011 C 
BRANCH  24  25
HETATM   25  C13 UNL     1     -16.486  24.023   9.687  1.00  0.00     0.009 C 
HETATM   26  C14 UNL     1     -16.776  25.525   9.831  1.00  0.00     0.008 C 
HETATM   27  C15 UNL     1     -18.221  25.758  10.183  1.00  0.00     0.001 C 
HETATM   28  C16 UNL     1     -19.185  25.052   9.287  1.00  0.00     0.000 C 
HETATM   29  C17 UNL     1     -18.789  23.608   9.019  1.00  0.00     0.001 C 
HETATM   30  C18 UNL     1     -17.357  23.568   8.523  1.00  0.00     0.008 C 
ENDBRANCH  24  25
ENDBRANCH  22  24
ENDBRANCH  19  22
ENDBRANCH   4  19
TORSDOF 10
ENDMDL
MODEL 2
REMARK VINA RESULT: -7.157406089      1.862      2.640
REMARK  10 active torsions:
REMARK  status: ('A' for Active; 'I' for Inactive)
REMARK    1  A    between atoms: C2_2  and  C3_3 
REMARK    2  A    between atoms: C3_3  and  N1_4 
REMARK    3  A    between atoms: C4_5  and  O1_6 
REMARK    4  A    between atoms: C6_9  and  N2_10 
REMARK    5  A    between atoms: N3_13  and  C9_14 
REMARK    6  A    between atoms: C9_14  and  O2_15 
REMARK    7  A    between atoms: C9_14  and  C10_17 
REMARK    8  A    between atoms: C10_17  and  C12_19 
REMARK    9  A    between atoms: C12_19  and  C13_20 
REMARK   10  A    between atoms: C21_28  and  O3_29 
ROOT
HETATM    1  N2  UNL     1     -11.478  21.141   8.208  1.00  0.00    -0.374 N 
HETATM    2  C7  UNL     1     -10.785  22.384   7.984  1.00  0.00     0.143 C 
HETATM    3  C8  UNL     1     -11.442  23.472   8.844  1.00  0.00     0.145 C 
HETATM    4  N3  UNL     1     -11.600  23.054  10.195  1.00  0.00    -0.358 N 
HETATM    5  C19 UNL     1     -11.039  21.712  10.491  1.00  0.00     0.145 C 
HETATM    6  C20 UNL     1     -11.780  20.755   9.568  1.00  0.00     0.143 C 
ENDROOT
BRANCH   1   7
HETATM    7  C6  UNL     1     -11.844  20.323   7.080  1.00  0.00     0.086 A 
HETATM    8  C5  UNL     1     -10.998  19.544   6.319  1.00  0.00     0.089 A 
HETATM    9  C4  UNL     1     -11.774  18.944   5.368  1.00  0.00     0.146 A 
HETATM   10  N1  UNL     1     -13.057  19.299   5.486  1.00  0.00    -0.307 N 
HETATM   11  C21 UNL     1     -13.102  20.149   6.541  1.00  0.00     0.171 A 
BRANCH   9  12
HETATM   12  O1  UNL     1     -11.295  18.076   4.400  1.00  0.00    -0.346 OA
ATOM     13  H1  UNL     1     -10.580  17.467   4.539  1.00  0.00     0.219 HD
ENDBRANCH   9  12
BRANCH  10  14
HETATM   14  C3  UNL     1     -14.207  18.925   4.718  1.00  0.00     0.133 C 
BRANCH  14  15
HETATM   15  C2  UNL     1     -14.960  17.751   5.240  1.00  0.00     0.016 C 
HETATM   16  C1  UNL     1     -14.582  16.446   4.575  1.00  0.00     0.006 C 
ENDBRANCH  14  15
ENDBRANCH  10  14
BRANCH  11  17
HETATM   17  O3  UNL     1     -14.257  20.785   7.043  1.00  0.00    -0.344 OA
ATOM     18  H3  UNL     1     -15.124  20.400   7.104  1.00  0.00     0.219 HD
ENDBRANCH  11  17
ENDBRANCH   1   7
BRANCH   4  19
HETATM   19  C9  UNL     1     -12.196  23.747  11.212  1.00  0.00     0.143 C 
BRANCH  19  20
HETATM   20  O2  UNL     1     -11.502  24.742  11.693  1.00  0.00    -0.346 OA
ATOM     21  H2  UNL     1     -11.992  25.366  12.216  1.00  0.00     0.219 HD
ENDBRANCH  19  20
BRANCH  19  22
HETATM   22  C10 UNL     1     -13.469  23.574  11.857  1.00  0.00    -0.015 C 
HETATM   23  C11 UNL     1     -13.925  22.479  12.716  1.00  0.00     0.052 C 
BRANCH  22  24
HETATM   24  C12 UNL     1     -14.403  24.542  11.649  1.00  0.00    -0.011 C 
BRANCH  24  25
HETATM   25  C13 UNL     1     -15.658  24.282  10.983  1.00  0.00     0.009 C 
HETATM   26  C14 UNL     1     -16.520  25.545  11.136  1.00  0.00     0.008 C 
HETATM   27  C15 UNL     1     -17.878  25.342  10.521  1.00  0.00     0.001 C 
HETATM   28  C16 UNL     1     -17.838  24.818   9.123  1.00  0.00     0.000 C 
HETATM   29  C17 UNL     1     -16.851  23.674   8.952  1.00  0.00     0.001 C 
HETATM   30  C18 UNL     1     -15.496  24.102   9.480  1.00  0.00     0.008 C 
ENDBRANCH  24  25
ENDBRANCH  22  24
ENDBRANCH  19  22
ENDBRANCH   4  19
TORSDOF 10
ENDMDL
MODEL 3
REMARK VINA RESULT: -7.077222928      1.413      1.836
REMARK  10 active torsions:
REMARK  status: ('A' for Active; 'I' for Inactive)
REMARK    1  A    between atoms: C2_2  and  C3_3 
REMARK    2  A    between atoms: C3_3  and  N1_4 
REMARK    3  A    between atoms: C4_5  and  O1_6 
REMARK    4  A    between atoms: C6_9  and  N2_10 
REMARK    5  A    between atoms: N3_13  and  C9_14 
REMARK    6  A    between atoms: C9_14  and  O2_15 
REMARK    7  A    between atoms: C9_14  and  C10_17 
REMARK    8  A    between atoms: C10_17  and  C12_19 
REMARK    9  A    between atoms: C12_19  and  C13_20 
REMARK   10  A    between atoms: C21_28  and  O3_29 
ROOT
HETATM    1  N2  UNL     1     -13.710  18.969   6.553  1.00  0.00    -0.374 N 
HETATM    2  C7  UNL     1     -12.351  19.052   7.027  1.00  0.00     0.143 C 
HETATM    3  C8  UNL     1     -12.045  20.514   7.378  1.00  0.00     0.145 C 
HETATM    4  N3  UNL     1     -13.054  21.082   8.205  1.00  0.00    -0.358 N 
HETATM    5  C19 UNL     1     -14.126  20.135   8.603  1.00  0.00     0.145 C 
HETATM    6  C20 UNL     1     -14.742  19.656   7.296  1.00  0.00     0.143 C 
ENDROOT
BRANCH   1   7
HETATM    7  C6  UNL     1     -13.998  18.207   5.366  1.00  0.00     0.086 A 
HETATM    8  C5  UNL     1     -14.425  16.897   5.311  1.00  0.00     0.089 A 
HETATM    9  C4  UNL     1     -14.575  16.592   3.988  1.00  0.00     0.146 A 
HETATM   10  N1  UNL     1     -14.268  17.633   3.207  1.00  0.00    -0.307 N 
HETATM   11  C21 UNL     1     -13.912  18.629   4.054  1.00  0.00     0.171 A 
BRANCH   9  12
HETATM   12  O1  UNL     1     -14.993  15.360   3.510  1.00  0.00    -0.346 OA
ATOM     13  H1  UNL     1     -14.591  14.533   3.749  1.00  0.00     0.219 HD
ENDBRANCH   9  12
BRANCH  10  14
HETATM   14  C3  UNL     1     -14.277  17.769   1.781  1.00  0.00     0.133 C 
BRANCH  14  15
HETATM   15  C2  UNL     1     -13.176  17.059   1.072  1.00  0.00     0.016 C 
HETATM   16  C1  UNL     1     -13.048  17.443  -0.385  1.00  0.00     0.006 C 
ENDBRANCH  14  15
ENDBRANCH  10  14
BRANCH  11  17
HETATM   17  O3  UNL     1     -13.505  19.927   3.682  1.00  0.00    -0.344 OA
ATOM     18  H3  UNL     1     -14.063  20.695   3.634  1.00  0.00     0.219 HD
ENDBRANCH  11  17
ENDBRANCH   1   7
BRANCH   4  19
HETATM   19  C9  UNL     1     -13.127  22.371   8.656  1.00  0.00     0.143 C 
BRANCH  19  20
HETATM   20  O2  UNL     1     -12.146  23.149   8.290  1.00  0.00    -0.346 OA
ATOM     21  H2  UNL     1     -11.301  22.950   8.677  1.00  0.00     0.219 HD
ENDBRANCH  19  20
BRANCH  19  22
HETATM   22  C10 UNL     1     -14.108  23.033   9.474  1.00  0.00    -0.015 C 
HETATM   23  C11 UNL     1     -14.219  23.065  10.933  1.00  0.00     0.052 C 
BRANCH  22  24
HETATM   24  C12 UNL     1     -15.085  23.725   8.826  1.00  0.00    -0.011 C 
BRANCH  24  25
HETATM   25  C13 UNL     1     -16.408  23.902   9.379  1.00  0.00     0.009 C 
HETATM   26  C14 UNL     1     -16.585  25.405   9.648  1.00  0.00     0.008 C 
HETATM   27  C15 UNL     1     -17.921  25.678  10.284  1.00  0.00     0.001 C 
HETATM   28  C16 UNL     1     -19.075  25.066   9.559  1.00  0.00     0.000 C 
HETATM   29  C17 UNL     1     -18.814  23.625   9.149  1.00  0.00     0.001 C 
HETATM   30  C18 UNL     1     -17.508  23.554   8.384  1.00  0.00     0.008 C 
ENDBRANCH  24  25
ENDBRANCH  22  24
ENDBRANCH  19  22
ENDBRANCH   4  19
TORSDOF 10
ENDMDL
MODEL 4
REMARK VINA RESULT: -7.048833392      1.628      2.167
REMARK  10 active torsions:
REMARK  status: ('A' for Active; 'I' for Inactive)
REMARK    1  A    between atoms: C2_2  and  C3_3 
REMARK    2  A    between atoms: C3_3  and  N1_4 
REMARK    3  A    between atoms: C4_5  and  O1_6 
REMARK    4  A    between atoms: C6_9  and  N2_10 
REMARK    5  A    between atoms: N3_13  and  C9_14 
REMARK    6  A    between atoms: C9_14  and  O2_15 
REMARK    7  A    between atoms: C9_14  and  C10_17 
REMARK    8  A    between atoms: C10_17  and  C12_19 
REMARK    9  A    between atoms: C12_19  and  C13_20 
REMARK   10  A    between atoms: C21_28  and  O3_29 
ROOT
HETATM    1  N2  UNL     1     -12.409  20.039   8.156  1.00  0.00    -0.374 N 
HETATM    2  C7  UNL     1     -12.315  21.283   7.434  1.00  0.00     0.143 C 
HETATM    3  C8  UNL     1     -12.765  22.420   8.359  1.00  0.00     0.145 C 
HETATM    4  N3  UNL     1     -12.122  22.358   9.627  1.00  0.00    -0.358 N 
HETATM    5  C19 UNL     1     -11.118  21.271   9.752  1.00  0.00     0.145 C 
HETATM    6  C20 UNL     1     -11.889  19.983   9.504  1.00  0.00     0.143 C 
ENDROOT
BRANCH   1   7
HETATM    7  C6  UNL     1     -13.010  18.896   7.519  1.00  0.00     0.086 A 
HETATM    8  C5  UNL     1     -14.049  18.132   8.007  1.00  0.00     0.089 A 
HETATM    9  C4  UNL     1     -14.292  17.164   7.075  1.00  0.00     0.146 A 
HETATM   10  N1  UNL     1     -13.468  17.274   6.028  1.00  0.00    -0.307 N 
HETATM   11  C21 UNL     1     -12.677  18.341   6.300  1.00  0.00     0.171 A 
BRANCH   9  12
HETATM   12  O1  UNL     1     -15.268  16.188   7.195  1.00  0.00    -0.346 OA
ATOM     13  H1  UNL     1     -15.275  15.523   7.872  1.00  0.00     0.219 HD
ENDBRANCH   9  12
BRANCH  10  14
HETATM   14  C3  UNL     1     -13.359  16.489   4.834  1.00  0.00     0.133 C 
BRANCH  14  15
HETATM   15  C2  UNL     1     -14.468  16.670   3.857  1.00  0.00     0.016 C 
HETATM   16  C1  UNL     1     -14.492  18.041   3.217  1.00  0.00     0.006 C 
ENDBRANCH  14  15
ENDBRANCH  10  14
BRANCH  11  17
HETATM   17  O3  UNL     1     -11.648  18.840   5.474  1.00  0.00    -0.344 OA
ATOM     18  H3  UNL     1     -11.419  19.755   5.360  1.00  0.00     0.219 HD
ENDBRANCH  11  17
ENDBRANCH   1   7
BRANCH   4  19
HETATM   19  C9  UNL     1     -12.329  23.176  10.702  1.00  0.00     0.143 C 
BRANCH  19  20
HETATM   20  O2  UNL     1     -11.326  23.948  11.021  1.00  0.00    -0.346 OA
ATOM     21  H2  UNL     1     -11.561  24.803  11.361  1.00  0.00     0.219 HD
ENDBRANCH  19  20
BRANCH  19  22
HETATM   22  C10 UNL     1     -13.472  23.342  11.560  1.00  0.00    -0.015 C 
HETATM   23  C11 UNL     1     -13.913  22.505  12.677  1.00  0.00     0.052 C 
BRANCH  22  24
HETATM   24  C12 UNL     1     -14.278  24.410  11.313  1.00  0.00    -0.011 C 
BRANCH  24  25
HETATM   25  C13 UNL     1     -15.640  24.268  10.855  1.00  0.00     0.009 C 
HETATM   26  C14 UNL     1     -16.390  25.544  11.268  1.00  0.00     0.008 C 
HETATM   27  C15 UNL     1     -17.842  25.457  10.881  1.00  0.00     0.001 C 
HETATM   28  C16 UNL     1     -18.068  25.072   9.456  1.00  0.00     0.000 C 
HETATM   29  C17 UNL     1     -17.190  23.912   9.014  1.00  0.00     0.001 C 
HETATM   30  C18 UNL     1     -15.744  24.231   9.335  1.00  0.00     0.008 C 
ENDBRANCH  24  25
ENDBRANCH  22  24
ENDBRANCH  19  22
ENDBRANCH   4  19
TORSDOF 10
ENDMDL
MODEL 5
REMARK VINA RESULT: -7.019168595      1.793      2.133
REMARK  10 active torsions:
REMARK  status: ('A' for Active; 'I' for Inactive)
REMARK    1  A    between atoms: C2_2  and  C3_3 
REMARK    2  A    between atoms: C3_3  and  N1_4 
REMARK    3  A    between atoms: C4_5  and  O1_6 
REMARK    4  A    between atoms: C6_9  and  N2_10 
REMARK    5  A    between atoms: N3_13  and  C9_14 
REMARK    6  A    between atoms: C9_14  and  O2_15 
REMARK    7  A    between atoms: C9_14  and  C10_17 
REMARK    8  A    between atoms: C10_17  and  C12_19 
REMARK    9  A    between atoms: C12_19  and  C13_20 
REMARK   10  A    between atoms: C21_28  and  O3_29 
ROOT
HETATM    1  N2  UNL     1     -12.730  19.384   7.137  1.00  0.00    -0.374 N 
HETATM    2  C7  UNL     1     -13.820  20.324   7.060  1.00  0.00     0.143 C 
HETATM    3  C8  UNL     1     -14.028  20.945   8.447  1.00  0.00     0.145 C 
HETATM    4  N3  UNL     1     -12.806  21.415   9.006  1.00  0.00    -0.358 N 
HETATM    5  C19 UNL     1     -11.629  21.273   8.112  1.00  0.00     0.145 C 
HETATM    6  C20 UNL     1     -11.523  19.782   7.824  1.00  0.00     0.143 C 
ENDROOT
BRANCH   1   7
HETATM    7  C6  UNL     1     -12.874  18.086   6.529  1.00  0.00     0.086 A 
HETATM    8  C5  UNL     1     -12.119  17.573   5.495  1.00  0.00     0.089 A 
HETATM    9  C4  UNL     1     -12.599  16.318   5.249  1.00  0.00     0.146 A 
HETATM   10  N1  UNL     1     -13.611  16.011   6.067  1.00  0.00    -0.307 N 
HETATM   11  C21 UNL     1     -13.782  17.100   6.857  1.00  0.00     0.171 A 
BRANCH   9  12
HETATM   12  O1  UNL     1     -12.104  15.467   4.275  1.00  0.00    -0.346 OA
ATOM     13  H1  UNL     1     -11.216  15.129   4.265  1.00  0.00     0.219 HD
ENDBRANCH   9  12
BRANCH  10  14
HETATM   14  C3  UNL     1     -14.408  14.825   6.168  1.00  0.00     0.133 C 
BRANCH  14  15
HETATM   15  C2  UNL     1     -15.660  14.835   5.361  1.00  0.00     0.016 C 
HETATM   16  C1  UNL     1     -15.515  14.168   4.011  1.00  0.00     0.006 C 
ENDBRANCH  14  15
ENDBRANCH  10  14
BRANCH  11  17
HETATM   17  O3  UNL     1     -14.743  17.238   7.879  1.00  0.00    -0.344 OA
ATOM     18  H3  UNL     1     -14.567  17.257   8.813  1.00  0.00     0.219 HD
ENDBRANCH  11  17
ENDBRANCH   1   7
BRANCH   4  19
HETATM   19  C9  UNL     1     -12.619  21.968  10.242  1.00  0.00     0.143 C 
BRANCH  19  20
HETATM   20  O2  UNL     1     -11.436  21.788  10.763  1.00  0.00    -0.346 OA
ATOM     21  H2  UNL     1     -10.727  22.250  10.332  1.00  0.00     0.219 HD
ENDBRANCH  19  20
BRANCH  19  22
HETATM   22  C10 UNL     1     -13.506  22.724  11.085  1.00  0.00    -0.015 C 
HETATM   23  C11 UNL     1     -13.893  22.472  12.474  1.00  0.00     0.052 C 
BRANCH  22  24
HETATM   24  C12 UNL     1     -14.088  23.825  10.537  1.00  0.00    -0.011 C 
BRANCH  24  25
HETATM   25  C13 UNL     1     -15.521  23.970  10.419  1.00  0.00     0.009 C 
HETATM   26  C14 UNL     1     -15.891  25.318  11.059  1.00  0.00     0.008 C 
HETATM   27  C15 UNL     1     -17.381  25.527  11.035  1.00  0.00     0.001 C 
HETATM   28  C16 UNL     1     -18.001  25.318   9.692  1.00  0.00     0.000 C 
HETATM   29  C17 UNL     1     -17.493  24.063   8.999  1.00  0.00     0.001 C 
HETATM   30  C18 UNL     1     -15.978  24.088   8.971  1.00  0.00     0.008 C 
ENDBRANCH  24  25
ENDBRANCH  22  24
ENDBRANCH  19  22
ENDBRANCH   4  19
TORSDOF 10
ENDMDL
