MODEL 1
REMARK VINA RESULT: -7.453554817      0.000      0.000
REMARK  6 active torsions:
REMARK  status: ('A' for Active; 'I' for Inactive)
REMARK    1  A    between atoms: N1_1  and  C1_4 
REMARK    2  A    between atoms: N2_12  and  C7_13 
REMARK    3  A    between atoms: C7_13  and  C8_14 
REMARK    4  A    between atoms: C8_14  and  C9_15 
REMARK    5  A    between atoms: C9_15  and  N3_16 
REMARK       I    between atoms: N3_16  and  C10_18 
REMARK    6  A    between atoms: C10_18  and  C11_20 
ROOT
HETATM    1  C1  UNL     1     -14.048  17.589   5.306  1.00  0.00     0.110 A 
HETATM    2  S1  UNL     1     -12.510  18.272   5.212  1.00  0.00    -0.069 SA
HETATM    3  C2  UNL     1     -12.373  19.387   6.475  1.00  0.00     0.000 A 
HETATM    4  C3  UNL     1     -13.476  19.479   7.243  1.00  0.00     0.008 A 
HETATM    5  S2  UNL     1     -14.637  18.419   6.658  1.00  0.00    -0.068 SA
HETATM    6  C4  UNL     1     -12.798  20.504   8.071  1.00  0.00     0.005 A 
HETATM    7  C5  UNL     1     -12.526  20.104   9.488  1.00  0.00     0.036 C 
HETATM    8  C6  UNL     1     -11.574  21.179  10.050  1.00  0.00     0.128 C 
HETATM    9  N2  UNL     1     -12.261  22.372  10.104  1.00  0.00    -0.374 N 
HETATM   10  C17 UNL     1     -12.842  22.841   8.920  1.00  0.00     0.064 C 
HETATM   11  C18 UNL     1     -13.509  21.835   8.058  1.00  0.00     0.060 C 
HETATM   12  C19 UNL     1     -11.561  20.415   7.231  1.00  0.00     0.062 A 
ENDROOT
BRANCH   9  13
HETATM   13  C7  UNL     1     -12.292  23.260  11.160  1.00  0.00     0.064 C 
BRANCH  13  14
HETATM   14  C8  UNL     1     -13.207  23.090  12.315  1.00  0.00     0.064 C 
BRANCH  14  15
HETATM   15  C9  UNL     1     -14.271  24.141  12.365  1.00  0.00     0.128 C 
BRANCH  15  16
HETATM   16  N3  UNL     1     -14.994  24.259  11.096  1.00  0.00    -0.360 N 
HETATM   17  C10 UNL     1     -16.174  25.018  10.983  1.00  0.00     0.221 C 
HETATM   18  O1  UNL     1     -16.664  25.619  11.961  1.00  0.00    -0.273 OA
ATOM     19  H3  UNL     1     -14.633  23.778  10.272  1.00  0.00     0.162 HD
BRANCH  17  20
HETATM   20  C11 UNL     1     -16.877  25.120   9.671  1.00  0.00     0.078 C 
HETATM   21  C12 UNL     1     -18.312  25.467   9.897  1.00  0.00     0.014 C 
HETATM   22  C13 UNL     1     -19.176  24.230   9.931  1.00  0.00     0.001 C 
HETATM   23  C14 UNL     1     -19.134  23.485   8.614  1.00  0.00     0.000 C 
HETATM   24  C15 UNL     1     -17.819  23.710   7.897  1.00  0.00     0.001 C 
HETATM   25  C16 UNL     1     -16.718  23.816   8.900  1.00  0.00     0.014 C 
ENDBRANCH  17  20
ENDBRANCH  15  16
ENDBRANCH  14  15
ENDBRANCH  13  14
ENDBRANCH   9  13
BRANCH   1  26
HETATM   26  N1  UNL     1     -14.613  16.683   4.550  1.00  0.00    -0.388 N 
ATOM     27  H12 UNL     1     -15.585  16.380   4.491  1.00  0.00     0.157 HD
ATOM     28  H11 UNL     1     -14.205  16.070   3.844  1.00  0.00     0.157 HD
ENDBRANCH   1  26
TORSDOF 6
ENDMDL
MODEL 2
REMARK VINA RESULT: -7.401929419      0.956      1.166
REMARK  6 active torsions:
REMARK  status: ('A' for Active; 'I' for Inactive)
REMARK    1  A    between atoms: N1_1  and  C1_4 
REMARK    2  A    between atoms: N2_12  and  C7_13 
REMARK    3  A    between atoms: C7_13  and  C8_14 
REMARK    4  A    between atoms: C8_14  and  C9_15 
REMARK    5  A    between atoms: C9_15  and  N3_16 
REMARK       I    between atoms: N3_16  and  C10_18 
REMARK    6  A    between atoms: C10_18  and  C11_20 
ROOT
HETATM    1  C1  UNL     1     -13.814  18.015   4.299  1.00  0.00     0.110 A 
HETATM    2  S1  UNL     1     -13.236  17.237   5.678  1.00  0.00    -0.069 SA
HETATM    3  C2  UNL     1     -12.988  18.419   6.860  1.00  0.00     0.000 A 
HETATM    4  C3  UNL     1     -13.294  19.667   6.456  1.00  0.00     0.008 A 
HETATM    5  S2  UNL     1     -13.832  19.609   4.868  1.00  0.00    -0.068 SA
HETATM    6  C4  UNL     1     -12.902  20.181   7.790  1.00  0.00     0.005 A 
HETATM    7  C5  UNL     1     -14.015  20.772   8.599  1.00  0.00     0.036 C 
HETATM    8  C6  UNL     1     -13.446  20.956  10.020  1.00  0.00     0.128 C 
HETATM    9  N2  UNL     1     -12.452  21.909   9.962  1.00  0.00    -0.374 N 
HETATM   10  C17 UNL     1     -11.398  21.695   9.066  1.00  0.00     0.064 C 
HETATM   11  C18 UNL     1     -11.756  21.161   7.729  1.00  0.00     0.060 C 
HETATM   12  C19 UNL     1     -12.560  18.801   8.260  1.00  0.00     0.062 A 
ENDROOT
BRANCH   9  13
HETATM   13  C7  UNL     1     -12.278  22.973  10.824  1.00  0.00     0.064 C 
BRANCH  13  14
HETATM   14  C8  UNL     1     -12.860  22.996  12.188  1.00  0.00     0.064 C 
BRANCH  14  15
HETATM   15  C9  UNL     1     -13.972  23.989  12.320  1.00  0.00     0.128 C 
BRANCH  15  16
HETATM   16  N3  UNL     1     -14.730  24.143  11.076  1.00  0.00    -0.360 N 
HETATM   17  C10 UNL     1     -15.842  25.001  10.987  1.00  0.00     0.221 C 
HETATM   18  O1  UNL     1     -16.239  25.664  11.967  1.00  0.00    -0.273 OA
ATOM     19  H3  UNL     1     -14.444  23.614  10.252  1.00  0.00     0.162 HD
BRANCH  17  20
HETATM   20  C11 UNL     1     -16.583  25.137   9.699  1.00  0.00     0.078 C 
HETATM   21  C12 UNL     1     -17.958  25.653   9.964  1.00  0.00     0.014 C 
HETATM   22  C13 UNL     1     -18.955  24.525  10.079  1.00  0.00     0.001 C 
HETATM   23  C14 UNL     1     -19.052  23.734   8.792  1.00  0.00     0.000 C 
HETATM   24  C15 UNL     1     -17.751  23.783   8.018  1.00  0.00     0.001 C 
HETATM   25  C16 UNL     1     -16.604  23.797   8.975  1.00  0.00     0.014 C 
ENDBRANCH  17  20
ENDBRANCH  15  16
ENDBRANCH  14  15
ENDBRANCH  13  14
ENDBRANCH   9  13
BRANCH   1  26
HETATM   26  N1  UNL     1     -14.148  17.524   3.133  1.00  0.00    -0.388 N 
ATOM     27  H12 UNL     1     -14.845  16.822   2.884  1.00  0.00     0.157 HD
ATOM     28  H11 UNL     1     -13.784  17.733   2.204  1.00  0.00     0.157 HD
ENDBRANCH   1  26
TORSDOF 6
ENDMDL
MODEL 3
REMARK VINA RESULT: -7.383053102      0.849      1.560
REMARK  6 active torsions:
REMARK  status: ('A' for Active; 'I' for Inactive)
REMARK    1  A    between atoms: N1_1  and  C1_4 
REMARK    2  A    between atoms: N2_12  and  C7_13 
REMARK    3  A    between atoms: C7_13  and  C8_14 
REMARK    4  A    between atoms: C8_14  and  C9_15 
REMARK    5  A    between atoms: C9_15  and  N3_16 
REMARK       I    between atoms: N3_16  and  C10_18 
REMARK    6  A    between atoms: C10_18  and  C11_20 
ROOT
HETATM    1  C1  UNL     1     -13.566  16.957   5.062  1.00  0.00     0.110 A 
HETATM    2  S1  UNL     1     -14.987  17.735   5.528  1.00  0.00    -0.069 SA
HETATM    3  C2  UNL     1     -14.574  18.890   6.691  1.00  0.00     0.000 A 
HETATM    4  C3  UNL     1     -13.259  18.930   6.976  1.00  0.00     0.008 A 
HETATM    5  S2  UNL     1     -12.464  17.783   6.045  1.00  0.00    -0.068 SA
HETATM    6  C4  UNL     1     -13.517  20.015   7.952  1.00  0.00     0.005 A 
HETATM    7  C5  UNL     1     -12.912  21.341   7.608  1.00  0.00     0.036 C 
HETATM    8  C6  UNL     1     -13.548  22.356   8.579  1.00  0.00     0.128 C 
HETATM    9  N2  UNL     1     -13.124  22.049   9.854  1.00  0.00    -0.374 N 
HETATM   10  C17 UNL     1     -13.358  20.751  10.322  1.00  0.00     0.064 C 
HETATM   11  C18 UNL     1     -13.130  19.643   9.362  1.00  0.00     0.060 C 
HETATM   12  C19 UNL     1     -14.983  19.989   7.646  1.00  0.00     0.062 A 
ENDROOT
BRANCH   9  13
HETATM   13  C7  UNL     1     -12.653  22.934  10.803  1.00  0.00     0.064 C 
BRANCH  13  14
HETATM   14  C8  UNL     1     -13.241  23.032  12.161  1.00  0.00     0.064 C 
BRANCH  14  15
HETATM   15  C9  UNL     1     -14.292  24.094  12.256  1.00  0.00     0.128 C 
BRANCH  15  16
HETATM   16  N3  UNL     1     -15.047  24.241  11.008  1.00  0.00    -0.360 N 
HETATM   17  C10 UNL     1     -16.213  25.027  10.936  1.00  0.00     0.221 C 
HETATM   18  O1  UNL     1     -16.662  25.628  11.933  1.00  0.00    -0.273 OA
ATOM     19  H3  UNL     1     -14.719  23.761  10.170  1.00  0.00     0.162 HD
BRANCH  17  20
HETATM   20  C11 UNL     1     -16.948  25.157   9.644  1.00  0.00     0.078 C 
HETATM   21  C12 UNL     1     -18.335  25.644   9.905  1.00  0.00     0.014 C 
HETATM   22  C13 UNL     1     -19.310  24.496  10.006  1.00  0.00     0.001 C 
HETATM   23  C14 UNL     1     -19.384  23.713   8.712  1.00  0.00     0.000 C 
HETATM   24  C15 UNL     1     -18.079  23.793   7.946  1.00  0.00     0.001 C 
HETATM   25  C16 UNL     1     -16.939  23.823   8.910  1.00  0.00     0.014 C 
ENDBRANCH  17  20
ENDBRANCH  15  16
ENDBRANCH  14  15
ENDBRANCH  13  14
ENDBRANCH   9  13
BRANCH   1  26
HETATM   26  N1  UNL     1     -13.379  15.996   4.194  1.00  0.00    -0.388 N 
ATOM     27  H12 UNL     1     -13.968  15.201   3.947  1.00  0.00     0.157 HD
ATOM     28  H11 UNL     1     -12.596  15.825   3.564  1.00  0.00     0.157 HD
ENDBRANCH   1  26
TORSDOF 6
ENDMDL
MODEL 4
REMARK VINA RESULT: -7.063344648      3.360      7.088
REMARK  6 active torsions:
REMARK  status: ('A' for Active; 'I' for Inactive)
REMARK    1  A    between atoms: N1_1  and  C1_4 
REMARK    2  A    between atoms: N2_12  and  C7_13 
REMARK    3  A    between atoms: C7_13  and  C8_14 
REMARK    4  A    between atoms: C8_14  and  C9_15 
REMARK    5  A    between atoms: C9_15  and  N3_16 
REMARK       I    between atoms: N3_16  and  C10_18 
REMARK    6  A    between atoms: C10_18  and  C11_20 
ROOT
HETATM    1  C1  UNL     1     -17.397  25.191  10.030  1.00  0.00     0.110 A 
HETATM    2  S1  UNL     1     -16.185  25.194  11.203  1.00  0.00    -0.069 SA
HETATM    3  C2  UNL     1     -14.966  24.150  10.673  1.00  0.00     0.000 A 
HETATM    4  C3  UNL     1     -15.222  23.572   9.484  1.00  0.00     0.008 A 
HETATM    5  S2  UNL     1     -16.709  24.109   8.925  1.00  0.00    -0.068 SA
HETATM    6  C4  UNL     1     -13.927  22.856   9.568  1.00  0.00     0.005 A 
HETATM    7  C5  UNL     1     -12.915  23.241   8.532  1.00  0.00     0.036 C 
HETATM    8  C6  UNL     1     -11.586  22.607   8.990  1.00  0.00     0.128 C 
HETATM    9  N2  UNL     1     -11.720  21.237   8.921  1.00  0.00    -0.374 N 
HETATM   10  C17 UNL     1     -12.779  20.651   9.623  1.00  0.00     0.064 C 
HETATM   11  C18 UNL     1     -14.083  21.356   9.576  1.00  0.00     0.060 C 
HETATM   12  C19 UNL     1     -13.622  23.491  10.889  1.00  0.00     0.062 A 
ENDROOT
BRANCH   9  13
HETATM   13  C7  UNL     1     -10.815  20.346   8.380  1.00  0.00     0.064 C 
BRANCH  13  14
HETATM   14  C8  UNL     1     -10.715  18.939   8.838  1.00  0.00     0.064 C 
BRANCH  14  15
HETATM   15  C9  UNL     1     -10.894  17.958   7.722  1.00  0.00     0.128 C 
BRANCH  15  16
HETATM   16  N3  UNL     1     -12.102  18.226   6.936  1.00  0.00    -0.360 N 
HETATM   17  C10 UNL     1     -13.382  17.862   7.396  1.00  0.00     0.221 C 
HETATM   18  O1  UNL     1     -13.546  17.287   8.491  1.00  0.00    -0.273 OA
ATOM     19  H3  UNL     1     -12.013  18.689   6.031  1.00  0.00     0.162 HD
BRANCH  17  20
HETATM   20  C11 UNL     1     -14.587  18.161   6.569  1.00  0.00     0.078 C 
HETATM   21  C12 UNL     1     -14.940  16.964   5.748  1.00  0.00     0.014 C 
HETATM   22  C13 UNL     1     -14.335  17.049   4.368  1.00  0.00     0.001 C 
HETATM   23  C14 UNL     1     -14.860  18.244   3.602  1.00  0.00     0.000 C 
HETATM   24  C15 UNL     1     -15.258  19.365   4.539  1.00  0.00     0.001 C 
HETATM   25  C16 UNL     1     -14.329  19.390   5.708  1.00  0.00     0.014 C 
ENDBRANCH  17  20
ENDBRANCH  15  16
ENDBRANCH  14  15
ENDBRANCH  13  14
ENDBRANCH   9  13
BRANCH   1  26
HETATM   26  N1  UNL     1     -18.533  25.839   9.994  1.00  0.00    -0.388 N 
ATOM     27  H12 UNL     1     -19.486  25.517  10.158  1.00  0.00     0.157 HD
ATOM     28  H11 UNL     1     -18.722  26.820   9.791  1.00  0.00     0.157 HD
ENDBRANCH   1  26
TORSDOF 6
ENDMDL
MODEL 5
REMARK VINA RESULT: -6.851909045      2.440      3.506
REMARK  6 active torsions:
REMARK  status: ('A' for Active; 'I' for Inactive)
REMARK    1  A    between atoms: N1_1  and  C1_4 
REMARK    2  A    between atoms: N2_12  and  C7_13 
REMARK    3  A    between atoms: C7_13  and  C8_14 
REMARK    4  A    between atoms: C8_14  and  C9_15 
REMARK    5  A    between atoms: C9_15  and  N3_16 
REMARK       I    between atoms: N3_16  and  C10_18 
REMARK    6  A    between atoms: C10_18  and  C11_20 
ROOT
HETATM    1  C1  UNL     1     -14.630  18.656   6.709  1.00  0.00     0.110 A 
HETATM    2  S1  UNL     1     -13.046  18.276   6.276  1.00  0.00    -0.069 SA
HETATM    3  C2  UNL     1     -12.026  19.343   7.101  1.00  0.00     0.000 A 
HETATM    4  C3  UNL     1     -12.678  20.222   7.886  1.00  0.00     0.008 A 
HETATM    5  S2  UNL     1     -14.327  19.941   7.768  1.00  0.00    -0.068 SA
HETATM    6  C4  UNL     1     -11.377  20.811   8.284  1.00  0.00     0.005 A 
HETATM    7  C5  UNL     1     -11.015  20.644   9.727  1.00  0.00     0.036 C 
HETATM    8  C6  UNL     1      -9.533  21.054   9.837  1.00  0.00     0.128 C 
HETATM    9  N2  UNL     1      -9.441  22.401   9.561  1.00  0.00    -0.374 N 
HETATM   10  C17 UNL     1      -9.958  22.852   8.340  1.00  0.00     0.064 C 
HETATM   11  C18 UNL     1     -11.248  22.265   7.904  1.00  0.00     0.060 C 
HETATM   12  C19 UNL     1     -10.634  19.840   7.419  1.00  0.00     0.062 A 
ENDROOT
BRANCH   9  13
HETATM   13  C7  UNL     1      -8.730  23.344  10.276  1.00  0.00     0.064 C 
BRANCH  13  14
HETATM   14  C8  UNL     1      -9.275  24.689  10.580  1.00  0.00     0.064 C 
BRANCH  14  15
HETATM   15  C9  UNL     1      -9.992  24.734  11.893  1.00  0.00     0.128 C 
BRANCH  15  16
HETATM   16  N3  UNL     1     -11.430  24.491  11.749  1.00  0.00    -0.360 N 
HETATM   17  C10 UNL     1     -12.057  23.376  12.338  1.00  0.00     0.221 C 
HETATM   18  O1  UNL     1     -11.415  22.539  13.004  1.00  0.00    -0.273 OA
ATOM     19  H3  UNL     1     -11.993  25.147  11.207  1.00  0.00     0.162 HD
BRANCH  17  20
HETATM   20  C11 UNL     1     -13.526  23.169  12.175  1.00  0.00     0.078 C 
HETATM   21  C12 UNL     1     -13.781  22.330  10.967  1.00  0.00     0.014 C 
HETATM   22  C13 UNL     1     -14.064  23.184   9.755  1.00  0.00     0.001 C 
HETATM   23  C14 UNL     1     -15.309  24.025   9.945  1.00  0.00     0.000 C 
HETATM   24  C15 UNL     1     -15.543  24.337  11.409  1.00  0.00     0.001 C 
HETATM   25  C16 UNL     1     -14.229  24.518  12.094  1.00  0.00     0.014 C 
ENDBRANCH  17  20
ENDBRANCH  15  16
ENDBRANCH  14  15
ENDBRANCH  13  14
ENDBRANCH   9  13
BRANCH   1  26
HETATM   26  N1  UNL     1     -15.759  18.111   6.332  1.00  0.00    -0.388 N 
ATOM     27  H12 UNL     1     -16.564  18.515   5.854  1.00  0.00     0.157 HD
ATOM     28  H11 UNL     1     -16.090  17.151   6.433  1.00  0.00     0.157 HD
ENDBRANCH   1  26
TORSDOF 6
ENDMDL
