MODEL 1
REMARK VINA RESULT: -6.171336880      0.000      0.000
REMARK  6 active torsions:
REMARK  status: ('A' for Active; 'I' for Inactive)
REMARK    1  A    between atoms: N4_10  and  C3_11 
REMARK    2  A    between atoms: C3_11  and  C4_12 
REMARK    3  A    between atoms: C4_12  and  N5_13 
REMARK    4  A    between atoms: N5_13  and  O1_14 
REMARK    5  A    between atoms: N5_13  and  C5_16 
REMARK    6  A    between atoms: C5_16  and  C6_17 
ROOT
HETATM    1  C4  UNL     1      -6.610  15.236   6.404  1.00  0.00     0.141 C 
ENDROOT
BRANCH   1   2
HETATM    2  C3  UNL     1      -6.483  14.155   5.370  1.00  0.00     0.165 C 
BRANCH   2   3
HETATM    3  N4  UNL     1      -6.218  14.823   4.110  1.00  0.00    -0.176 N 
HETATM    4  C1  UNL     1      -7.142  15.208   3.223  1.00  0.00     0.693 A 
HETATM    5  N1  UNL     1      -8.443  15.061   3.310  1.00  0.00    -0.233 N 
HETATM    6  N2  UNL     1      -6.496  15.777   2.212  1.00  0.00    -0.131 N 
ATOM      7  H12 UNL     1      -9.148  15.355   2.634  1.00  0.00     0.174 HD
ATOM      8  H11 UNL     1      -8.940  14.624   4.087  1.00  0.00     0.174 HD
HETATM    9  N3  UNL     1      -5.186  15.740   2.478  1.00  0.00    -0.281 N 
ATOM     10  H2  UNL     1      -6.926  16.173   1.377  1.00  0.00     0.205 HD
HETATM   11  C2  UNL     1      -4.987  15.137   3.680  1.00  0.00     0.218 A 
ATOM     12  H3  UNL     1      -4.452  16.108   1.873  1.00  0.00     0.188 HD
ENDBRANCH   2   3
ENDBRANCH   1   2
BRANCH   1  13
HETATM   13  N5  UNL     1      -5.874  15.008   7.610  1.00  0.00    -0.193 NA
BRANCH  13  14
HETATM   14  O1  UNL     1      -5.233  13.845   7.518  1.00  0.00    -0.313 OA
ATOM     15  H1  UNL     1      -4.878  13.616   8.370  1.00  0.00     0.237 HD
ENDBRANCH  13  14
BRANCH  13  16
HETATM   16  C5  UNL     1      -5.048  16.136   7.952  1.00  0.00     0.178 C 
BRANCH  16  17
HETATM   17  C6  UNL     1      -3.978  16.413   6.986  1.00  0.00     0.041 A 
HETATM   18  C7  UNL     1      -3.763  17.518   6.195  1.00  0.00     0.115 A 
HETATM   19  N6  UNL     1      -2.643  17.277   5.488  1.00  0.00    -0.360 N 
HETATM   20  C8  UNL     1      -2.159  16.061   5.816  1.00  0.00     0.180 A 
ATOM     21  H6  UNL     1      -2.224  17.915   4.811  1.00  0.00     0.166 HD
HETATM   22  N7  UNL     1      -2.982  15.550   6.726  1.00  0.00    -0.354 N 
ATOM     23  H7  UNL     1      -2.873  14.635   7.164  1.00  0.00     0.166 HD
ENDBRANCH  16  17
ENDBRANCH  13  16
ENDBRANCH   1  13
TORSDOF 6
ENDMDL
MODEL 2
REMARK VINA RESULT: -6.162532578      2.948      4.286
REMARK  6 active torsions:
REMARK  status: ('A' for Active; 'I' for Inactive)
REMARK    1  A    between atoms: N4_10  and  C3_11 
REMARK    2  A    between atoms: C3_11  and  C4_12 
REMARK    3  A    between atoms: C4_12  and  N5_13 
REMARK    4  A    between atoms: N5_13  and  O1_14 
REMARK    5  A    between atoms: N5_13  and  C5_16 
REMARK    6  A    between atoms: C5_16  and  C6_17 
ROOT
HETATM    1  C4  UNL     1      -6.766  15.239   9.381  1.00  0.00     0.141 C 
ENDROOT
BRANCH   1   2
HETATM    2  C3  UNL     1      -7.867  14.390   8.815  1.00  0.00     0.165 C 
BRANCH   2   3
HETATM    3  N4  UNL     1      -9.038  15.241   8.731  1.00  0.00    -0.176 N 
HETATM    4  C1  UNL     1      -9.683  15.570   7.606  1.00  0.00     0.693 A 
HETATM    5  N1  UNL     1      -9.393  15.200   6.381  1.00  0.00    -0.233 N 
HETATM    6  N2  UNL     1     -10.693  16.358   7.954  1.00  0.00    -0.131 N 
ATOM      7  H12 UNL     1      -9.885  15.450   5.523  1.00  0.00     0.174 HD
ATOM      8  H11 UNL     1      -8.617  14.594   6.113  1.00  0.00     0.174 HD
HETATM    9  N3  UNL     1     -10.667  16.511   9.282  1.00  0.00    -0.281 N 
ATOM     10  H2  UNL     1     -11.372  16.775   7.318  1.00  0.00     0.205 HD
HETATM   11  C2  UNL     1      -9.622  15.810   9.795  1.00  0.00     0.218 A 
ATOM     12  H3  UNL     1     -11.328  17.068   9.825  1.00  0.00     0.188 HD
ENDBRANCH   2   3
ENDBRANCH   1   2
BRANCH   1  13
HETATM   13  N5  UNL     1      -6.039  16.007   8.417  1.00  0.00    -0.193 NA
BRANCH  13  14
HETATM   14  O1  UNL     1      -5.068  16.678   9.034  1.00  0.00    -0.313 OA
ATOM     15  H1  UNL     1      -4.431  16.967   8.391  1.00  0.00     0.237 HD
ENDBRANCH  13  14
BRANCH  13  16
HETATM   16  C5  UNL     1      -5.611  15.200   7.305  1.00  0.00     0.178 C 
BRANCH  16  17
HETATM   17  C6  UNL     1      -4.586  15.830   6.464  1.00  0.00     0.041 A 
HETATM   18  C7  UNL     1      -4.721  16.653   5.370  1.00  0.00     0.115 A 
HETATM   19  N6  UNL     1      -3.476  16.960   4.959  1.00  0.00    -0.360 N 
HETATM   20  C8  UNL     1      -2.577  16.354   5.762  1.00  0.00     0.180 A 
ATOM     21  H6  UNL     1      -3.248  17.559   4.165  1.00  0.00     0.166 HD
HETATM   22  N7  UNL     1      -3.268  15.671   6.670  1.00  0.00    -0.354 N 
ATOM     23  H7  UNL     1      -2.857  15.108   7.415  1.00  0.00     0.166 HD
ENDBRANCH  16  17
ENDBRANCH  13  16
ENDBRANCH   1  13
TORSDOF 6
ENDMDL
MODEL 3
REMARK VINA RESULT: -5.960685634      2.817      4.830
REMARK  6 active torsions:
REMARK  status: ('A' for Active; 'I' for Inactive)
REMARK    1  A    between atoms: N4_10  and  C3_11 
REMARK    2  A    between atoms: C3_11  and  C4_12 
REMARK    3  A    between atoms: C4_12  and  N5_13 
REMARK    4  A    between atoms: N5_13  and  O1_14 
REMARK    5  A    between atoms: N5_13  and  C5_16 
REMARK    6  A    between atoms: C5_16  and  C6_17 
ROOT
HETATM    1  C4  UNL     1      -6.761  15.171   8.077  1.00  0.00     0.141 C 
ENDROOT
BRANCH   1   2
HETATM    2  C3  UNL     1      -7.923  14.329   8.518  1.00  0.00     0.165 C 
BRANCH   2   3
HETATM    3  N4  UNL     1      -9.076  15.209   8.552  1.00  0.00    -0.176 N 
HETATM    4  C1  UNL     1      -9.792  15.596   7.491  1.00  0.00     0.693 A 
HETATM    5  N1  UNL     1      -9.599  15.270   6.234  1.00  0.00    -0.233 N 
HETATM    6  N2  UNL     1     -10.754  16.392   7.942  1.00  0.00    -0.131 N 
ATOM      7  H12 UNL     1     -10.145  15.565   5.425  1.00  0.00     0.174 HD
ATOM      8  H11 UNL     1      -8.860  14.659   5.888  1.00  0.00     0.174 HD
HETATM    9  N3  UNL     1     -10.629  16.491   9.269  1.00  0.00    -0.281 N 
ATOM     10  H2  UNL     1     -11.467  16.849   7.373  1.00  0.00     0.205 HD
HETATM   11  C2  UNL     1      -9.568  15.746   9.678  1.00  0.00     0.218 A 
ATOM     12  H3  UNL     1     -11.236  17.039   9.879  1.00  0.00     0.188 HD
ENDBRANCH   2   3
ENDBRANCH   1   2
BRANCH   1  13
HETATM   13  N5  UNL     1      -6.171  14.781   6.833  1.00  0.00    -0.193 NA
BRANCH  13  14
HETATM   14  O1  UNL     1      -6.958  13.890   6.235  1.00  0.00    -0.313 OA
ATOM     15  H1  UNL     1      -6.652  13.750   5.346  1.00  0.00     0.237 HD
ENDBRANCH  13  14
BRANCH  13  16
HETATM   16  C5  UNL     1      -5.819  15.922   6.029  1.00  0.00     0.178 C 
BRANCH  16  17
HETATM   17  C6  UNL     1      -5.884  15.682   4.582  1.00  0.00     0.041 A 
HETATM   18  C7  UNL     1      -4.915  15.232   3.715  1.00  0.00     0.115 A 
HETATM   19  N6  UNL     1      -5.481  15.182   2.494  1.00  0.00    -0.360 N 
HETATM   20  C8  UNL     1      -6.765  15.587   2.578  1.00  0.00     0.180 A 
ATOM     21  H6  UNL     1      -5.012  14.884   1.638  1.00  0.00     0.166 HD
HETATM   22  N7  UNL     1      -6.994  15.886   3.853  1.00  0.00    -0.354 N 
ATOM     23  H7  UNL     1      -7.882  16.223   4.224  1.00  0.00     0.166 HD
ENDBRANCH  16  17
ENDBRANCH  13  16
ENDBRANCH   1  13
TORSDOF 6
ENDMDL
MODEL 4
REMARK VINA RESULT: -5.958617405      3.819      5.606
REMARK  6 active torsions:
REMARK  status: ('A' for Active; 'I' for Inactive)
REMARK    1  A    between atoms: N4_10  and  C3_11 
REMARK    2  A    between atoms: C3_11  and  C4_12 
REMARK    3  A    between atoms: C4_12  and  N5_13 
REMARK    4  A    between atoms: N5_13  and  O1_14 
REMARK    5  A    between atoms: N5_13  and  C5_16 
REMARK    6  A    between atoms: C5_16  and  C6_17 
ROOT
HETATM    1  C4  UNL     1      -8.665  12.611   0.372  1.00  0.00     0.141 C 
ENDROOT
BRANCH   1   2
HETATM    2  C3  UNL     1      -9.487  13.856   0.207  1.00  0.00     0.165 C 
BRANCH   2   3
HETATM    3  N4  UNL     1      -8.917  14.576  -0.916  1.00  0.00    -0.176 N 
HETATM    4  C1  UNL     1      -8.852  15.906  -1.037  1.00  0.00     0.693 A 
HETATM    5  N1  UNL     1      -9.282  16.808  -0.186  1.00  0.00    -0.233 N 
HETATM    6  N2  UNL     1      -8.265  16.162  -2.200  1.00  0.00    -0.131 N 
ATOM      7  H12 UNL     1      -9.232  17.823  -0.277  1.00  0.00     0.174 HD
ATOM      8  H11 UNL     1      -9.733  16.612   0.708  1.00  0.00     0.174 HD
HETATM    9  N3  UNL     1      -7.972  14.997  -2.787  1.00  0.00    -0.281 N 
ATOM     10  H2  UNL     1      -8.070  17.088  -2.579  1.00  0.00     0.205 HD
HETATM   11  C2  UNL     1      -8.379  13.975  -1.988  1.00  0.00     0.218 A 
ATOM     12  H3  UNL     1      -7.514  14.892  -3.693  1.00  0.00     0.188 HD
ENDBRANCH   2   3
ENDBRANCH   1   2
BRANCH   1  13
HETATM   13  N5  UNL     1      -7.679  12.671   1.409  1.00  0.00    -0.193 NA
BRANCH  13  14
HETATM   14  O1  UNL     1      -6.466  12.615   0.862  1.00  0.00    -0.313 OA
ATOM     15  H1  UNL     1      -5.893  13.227   1.310  1.00  0.00     0.237 HD
ENDBRANCH  13  14
BRANCH  13  16
HETATM   16  C5  UNL     1      -7.900  13.785   2.292  1.00  0.00     0.178 C 
BRANCH  16  17
HETATM   17  C6  UNL     1      -6.696  14.245   2.993  1.00  0.00     0.041 A 
HETATM   18  C7  UNL     1      -6.202  13.895   4.229  1.00  0.00     0.115 A 
HETATM   19  N6  UNL     1      -5.069  14.599   4.408  1.00  0.00    -0.360 N 
HETATM   20  C8  UNL     1      -4.846  15.373   3.326  1.00  0.00     0.180 A 
ATOM     21  H6  UNL     1      -4.471  14.554   5.233  1.00  0.00     0.166 HD
HETATM   22  N7  UNL     1      -5.844  15.146   2.476  1.00  0.00    -0.354 N 
ATOM     23  H7  UNL     1      -5.947  15.591   1.564  1.00  0.00     0.166 HD
ENDBRANCH  16  17
ENDBRANCH  13  16
ENDBRANCH   1  13
TORSDOF 6
ENDMDL
MODEL 5
REMARK VINA RESULT: -5.950379435      2.806      4.439
REMARK  6 active torsions:
REMARK  status: ('A' for Active; 'I' for Inactive)
REMARK    1  A    between atoms: N4_10  and  C3_11 
REMARK    2  A    between atoms: C3_11  and  C4_12 
REMARK    3  A    between atoms: C4_12  and  N5_13 
REMARK    4  A    between atoms: N5_13  and  O1_14 
REMARK    5  A    between atoms: N5_13  and  C5_16 
REMARK    6  A    between atoms: C5_16  and  C6_17 
ROOT
HETATM    1  C4  UNL     1      -7.041  15.213   7.476  1.00  0.00     0.141 C 
ENDROOT
BRANCH   1   2
HETATM    2  C3  UNL     1      -8.166  14.327   7.927  1.00  0.00     0.165 C 
BRANCH   2   3
HETATM    3  N4  UNL     1      -9.259  15.207   8.294  1.00  0.00    -0.176 N 
HETATM    4  C1  UNL     1      -9.435  15.771   9.494  1.00  0.00     0.693 A 
HETATM    5  N1  UNL     1      -8.676  15.643  10.557  1.00  0.00    -0.233 N 
HETATM    6  N2  UNL     1     -10.543  16.499   9.421  1.00  0.00    -0.131 N 
ATOM      7  H12 UNL     1      -8.811  16.074  11.471  1.00  0.00     0.174 HD
ATOM      8  H11 UNL     1      -7.825  15.085  10.613  1.00  0.00     0.174 HD
HETATM    9  N3  UNL     1     -11.042  16.381   8.186  1.00  0.00    -0.281 N 
ATOM     10  H2  UNL     1     -10.945  17.052  10.177  1.00  0.00     0.205 HD
HETATM   11  C2  UNL     1     -10.240  15.564   7.453  1.00  0.00     0.218 A 
ATOM     12  H3  UNL     1     -11.890  16.835   7.846  1.00  0.00     0.188 HD
ENDBRANCH   2   3
ENDBRANCH   1   2
BRANCH   1  13
HETATM   13  N5  UNL     1      -5.797  15.000   8.151  1.00  0.00    -0.193 NA
BRANCH  13  14
HETATM   14  O1  UNL     1      -5.201  13.924   7.641  1.00  0.00    -0.313 OA
ATOM     15  H1  UNL     1      -4.265  13.983   7.795  1.00  0.00     0.237 HD
ENDBRANCH  13  14
BRANCH  13  16
HETATM   16  C5  UNL     1      -4.991  16.192   8.173  1.00  0.00     0.178 C 
BRANCH  16  17
HETATM   17  C6  UNL     1      -4.148  16.370   6.984  1.00  0.00     0.041 A 
HETATM   18  C7  UNL     1      -4.325  17.181   5.887  1.00  0.00     0.115 A 
HETATM   19  N6  UNL     1      -3.267  16.977   5.079  1.00  0.00    -0.360 N 
HETATM   20  C8  UNL     1      -2.444  16.067   5.640  1.00  0.00     0.180 A 
ATOM     21  H6  UNL     1      -3.112  17.438   4.183  1.00  0.00     0.166 HD
HETATM   22  N7  UNL     1      -2.994  15.709   6.797  1.00  0.00    -0.354 N 
ATOM     23  H7  UNL     1      -2.597  15.031   7.448  1.00  0.00     0.166 HD
ENDBRANCH  16  17
ENDBRANCH  13  16
ENDBRANCH   1  13
TORSDOF 6
ENDMDL
