MODEL 1
REMARK VINA RESULT: -5.904037887      0.000      0.000
REMARK  6 active torsions:
REMARK  status: ('A' for Active; 'I' for Inactive)
REMARK    1  A    between atoms: C3_3  and  N1_4 
REMARK    2  A    between atoms: N1_4  and  N2_5 
REMARK    3  A    between atoms: N1_4  and  C4_8 
REMARK    4  A    between atoms: C4_8  and  C5_9 
REMARK    5  A    between atoms: C5_9  and  S1_10 
REMARK    6  A    between atoms: S1_10  and  C6_11 
ROOT
HETATM    1  C1  UNL     1      -1.405  14.484  10.722  1.00  0.00     0.013 C 
HETATM    2  C2  UNL     1      -2.371  14.513   9.998  1.00  0.00    -0.101 C 
HETATM    3  C3  UNL     1      -3.538  14.520   9.119  1.00  0.00     0.205 C 
ENDROOT
BRANCH   3   4
HETATM    4  N1  UNL     1      -3.655  15.794   8.437  1.00  0.00    -0.226 NA
BRANCH   4   5
HETATM    5  N2  UNL     1      -3.132  15.647   7.126  1.00  0.00    -0.362 NA
ATOM      6  H22 UNL     1      -2.263  15.125   7.235  1.00  0.00     0.171 HD
ATOM      7  H21 UNL     1      -2.891  16.572   6.773  1.00  0.00     0.171 HD
ENDBRANCH   4   5
BRANCH   4   8
HETATM    8  C4  UNL     1      -5.070  16.066   8.265  1.00  0.00     0.124 C 
BRANCH   8   9
HETATM    9  C5  UNL     1      -5.827  14.823   7.845  1.00  0.00     0.098 C 
BRANCH   9  10
HETATM   10  S1  UNL     1      -7.054  15.356   6.603  1.00  0.00    -0.092 SA
BRANCH  10  11
HETATM   11  C6  UNL     1      -6.344  15.427   4.972  1.00  0.00     0.160 A 
HETATM   12  N3  UNL     1      -5.029  15.282   4.748  1.00  0.00    -0.332 N 
HETATM   13  C7  UNL     1      -4.524  15.337   3.507  1.00  0.00     0.200 A 
ATOM     14  H3  UNL     1      -4.402  15.126   5.537  1.00  0.00     0.168 HD
HETATM   15  N4  UNL     1      -5.307  15.541   2.440  1.00  0.00    -0.188 N 
HETATM   16  C8  UNL     1      -6.625  15.684   2.678  1.00  0.00     0.678 A 
ATOM     17  H4  UNL     1      -4.925  15.585   1.496  1.00  0.00     0.185 HD
HETATM   18  N5  UNL     1      -7.450  15.882   1.677  1.00  0.00    -0.234 N 
HETATM   19  N6  UNL     1      -7.146  15.631   3.917  1.00  0.00    -0.171 N 
ATOM     20  H52 UNL     1      -7.056  15.923   0.737  1.00  0.00     0.174 HD
ATOM     21  H51 UNL     1      -8.448  15.990   1.857  1.00  0.00     0.174 HD
ATOM     22  H6  UNL     1      -8.150  15.745   4.054  1.00  0.00     0.186 HD
ENDBRANCH  10  11
ENDBRANCH   9  10
ENDBRANCH   8   9
ENDBRANCH   4   8
ENDBRANCH   3   4
TORSDOF 6
ENDMDL
MODEL 2
REMARK VINA RESULT: -5.847003704      1.860      2.110
REMARK  6 active torsions:
REMARK  status: ('A' for Active; 'I' for Inactive)
REMARK    1  A    between atoms: C3_3  and  N1_4 
REMARK    2  A    between atoms: N1_4  and  N2_5 
REMARK    3  A    between atoms: N1_4  and  C4_8 
REMARK    4  A    between atoms: C4_8  and  C5_9 
REMARK    5  A    between atoms: C5_9  and  S1_10 
REMARK    6  A    between atoms: S1_10  and  C6_11 
ROOT
HETATM    1  C1  UNL     1      -2.312  16.348   5.810  1.00  0.00     0.013 C 
HETATM    2  C2  UNL     1      -3.203  16.289   6.621  1.00  0.00    -0.101 C 
HETATM    3  C3  UNL     1      -4.269  16.235   7.618  1.00  0.00     0.205 C 
ENDROOT
BRANCH   3   4
HETATM    4  N1  UNL     1      -4.909  14.934   7.612  1.00  0.00    -0.226 NA
BRANCH   4   5
HETATM    5  N2  UNL     1      -4.116  14.044   8.381  1.00  0.00    -0.362 NA
ATOM      6  H22 UNL     1      -3.836  13.302   7.740  1.00  0.00     0.171 HD
ATOM      7  H21 UNL     1      -4.709  13.623   9.095  1.00  0.00     0.171 HD
ENDBRANCH   4   5
BRANCH   4   8
HETATM    8  C4  UNL     1      -6.162  15.062   8.333  1.00  0.00     0.124 C 
BRANCH   8   9
HETATM    9  C5  UNL     1      -7.283  14.321   7.634  1.00  0.00     0.098 C 
BRANCH   9  10
HETATM   10  S1  UNL     1      -7.910  15.433   6.330  1.00  0.00    -0.092 SA
BRANCH  10  11
HETATM   11  C6  UNL     1      -7.030  15.204   4.799  1.00  0.00     0.160 A 
HETATM   12  N3  UNL     1      -5.790  14.697   4.745  1.00  0.00    -0.332 N 
HETATM   13  C7  UNL     1      -5.154  14.533   3.576  1.00  0.00     0.200 A 
ATOM     14  H3  UNL     1      -5.321  14.429   5.611  1.00  0.00     0.168 HD
HETATM   15  N4  UNL     1      -5.727  14.870   2.414  1.00  0.00    -0.188 N 
HETATM   16  C8  UNL     1      -6.973  15.378   2.480  1.00  0.00     0.678 A 
ATOM     17  H4  UNL     1      -5.245  14.749   1.524  1.00  0.00     0.185 HD
HETATM   18  N5  UNL     1      -7.595  15.726   1.379  1.00  0.00    -0.234 N 
HETATM   19  N6  UNL     1      -7.623  15.548   3.646  1.00  0.00    -0.171 N 
ATOM     20  H52 UNL     1      -7.102  15.598   0.495  1.00  0.00     0.174 HD
ATOM     21  H51 UNL     1      -8.538  16.110   1.429  1.00  0.00     0.174 HD
ATOM     22  H6  UNL     1      -8.565  15.937   3.653  1.00  0.00     0.186 HD
ENDBRANCH  10  11
ENDBRANCH   9  10
ENDBRANCH   8   9
ENDBRANCH   4   8
ENDBRANCH   3   4
TORSDOF 6
ENDMDL
MODEL 3
REMARK VINA RESULT: -5.735913242      2.282      2.937
REMARK  6 active torsions:
REMARK  status: ('A' for Active; 'I' for Inactive)
REMARK    1  A    between atoms: C3_3  and  N1_4 
REMARK    2  A    between atoms: N1_4  and  N2_5 
REMARK    3  A    between atoms: N1_4  and  C4_8 
REMARK    4  A    between atoms: C4_8  and  C5_9 
REMARK    5  A    between atoms: C5_9  and  S1_10 
REMARK    6  A    between atoms: S1_10  and  C6_11 
ROOT
HETATM    1  C1  UNL     1      -2.476  16.305   5.861  1.00  0.00     0.013 C 
HETATM    2  C2  UNL     1      -3.442  16.243   6.582  1.00  0.00    -0.101 C 
HETATM    3  C3  UNL     1      -4.595  16.163   7.475  1.00  0.00     0.205 C 
ENDROOT
BRANCH   3   4
HETATM    4  N1  UNL     1      -5.761  15.681   6.761  1.00  0.00    -0.226 NA
BRANCH   4   5
HETATM    5  N2  UNL     1      -5.479  14.377   6.276  1.00  0.00    -0.362 NA
ATOM      6  H22 UNL     1      -6.332  14.066   5.813  1.00  0.00     0.171 HD
ATOM      7  H21 UNL     1      -5.325  13.765   7.077  1.00  0.00     0.171 HD
ENDBRANCH   4   5
BRANCH   4   8
HETATM    8  C4  UNL     1      -6.827  15.513   7.732  1.00  0.00     0.124 C 
BRANCH   8   9
HETATM    9  C5  UNL     1      -7.893  14.563   7.227  1.00  0.00     0.098 C 
BRANCH   9  10
HETATM   10  S1  UNL     1      -8.881  15.491   6.005  1.00  0.00    -0.092 SA
BRANCH  10  11
HETATM   11  C6  UNL     1      -8.290  15.221   4.347  1.00  0.00     0.160 A 
HETATM   12  N3  UNL     1      -9.044  14.657   3.392  1.00  0.00    -0.332 N 
HETATM   13  C7  UNL     1      -8.572  14.470   2.152  1.00  0.00     0.200 A 
ATOM     14  H3  UNL     1      -9.997  14.366   3.614  1.00  0.00     0.168 HD
HETATM   15  N4  UNL     1      -7.329  14.835   1.813  1.00  0.00    -0.188 N 
HETATM   16  C8  UNL     1      -6.582  15.401   2.780  1.00  0.00     0.678 A 
ATOM     17  H4  UNL     1      -6.966  14.692   0.870  1.00  0.00     0.185 HD
HETATM   18  N5  UNL     1      -5.355  15.786   2.515  1.00  0.00    -0.234 N 
HETATM   19  N6  UNL     1      -7.042  15.595   4.029  1.00  0.00    -0.171 N 
ATOM     20  H52 UNL     1      -5.006  15.638   1.568  1.00  0.00     0.174 HD
ATOM     21  H51 UNL     1      -4.790  16.214   3.247  1.00  0.00     0.174 HD
ATOM     22  H6  UNL     1      -6.444  16.026   4.732  1.00  0.00     0.186 HD
ENDBRANCH  10  11
ENDBRANCH   9  10
ENDBRANCH   8   9
ENDBRANCH   4   8
ENDBRANCH   3   4
TORSDOF 6
ENDMDL
MODEL 4
REMARK VINA RESULT: -5.660633773      2.104      3.138
REMARK  6 active torsions:
REMARK  status: ('A' for Active; 'I' for Inactive)
REMARK    1  A    between atoms: C3_3  and  N1_4 
REMARK    2  A    between atoms: N1_4  and  N2_5 
REMARK    3  A    between atoms: N1_4  and  C4_8 
REMARK    4  A    between atoms: C4_8  and  C5_9 
REMARK    5  A    between atoms: C5_9  and  S1_10 
REMARK    6  A    between atoms: S1_10  and  C6_11 
ROOT
HETATM    1  C1  UNL     1      -2.252  16.065   5.709  1.00  0.00     0.013 C 
HETATM    2  C2  UNL     1      -3.185  16.299   6.439  1.00  0.00    -0.101 C 
HETATM    3  C3  UNL     1      -4.319  16.605   7.308  1.00  0.00     0.205 C 
ENDROOT
BRANCH   3   4
HETATM    4  N1  UNL     1      -4.071  16.133   8.656  1.00  0.00    -0.226 NA
BRANCH   4   5
HETATM    5  N2  UNL     1      -5.199  16.454   9.455  1.00  0.00    -0.362 NA
ATOM      6  H22 UNL     1      -4.938  17.293   9.973  1.00  0.00     0.171 HD
ATOM      7  H21 UNL     1      -5.334  15.705  10.133  1.00  0.00     0.171 HD
ENDBRANCH   4   5
BRANCH   4   8
HETATM    8  C4  UNL     1      -4.027  14.683   8.608  1.00  0.00     0.124 C 
BRANCH   8   9
HETATM    9  C5  UNL     1      -5.240  14.069   9.275  1.00  0.00     0.098 C 
BRANCH   9  10
HETATM   10  S1  UNL     1      -6.079  13.063   8.003  1.00  0.00    -0.092 SA
BRANCH  10  11
HETATM   11  C6  UNL     1      -6.687  14.073   6.669  1.00  0.00     0.160 A 
HETATM   12  N3  UNL     1      -6.115  14.090   5.455  1.00  0.00    -0.332 N 
HETATM   13  C7  UNL     1      -6.597  14.860   4.469  1.00  0.00     0.200 A 
ATOM     14  H3  UNL     1      -5.297  13.506   5.280  1.00  0.00     0.168 HD
HETATM   15  N4  UNL     1      -7.668  15.643   4.652  1.00  0.00    -0.188 N 
HETATM   16  C8  UNL     1      -8.234  15.616   5.873  1.00  0.00     0.678 A 
ATOM     17  H4  UNL     1      -8.036  16.230   3.904  1.00  0.00     0.185 HD
HETATM   18  N5  UNL     1      -9.288  16.357   6.120  1.00  0.00    -0.234 N 
HETATM   19  N6  UNL     1      -7.760  14.850   6.872  1.00  0.00    -0.171 N 
ATOM     20  H52 UNL     1      -9.647  16.939   5.362  1.00  0.00     0.174 HD
ATOM     21  H51 UNL     1      -9.717  16.337   7.044  1.00  0.00     0.174 HD
ATOM     22  H6  UNL     1      -8.218  14.860   7.784  1.00  0.00     0.186 HD
ENDBRANCH  10  11
ENDBRANCH   9  10
ENDBRANCH   8   9
ENDBRANCH   4   8
ENDBRANCH   3   4
TORSDOF 6
ENDMDL
MODEL 5
REMARK VINA RESULT: -5.651875762      3.358      4.550
REMARK  6 active torsions:
REMARK  status: ('A' for Active; 'I' for Inactive)
REMARK    1  A    between atoms: C3_3  and  N1_4 
REMARK    2  A    between atoms: N1_4  and  N2_5 
REMARK    3  A    between atoms: N1_4  and  C4_8 
REMARK    4  A    between atoms: C4_8  and  C5_9 
REMARK    5  A    between atoms: C5_9  and  S1_10 
REMARK    6  A    between atoms: S1_10  and  C6_11 
ROOT
HETATM    1  C1  UNL     1      -2.683  17.496   5.063  1.00  0.00     0.013 C 
HETATM    2  C2  UNL     1      -2.844  16.823   6.051  1.00  0.00    -0.101 C 
HETATM    3  C3  UNL     1      -3.014  15.995   7.243  1.00  0.00     0.205 C 
ENDROOT
BRANCH   3   4
HETATM    4  N1  UNL     1      -4.419  15.731   7.484  1.00  0.00    -0.226 NA
BRANCH   4   5
HETATM    5  N2  UNL     1      -4.905  14.912   6.432  1.00  0.00    -0.362 NA
ATOM      6  H22 UNL     1      -5.084  14.001   6.854  1.00  0.00     0.171 HD
ATOM      7  H21 UNL     1      -4.157  14.791   5.750  1.00  0.00     0.171 HD
ENDBRANCH   4   5
BRANCH   4   8
HETATM    8  C4  UNL     1      -4.509  14.919   8.684  1.00  0.00     0.124 C 
BRANCH   8   9
HETATM    9  C5  UNL     1      -5.321  15.608   9.761  1.00  0.00     0.098 C 
BRANCH   9  10
HETATM   10  S1  UNL     1      -6.916  14.726   9.854  1.00  0.00    -0.092 SA
BRANCH  10  11
HETATM   11  C6  UNL     1      -8.023  15.239   8.557  1.00  0.00     0.160 A 
HETATM   12  N3  UNL     1      -7.662  15.265   7.265  1.00  0.00    -0.332 N 
HETATM   13  C7  UNL     1      -8.519  15.653   6.310  1.00  0.00     0.200 A 
ATOM     14  H3  UNL     1      -6.716  14.983   7.005  1.00  0.00     0.168 HD
HETATM   15  N4  UNL     1      -9.769  16.033   6.603  1.00  0.00    -0.188 N 
HETATM   16  C8  UNL     1     -10.120  16.002   7.903  1.00  0.00     0.678 A 
ATOM     17  H4  UNL     1     -10.422  16.330   5.879  1.00  0.00     0.185 HD
HETATM   18  N5  UNL     1     -11.332  16.358   8.259  1.00  0.00    -0.234 N 
HETATM   19  N6  UNL     1      -9.271  15.615   8.872  1.00  0.00    -0.171 N 
ATOM     20  H52 UNL     1     -11.976  16.652   7.525  1.00  0.00     0.174 HD
ATOM     21  H51 UNL     1     -11.597  16.334   9.244  1.00  0.00     0.174 HD
ATOM     22  H6  UNL     1      -9.576  15.607   9.845  1.00  0.00     0.186 HD
ENDBRANCH  10  11
ENDBRANCH   9  10
ENDBRANCH   8   9
ENDBRANCH   4   8
ENDBRANCH   3   4
TORSDOF 6
ENDMDL
