MODEL 1
REMARK VINA RESULT: -6.012191847      0.000      0.000
REMARK  5 active torsions:
REMARK  status: ('A' for Active; 'I' for Inactive)
REMARK    1  A    between atoms: N4_10  and  O1_11 
REMARK    2  A    between atoms: O1_11  and  C3_12 
REMARK    3  A    between atoms: C3_12  and  C4_13 
REMARK    4  A    between atoms: C4_13  and  C5_14 
REMARK    5  A    between atoms: C5_14  and  C6_15 
ROOT
HETATM    1  O1  UNL     1      -6.319  14.349   5.444  1.00  0.00    -0.259 OA
ENDROOT
BRANCH   1   2
HETATM    2  N4  UNL     1      -6.165  14.906   4.200  1.00  0.00    -0.043 N 
HETATM    3  C1  UNL     1      -7.097  15.242   3.303  1.00  0.00     0.718 A 
HETATM    4  N1  UNL     1      -8.362  15.098   3.448  1.00  0.00    -0.231 N 
HETATM    5  N2  UNL     1      -6.514  15.768   2.194  1.00  0.00    -0.129 N 
ATOM      6  H12 UNL     1      -9.073  15.354   2.763  1.00  0.00     0.174 HD
ATOM      7  H11 UNL     1      -8.799  14.704   4.281  1.00  0.00     0.174 HD
HETATM    8  N3  UNL     1      -5.217  15.738   2.449  1.00  0.00    -0.279 N 
ATOM      9  H2  UNL     1      -6.975  16.110   1.350  1.00  0.00     0.205 HD
HETATM   10  C2  UNL     1      -4.978  15.216   3.668  1.00  0.00     0.249 A 
ATOM     11  H3  UNL     1      -4.494  16.066   1.809  1.00  0.00     0.188 HD
ENDBRANCH   1   2
BRANCH   1  12
HETATM   12  C3  UNL     1      -6.667  15.207   6.540  1.00  0.00     0.203 C 
BRANCH  12  13
HETATM   13  C4  UNL     1      -5.816  14.913   7.747  1.00  0.00     0.035 C 
BRANCH  13  14
HETATM   14  C5  UNL     1      -5.023  16.171   8.059  1.00  0.00     0.061 C 
BRANCH  14  15
HETATM   15  C6  UNL     1      -3.953  16.391   7.060  1.00  0.00     0.025 A 
HETATM   16  C7  UNL     1      -3.763  17.498   6.262  1.00  0.00     0.114 A 
HETATM   17  N5  UNL     1      -2.686  17.295   5.503  1.00  0.00    -0.360 N 
HETATM   18  C8  UNL     1      -2.177  16.090   5.790  1.00  0.00     0.180 A 
ATOM     19  H5  UNL     1      -2.310  17.950   4.817  1.00  0.00     0.166 HD
HETATM   20  N6  UNL     1      -2.965  15.536   6.753  1.00  0.00    -0.355 N 
ATOM     21  H6  UNL     1      -2.827  14.618   7.174  1.00  0.00     0.166 HD
ENDBRANCH  14  15
ENDBRANCH  13  14
ENDBRANCH  12  13
ENDBRANCH   1  12
TORSDOF 5
ENDMDL
MODEL 2
REMARK VINA RESULT: -5.948474582      3.260      4.995
REMARK  5 active torsions:
REMARK  status: ('A' for Active; 'I' for Inactive)
REMARK    1  A    between atoms: N4_10  and  O1_11 
REMARK    2  A    between atoms: O1_11  and  C3_12 
REMARK    3  A    between atoms: C3_12  and  C4_13 
REMARK    4  A    between atoms: C4_13  and  C5_14 
REMARK    5  A    between atoms: C5_14  and  C6_15 
ROOT
HETATM    1  O1  UNL     1      -7.931  14.593   8.313  1.00  0.00    -0.259 OA
ENDROOT
BRANCH   1   2
HETATM    2  N4  UNL     1      -9.081  15.327   8.464  1.00  0.00    -0.043 N 
HETATM    3  C1  UNL     1      -9.962  15.717   7.539  1.00  0.00     0.718 A 
HETATM    4  N1  UNL     1      -9.891  15.467   6.284  1.00  0.00    -0.231 N 
HETATM    5  N2  UNL     1     -10.965  16.429   8.116  1.00  0.00    -0.129 N 
ATOM      6  H12 UNL     1     -10.564  15.765   5.578  1.00  0.00     0.174 HD
ATOM      7  H11 UNL     1      -9.138  14.932   5.852  1.00  0.00     0.174 HD
HETATM    8  N3  UNL     1     -10.662  16.454   9.403  1.00  0.00    -0.279 N 
ATOM      9  H2  UNL     1     -11.773  16.852   7.658  1.00  0.00     0.205 HD
HETATM   10  C2  UNL     1      -9.516  15.789   9.642  1.00  0.00     0.249 A 
ATOM     11  H3  UNL     1     -11.222  16.917  10.120  1.00  0.00     0.188 HD
ENDBRANCH   1   2
BRANCH   1  12
HETATM   12  C3  UNL     1      -6.700  15.290   8.075  1.00  0.00     0.203 C 
BRANCH  12  13
HETATM   13  C4  UNL     1      -5.998  14.745   6.860  1.00  0.00     0.035 C 
BRANCH  13  14
HETATM   14  C5  UNL     1      -5.559  15.933   6.020  1.00  0.00     0.061 C 
BRANCH  14  15
HETATM   15  C6  UNL     1      -5.785  15.682   4.578  1.00  0.00     0.025 A 
HETATM   16  C7  UNL     1      -4.979  14.975   3.713  1.00  0.00     0.114 A 
HETATM   17  N5  UNL     1      -5.542  14.985   2.504  1.00  0.00    -0.360 N 
HETATM   18  C8  UNL     1      -6.686  15.678   2.567  1.00  0.00     0.180 A 
ATOM     19  H5  UNL     1      -5.163  14.539   1.668  1.00  0.00     0.166 HD
HETATM   20  N6  UNL     1      -6.831  16.106   3.852  1.00  0.00    -0.355 N 
ATOM     21  H6  UNL     1      -7.609  16.661   4.206  1.00  0.00     0.166 HD
ENDBRANCH  14  15
ENDBRANCH  13  14
ENDBRANCH  12  13
ENDBRANCH   1  12
TORSDOF 5
ENDMDL
MODEL 3
REMARK VINA RESULT: -5.813773364      3.476      4.509
REMARK  5 active torsions:
REMARK  status: ('A' for Active; 'I' for Inactive)
REMARK    1  A    between atoms: N4_10  and  O1_11 
REMARK    2  A    between atoms: O1_11  and  C3_12 
REMARK    3  A    between atoms: C3_12  and  C4_13 
REMARK    4  A    between atoms: C4_13  and  C5_14 
REMARK    5  A    between atoms: C5_14  and  C6_15 
ROOT
HETATM    1  O1  UNL     1      -8.218  14.415   7.704  1.00  0.00    -0.259 OA
ENDROOT
BRANCH   1   2
HETATM    2  N4  UNL     1      -9.232  15.216   8.165  1.00  0.00    -0.043 N 
HETATM    3  C1  UNL     1      -9.386  15.777   9.368  1.00  0.00     0.718 A 
HETATM    4  N1  UNL     1      -8.578  15.663  10.356  1.00  0.00    -0.231 N 
HETATM    5  N2  UNL     1     -10.536  16.500   9.406  1.00  0.00    -0.129 N 
ATOM      6  H12 UNL     1      -8.696  16.091  11.275  1.00  0.00     0.174 HD
ATOM      7  H11 UNL     1      -7.715  15.120  10.327  1.00  0.00     0.174 HD
HETATM    8  N3  UNL     1     -11.063  16.358   8.202  1.00  0.00    -0.279 N 
ATOM      9  H2  UNL     1     -10.910  17.034  10.191  1.00  0.00     0.205 HD
HETATM   10  C2  UNL     1     -10.286  15.578   7.425  1.00  0.00     0.249 A 
ATOM     11  H3  UNL     1     -11.940  16.781   7.901  1.00  0.00     0.188 HD
ENDBRANCH   1   2
BRANCH   1  12
HETATM   12  C3  UNL     1      -7.058  15.038   7.134  1.00  0.00     0.203 C 
BRANCH  12  13
HETATM   13  C4  UNL     1      -5.837  14.777   7.976  1.00  0.00     0.035 C 
BRANCH  13  14
HETATM   14  C5  UNL     1      -5.096  16.096   8.118  1.00  0.00     0.061 C 
BRANCH  14  15
HETATM   15  C6  UNL     1      -4.165  16.312   6.986  1.00  0.00     0.025 A 
HETATM   16  C7  UNL     1      -4.312  17.189   5.934  1.00  0.00     0.114 A 
HETATM   17  N5  UNL     1      -3.252  17.072   5.133  1.00  0.00    -0.360 N 
HETATM   18  C8  UNL     1      -2.428  16.146   5.641  1.00  0.00     0.180 A 
ATOM     19  H5  UNL     1      -3.094  17.601   4.275  1.00  0.00     0.166 HD
HETATM   20  N6  UNL     1      -2.999  15.679   6.786  1.00  0.00    -0.355 N 
ATOM     21  H6  UNL     1      -2.603  14.963   7.394  1.00  0.00     0.166 HD
ENDBRANCH  14  15
ENDBRANCH  13  14
ENDBRANCH  12  13
ENDBRANCH   1  12
TORSDOF 5
ENDMDL
MODEL 4
REMARK VINA RESULT: -5.801125536      3.242      4.291
REMARK  5 active torsions:
REMARK  status: ('A' for Active; 'I' for Inactive)
REMARK    1  A    between atoms: N4_10  and  O1_11 
REMARK    2  A    between atoms: O1_11  and  C3_12 
REMARK    3  A    between atoms: C3_12  and  C4_13 
REMARK    4  A    between atoms: C4_13  and  C5_14 
REMARK    5  A    between atoms: C5_14  and  C6_15 
ROOT
HETATM    1  O1  UNL     1      -8.173  14.231   8.427  1.00  0.00    -0.259 OA
ENDROOT
BRANCH   1   2
HETATM    2  N4  UNL     1      -9.222  15.109   8.533  1.00  0.00    -0.043 N 
HETATM    3  C1  UNL     1     -10.106  15.485   7.604  1.00  0.00     0.718 A 
HETATM    4  N1  UNL     1     -10.137  15.077   6.390  1.00  0.00    -0.231 N 
HETATM    5  N2  UNL     1     -10.987  16.377   8.128  1.00  0.00    -0.129 N 
ATOM      6  H12 UNL     1     -10.811  15.364   5.681  1.00  0.00     0.174 HD
ATOM      7  H11 UNL     1      -9.475  14.407   5.997  1.00  0.00     0.174 HD
HETATM    8  N3  UNL     1     -10.610  16.523   9.387  1.00  0.00    -0.279 N 
ATOM      9  H2  UNL     1     -11.768  16.833   7.655  1.00  0.00     0.205 HD
HETATM   10  C2  UNL     1      -9.534  15.760   9.659  1.00  0.00     0.249 A 
ATOM     11  H3  UNL     1     -11.071  17.133  10.062  1.00  0.00     0.188 HD
ENDBRANCH   1   2
BRANCH   1  12
HETATM   12  C3  UNL     1      -6.856  14.694   8.757  1.00  0.00     0.203 C 
BRANCH  12  13
HETATM   13  C4  UNL     1      -6.286  15.535   7.645  1.00  0.00     0.035 C 
BRANCH  13  14
HETATM   14  C5  UNL     1      -5.031  16.204   8.180  1.00  0.00     0.061 C 
BRANCH  14  15
HETATM   15  C6  UNL     1      -4.017  16.370   7.114  1.00  0.00     0.025 A 
HETATM   16  C7  UNL     1      -3.885  17.426   6.238  1.00  0.00     0.114 A 
HETATM   17  N5  UNL     1      -2.846  17.185   5.438  1.00  0.00    -0.360 N 
HETATM   18  C8  UNL     1      -2.306  16.006   5.774  1.00  0.00     0.180 A 
ATOM     19  H5  UNL     1      -2.516  17.798   4.692  1.00  0.00     0.166 HD
HETATM   20  N6  UNL     1      -3.035  15.507   6.810  1.00  0.00    -0.355 N 
ATOM     21  H6  UNL     1      -2.863  14.619   7.281  1.00  0.00     0.166 HD
ENDBRANCH  14  15
ENDBRANCH  13  14
ENDBRANCH  12  13
ENDBRANCH   1  12
TORSDOF 5
ENDMDL
MODEL 5
REMARK VINA RESULT: -5.800888127      0.956      1.766
REMARK  5 active torsions:
REMARK  status: ('A' for Active; 'I' for Inactive)
REMARK    1  A    between atoms: N4_10  and  O1_11 
REMARK    2  A    between atoms: O1_11  and  C3_12 
REMARK    3  A    between atoms: C3_12  and  C4_13 
REMARK    4  A    between atoms: C4_13  and  C5_14 
REMARK    5  A    between atoms: C5_14  and  C6_15 
ROOT
HETATM    1  O1  UNL     1      -6.181  13.892   4.512  1.00  0.00    -0.259 OA
ENDROOT
BRANCH   1   2
HETATM    2  N4  UNL     1      -6.845  14.489   3.470  1.00  0.00    -0.043 N 
HETATM    3  C1  UNL     1      -6.384  15.344   2.553  1.00  0.00     0.718 A 
HETATM    4  N1  UNL     1      -5.183  15.784   2.475  1.00  0.00    -0.231 N 
HETATM    5  N2  UNL     1      -7.378  15.693   1.694  1.00  0.00    -0.129 N 
ATOM      6  H12 UNL     1      -4.831  16.437   1.775  1.00  0.00     0.174 HD
ATOM      7  H11 UNL     1      -4.437  15.522   3.120  1.00  0.00     0.174 HD
HETATM    8  N3  UNL     1      -8.438  15.028   2.119  1.00  0.00    -0.279 N 
ATOM      9  H2  UNL     1      -7.318  16.328   0.897  1.00  0.00     0.205 HD
HETATM   10  C2  UNL     1      -8.139  14.286   3.202  1.00  0.00     0.249 A 
ATOM     11  H3  UNL     1      -9.360  15.072   1.684  1.00  0.00     0.188 HD
ENDBRANCH   1   2
BRANCH   1  12
HETATM   12  C3  UNL     1      -6.776  13.932   5.816  1.00  0.00     0.203 C 
BRANCH  12  13
HETATM   13  C4  UNL     1      -6.780  15.335   6.364  1.00  0.00     0.035 C 
BRANCH  13  14
HETATM   14  C5  UNL     1      -5.554  15.478   7.250  1.00  0.00     0.061 C 
BRANCH  14  15
HETATM   15  C6  UNL     1      -4.414  16.052   6.498  1.00  0.00     0.025 A 
HETATM   16  C7  UNL     1      -4.433  17.127   5.637  1.00  0.00     0.114 A 
HETATM   17  N5  UNL     1      -3.199  17.318   5.169  1.00  0.00    -0.360 N 
HETATM   18  C8  UNL     1      -2.387  16.397   5.706  1.00  0.00     0.180 A 
ATOM     19  H5  UNL     1      -2.918  18.046   4.511  1.00  0.00     0.166 HD
HETATM   20  N6  UNL     1      -3.145  15.618   6.527  1.00  0.00    -0.355 N 
ATOM     21  H6  UNL     1      -2.802  14.830   7.075  1.00  0.00     0.166 HD
ENDBRANCH  14  15
ENDBRANCH  13  14
ENDBRANCH  12  13
ENDBRANCH   1  12
TORSDOF 5
ENDMDL
