MODEL 1
REMARK VINA RESULT: -5.268049102      0.000      0.000
REMARK  6 active torsions:
REMARK  status: ('A' for Active; 'I' for Inactive)
REMARK    1  A    between atoms: N1_2  and  C2_5 
REMARK    2  A    between atoms: C2_5  and  C3_6 
REMARK    3  A    between atoms: C8_11  and  O1_12 
REMARK    4  A    between atoms: C17_24  and  C18_25 
REMARK    5  A    between atoms: C19_26  and  C21_28 
REMARK    6  A    between atoms: C21_28  and  C22_29 
ROOT
HETATM    1  C3  UNL     1      63.182  23.857  48.451  1.00  0.00     0.050 C 
HETATM    2  C4  UNL     1      63.933  23.654  49.738  1.00  0.00     0.010 C 
HETATM    3  C5  UNL     1      65.397  23.901  49.674  1.00  0.00     0.006 C 
HETATM    4  C6  UNL     1      65.879  24.755  48.562  1.00  0.00    -0.001 C 
HETATM    5  C7  UNL     1      67.104  25.499  49.065  1.00  0.00     0.037 C 
HETATM    6  C8  UNL     1      67.652  26.478  48.112  1.00  0.00     0.118 C 
HETATM    7  C9  UNL     1      66.781  26.869  46.981  1.00  0.00     0.032 C 
HETATM    8  C10 UNL     1      65.296  26.829  47.276  1.00  0.00     0.015 C 
HETATM    9  C11 UNL     1      64.810  25.681  48.033  1.00  0.00    -0.005 C 
HETATM   10  C12 UNL     1      64.171  26.308  49.304  1.00  0.00     0.019 C 
HETATM   11  C13 UNL     1      63.756  24.786  47.428  1.00  0.00     0.106 C 
HETATM   12  O2  UNL     1      62.797  25.797  47.059  1.00  0.00    -0.341 OA
HETATM   13  C14 UNL     1      61.976  25.249  46.109  1.00  0.00     0.159 C 
HETATM   14  C15 UNL     1      62.046  26.151  44.877  1.00  0.00     0.078 C 
HETATM   15  C16 UNL     1      60.538  25.206  46.493  1.00  0.00     0.078 C 
HETATM   16  O3  UNL     1      62.532  24.040  45.733  1.00  0.00    -0.344 OA
HETATM   17  C17 UNL     1      63.909  24.144  46.143  1.00  0.00     0.184 C 
ENDROOT
BRANCH   1  18
HETATM   18  C2  UNL     1      62.644  22.532  48.083  1.00  0.00     0.239 C 
BRANCH  18  19
HETATM   19  N1  UNL     1      63.322  21.368  48.594  1.00  0.00    -0.079 N 
HETATM   20  C1  UNL     1      62.664  20.126  48.166  1.00  0.00     0.267 C 
ATOM     21  H12 UNL     1      63.416  21.409  49.609  1.00  0.00     0.276 HD
ATOM     22  H11 UNL     1      64.311  21.372  48.342  1.00  0.00     0.276 HD
ENDBRANCH  18  19
ENDBRANCH   1  18
BRANCH  17  23
HETATM   23  C18 UNL     1      64.596  24.587  44.985  1.00  0.00     0.010 C 
HETATM   24  C19 UNL     1      65.785  24.115  44.641  1.00  0.00    -0.085 C 
HETATM   25  C20 UNL     1      66.465  24.627  43.400  1.00  0.00     0.043 C 
BRANCH  24  26
HETATM   26  C21 UNL     1      66.455  23.071  45.411  1.00  0.00     0.037 C 
BRANCH  26  27
HETATM   27  C22 UNL     1      67.888  22.776  45.051  1.00  0.00    -0.019 C 
HETATM   28  C23 UNL     1      68.726  23.556  46.100  1.00  0.00     0.010 C 
HETATM   29  C24 UNL     1      68.189  21.326  45.355  1.00  0.00     0.010 C 
ENDBRANCH  26  27
ENDBRANCH  24  26
ENDBRANCH  17  23
BRANCH   6  30
HETATM   30  O1  UNL     1      68.043  27.632  48.811  1.00  0.00    -0.396 OA
ATOM     31  H1  UNL     1      67.269  28.077  49.138  1.00  0.00     0.210 HD
ENDBRANCH   6  30
TORSDOF 6
ENDMDL
MODEL 2
REMARK VINA RESULT: -5.252156639     17.372     20.441
REMARK  6 active torsions:
REMARK  status: ('A' for Active; 'I' for Inactive)
REMARK    1  A    between atoms: N1_2  and  C2_5 
REMARK    2  A    between atoms: C2_5  and  C3_6 
REMARK    3  A    between atoms: C8_11  and  O1_12 
REMARK    4  A    between atoms: C17_24  and  C18_25 
REMARK    5  A    between atoms: C19_26  and  C21_28 
REMARK    6  A    between atoms: C21_28  and  C22_29 
ROOT
HETATM    1  C3  UNL     1      56.740  12.715  57.235  1.00  0.00     0.050 C 
HETATM    2  C4  UNL     1      56.103  12.934  55.891  1.00  0.00     0.010 C 
HETATM    3  C5  UNL     1      54.745  12.353  55.721  1.00  0.00     0.006 C 
HETATM    4  C6  UNL     1      53.983  12.073  56.961  1.00  0.00    -0.001 C 
HETATM    5  C7  UNL     1      52.512  12.259  56.637  1.00  0.00     0.037 C 
HETATM    6  C8  UNL     1      51.613  12.120  57.794  1.00  0.00     0.118 C 
HETATM    7  C9  UNL     1      52.237  12.174  59.135  1.00  0.00     0.032 C 
HETATM    8  C10 UNL     1      53.481  13.033  59.225  1.00  0.00     0.015 C 
HETATM    9  C11 UNL     1      54.435  12.919  58.127  1.00  0.00    -0.005 C 
HETATM   10  C12 UNL     1      54.526  14.360  57.553  1.00  0.00     0.019 C 
HETATM   11  C13 UNL     1      55.853  12.490  58.418  1.00  0.00     0.106 C 
HETATM   12  O2  UNL     1      56.153  13.430  59.470  1.00  0.00    -0.341 OA
HETATM   13  C14 UNL     1      57.220  12.929  60.168  1.00  0.00     0.159 C 
HETATM   14  C15 UNL     1      56.789  12.813  61.629  1.00  0.00     0.078 C 
HETATM   15  C16 UNL     1      58.419  13.813  60.172  1.00  0.00     0.078 C 
HETATM   16  O3  UNL     1      57.431  11.636  59.725  1.00  0.00    -0.344 OA
HETATM   17  C17 UNL     1      56.181  11.267  59.112  1.00  0.00     0.184 C 
ENDROOT
BRANCH   1  18
HETATM   18  C2  UNL     1      57.933  11.880  56.987  1.00  0.00     0.239 C 
BRANCH  18  19
HETATM   19  N1  UNL     1      59.223  12.515  57.063  1.00  0.00    -0.079 N 
HETATM   20  C1  UNL     1      60.242  11.608  57.609  1.00  0.00     0.267 C 
ATOM     21  H12 UNL     1      59.178  13.386  57.592  1.00  0.00     0.276 HD
ATOM     22  H11 UNL     1      59.506  12.893  56.159  1.00  0.00     0.276 HD
ENDBRANCH  18  19
ENDBRANCH   1  18
BRANCH  17  23
HETATM   23  C18 UNL     1      55.469  10.584  60.131  1.00  0.00     0.010 C 
HETATM   24  C19 UNL     1      54.688   9.545  59.876  1.00  0.00    -0.085 C 
HETATM   25  C20 UNL     1      53.956   8.863  61.001  1.00  0.00     0.043 C 
BRANCH  24  26
HETATM   26  C21 UNL     1      54.538   9.001  58.530  1.00  0.00     0.037 C 
BRANCH  26  27
HETATM   27  C22 UNL     1      53.351   8.105  58.288  1.00  0.00    -0.019 C 
HETATM   28  C23 UNL     1      52.759   8.592  56.937  1.00  0.00     0.010 C 
HETATM   29  C24 UNL     1      53.838   6.706  57.985  1.00  0.00     0.010 C 
ENDBRANCH  26  27
ENDBRANCH  24  26
ENDBRANCH  17  23
BRANCH   6  30
HETATM   30  O1  UNL     1      50.606  13.097  57.716  1.00  0.00    -0.396 OA
ATOM     31  H1  UNL     1      50.544  13.548  58.551  1.00  0.00     0.210 HD
ENDBRANCH   6  30
TORSDOF 6
ENDMDL
MODEL 3
REMARK VINA RESULT: -5.218613575     16.967     20.347
REMARK  6 active torsions:
REMARK  status: ('A' for Active; 'I' for Inactive)
REMARK    1  A    between atoms: N1_2  and  C2_5 
REMARK    2  A    between atoms: C2_5  and  C3_6 
REMARK    3  A    between atoms: C8_11  and  O1_12 
REMARK    4  A    between atoms: C17_24  and  C18_25 
REMARK    5  A    between atoms: C19_26  and  C21_28 
REMARK    6  A    between atoms: C21_28  and  C22_29 
ROOT
HETATM    1  C3  UNL     1      59.299   9.454  59.776  1.00  0.00     0.050 C 
HETATM    2  C4  UNL     1      60.270  10.594  59.916  1.00  0.00     0.010 C 
HETATM    3  C5  UNL     1      59.760  11.928  59.506  1.00  0.00     0.006 C 
HETATM    4  C6  UNL     1      58.287  12.095  59.480  1.00  0.00    -0.001 C 
HETATM    5  C7  UNL     1      57.993  13.546  59.821  1.00  0.00     0.037 C 
HETATM    6  C8  UNL     1      56.561  13.862  59.943  1.00  0.00     0.118 C 
HETATM    7  C9  UNL     1      55.632  12.717  60.071  1.00  0.00     0.032 C 
HETATM    8  C10 UNL     1      56.213  11.500  60.761  1.00  0.00     0.015 C 
HETATM    9  C11 UNL     1      57.573  11.125  60.391  1.00  0.00    -0.005 C 
HETATM   10  C12 UNL     1      58.362  11.192  61.729  1.00  0.00     0.019 C 
HETATM   11  C13 UNL     1      57.834   9.755  59.814  1.00  0.00     0.106 C 
HETATM   12  O2  UNL     1      57.175   8.965  60.823  1.00  0.00    -0.341 OA
HETATM   13  C14 UNL     1      56.914   7.739  60.271  1.00  0.00     0.159 C 
HETATM   14  C15 UNL     1      55.409   7.501  60.389  1.00  0.00     0.078 C 
HETATM   15  C16 UNL     1      57.557   6.598  60.981  1.00  0.00     0.078 C 
HETATM   16  O3  UNL     1      57.185   7.831  58.918  1.00  0.00    -0.344 OA
HETATM   17  C17 UNL     1      57.149   9.245  58.649  1.00  0.00     0.184 C 
ENDROOT
BRANCH   1  18
HETATM   18  C2  UNL     1      59.881   8.548  58.765  1.00  0.00     0.239 C 
BRANCH  18  19
HETATM   19  N1  UNL     1      60.948   7.675  59.183  1.00  0.00    -0.079 N 
HETATM   20  C1  UNL     1      60.555   6.261  59.099  1.00  0.00     0.267 C 
ATOM     21  H12 UNL     1      61.280   7.914  60.117  1.00  0.00     0.276 HD
ATOM     22  H11 UNL     1      61.804   7.856  58.659  1.00  0.00     0.276 HD
ENDBRANCH  18  19
ENDBRANCH   1  18
BRANCH  17  23
HETATM   23  C18 UNL     1      55.829   9.492  58.194  1.00  0.00     0.010 C 
HETATM   24  C19 UNL     1      55.570  10.289  57.169  1.00  0.00    -0.085 C 
HETATM   25  C20 UNL     1      54.146  10.512  56.734  1.00  0.00     0.043 C 
BRANCH  24  26
HETATM   26  C21 UNL     1      56.631  10.938  56.405  1.00  0.00     0.037 C 
BRANCH  26  27
HETATM   27  C22 UNL     1      56.262  12.198  55.665  1.00  0.00    -0.019 C 
HETATM   28  C23 UNL     1      57.430  13.180  55.952  1.00  0.00     0.010 C 
HETATM   29  C24 UNL     1      56.359  11.947  54.177  1.00  0.00     0.010 C 
ENDBRANCH  26  27
ENDBRANCH  24  26
ENDBRANCH  17  23
BRANCH   6  30
HETATM   30  O1  UNL     1      56.371  14.733  61.029  1.00  0.00    -0.396 OA
ATOM     31  H1  UNL     1      56.207  14.222  61.813  1.00  0.00     0.210 HD
ENDBRANCH   6  30
TORSDOF 6
ENDMDL
MODEL 4
REMARK VINA RESULT: -5.199736638      1.441      1.914
REMARK  6 active torsions:
REMARK  status: ('A' for Active; 'I' for Inactive)
REMARK    1  A    between atoms: N1_2  and  C2_5 
REMARK    2  A    between atoms: C2_5  and  C3_6 
REMARK    3  A    between atoms: C8_11  and  O1_12 
REMARK    4  A    between atoms: C17_24  and  C18_25 
REMARK    5  A    between atoms: C19_26  and  C21_28 
REMARK    6  A    between atoms: C21_28  and  C22_29 
ROOT
HETATM    1  C3  UNL     1      63.929  22.022  48.783  1.00  0.00     0.050 C 
HETATM    2  C4  UNL     1      65.092  21.384  49.493  1.00  0.00     0.010 C 
HETATM    3  C5  UNL     1      66.431  21.930  49.151  1.00  0.00     0.006 C 
HETATM    4  C6  UNL     1      66.464  23.294  48.571  1.00  0.00    -0.001 C 
HETATM    5  C7  UNL     1      67.765  23.940  49.014  1.00  0.00     0.037 C 
HETATM    6  C8  UNL     1      67.913  25.347  48.609  1.00  0.00     0.118 C 
HETATM    7  C9  UNL     1      66.687  26.044  48.157  1.00  0.00     0.032 C 
HETATM    8  C10 UNL     1      65.404  25.558  48.798  1.00  0.00     0.015 C 
HETATM    9  C11 UNL     1      65.251  24.114  48.940  1.00  0.00    -0.005 C 
HETATM   10  C12 UNL     1      65.084  23.900  50.471  1.00  0.00     0.019 C 
HETATM   11  C13 UNL     1      64.077  23.425  48.287  1.00  0.00     0.106 C 
HETATM   12  O2  UNL     1      63.021  24.263  48.797  1.00  0.00    -0.341 OA
HETATM   13  C14 UNL     1      61.934  24.085  47.983  1.00  0.00     0.159 C 
HETATM   14  C15 UNL     1      61.538  25.461  47.450  1.00  0.00     0.078 C 
HETATM   15  C16 UNL     1      60.726  23.562  48.681  1.00  0.00     0.078 C 
HETATM   16  O3  UNL     1      62.355  23.354  46.888  1.00  0.00    -0.344 OA
HETATM   17  C17 UNL     1      63.785  23.532  46.876  1.00  0.00     0.184 C 
ENDROOT
BRANCH   1  18
HETATM   18  C2  UNL     1      63.334  20.960  47.946  1.00  0.00     0.239 C 
BRANCH  18  19
HETATM   19  N1  UNL     1      62.094  20.376  48.388  1.00  0.00    -0.079 N 
HETATM   20  C1  UNL     1      62.002  18.956  48.020  1.00  0.00     0.267 C 
ATOM     21  H12 UNL     1      61.291  20.902  48.043  1.00  0.00     0.276 HD
ATOM     22  H11 UNL     1      61.954  20.511  49.389  1.00  0.00     0.276 HD
ENDBRANCH  18  19
ENDBRANCH   1  18
BRANCH  17  23
HETATM   23  C18 UNL     1      64.006  24.612  45.985  1.00  0.00     0.010 C 
HETATM   24  C19 UNL     1      64.943  24.579  45.050  1.00  0.00    -0.085 C 
HETATM   25  C20 UNL     1      65.130  25.759  44.134  1.00  0.00     0.043 C 
BRANCH  24  26
HETATM   26  C21 UNL     1      65.790  23.409  44.844  1.00  0.00     0.037 C 
BRANCH  26  27
HETATM   27  C22 UNL     1      67.235  23.535  45.254  1.00  0.00    -0.019 C 
HETATM   28  C23 UNL     1      67.740  22.071  45.372  1.00  0.00     0.010 C 
HETATM   29  C24 UNL     1      68.033  24.100  44.101  1.00  0.00     0.010 C 
ENDBRANCH  26  27
ENDBRANCH  24  26
ENDBRANCH  17  23
BRANCH   6  30
HETATM   30  O1  UNL     1      68.492  26.073  49.663  1.00  0.00    -0.396 OA
ATOM     31  H1  UNL     1      69.371  26.335  49.414  1.00  0.00     0.210 HD
ENDBRANCH   6  30
TORSDOF 6
ENDMDL
MODEL 5
REMARK VINA RESULT: -5.175803594      2.251      5.444
REMARK  6 active torsions:
REMARK  status: ('A' for Active; 'I' for Inactive)
REMARK    1  A    between atoms: N1_2  and  C2_5 
REMARK    2  A    between atoms: C2_5  and  C3_6 
REMARK    3  A    between atoms: C8_11  and  O1_12 
REMARK    4  A    between atoms: C17_24  and  C18_25 
REMARK    5  A    between atoms: C19_26  and  C21_28 
REMARK    6  A    between atoms: C21_28  and  C22_29 
ROOT
HETATM    1  C3  UNL     1      64.172  25.586  44.772  1.00  0.00     0.050 C 
HETATM    2  C4  UNL     1      62.912  25.207  44.045  1.00  0.00     0.010 C 
HETATM    3  C5  UNL     1      61.759  24.838  44.908  1.00  0.00     0.006 C 
HETATM    4  C6  UNL     1      61.791  25.331  46.306  1.00  0.00    -0.001 C 
HETATM    5  C7  UNL     1      60.353  25.559  46.736  1.00  0.00     0.037 C 
HETATM    6  C8  UNL     1      60.207  26.153  48.075  1.00  0.00     0.118 C 
HETATM    7  C9  UNL     1      61.416  26.764  48.670  1.00  0.00     0.032 C 
HETATM    8  C10 UNL     1      62.392  27.349  47.671  1.00  0.00     0.015 C 
HETATM    9  C11 UNL     1      62.652  26.561  46.471  1.00  0.00    -0.005 C 
HETATM   10  C12 UNL     1      62.227  27.495  45.304  1.00  0.00     0.019 C 
HETATM   11  C13 UNL     1      64.062  26.117  46.166  1.00  0.00     0.106 C 
HETATM   12  O2  UNL     1      64.722  27.394  46.282  1.00  0.00    -0.341 OA
HETATM   13  C14 UNL     1      66.054  27.144  46.477  1.00  0.00     0.159 C 
HETATM   14  C15 UNL     1      66.457  27.835  47.779  1.00  0.00     0.078 C 
HETATM   15  C16 UNL     1      66.944  27.715  45.428  1.00  0.00     0.078 C 
HETATM   16  O3  UNL     1      66.190  25.787  46.703  1.00  0.00    -0.344 OA
HETATM   17  C17 UNL     1      64.871  25.363  47.095  1.00  0.00     0.184 C 
ENDROOT
BRANCH   1  18
HETATM   18  C2  UNL     1      65.173  24.563  44.407  1.00  0.00     0.239 C 
BRANCH  18  19
HETATM   19  N1  UNL     1      66.158  24.914  43.415  1.00  0.00    -0.079 N 
HETATM   20  C1  UNL     1      67.495  24.431  43.785  1.00  0.00     0.267 C 
ATOM     21  H12 UNL     1      66.162  25.917  43.233  1.00  0.00     0.276 HD
ATOM     22  H11 UNL     1      65.886  24.585  42.488  1.00  0.00     0.276 HD
ENDBRANCH  18  19
ENDBRANCH   1  18
BRANCH  17  23
HETATM   23  C18 UNL     1      64.889  25.394  48.513  1.00  0.00     0.010 C 
HETATM   24  C19 UNL     1      64.306  24.462  49.250  1.00  0.00    -0.085 C 
HETATM   25  C20 UNL     1      64.358  24.551  50.752  1.00  0.00     0.043 C 
BRANCH  24  26
HETATM   26  C21 UNL     1      63.637  23.309  48.654  1.00  0.00     0.037 C 
BRANCH  26  27
HETATM   27  C22 UNL     1      64.229  21.954  48.944  1.00  0.00    -0.019 C 
HETATM   28  C23 UNL     1      63.322  20.956  48.174  1.00  0.00     0.010 C 
HETATM   29  C24 UNL     1      65.566  21.836  48.248  1.00  0.00     0.010 C 
ENDBRANCH  26  27
ENDBRANCH  24  26
ENDBRANCH  17  23
BRANCH   6  30
HETATM   30  O1  UNL     1      59.175  27.106  48.047  1.00  0.00    -0.396 OA
ATOM     31  H1  UNL     1      59.528  27.954  48.292  1.00  0.00     0.210 HD
ENDBRANCH   6  30
TORSDOF 6
ENDMDL
