MODEL 1
REMARK VINA RESULT: -6.909806412      0.000      0.000
REMARK  7 active torsions:
REMARK  status: ('A' for Active; 'I' for Inactive)
REMARK    1  A    between atoms: C2_2  and  C3_3 
REMARK    2  A    between atoms: C5_5  and  C6_6 
REMARK    3  A    between atoms: C8_8  and  O1_9 
REMARK    4  A    between atoms: C9_11  and  C10_12 
REMARK    5  A    between atoms: C15_18  and  N2_19 
REMARK    6  A    between atoms: N2_19  and  C17_21 
REMARK    7  A    between atoms: C23_27  and  O2_28 
ROOT
HETATM    1  C6  UNL     1      56.943  13.069  54.236  1.00  0.00    -0.031 A 
HETATM    2  C7  UNL     1      56.903  11.682  54.529  1.00  0.00     0.049 A 
HETATM    3  C8  UNL     1      56.239  11.199  55.628  1.00  0.00     0.080 A 
HETATM    4  C9  UNL     1      55.589  12.028  56.502  1.00  0.00     0.040 A 
HETATM    5  C23 UNL     1      55.651  13.390  56.173  1.00  0.00     0.080 A 
HETATM    6  C24 UNL     1      56.307  13.901  55.075  1.00  0.00     0.049 A 
ENDROOT
BRANCH   4   7
HETATM    7  C10 UNL     1      55.045  11.645  57.759  1.00  0.00    -0.008 C 
HETATM    8  C11 UNL     1      53.549  11.148  57.568  1.00  0.00     0.157 C 
HETATM    9  N1  UNL     1      53.609   9.727  57.660  1.00  0.00    -0.412 N 
HETATM   10  C12 UNL     1      52.773   9.012  56.833  1.00  0.00     0.143 C 
HETATM   11  C13 UNL     1      53.898   9.187  58.937  1.00  0.00     0.122 C 
HETATM   12  C14 UNL     1      54.481  10.373  59.741  1.00  0.00     0.071 C 
HETATM   13  C15 UNL     1      55.583  11.059  58.929  1.00  0.00    -0.002 C 
BRANCH  13  14
HETATM   14  N2  UNL     1      56.572  11.622  59.781  1.00  0.00    -0.286 NA
HETATM   15  C16 UNL     1      56.186  11.642  61.180  1.00  0.00     0.117 C 
BRANCH  14  16
HETATM   16  C17 UNL     1      57.864  10.954  59.794  1.00  0.00     0.062 C 
HETATM   17  C18 UNL     1      58.250  10.125  58.642  1.00  0.00     0.020 C 
HETATM   18  C19 UNL     1      59.519  10.569  57.950  1.00  0.00     0.002 C 
HETATM   19  C20 UNL     1      59.267  11.954  57.430  1.00  0.00     0.000 C 
HETATM   20  C21 UNL     1      58.914  12.827  58.632  1.00  0.00     0.002 C 
HETATM   21  C22 UNL     1      58.931  12.028  59.909  1.00  0.00     0.020 C 
ENDBRANCH  14  16
ENDBRANCH  13  14
ENDBRANCH   4   7
BRANCH   3  22
HETATM   22  O1  UNL     1      56.241   9.810  55.791  1.00  0.00    -0.360 OA
ATOM     23  H1  UNL     1      57.088   9.406  55.940  1.00  0.00     0.217 HD
ENDBRANCH   3  22
BRANCH   5  24
HETATM   24  O2  UNL     1      55.007  14.315  57.002  1.00  0.00    -0.360 OA
ATOM     25  H2  UNL     1      54.622  15.091  56.612  1.00  0.00     0.217 HD
ENDBRANCH   5  24
BRANCH   1  26
HETATM   26  C5  UNL     1      57.737  13.492  53.105  1.00  0.00     0.014 C 
HETATM   27  C3  UNL     1      57.640  13.291  51.850  1.00  0.00    -0.083 C 
HETATM   28  C4  UNL     1      56.602  12.487  51.150  1.00  0.00     0.043 C 
BRANCH  27  29
HETATM   29  C2  UNL     1      58.675  13.887  50.912  1.00  0.00     0.029 C 
HETATM   30  C1  UNL     1      58.657  15.381  50.918  1.00  0.00     0.010 C 
ENDBRANCH  27  29
ENDBRANCH   1  26
TORSDOF 7
ENDMDL
MODEL 2
REMARK VINA RESULT: -6.766603748      1.642      3.626
REMARK  7 active torsions:
REMARK  status: ('A' for Active; 'I' for Inactive)
REMARK    1  A    between atoms: C2_2  and  C3_3 
REMARK    2  A    between atoms: C5_5  and  C6_6 
REMARK    3  A    between atoms: C8_8  and  O1_9 
REMARK    4  A    between atoms: C9_11  and  C10_12 
REMARK    5  A    between atoms: C15_18  and  N2_19 
REMARK    6  A    between atoms: N2_19  and  C17_21 
REMARK    7  A    between atoms: C23_27  and  O2_28 
ROOT
HETATM    1  C6  UNL     1      57.134  13.223  53.711  1.00  0.00    -0.031 A 
HETATM    2  C7  UNL     1      56.457  11.987  53.555  1.00  0.00     0.049 A 
HETATM    3  C8  UNL     1      56.034  11.258  54.638  1.00  0.00     0.080 A 
HETATM    4  C9  UNL     1      56.248  11.680  55.922  1.00  0.00     0.040 A 
HETATM    5  C23 UNL     1      56.918  12.907  56.031  1.00  0.00     0.080 A 
HETATM    6  C24 UNL     1      57.350  13.661  54.961  1.00  0.00     0.049 A 
ENDROOT
BRANCH   4   7
HETATM    7  C10 UNL     1      56.023  10.910  57.096  1.00  0.00    -0.008 C 
HETATM    8  C11 UNL     1      57.295  10.010  57.402  1.00  0.00     0.157 C 
HETATM    9  N1  UNL     1      57.959  10.654  58.485  1.00  0.00    -0.412 N 
HETATM   10  C12 UNL     1      59.336  10.635  58.473  1.00  0.00     0.143 C 
HETATM   11  C13 UNL     1      57.308  10.612  59.742  1.00  0.00     0.122 C 
HETATM   12  C14 UNL     1      55.846  10.228  59.413  1.00  0.00     0.071 C 
HETATM   13  C15 UNL     1      55.310  11.131  58.299  1.00  0.00    -0.002 C 
BRANCH  13  14
HETATM   14  N2  UNL     1      53.909  11.329  58.430  1.00  0.00    -0.286 NA
HETATM   15  C16 UNL     1      53.241  10.271  59.163  1.00  0.00     0.117 C 
BRANCH  14  16
HETATM   16  C17 UNL     1      53.494  12.539  59.125  1.00  0.00     0.062 C 
HETATM   17  C18 UNL     1      54.462  13.632  59.294  1.00  0.00     0.020 C 
HETATM   18  C19 UNL     1      54.037  14.945  58.676  1.00  0.00     0.002 C 
HETATM   19  C20 UNL     1      53.900  14.705  57.201  1.00  0.00     0.000 C 
HETATM   20  C21 UNL     1      52.858  13.604  57.022  1.00  0.00     0.002 C 
HETATM   21  C22 UNL     1      52.330  13.131  58.352  1.00  0.00     0.020 C 
ENDBRANCH  14  16
ENDBRANCH  13  14
ENDBRANCH   4   7
BRANCH   3  22
HETATM   22  O1  UNL     1      55.347  10.073  54.356  1.00  0.00    -0.360 OA
ATOM     23  H1  UNL     1      55.815   9.264  54.530  1.00  0.00     0.217 HD
ENDBRANCH   3  22
BRANCH   5  24
HETATM   24  O2  UNL     1      57.174  13.427  57.304  1.00  0.00    -0.360 OA
ATOM     25  H2  UNL     1      58.070  13.447  57.620  1.00  0.00     0.217 HD
ENDBRANCH   5  24
BRANCH   1  26
HETATM   26  C5  UNL     1      57.617  13.878  52.517  1.00  0.00     0.014 C 
HETATM   27  C3  UNL     1      57.808  13.477  51.322  1.00  0.00    -0.083 C 
HETATM   28  C4  UNL     1      57.576  12.107  50.789  1.00  0.00     0.043 C 
BRANCH  27  29
HETATM   29  C2  UNL     1      58.349  14.444  50.283  1.00  0.00     0.029 C 
HETATM   30  C1  UNL     1      59.720  14.933  50.620  1.00  0.00     0.010 C 
ENDBRANCH  27  29
ENDBRANCH   1  26
TORSDOF 7
ENDMDL
MODEL 3
REMARK VINA RESULT: -6.566164179      1.868      3.655
REMARK  7 active torsions:
REMARK  status: ('A' for Active; 'I' for Inactive)
REMARK    1  A    between atoms: C2_2  and  C3_3 
REMARK    2  A    between atoms: C5_5  and  C6_6 
REMARK    3  A    between atoms: C8_8  and  O1_9 
REMARK    4  A    between atoms: C9_11  and  C10_12 
REMARK    5  A    between atoms: C15_18  and  N2_19 
REMARK    6  A    between atoms: N2_19  and  C17_21 
REMARK    7  A    between atoms: C23_27  and  O2_28 
ROOT
HETATM    1  C6  UNL     1      56.973  12.689  54.553  1.00  0.00    -0.031 A 
HETATM    2  C7  UNL     1      57.668  12.808  55.783  1.00  0.00     0.049 A 
HETATM    3  C8  UNL     1      57.352  12.026  56.865  1.00  0.00     0.080 A 
HETATM    4  C9  UNL     1      56.347  11.098  56.818  1.00  0.00     0.040 A 
HETATM    5  C23 UNL     1      55.689  11.011  55.584  1.00  0.00     0.080 A 
HETATM    6  C24 UNL     1      55.987  11.780  54.481  1.00  0.00     0.049 A 
ENDROOT
BRANCH   4   7
HETATM    7  C10 UNL     1      55.824  10.386  57.932  1.00  0.00    -0.008 C 
HETATM    8  C11 UNL     1      56.797   9.190  58.312  1.00  0.00     0.157 C 
HETATM    9  N1  UNL     1      57.490   9.625  59.478  1.00  0.00    -0.412 N 
HETATM   10  C12 UNL     1      58.813   9.262  59.590  1.00  0.00     0.143 C 
HETATM   11  C13 UNL     1      56.728   9.723  60.668  1.00  0.00     0.122 C 
HETATM   12  C14 UNL     1      55.256   9.724  60.192  1.00  0.00     0.071 C 
HETATM   13  C15 UNL     1      55.073  10.755  59.074  1.00  0.00    -0.002 C 
BRANCH  13  14
HETATM   14  N2  UNL     1      53.759  11.295  59.087  1.00  0.00    -0.286 NA
HETATM   15  C16 UNL     1      52.872  10.639  60.029  1.00  0.00     0.117 C 
BRANCH  14  16
HETATM   16  C17 UNL     1      53.647  12.703  59.438  1.00  0.00     0.062 C 
HETATM   17  C18 UNL     1      54.806  13.584  59.232  1.00  0.00     0.020 C 
HETATM   18  C19 UNL     1      54.550  14.745  58.298  1.00  0.00     0.002 C 
HETATM   19  C20 UNL     1      54.204  14.157  56.961  1.00  0.00     0.000 C 
HETATM   20  C21 UNL     1      52.970  13.281  57.164  1.00  0.00     0.002 C 
HETATM   21  C22 UNL     1      52.524  13.293  58.603  1.00  0.00     0.020 C 
ENDBRANCH  14  16
ENDBRANCH  13  14
ENDBRANCH   4   7
BRANCH   3  22
HETATM   22  O1  UNL     1      58.132  12.211  58.012  1.00  0.00    -0.360 OA
ATOM     23  H1  UNL     1      57.791  12.817  58.659  1.00  0.00     0.217 HD
ENDBRANCH   3  22
BRANCH   5  24
HETATM   24  O2  UNL     1      54.652  10.083  55.434  1.00  0.00    -0.360 OA
ATOM     25  H2  UNL     1      54.205  10.024  54.598  1.00  0.00     0.217 HD
ENDBRANCH   5  24
BRANCH   1  26
HETATM   26  C5  UNL     1      57.318  13.612  53.496  1.00  0.00     0.014 C 
HETATM   27  C3  UNL     1      57.708  13.451  52.294  1.00  0.00    -0.083 C 
HETATM   28  C4  UNL     1      57.947  12.159  51.596  1.00  0.00     0.043 C 
BRANCH  27  29
HETATM   29  C2  UNL     1      58.002  14.666  51.430  1.00  0.00     0.029 C 
HETATM   30  C1  UNL     1      59.398  14.663  50.899  1.00  0.00     0.010 C 
ENDBRANCH  27  29
ENDBRANCH   1  26
TORSDOF 7
ENDMDL
MODEL 4
REMARK VINA RESULT: -6.466071584      1.846      4.172
REMARK  7 active torsions:
REMARK  status: ('A' for Active; 'I' for Inactive)
REMARK    1  A    between atoms: C2_2  and  C3_3 
REMARK    2  A    between atoms: C5_5  and  C6_6 
REMARK    3  A    between atoms: C8_8  and  O1_9 
REMARK    4  A    between atoms: C9_11  and  C10_12 
REMARK    5  A    between atoms: C15_18  and  N2_19 
REMARK    6  A    between atoms: N2_19  and  C17_21 
REMARK    7  A    between atoms: C23_27  and  O2_28 
ROOT
HETATM    1  C6  UNL     1      56.466  12.236  54.202  1.00  0.00    -0.031 A 
HETATM    2  C7  UNL     1      57.229  13.080  55.047  1.00  0.00     0.049 A 
HETATM    3  C8  UNL     1      57.376  12.814  56.385  1.00  0.00     0.080 A 
HETATM    4  C9  UNL     1      56.790  11.727  56.974  1.00  0.00     0.040 A 
HETATM    5  C23 UNL     1      56.047  10.918  56.102  1.00  0.00     0.080 A 
HETATM    6  C24 UNL     1      55.886  11.160  54.756  1.00  0.00     0.049 A 
ENDROOT
BRANCH   4   7
HETATM    7  C10 UNL     1      56.724  11.477  58.373  1.00  0.00    -0.008 C 
HETATM    8  C11 UNL     1      58.125  10.938  58.888  1.00  0.00     0.157 C 
HETATM    9  N1  UNL     1      58.728  12.040  59.562  1.00  0.00    -0.412 N 
HETATM   10  C12 UNL     1      60.091  12.183  59.429  1.00  0.00     0.143 C 
HETATM   11  C13 UNL     1      58.137  12.433  60.788  1.00  0.00     0.122 C 
HETATM   12  C14 UNL     1      56.736  11.776  60.776  1.00  0.00     0.071 C 
HETATM   13  C15 UNL     1      56.032  12.079  59.450  1.00  0.00    -0.002 C 
BRANCH  13  14
HETATM   14  N2  UNL     1      54.623  12.144  59.623  1.00  0.00    -0.286 NA
HETATM   15  C16 UNL     1      54.190  11.826  60.971  1.00  0.00     0.117 C 
BRANCH  14  16
HETATM   16  C17 UNL     1      54.003  13.434  59.363  1.00  0.00     0.062 C 
HETATM   17  C18 UNL     1      54.628  14.343  58.390  1.00  0.00     0.020 C 
HETATM   18  C19 UNL     1      53.742  14.715  57.223  1.00  0.00     0.002 C 
HETATM   19  C20 UNL     1      53.427  13.442  56.495  1.00  0.00     0.000 C 
HETATM   20  C21 UNL     1      52.733  12.516  57.490  1.00  0.00     0.002 C 
HETATM   21  C22 UNL     1      52.602  13.170  58.842  1.00  0.00     0.020 C 
ENDBRANCH  14  16
ENDBRANCH  13  14
ENDBRANCH   4   7
BRANCH   3  22
HETATM   22  O1  UNL     1      58.181  13.700  57.107  1.00  0.00    -0.360 OA
ATOM     23  H1  UNL     1      58.133  13.636  58.054  1.00  0.00     0.217 HD
ENDBRANCH   3  22
BRANCH   5  24
HETATM   24  O2  UNL     1      55.418   9.777  56.611  1.00  0.00    -0.360 OA
ATOM     25  H2  UNL     1      55.937   9.140  57.088  1.00  0.00     0.217 HD
ENDBRANCH   5  24
BRANCH   1  26
HETATM   26  C5  UNL     1      56.296  12.642  52.824  1.00  0.00     0.014 C 
HETATM   27  C3  UNL     1      56.971  12.425  51.765  1.00  0.00    -0.083 C 
HETATM   28  C4  UNL     1      58.228  11.638  51.649  1.00  0.00     0.043 C 
BRANCH  27  29
HETATM   29  C2  UNL     1      56.510  13.023  50.446  1.00  0.00     0.029 C 
HETATM   30  C1  UNL     1      57.599  13.771  49.749  1.00  0.00     0.010 C 
ENDBRANCH  27  29
ENDBRANCH   1  26
TORSDOF 7
ENDMDL
MODEL 5
REMARK VINA RESULT: -6.340399594      1.510      4.422
REMARK  7 active torsions:
REMARK  status: ('A' for Active; 'I' for Inactive)
REMARK    1  A    between atoms: C2_2  and  C3_3 
REMARK    2  A    between atoms: C5_5  and  C6_6 
REMARK    3  A    between atoms: C8_8  and  O1_9 
REMARK    4  A    between atoms: C9_11  and  C10_12 
REMARK    5  A    between atoms: C15_18  and  N2_19 
REMARK    6  A    between atoms: N2_19  and  C17_21 
REMARK    7  A    between atoms: C23_27  and  O2_28 
ROOT
HETATM    1  C6  UNL     1      57.303  13.107  53.255  1.00  0.00    -0.031 A 
HETATM    2  C7  UNL     1      57.628  13.617  54.537  1.00  0.00     0.049 A 
HETATM    3  C8  UNL     1      57.231  12.979  55.685  1.00  0.00     0.080 A 
HETATM    4  C9  UNL     1      56.495  11.825  55.654  1.00  0.00     0.040 A 
HETATM    5  C23 UNL     1      56.198  11.355  54.367  1.00  0.00     0.080 A 
HETATM    6  C24 UNL     1      56.587  11.973  53.199  1.00  0.00     0.049 A 
ENDROOT
BRANCH   4   7
HETATM    7  C10 UNL     1      55.879  11.205  56.776  1.00  0.00    -0.008 C 
HETATM    8  C11 UNL     1      56.885  10.170  57.437  1.00  0.00     0.157 C 
HETATM    9  N1  UNL     1      57.364  10.812  58.615  1.00  0.00    -0.412 N 
HETATM   10  C12 UNL     1      58.684  10.602  58.948  1.00  0.00     0.143 C 
HETATM   11  C13 UNL     1      56.434  10.976  59.671  1.00  0.00     0.122 C 
HETATM   12  C14 UNL     1      55.050  10.769  59.009  1.00  0.00     0.071 C 
HETATM   13  C15 UNL     1      54.944  11.632  57.749  1.00  0.00    -0.002 C 
BRANCH  13  14
HETATM   14  N2  UNL     1      53.601  12.034  57.516  1.00  0.00    -0.286 NA
HETATM   15  C16 UNL     1      53.480  13.393  57.024  1.00  0.00     0.117 C 
BRANCH  14  16
HETATM   16  C17 UNL     1      52.857  11.251  56.540  1.00  0.00     0.062 C 
HETATM   17  C18 UNL     1      52.874   9.785  56.640  1.00  0.00     0.020 C 
HETATM   18  C19 UNL     1      51.511   9.154  56.817  1.00  0.00     0.002 C 
HETATM   19  C20 UNL     1      50.958   9.675  58.111  1.00  0.00     0.000 C 
HETATM   20  C21 UNL     1      50.893  11.195  57.991  1.00  0.00     0.002 C 
HETATM   21  C22 UNL     1      51.398  11.658  56.648  1.00  0.00     0.020 C 
ENDBRANCH  14  16
ENDBRANCH  13  14
ENDBRANCH   4   7
BRANCH   3  22
HETATM   22  O1  UNL     1      57.643  13.559  56.890  1.00  0.00    -0.360 OA
ATOM     23  H1  UNL     1      57.074  13.423  57.638  1.00  0.00     0.217 HD
ENDBRANCH   3  22
BRANCH   5  24
HETATM   24  O2  UNL     1      55.458  10.176  54.233  1.00  0.00    -0.360 OA
ATOM     25  H2  UNL     1      54.561  10.229  53.924  1.00  0.00     0.217 HD
ENDBRANCH   5  24
BRANCH   1  26
HETATM   26  C5  UNL     1      57.690  13.891  52.104  1.00  0.00     0.014 C 
HETATM   27  C3  UNL     1      57.740  13.638  50.856  1.00  0.00    -0.083 C 
HETATM   28  C4  UNL     1      57.395  12.353  50.189  1.00  0.00     0.043 C 
BRANCH  27  29
HETATM   29  C2  UNL     1      58.216  14.710  49.890  1.00  0.00     0.029 C 
HETATM   30  C1  UNL     1      58.821  15.881  50.592  1.00  0.00     0.010 C 
ENDBRANCH  27  29
ENDBRANCH   1  26
TORSDOF 7
ENDMDL
