MODEL 1
REMARK VINA RESULT: -8.867645414      0.000      0.000
REMARK  7 active torsions:
REMARK  status: ('A' for Active; 'I' for Inactive)
REMARK    1  A    between atoms: C2_2  and  C4_4 
REMARK    2  A    between atoms: C6_6  and  C7_7 
REMARK    3  A    between atoms: C7_7  and  C8_8 
REMARK    4  A    between atoms: C8_8  and  C9_9 
REMARK    5  A    between atoms: C9_9  and  C10_10 
REMARK    6  A    between atoms: C10_10  and  O1_11 
REMARK    7  A    between atoms: C18_20  and  O2_21 
ROOT
HETATM    1  C9  UNL     1      61.474  17.382  47.307  1.00  0.00    -0.011 C 
HETATM    2  C11 UNL     1      62.562  16.820  48.217  1.00  0.00     0.013 C 
HETATM    3  C12 UNL     1      61.739  16.497  49.450  1.00  0.00     0.007 C 
HETATM    4  C13 UNL     1      60.669  15.630  48.806  1.00  0.00     0.003 C 
HETATM    5  C14 UNL     1      59.491  15.402  49.669  1.00  0.00    -0.036 C 
HETATM    6  C15 UNL     1      59.104  16.571  50.528  1.00  0.00     0.016 C 
HETATM    7  C16 UNL     1      59.891  14.304  50.683  1.00  0.00     0.012 C 
HETATM    8  C17 UNL     1      58.700  13.840  51.476  1.00  0.00     0.032 C 
HETATM    9  C18 UNL     1      57.679  13.292  50.507  1.00  0.00     0.118 C 
HETATM   10  C19 UNL     1      57.163  14.469  49.704  1.00  0.00     0.037 C 
HETATM   11  C20 UNL     1      58.340  14.911  48.847  1.00  0.00    -0.004 C 
HETATM   12  C21 UNL     1      57.975  15.878  47.789  1.00  0.00     0.006 C 
HETATM   13  C22 UNL     1      59.033  16.786  47.300  1.00  0.00     0.011 C 
HETATM   14  C23 UNL     1      60.433  16.296  47.479  1.00  0.00    -0.030 C 
HETATM   15  C24 UNL     1      60.741  15.256  46.405  1.00  0.00     0.016 C 
ENDROOT
BRANCH   1  16
HETATM   16  C8  UNL     1      61.052  18.725  47.743  1.00  0.00     0.018 C 
BRANCH  16  17
HETATM   17  C7  UNL     1      62.007  19.379  48.684  1.00  0.00     0.060 C 
BRANCH  17  18
HETATM   18  C6  UNL     1      62.372  20.756  48.234  1.00  0.00     0.035 A 
HETATM   19  C5  UNL     1      61.705  21.935  48.308  1.00  0.00     0.062 A 
HETATM   20  C4  UNL     1      62.504  22.900  47.743  1.00  0.00     0.081 A 
HETATM   21  O3  UNL     1      63.598  22.293  47.356  1.00  0.00    -0.242 OA
HETATM   22  N1  UNL     1      63.539  21.030  47.635  1.00  0.00    -0.265 N 
ATOM     23  H1  UNL     1      64.270  20.348  47.431  1.00  0.00     0.194 HD
BRANCH  20  24
HETATM   24  C2  UNL     1      62.213  24.362  47.585  1.00  0.00     0.037 C 
HETATM   25  C1  UNL     1      62.434  24.696  46.125  1.00  0.00     0.016 C 
HETATM   26  C3  UNL     1      60.725  24.611  47.864  1.00  0.00     0.016 C 
ENDBRANCH  20  24
ENDBRANCH  17  18
ENDBRANCH  16  17
ENDBRANCH   1  16
BRANCH   1  27
HETATM   27  C10 UNL     1      61.985  17.494  45.880  1.00  0.00     0.174 C 
BRANCH  27  28
HETATM   28  O1  UNL     1      62.586  18.726  45.646  1.00  0.00    -0.400 OA
ATOM     29  H1  UNL     1      62.470  19.007  44.746  1.00  0.00     0.209 HD
ENDBRANCH  27  28
ENDBRANCH   1  27
BRANCH   9  30
HETATM   30  O2  UNL     1      56.662  12.590  51.131  1.00  0.00    -0.396 OA
ATOM     31  H2  UNL     1      55.873  12.533  50.606  1.00  0.00     0.210 HD
ENDBRANCH   9  30
TORSDOF 7
ENDMDL
MODEL 2
REMARK VINA RESULT: -8.814784437      1.277      1.605
REMARK  7 active torsions:
REMARK  status: ('A' for Active; 'I' for Inactive)
REMARK    1  A    between atoms: C2_2  and  C4_4 
REMARK    2  A    between atoms: C6_6  and  C7_7 
REMARK    3  A    between atoms: C7_7  and  C8_8 
REMARK    4  A    between atoms: C8_8  and  C9_9 
REMARK    5  A    between atoms: C9_9  and  C10_10 
REMARK    6  A    between atoms: C10_10  and  O1_11 
REMARK    7  A    between atoms: C18_20  and  O2_21 
ROOT
HETATM    1  C9  UNL     1      61.245  17.194  47.418  1.00  0.00    -0.011 C 
HETATM    2  C11 UNL     1      62.347  16.687  48.342  1.00  0.00     0.013 C 
HETATM    3  C12 UNL     1      61.528  16.332  49.569  1.00  0.00     0.007 C 
HETATM    4  C13 UNL     1      60.505  15.414  48.917  1.00  0.00     0.003 C 
HETATM    5  C14 UNL     1      59.330  15.135  49.769  1.00  0.00    -0.036 C 
HETATM    6  C15 UNL     1      58.880  16.290  50.618  1.00  0.00     0.016 C 
HETATM    7  C16 UNL     1      59.769  14.062  50.793  1.00  0.00     0.012 C 
HETATM    8  C17 UNL     1      58.593  13.547  51.576  1.00  0.00     0.032 C 
HETATM    9  C18 UNL     1      57.608  12.949  50.599  1.00  0.00     0.118 C 
HETATM   10  C19 UNL     1      57.047  14.096  49.785  1.00  0.00     0.037 C 
HETATM   11  C20 UNL     1      58.211  14.589  48.938  1.00  0.00    -0.004 C 
HETATM   12  C21 UNL     1      57.814  15.533  47.871  1.00  0.00     0.006 C 
HETATM   13  C22 UNL     1      58.834  16.487  47.388  1.00  0.00     0.011 C 
HETATM   14  C23 UNL     1      60.253  16.062  47.585  1.00  0.00    -0.030 C 
HETATM   15  C24 UNL     1      60.619  15.033  46.519  1.00  0.00     0.016 C 
ENDROOT
BRANCH   1  16
HETATM   16  C8  UNL     1      60.757  18.518  47.843  1.00  0.00     0.018 C 
BRANCH  16  17
HETATM   17  C7  UNL     1      61.556  19.128  48.944  1.00  0.00     0.060 C 
BRANCH  17  18
HETATM   18  C6  UNL     1      62.209  20.402  48.515  1.00  0.00     0.035 A 
HETATM   19  C5  UNL     1      63.508  20.714  48.281  1.00  0.00     0.062 A 
HETATM   20  C4  UNL     1      63.555  22.035  47.903  1.00  0.00     0.081 A 
HETATM   21  O3  UNL     1      62.320  22.468  47.919  1.00  0.00    -0.242 OA
HETATM   22  N1  UNL     1      61.512  21.522  48.277  1.00  0.00    -0.265 N 
ATOM     23  H1  UNL     1      60.500  21.614  48.366  1.00  0.00     0.194 HD
BRANCH  20  24
HETATM   24  C2  UNL     1      64.762  22.847  47.539  1.00  0.00     0.037 C 
HETATM   25  C1  UNL     1      65.964  22.121  48.106  1.00  0.00     0.016 C 
HETATM   26  C3  UNL     1      64.933  22.838  46.014  1.00  0.00     0.016 C 
ENDBRANCH  20  24
ENDBRANCH  17  18
ENDBRANCH  16  17
ENDBRANCH   1  16
BRANCH   1  27
HETATM   27  C10 UNL     1      61.765  17.323  45.995  1.00  0.00     0.174 C 
BRANCH  27  28
HETATM   28  O1  UNL     1      62.408  18.539  45.794  1.00  0.00    -0.400 OA
ATOM     29  H1  UNL     1      63.353  18.443  45.814  1.00  0.00     0.209 HD
ENDBRANCH  27  28
ENDBRANCH   1  27
BRANCH   9  30
HETATM   30  O2  UNL     1      56.617  12.204  51.216  1.00  0.00    -0.396 OA
ATOM     31  H2  UNL     1      56.958  11.593  51.859  1.00  0.00     0.210 HD
ENDBRANCH   9  30
TORSDOF 7
ENDMDL
MODEL 3
REMARK VINA RESULT: -8.181437282      3.070      8.393
REMARK  7 active torsions:
REMARK  status: ('A' for Active; 'I' for Inactive)
REMARK    1  A    between atoms: C2_2  and  C4_4 
REMARK    2  A    between atoms: C6_6  and  C7_7 
REMARK    3  A    between atoms: C7_7  and  C8_8 
REMARK    4  A    between atoms: C8_8  and  C9_9 
REMARK    5  A    between atoms: C9_9  and  C10_10 
REMARK    6  A    between atoms: C10_10  and  O1_11 
REMARK    7  A    between atoms: C18_20  and  O2_21 
ROOT
HETATM    1  C9  UNL     1      58.718  15.100  47.993  1.00  0.00    -0.011 C 
HETATM    2  C11 UNL     1      58.136  16.212  47.126  1.00  0.00     0.013 C 
HETATM    3  C12 UNL     1      58.747  17.426  47.800  1.00  0.00     0.007 C 
HETATM    4  C13 UNL     1      60.211  17.018  47.750  1.00  0.00     0.003 C 
HETATM    5  C14 UNL     1      61.083  17.828  48.626  1.00  0.00    -0.036 C 
HETATM    6  C15 UNL     1      60.456  18.245  49.926  1.00  0.00     0.016 C 
HETATM    7  C16 UNL     1      61.341  19.161  47.885  1.00  0.00     0.012 C 
HETATM    8  C17 UNL     1      62.388  19.978  48.589  1.00  0.00     0.032 C 
HETATM    9  C18 UNL     1      63.661  19.165  48.636  1.00  0.00     0.118 C 
HETATM   10  C19 UNL     1      63.402  17.999  49.567  1.00  0.00     0.037 C 
HETATM   11  C20 UNL     1      62.389  17.128  48.840  1.00  0.00    -0.004 C 
HETATM   12  C21 UNL     1      62.199  15.796  49.455  1.00  0.00     0.006 C 
HETATM   13  C22 UNL     1      60.906  15.117  49.229  1.00  0.00     0.011 C 
HETATM   14  C23 UNL     1      60.168  15.536  47.999  1.00  0.00    -0.030 C 
HETATM   15  C24 UNL     1      60.804  14.868  46.782  1.00  0.00     0.016 C 
ENDROOT
BRANCH   1  16
HETATM   16  C8  UNL     1      58.073  15.060  49.317  1.00  0.00     0.018 C 
BRANCH  16  17
HETATM   17  C7  UNL     1      58.843  14.292  50.337  1.00  0.00     0.060 C 
BRANCH  17  18
HETATM   18  C6  UNL     1      57.941  13.589  51.299  1.00  0.00     0.035 A 
HETATM   19  C5  UNL     1      57.717  13.773  52.623  1.00  0.00     0.062 A 
HETATM   20  C4  UNL     1      56.779  12.848  53.017  1.00  0.00     0.081 A 
HETATM   21  O3  UNL     1      56.474  12.154  51.951  1.00  0.00    -0.242 OA
HETATM   22  N1  UNL     1      57.148  12.574  50.928  1.00  0.00    -0.265 N 
ATOM     23  H1  UNL     1      57.085  12.191  49.984  1.00  0.00     0.194 HD
BRANCH  20  24
HETATM   24  C2  UNL     1      56.200  12.648  54.386  1.00  0.00     0.037 C 
HETATM   25  C1  UNL     1      56.074  11.153  54.592  1.00  0.00     0.016 C 
HETATM   26  C3  UNL     1      57.205  13.144  55.434  1.00  0.00     0.016 C 
ENDBRANCH  20  24
ENDBRANCH  17  18
ENDBRANCH  16  17
ENDBRANCH   1  16
BRANCH   1  27
HETATM   27  C10 UNL     1      58.507  13.748  47.331  1.00  0.00     0.174 C 
BRANCH  27  28
HETATM   28  O1  UNL     1      57.369  13.113  47.815  1.00  0.00    -0.400 OA
ATOM     29  H1  UNL     1      56.735  12.957  47.125  1.00  0.00     0.209 HD
ENDBRANCH  27  28
ENDBRANCH   1  27
BRANCH   9  30
HETATM   30  O2  UNL     1      64.766  19.909  49.013  1.00  0.00    -0.396 OA
ATOM     31  H2  UNL     1      65.545  19.381  49.137  1.00  0.00     0.210 HD
ENDBRANCH   9  30
TORSDOF 7
ENDMDL
MODEL 4
REMARK VINA RESULT: -8.150316710      3.549      8.803
REMARK  7 active torsions:
REMARK  status: ('A' for Active; 'I' for Inactive)
REMARK    1  A    between atoms: C2_2  and  C4_4 
REMARK    2  A    between atoms: C6_6  and  C7_7 
REMARK    3  A    between atoms: C7_7  and  C8_8 
REMARK    4  A    between atoms: C8_8  and  C9_9 
REMARK    5  A    between atoms: C9_9  and  C10_10 
REMARK    6  A    between atoms: C10_10  and  O1_11 
REMARK    7  A    between atoms: C18_20  and  O2_21 
ROOT
HETATM    1  C9  UNL     1      57.950  14.541  49.565  1.00  0.00    -0.011 C 
HETATM    2  C11 UNL     1      57.960  15.813  50.407  1.00  0.00     0.013 C 
HETATM    3  C12 UNL     1      59.344  16.341  50.078  1.00  0.00     0.007 C 
HETATM    4  C13 UNL     1      59.242  16.352  48.561  1.00  0.00     0.003 C 
HETATM    5  C14 UNL     1      60.546  16.504  47.880  1.00  0.00    -0.036 C 
HETATM    6  C15 UNL     1      61.694  15.812  48.558  1.00  0.00     0.016 C 
HETATM    7  C16 UNL     1      60.913  18.004  47.953  1.00  0.00     0.012 C 
HETATM    8  C17 UNL     1      62.118  18.309  47.107  1.00  0.00     0.032 C 
HETATM    9  C18 UNL     1      61.795  17.931  45.680  1.00  0.00     0.118 C 
HETATM   10  C19 UNL     1      61.679  16.421  45.644  1.00  0.00     0.037 C 
HETATM   11  C20 UNL     1      60.425  16.100  46.444  1.00  0.00    -0.004 C 
HETATM   12  C21 UNL     1      59.976  14.697  46.308  1.00  0.00     0.006 C 
HETATM   13  C22 UNL     1      59.181  14.124  47.414  1.00  0.00     0.011 C 
HETATM   14  C23 UNL     1      58.444  15.117  48.255  1.00  0.00    -0.030 C 
HETATM   15  C24 UNL     1      57.194  15.575  47.508  1.00  0.00     0.016 C 
ENDROOT
BRANCH   1  16
HETATM   16  C8  UNL     1      58.812  13.501  50.154  1.00  0.00     0.018 C 
BRANCH  16  17
HETATM   17  C7  UNL     1      59.060  13.682  51.614  1.00  0.00     0.060 C 
BRANCH  17  18
HETATM   18  C6  UNL     1      58.002  13.028  52.441  1.00  0.00     0.035 A 
HETATM   19  C5  UNL     1      57.367  13.426  53.571  1.00  0.00     0.062 A 
HETATM   20  C4  UNL     1      56.474  12.438  53.914  1.00  0.00     0.081 A 
HETATM   21  O3  UNL     1      56.594  11.501  53.009  1.00  0.00    -0.242 OA
HETATM   22  N1  UNL     1      57.489  11.828  52.133  1.00  0.00    -0.265 N 
ATOM     23  H1  UNL     1      57.762  11.261  51.330  1.00  0.00     0.194 HD
BRANCH  20  24
HETATM   24  C2  UNL     1      55.538  12.408  55.085  1.00  0.00     0.037 C 
HETATM   25  C1  UNL     1      55.452  10.967  55.539  1.00  0.00     0.016 C 
HETATM   26  C3  UNL     1      56.161  13.191  56.248  1.00  0.00     0.016 C 
ENDBRANCH  20  24
ENDBRANCH  17  18
ENDBRANCH  16  17
ENDBRANCH   1  16
BRANCH   1  27
HETATM   27  C10 UNL     1      56.540  13.979  49.472  1.00  0.00     0.174 C 
BRANCH  27  28
HETATM   28  O1  UNL     1      56.549  12.607  49.246  1.00  0.00    -0.400 OA
ATOM     29  H1  UNL     1      56.780  12.125  50.032  1.00  0.00     0.209 HD
ENDBRANCH  27  28
ENDBRANCH   1  27
BRANCH   9  30
HETATM   30  O2  UNL     1      62.719  18.414  44.769  1.00  0.00    -0.396 OA
ATOM     31  H2  UNL     1      63.416  18.913  45.177  1.00  0.00     0.210 HD
ENDBRANCH   9  30
TORSDOF 7
ENDMDL
MODEL 5
REMARK VINA RESULT: -7.982221421      2.033      3.133
REMARK  7 active torsions:
REMARK  status: ('A' for Active; 'I' for Inactive)
REMARK    1  A    between atoms: C2_2  and  C4_4 
REMARK    2  A    between atoms: C6_6  and  C7_7 
REMARK    3  A    between atoms: C7_7  and  C8_8 
REMARK    4  A    between atoms: C8_8  and  C9_9 
REMARK    5  A    between atoms: C9_9  and  C10_10 
REMARK    6  A    between atoms: C10_10  and  O1_11 
REMARK    7  A    between atoms: C18_20  and  O2_21 
ROOT
HETATM    1  C9  UNL     1      61.599  17.187  47.594  1.00  0.00    -0.011 C 
HETATM    2  C11 UNL     1      62.589  16.479  48.513  1.00  0.00     0.013 C 
HETATM    3  C12 UNL     1      61.676  16.126  49.671  1.00  0.00     0.007 C 
HETATM    4  C13 UNL     1      60.587  15.392  48.904  1.00  0.00     0.003 C 
HETATM    5  C14 UNL     1      59.348  15.186  49.682  1.00  0.00    -0.036 C 
HETATM    6  C15 UNL     1      58.993  16.313  50.609  1.00  0.00     0.016 C 
HETATM    7  C16 UNL     1      59.610  13.989  50.625  1.00  0.00     0.012 C 
HETATM    8  C17 UNL     1      58.346  13.555  51.315  1.00  0.00     0.032 C 
HETATM    9  C18 UNL     1      57.347  13.159  50.252  1.00  0.00     0.118 C 
HETATM   10  C19 UNL     1      56.962  14.428  49.519  1.00  0.00     0.037 C 
HETATM   11  C20 UNL     1      58.215  14.845  48.764  1.00  0.00    -0.004 C 
HETATM   12  C21 UNL     1      57.981  15.913  47.768  1.00  0.00     0.006 C 
HETATM   13  C22 UNL     1      59.127  16.776  47.409  1.00  0.00     0.011 C 
HETATM   14  C23 UNL     1      60.476  16.171  47.624  1.00  0.00    -0.030 C 
HETATM   15  C24 UNL     1      60.774  15.195  46.488  1.00  0.00     0.016 C 
ENDROOT
BRANCH   1  16
HETATM   16  C8  UNL     1      61.246  18.521  48.112  1.00  0.00     0.018 C 
BRANCH  16  17
HETATM   17  C7  UNL     1      62.223  19.586  47.742  1.00  0.00     0.060 C 
BRANCH  17  18
HETATM   18  C6  UNL     1      63.290  19.742  48.775  1.00  0.00     0.035 A 
HETATM   19  C5  UNL     1      63.472  19.147  49.980  1.00  0.00     0.062 A 
HETATM   20  C4  UNL     1      64.627  19.656  50.525  1.00  0.00     0.081 A 
HETATM   21  O3  UNL     1      65.095  20.518  49.658  1.00  0.00    -0.242 OA
HETATM   22  N1  UNL     1      64.322  20.584  48.621  1.00  0.00    -0.265 N 
ATOM     23  H1  UNL     1      64.474  21.185  47.811  1.00  0.00     0.194 HD
BRANCH  20  24
HETATM   24  C2  UNL     1      65.253  19.315  51.843  1.00  0.00     0.037 C 
HETATM   25  C1  UNL     1      65.161  17.811  51.994  1.00  0.00     0.016 C 
HETATM   26  C3  UNL     1      66.749  19.653  51.793  1.00  0.00     0.016 C 
ENDBRANCH  20  24
ENDBRANCH  17  18
ENDBRANCH  16  17
ENDBRANCH   1  16
BRANCH   1  27
HETATM   27  C10 UNL     1      62.199  17.368  46.209  1.00  0.00     0.174 C 
BRANCH  27  28
HETATM   28  O1  UNL     1      61.332  18.050  45.361  1.00  0.00    -0.400 OA
ATOM     29  H1  UNL     1      61.113  18.909  45.702  1.00  0.00     0.209 HD
ENDBRANCH  27  28
ENDBRANCH   1  27
BRANCH   9  30
HETATM   30  O2  UNL     1      56.249  12.489  50.764  1.00  0.00    -0.396 OA
ATOM     31  H2  UNL     1      56.204  11.582  50.486  1.00  0.00     0.210 HD
ENDBRANCH   9  30
TORSDOF 7
ENDMDL
