MODEL 1
REMARK VINA RESULT: -8.360599137      0.000      0.000
REMARK  8 active torsions:
REMARK  status: ('A' for Active; 'I' for Inactive)
REMARK    1  A    between atoms: C5_5  and  C6_6 
REMARK    2  A    between atoms: C6_6  and  O1_7 
REMARK    3  A    between atoms: O1_7  and  C7_8 
REMARK    4  A    between atoms: C10_11  and  C11_12 
REMARK    5  A    between atoms: C21_22  and  O2_23 
REMARK    6  A    between atoms: C22_25  and  C23_26 
REMARK    7  A    between atoms: C23_26  and  O3_27 
REMARK    8  A    between atoms: C23_26  and  O4_29 
ROOT
HETATM    1  C7  UNL     1      64.987  19.426  50.143  1.00  0.00     0.082 A 
HETATM    2  C8  UNL     1      64.745  18.126  50.492  1.00  0.00     0.038 A 
HETATM    3  C9  UNL     1      63.654  17.476  49.967  1.00  0.00     0.013 A 
HETATM    4  C10 UNL     1      62.764  18.037  49.100  1.00  0.00    -0.015 A 
HETATM    5  C21 UNL     1      63.014  19.383  48.737  1.00  0.00     0.086 A 
HETATM    6  C22 UNL     1      64.087  20.068  49.234  1.00  0.00     0.063 A 
ENDROOT
BRANCH   4   7
HETATM    7  C11 UNL     1      61.607  17.288  48.543  1.00  0.00    -0.009 C 
HETATM    8  C12 UNL     1      61.406  17.517  47.077  1.00  0.00     0.019 C 
HETATM    9  C13 UNL     1      60.313  16.612  46.552  1.00  0.00    -0.013 C 
HETATM   10  C14 UNL     1      59.038  17.017  47.253  1.00  0.00     0.009 C 
HETATM   11  C18 UNL     1      60.661  15.159  46.765  1.00  0.00     0.009 C 
HETATM   12  C15 UNL     1      59.216  16.775  48.717  1.00  0.00    -0.013 C 
HETATM   13  C16 UNL     1      59.446  15.316  48.937  1.00  0.00     0.009 C 
HETATM   14  C20 UNL     1      60.341  17.555  49.340  1.00  0.00     0.019 C 
HETATM   15  C17 UNL     1      60.738  14.938  48.244  1.00  0.00    -0.013 C 
HETATM   16  C19 UNL     1      61.891  15.810  48.753  1.00  0.00     0.019 C 
ENDBRANCH   4   7
BRANCH   5  17
HETATM   17  O2  UNL     1      62.152  19.960  47.883  1.00  0.00    -0.359 OA
ATOM     18  H2  UNL     1      61.764  20.786  48.149  1.00  0.00     0.217 HD
ENDBRANCH   5  17
BRANCH   6  19
HETATM   19  C23 UNL     1      64.459  21.453  48.942  1.00  0.00     0.296 C 
BRANCH  19  20
HETATM   20  O3  UNL     1      65.487  21.463  47.958  1.00  0.00    -0.367 OA
ATOM     21  H3  UNL     1      65.506  22.313  47.535  1.00  0.00     0.213 HD
ENDBRANCH  19  20
BRANCH  19  22
HETATM   22  O4  UNL     1      63.462  22.246  48.453  1.00  0.00    -0.362 OA
HETATM   23  C24 UNL     1      63.931  23.019  47.373  1.00  0.00     0.205 C 
ENDBRANCH  19  22
ENDBRANCH   6  19
BRANCH   1  24
HETATM   24  O1  UNL     1      66.044  20.146  50.613  1.00  0.00    -0.350 OA
BRANCH  24  25
HETATM   25  C6  UNL     1      66.568  20.422  51.820  1.00  0.00     0.185 C 
BRANCH  25  26
HETATM   26  C5  UNL     1      67.618  19.517  52.394  1.00  0.00     0.042 A 
HETATM   27  C3  UNL     1      66.998  18.588  53.446  1.00  0.00    -0.077 A 
HETATM   28  C2  UNL     1      66.127  17.672  53.786  1.00  0.00    -0.028 C 
HETATM   29  C4  UNL     1      68.123  19.518  53.740  1.00  0.00     0.045 A 
HETATM   30  C1  UNL     1      66.114  17.180  55.186  1.00  0.00     0.036 C 
ENDBRANCH  25  26
ENDBRANCH  24  25
ENDBRANCH   1  24
TORSDOF 8
ENDMDL
MODEL 2
REMARK VINA RESULT: -8.164960862      0.520      1.488
REMARK  8 active torsions:
REMARK  status: ('A' for Active; 'I' for Inactive)
REMARK    1  A    between atoms: C5_5  and  C6_6 
REMARK    2  A    between atoms: C6_6  and  O1_7 
REMARK    3  A    between atoms: O1_7  and  C7_8 
REMARK    4  A    between atoms: C10_11  and  C11_12 
REMARK    5  A    between atoms: C21_22  and  O2_23 
REMARK    6  A    between atoms: C22_25  and  C23_26 
REMARK    7  A    between atoms: C23_26  and  O3_27 
REMARK    8  A    between atoms: C23_26  and  O4_29 
ROOT
HETATM    1  C7  UNL     1      64.867  19.796  50.050  1.00  0.00     0.082 A 
HETATM    2  C8  UNL     1      64.668  18.544  50.563  1.00  0.00     0.038 A 
HETATM    3  C9  UNL     1      63.651  17.763  50.070  1.00  0.00     0.013 A 
HETATM    4  C10 UNL     1      62.795  18.144  49.079  1.00  0.00    -0.015 A 
HETATM    5  C21 UNL     1      63.000  19.440  48.547  1.00  0.00     0.086 A 
HETATM    6  C22 UNL     1      63.999  20.251  49.006  1.00  0.00     0.063 A 
ENDROOT
BRANCH   4   7
HETATM    7  C11 UNL     1      61.719  17.258  48.565  1.00  0.00    -0.009 C 
HETATM    8  C12 UNL     1      61.985  15.805  48.809  1.00  0.00     0.019 C 
HETATM    9  C13 UNL     1      60.785  14.978  48.398  1.00  0.00    -0.013 C 
HETATM   10  C14 UNL     1      60.617  15.164  46.909  1.00  0.00     0.009 C 
HETATM   11  C18 UNL     1      59.557  15.376  49.180  1.00  0.00     0.009 C 
HETATM   12  C15 UNL     1      60.331  16.609  46.652  1.00  0.00    -0.013 C 
HETATM   13  C16 UNL     1      59.052  16.972  47.331  1.00  0.00     0.009 C 
HETATM   14  C20 UNL     1      61.418  17.544  47.104  1.00  0.00     0.019 C 
HETATM   15  C17 UNL     1      59.251  16.798  48.823  1.00  0.00    -0.013 C 
HETATM   16  C19 UNL     1      60.444  17.632  49.303  1.00  0.00     0.019 C 
ENDBRANCH   4   7
BRANCH   5  17
HETATM   17  O2  UNL     1      62.170  19.842  47.569  1.00  0.00    -0.359 OA
ATOM     18  H2  UNL     1      61.504  19.228  47.284  1.00  0.00     0.217 HD
ENDBRANCH   5  17
BRANCH   6  19
HETATM   19  C23 UNL     1      64.319  21.603  48.545  1.00  0.00     0.296 C 
BRANCH  19  20
HETATM   20  O3  UNL     1      65.566  21.580  47.860  1.00  0.00    -0.367 OA
ATOM     21  H3  UNL     1      66.236  21.951  48.421  1.00  0.00     0.213 HD
ENDBRANCH  19  20
BRANCH  19  22
HETATM   22  O4  UNL     1      63.425  22.163  47.681  1.00  0.00    -0.362 OA
HETATM   23  C24 UNL     1      62.773  23.256  48.283  1.00  0.00     0.205 C 
ENDBRANCH  19  22
ENDBRANCH   6  19
BRANCH   1  24
HETATM   24  O1  UNL     1      65.851  20.637  50.477  1.00  0.00    -0.350 OA
BRANCH  24  25
HETATM   25  C6  UNL     1      66.571  20.791  51.601  1.00  0.00     0.185 C 
BRANCH  25  26
HETATM   26  C5  UNL     1      67.717  19.862  51.879  1.00  0.00     0.042 A 
HETATM   27  C3  UNL     1      67.396  18.974  53.088  1.00  0.00    -0.077 A 
HETATM   28  C2  UNL     1      66.633  18.095  53.686  1.00  0.00    -0.028 C 
HETATM   29  C4  UNL     1      68.583  19.871  53.026  1.00  0.00     0.045 A 
HETATM   30  C1  UNL     1      67.005  17.629  55.045  1.00  0.00     0.036 C 
ENDBRANCH  25  26
ENDBRANCH  24  25
ENDBRANCH   1  24
TORSDOF 8
ENDMDL
MODEL 3
REMARK VINA RESULT: -8.085812347      0.457      1.466
REMARK  8 active torsions:
REMARK  status: ('A' for Active; 'I' for Inactive)
REMARK    1  A    between atoms: C5_5  and  C6_6 
REMARK    2  A    between atoms: C6_6  and  O1_7 
REMARK    3  A    between atoms: O1_7  and  C7_8 
REMARK    4  A    between atoms: C10_11  and  C11_12 
REMARK    5  A    between atoms: C21_22  and  O2_23 
REMARK    6  A    between atoms: C22_25  and  C23_26 
REMARK    7  A    between atoms: C23_26  and  O3_27 
REMARK    8  A    between atoms: C23_26  and  O4_29 
ROOT
HETATM    1  C7  UNL     1      64.796  19.511  49.934  1.00  0.00     0.082 A 
HETATM    2  C8  UNL     1      64.630  18.232  50.387  1.00  0.00     0.038 A 
HETATM    3  C9  UNL     1      63.554  17.494  49.954  1.00  0.00     0.013 A 
HETATM    4  C10 UNL     1      62.607  17.946  49.083  1.00  0.00    -0.015 A 
HETATM    5  C21 UNL     1      62.779  19.271  48.613  1.00  0.00     0.086 A 
HETATM    6  C22 UNL     1      63.834  20.041  49.015  1.00  0.00     0.063 A 
ENDROOT
BRANCH   4   7
HETATM    7  C11 UNL     1      61.469  17.106  48.629  1.00  0.00    -0.009 C 
HETATM    8  C12 UNL     1      60.183  17.431  49.322  1.00  0.00     0.019 C 
HETATM    9  C13 UNL     1      59.044  16.647  48.705  1.00  0.00    -0.013 C 
HETATM   10  C14 UNL     1      59.337  15.186  48.954  1.00  0.00     0.009 C 
HETATM   11  C18 UNL     1      58.891  16.972  47.239  1.00  0.00     0.009 C 
HETATM   12  C15 UNL     1      60.610  14.842  48.250  1.00  0.00    -0.013 C 
HETATM   13  C16 UNL     1      60.419  15.054  46.784  1.00  0.00     0.009 C 
HETATM   14  C20 UNL     1      61.805  15.627  48.715  1.00  0.00     0.019 C 
HETATM   15  C17 UNL     1      60.148  16.527  46.558  1.00  0.00    -0.013 C 
HETATM   16  C19 UNL     1      61.284  17.374  47.144  1.00  0.00     0.019 C 
ENDBRANCH   4   7
BRANCH   5  17
HETATM   17  O2  UNL     1      61.860  19.743  47.752  1.00  0.00    -0.359 OA
ATOM     18  H2  UNL     1      62.162  19.990  46.886  1.00  0.00     0.217 HD
ENDBRANCH   5  17
BRANCH   6  19
HETATM   19  C23 UNL     1      64.128  21.416  48.608  1.00  0.00     0.296 C 
BRANCH  19  20
HETATM   20  O3  UNL     1      65.364  21.439  47.903  1.00  0.00    -0.367 OA
ATOM     21  H3  UNL     1      65.405  22.227  47.374  1.00  0.00     0.213 HD
ENDBRANCH  19  20
BRANCH  19  22
HETATM   22  O4  UNL     1      63.212  21.999  47.781  1.00  0.00    -0.362 OA
HETATM   23  C24 UNL     1      62.871  23.282  48.249  1.00  0.00     0.205 C 
ENDBRANCH  19  22
ENDBRANCH   6  19
BRANCH   1  24
HETATM   24  O1  UNL     1      65.833  20.313  50.308  1.00  0.00    -0.350 OA
BRANCH  24  25
HETATM   25  C6  UNL     1      66.510  20.552  51.443  1.00  0.00     0.185 C 
BRANCH  25  26
HETATM   26  C5  UNL     1      67.647  19.650  51.830  1.00  0.00     0.042 A 
HETATM   27  C3  UNL     1      67.226  18.738  52.988  1.00  0.00    -0.077 A 
HETATM   28  C2  UNL     1      66.430  17.830  53.494  1.00  0.00    -0.028 C 
HETATM   29  C4  UNL     1      68.387  19.667  53.062  1.00  0.00     0.045 A 
HETATM   30  C1  UNL     1      66.670  17.356  54.879  1.00  0.00     0.036 C 
ENDBRANCH  25  26
ENDBRANCH  24  25
ENDBRANCH   1  24
TORSDOF 8
ENDMDL
MODEL 4
REMARK VINA RESULT: -7.987960938      0.920      1.067
REMARK  8 active torsions:
REMARK  status: ('A' for Active; 'I' for Inactive)
REMARK    1  A    between atoms: C5_5  and  C6_6 
REMARK    2  A    between atoms: C6_6  and  O1_7 
REMARK    3  A    between atoms: O1_7  and  C7_8 
REMARK    4  A    between atoms: C10_11  and  C11_12 
REMARK    5  A    between atoms: C21_22  and  O2_23 
REMARK    6  A    between atoms: C22_25  and  C23_26 
REMARK    7  A    between atoms: C23_26  and  O3_27 
REMARK    8  A    between atoms: C23_26  and  O4_29 
ROOT
HETATM    1  C7  UNL     1      65.173  20.281  50.074  1.00  0.00     0.082 A 
HETATM    2  C8  UNL     1      64.962  19.072  50.676  1.00  0.00     0.038 A 
HETATM    3  C9  UNL     1      63.935  18.269  50.242  1.00  0.00     0.013 A 
HETATM    4  C10 UNL     1      63.080  18.588  49.228  1.00  0.00    -0.015 A 
HETATM    5  C21 UNL     1      63.298  19.840  48.604  1.00  0.00     0.086 A 
HETATM    6  C22 UNL     1      64.308  20.671  49.002  1.00  0.00     0.063 A 
ENDROOT
BRANCH   4   7
HETATM    7  C11 UNL     1      61.993  17.679  48.781  1.00  0.00    -0.009 C 
HETATM    8  C12 UNL     1      61.913  17.543  47.292  1.00  0.00     0.019 C 
HETATM    9  C13 UNL     1      60.891  16.492  46.917  1.00  0.00    -0.013 C 
HETATM   10  C14 UNL     1      59.551  16.998  47.398  1.00  0.00     0.009 C 
HETATM   11  C18 UNL     1      61.253  15.148  47.500  1.00  0.00     0.009 C 
HETATM   12  C15 UNL     1      59.609  17.120  48.887  1.00  0.00    -0.013 C 
HETATM   13  C16 UNL     1      59.853  15.766  49.469  1.00  0.00     0.009 C 
HETATM   14  C20 UNL     1      60.658  18.073  49.389  1.00  0.00     0.019 C 
HETATM   15  C17 UNL     1      61.209  15.290  48.990  1.00  0.00    -0.013 C 
HETATM   16  C19 UNL     1      62.293  16.307  49.362  1.00  0.00     0.019 C 
ENDBRANCH   4   7
BRANCH   5  17
HETATM   17  O2  UNL     1      62.470  20.180  47.602  1.00  0.00    -0.359 OA
ATOM     18  H2  UNL     1      61.728  20.734  47.819  1.00  0.00     0.217 HD
ENDBRANCH   5  17
BRANCH   6  19
HETATM   19  C23 UNL     1      64.641  21.983  48.445  1.00  0.00     0.296 C 
BRANCH  19  20
HETATM   20  O3  UNL     1      65.694  21.834  47.499  1.00  0.00    -0.367 OA
ATOM     21  H3  UNL     1      66.503  21.646  47.961  1.00  0.00     0.213 HD
ENDBRANCH  19  20
BRANCH  19  22
HETATM   22  O4  UNL     1      63.632  22.622  47.787  1.00  0.00    -0.362 OA
HETATM   23  C24 UNL     1      63.007  23.559  48.631  1.00  0.00     0.205 C 
ENDBRANCH  19  22
ENDBRANCH   6  19
BRANCH   1  24
HETATM   24  O1  UNL     1      66.168  21.139  50.438  1.00  0.00    -0.350 OA
BRANCH  24  25
HETATM   25  C6  UNL     1      67.418  21.024  50.917  1.00  0.00     0.185 C 
BRANCH  25  26
HETATM   26  C5  UNL     1      67.675  21.263  52.376  1.00  0.00     0.042 A 
HETATM   27  C3  UNL     1      67.303  20.017  53.189  1.00  0.00    -0.077 A 
HETATM   28  C2  UNL     1      67.442  18.740  53.448  1.00  0.00    -0.028 C 
HETATM   29  C4  UNL     1      66.697  21.355  53.426  1.00  0.00     0.045 A 
HETATM   30  C1  UNL     1      66.633  18.138  54.536  1.00  0.00     0.036 C 
ENDBRANCH  25  26
ENDBRANCH  24  25
ENDBRANCH   1  24
TORSDOF 8
ENDMDL
MODEL 5
REMARK VINA RESULT: -7.946223661      1.101      1.713
REMARK  8 active torsions:
REMARK  status: ('A' for Active; 'I' for Inactive)
REMARK    1  A    between atoms: C5_5  and  C6_6 
REMARK    2  A    between atoms: C6_6  and  O1_7 
REMARK    3  A    between atoms: O1_7  and  C7_8 
REMARK    4  A    between atoms: C10_11  and  C11_12 
REMARK    5  A    between atoms: C21_22  and  O2_23 
REMARK    6  A    between atoms: C22_25  and  C23_26 
REMARK    7  A    between atoms: C23_26  and  O3_27 
REMARK    8  A    between atoms: C23_26  and  O4_29 
ROOT
HETATM    1  C7  UNL     1      65.165  18.113  51.014  1.00  0.00     0.082 A 
HETATM    2  C8  UNL     1      64.734  16.816  50.996  1.00  0.00     0.038 A 
HETATM    3  C9  UNL     1      63.629  16.479  50.251  1.00  0.00     0.013 A 
HETATM    4  C10 UNL     1      62.903  17.360  49.505  1.00  0.00    -0.015 A 
HETATM    5  C21 UNL     1      63.350  18.704  49.522  1.00  0.00     0.086 A 
HETATM    6  C22 UNL     1      64.444  19.083  50.247  1.00  0.00     0.063 A 
ENDROOT
BRANCH   4   7
HETATM    7  C11 UNL     1      61.724  16.947  48.700  1.00  0.00    -0.009 C 
HETATM    8  C12 UNL     1      61.750  17.478  47.300  1.00  0.00     0.019 C 
HETATM    9  C13 UNL     1      60.605  16.896  46.500  1.00  0.00    -0.013 C 
HETATM   10  C14 UNL     1      59.330  17.384  47.146  1.00  0.00     0.009 C 
HETATM   11  C18 UNL     1      60.692  15.391  46.440  1.00  0.00     0.009 C 
HETATM   12  C15 UNL     1      59.281  16.844  48.540  1.00  0.00    -0.013 C 
HETATM   13  C16 UNL     1      59.250  15.352  48.474  1.00  0.00     0.009 C 
HETATM   14  C20 UNL     1      60.425  17.280  49.412  1.00  0.00     0.019 C 
HETATM   15  C17 UNL     1      60.546  14.887  47.842  1.00  0.00    -0.013 C 
HETATM   16  C19 UNL     1      61.746  15.429  48.626  1.00  0.00     0.019 C 
ENDBRANCH   4   7
BRANCH   5  17
HETATM   17  O2  UNL     1      62.653  19.593  48.795  1.00  0.00    -0.359 OA
ATOM     18  H2  UNL     1      62.792  20.514  48.983  1.00  0.00     0.217 HD
ENDBRANCH   5  17
BRANCH   6  19
HETATM   19  C23 UNL     1      65.009  20.430  50.350  1.00  0.00     0.296 C 
BRANCH  19  20
HETATM   20  O3  UNL     1      66.322  20.428  49.801  1.00  0.00    -0.367 OA
ATOM     21  H3  UNL     1      66.881  20.983  50.332  1.00  0.00     0.213 HD
ENDBRANCH  19  20
BRANCH  19  22
HETATM   22  O4  UNL     1      64.327  21.412  49.694  1.00  0.00    -0.362 OA
HETATM   23  C24 UNL     1      65.140  22.003  48.708  1.00  0.00     0.205 C 
ENDBRANCH  19  22
ENDBRANCH   6  19
BRANCH   1  24
HETATM   24  O1  UNL     1      66.251  18.535  51.721  1.00  0.00    -0.350 OA
BRANCH  24  25
HETATM   25  C6  UNL     1      66.795  18.255  52.918  1.00  0.00     0.185 C 
BRANCH  25  26
HETATM   26  C5  UNL     1      65.901  17.897  54.070  1.00  0.00     0.042 A 
HETATM   27  C3  UNL     1      66.736  17.359  55.238  1.00  0.00    -0.077 A 
HETATM   28  C2  UNL     1      67.692  17.508  56.121  1.00  0.00    -0.028 C 
HETATM   29  C4  UNL     1      65.643  16.583  54.591  1.00  0.00     0.045 A 
HETATM   30  C1  UNL     1      67.973  16.400  57.067  1.00  0.00     0.036 C 
ENDBRANCH  25  26
ENDBRANCH  24  25
ENDBRANCH   1  24
TORSDOF 8
ENDMDL
