MODEL 1
REMARK VINA RESULT: -7.395411838      0.000      0.000
REMARK  3 active torsions:
REMARK  status: ('A' for Active; 'I' for Inactive)
REMARK    1  A    between atoms: N1_1  and  C1_5 
REMARK    2  A    between atoms: C1_5  and  C2_6 
REMARK    3  A    between atoms: C5_9  and  C6_10 
ROOT
HETATM    1  C2  UNL     1      14.175  37.285  74.699  1.00  0.00     0.015 C 
HETATM    2  C3  UNL     1      14.214  35.866  74.267  1.00  0.00     0.033 C 
HETATM    3  C4  UNL     1      14.849  34.928  75.194  1.00  0.00    -0.021 C 
HETATM    4  C5  UNL     1      15.321  35.235  76.377  1.00  0.00    -0.052 C 
HETATM    5  C11 UNL     1      15.235  36.614  76.870  1.00  0.00     0.037 C 
HETATM    6  C12 UNL     1      14.236  37.477  76.190  1.00  0.00     0.011 C 
ENDROOT
BRANCH   4   7
HETATM    7  C6  UNL     1      15.964  34.233  77.287  1.00  0.00     0.183 C 
HETATM    8  C7  UNL     1      15.629  32.818  76.857  1.00  0.00     0.213 C 
HETATM    9  O1  UNL     1      16.246  31.963  77.788  1.00  0.00    -0.343 OA
HETATM   10  C8  UNL     1      16.088  32.179  79.179  1.00  0.00     0.128 A 
HETATM   11  C9  UNL     1      16.279  31.242  80.165  1.00  0.00     0.109 A 
HETATM   12  C10 UNL     1      15.720  33.401  79.574  1.00  0.00     0.184 A 
HETATM   13  S1  UNL     1      15.933  32.128  81.580  1.00  0.00    -0.022 SA
HETATM   14  N2  UNL     1      15.569  33.611  80.886  1.00  0.00    -0.305 N 
ATOM     15  H2  UNL     1      15.295  34.474  81.356  1.00  0.00     0.176 HD
HETATM   16  O2  UNL     1      15.509  34.408  78.590  1.00  0.00    -0.321 OA
ENDBRANCH   4   7
BRANCH   1  17
HETATM   17  C1  UNL     1      15.285  38.068  73.995  1.00  0.00     0.234 C 
BRANCH  17  18
HETATM   18  N1  UNL     1      14.960  39.481  74.137  1.00  0.00    -0.079 N 
ATOM     19  H13 UNL     1      14.497  39.700  75.020  1.00  0.00     0.274 HD
ATOM     20  H12 UNL     1      15.780  40.071  74.272  1.00  0.00     0.274 HD
ATOM     21  H11 UNL     1      14.408  39.739  73.320  1.00  0.00     0.274 HD
ENDBRANCH  17  18
ENDBRANCH   1  17
TORSDOF 3
ENDMDL
MODEL 2
REMARK VINA RESULT: -7.384765557      2.019      2.436
REMARK  3 active torsions:
REMARK  status: ('A' for Active; 'I' for Inactive)
REMARK    1  A    between atoms: N1_1  and  C1_5 
REMARK    2  A    between atoms: C1_5  and  C2_6 
REMARK    3  A    between atoms: C5_9  and  C6_10 
ROOT
HETATM    1  C2  UNL     1      14.703  36.936  74.351  1.00  0.00     0.015 C 
HETATM    2  C3  UNL     1      14.963  37.335  75.755  1.00  0.00     0.033 C 
HETATM    3  C4  UNL     1      15.216  36.246  76.699  1.00  0.00    -0.021 C 
HETATM    4  C5  UNL     1      15.287  34.975  76.387  1.00  0.00    -0.052 C 
HETATM    5  C11 UNL     1      15.107  34.547  74.995  1.00  0.00     0.037 C 
HETATM    6  C12 UNL     1      15.292  35.605  73.970  1.00  0.00     0.011 C 
ENDROOT
BRANCH   4   7
HETATM    7  C6  UNL     1      15.547  33.898  77.396  1.00  0.00     0.183 C 
HETATM    8  C7  UNL     1      17.020  33.539  77.436  1.00  0.00     0.213 C 
HETATM    9  O1  UNL     1      17.151  32.504  78.380  1.00  0.00    -0.343 OA
HETATM   10  C8  UNL     1      16.299  31.374  78.333  1.00  0.00     0.128 A 
HETATM   11  C9  UNL     1      16.554  30.151  78.902  1.00  0.00     0.109 A 
HETATM   12  C10 UNL     1      15.143  31.502  77.676  1.00  0.00     0.184 A 
HETATM   13  S1  UNL     1      15.163  29.258  78.484  1.00  0.00    -0.022 SA
HETATM   14  N2  UNL     1      14.335  30.437  77.627  1.00  0.00    -0.305 N 
ATOM     15  H2  UNL     1      13.425  30.361  77.173  1.00  0.00     0.176 HD
HETATM   16  O2  UNL     1      14.832  32.751  77.067  1.00  0.00    -0.321 OA
ENDBRANCH   4   7
BRANCH   1  17
HETATM   17  C1  UNL     1      13.198  36.974  74.075  1.00  0.00     0.234 C 
BRANCH  17  18
HETATM   18  N1  UNL     1      12.853  38.364  73.811  1.00  0.00    -0.079 N 
ATOM     19  H13 UNL     1      13.505  38.827  73.178  1.00  0.00     0.274 HD
ATOM     20  H12 UNL     1      12.019  38.468  73.233  1.00  0.00     0.274 HD
ATOM     21  H11 UNL     1      12.776  38.825  74.717  1.00  0.00     0.274 HD
ENDBRANCH  17  18
ENDBRANCH   1  17
TORSDOF 3
ENDMDL
MODEL 3
REMARK VINA RESULT: -7.183925155      4.616      6.679
REMARK  3 active torsions:
REMARK  status: ('A' for Active; 'I' for Inactive)
REMARK    1  A    between atoms: N1_1  and  C1_5 
REMARK    2  A    between atoms: C1_5  and  C2_6 
REMARK    3  A    between atoms: C5_9  and  C6_10 
ROOT
HETATM    1  C2  UNL     1      15.496  32.171  78.730  1.00  0.00     0.015 C 
HETATM    2  C3  UNL     1      14.737  32.811  77.627  1.00  0.00     0.033 C 
HETATM    3  C4  UNL     1      15.511  33.182  76.442  1.00  0.00    -0.021 C 
HETATM    4  C5  UNL     1      16.787  32.940  76.266  1.00  0.00    -0.052 C 
HETATM    5  C11 UNL     1      17.556  32.244  77.303  1.00  0.00     0.037 C 
HETATM    6  C12 UNL     1      16.755  31.475  78.288  1.00  0.00     0.011 C 
ENDROOT
BRANCH   4   7
HETATM    7  C6  UNL     1      17.533  33.344  75.030  1.00  0.00     0.183 C 
HETATM    8  C7  UNL     1      16.956  32.666  73.803  1.00  0.00     0.213 C 
HETATM    9  O1  UNL     1      17.742  33.081  72.713  1.00  0.00    -0.343 OA
HETATM   10  C8  UNL     1      19.155  33.015  72.777  1.00  0.00     0.128 A 
HETATM   11  C9  UNL     1      20.010  32.999  71.702  1.00  0.00     0.109 A 
HETATM   12  C10 UNL     1      19.714  32.964  73.990  1.00  0.00     0.184 A 
HETATM   13  S1  UNL     1      21.537  32.914  72.454  1.00  0.00    -0.022 SA
HETATM   14  N2  UNL     1      21.048  32.902  74.057  1.00  0.00    -0.305 N 
ATOM     15  H2  UNL     1      21.633  32.857  74.892  1.00  0.00     0.176 HD
HETATM   16  O2  UNL     1      18.871  32.978  75.138  1.00  0.00    -0.321 OA
ENDBRANCH   4   7
BRANCH   1  17
HETATM   17  C1  UNL     1      15.789  33.204  79.820  1.00  0.00     0.234 C 
BRANCH  17  18
HETATM   18  N1  UNL     1      16.119  32.459  81.027  1.00  0.00    -0.079 N 
ATOM     19  H13 UNL     1      15.310  32.010  81.457  1.00  0.00     0.274 HD
ATOM     20  H12 UNL     1      16.654  31.611  80.843  1.00  0.00     0.274 HD
ATOM     21  H11 UNL     1      16.597  33.108  81.652  1.00  0.00     0.274 HD
ENDBRANCH  17  18
ENDBRANCH   1  17
TORSDOF 3
ENDMDL
MODEL 4
REMARK VINA RESULT: -7.155880745      0.982      1.632
REMARK  3 active torsions:
REMARK  status: ('A' for Active; 'I' for Inactive)
REMARK    1  A    between atoms: N1_1  and  C1_5 
REMARK    2  A    between atoms: C1_5  and  C2_6 
REMARK    3  A    between atoms: C5_9  and  C6_10 
ROOT
HETATM    1  C2  UNL     1      14.192  37.168  74.258  1.00  0.00     0.015 C 
HETATM    2  C3  UNL     1      14.452  37.589  75.657  1.00  0.00     0.033 C 
HETATM    3  C4  UNL     1      15.038  36.577  76.536  1.00  0.00    -0.021 C 
HETATM    4  C5  UNL     1      15.398  35.372  76.169  1.00  0.00    -0.052 C 
HETATM    5  C11 UNL     1      15.224  34.943  74.777  1.00  0.00     0.037 C 
HETATM    6  C12 UNL     1      15.062  36.036  73.784  1.00  0.00     0.011 C 
ENDROOT
BRANCH   4   7
HETATM    7  C6  UNL     1      15.994  34.372  77.113  1.00  0.00     0.183 C 
HETATM    8  C7  UNL     1      15.640  32.958  76.699  1.00  0.00     0.213 C 
HETATM    9  O1  UNL     1      16.213  32.107  77.661  1.00  0.00    -0.343 OA
HETATM   10  C8  UNL     1      16.022  32.350  79.043  1.00  0.00     0.128 A 
HETATM   11  C9  UNL     1      16.166  31.427  80.050  1.00  0.00     0.109 A 
HETATM   12  C10 UNL     1      15.670  33.587  79.406  1.00  0.00     0.184 A 
HETATM   13  S1  UNL     1      15.801  32.346  81.439  1.00  0.00    -0.022 SA
HETATM   14  N2  UNL     1      15.488  33.823  80.710  1.00  0.00    -0.305 N 
ATOM     15  H2  UNL     1      15.221  34.700  81.158  1.00  0.00     0.176 HD
HETATM   16  O2  UNL     1      15.507  34.581  78.400  1.00  0.00    -0.321 OA
ENDBRANCH   4   7
BRANCH   1  17
HETATM   17  C1  UNL     1      12.709  36.834  74.088  1.00  0.00     0.234 C 
BRANCH  17  18
HETATM   18  N1  UNL     1      12.103  37.955  73.382  1.00  0.00    -0.079 N 
ATOM     19  H13 UNL     1      11.682  37.689  72.491  1.00  0.00     0.274 HD
ATOM     20  H12 UNL     1      11.253  38.298  73.827  1.00  0.00     0.274 HD
ATOM     21  H11 UNL     1      12.825  38.669  73.288  1.00  0.00     0.274 HD
ENDBRANCH  17  18
ENDBRANCH   1  17
TORSDOF 3
ENDMDL
MODEL 5
REMARK VINA RESULT: -7.075080257      5.158      6.966
REMARK  3 active torsions:
REMARK  status: ('A' for Active; 'I' for Inactive)
REMARK    1  A    between atoms: N1_1  and  C1_5 
REMARK    2  A    between atoms: C1_5  and  C2_6 
REMARK    3  A    between atoms: C5_9  and  C6_10 
ROOT
HETATM    1  C2  UNL     1      19.127  32.193  74.078  1.00  0.00     0.015 C 
HETATM    2  C3  UNL     1      18.124  32.655  75.068  1.00  0.00     0.033 C 
HETATM    3  C4  UNL     1      16.892  33.224  74.521  1.00  0.00    -0.021 C 
HETATM    4  C5  UNL     1      16.593  33.297  73.247  1.00  0.00    -0.052 C 
HETATM    5  C11 UNL     1      17.528  32.784  72.240  1.00  0.00     0.037 C 
HETATM    6  C12 UNL     1      18.547  31.826  72.739  1.00  0.00     0.011 C 
ENDROOT
BRANCH   4   7
HETATM    7  C6  UNL     1      15.315  33.892  72.739  1.00  0.00     0.183 C 
HETATM    8  C7  UNL     1      15.300  35.395  72.940  1.00  0.00     0.213 C 
HETATM    9  O1  UNL     1      14.055  35.847  72.467  1.00  0.00    -0.343 OA
HETATM   10  C8  UNL     1      12.856  35.214  72.878  1.00  0.00     0.128 A 
HETATM   11  C9  UNL     1      11.599  35.766  72.830  1.00  0.00     0.109 A 
HETATM   12  C10 UNL     1      12.949  33.970  73.355  1.00  0.00     0.184 A 
HETATM   13  S1  UNL     1      10.628  34.511  73.456  1.00  0.00    -0.022 SA
HETATM   14  N2  UNL     1      11.820  33.368  73.745  1.00  0.00    -0.305 N 
ATOM     15  H2  UNL     1      11.710  32.430  74.130  1.00  0.00     0.176 HD
HETATM   16  O2  UNL     1      14.231  33.354  73.425  1.00  0.00    -0.321 OA
ENDBRANCH   4   7
BRANCH   1  17
HETATM   17  C1  UNL     1      20.230  33.243  73.933  1.00  0.00     0.234 C 
BRANCH  17  18
HETATM   18  N1  UNL     1      21.166  32.736  72.938  1.00  0.00    -0.079 N 
ATOM     19  H13 UNL     1      22.000  32.317  73.348  1.00  0.00     0.274 HD
ATOM     20  H12 UNL     1      20.828  31.904  72.455  1.00  0.00     0.274 HD
ATOM     21  H11 UNL     1      21.374  33.511  72.308  1.00  0.00     0.274 HD
ENDBRANCH  17  18
ENDBRANCH   1  17
TORSDOF 3
ENDMDL
