MODEL 1
REMARK VINA RESULT: -7.041240554      0.000      0.000
REMARK  6 active torsions:
REMARK  status: ('A' for Active; 'I' for Inactive)
REMARK    1  A    between atoms: C2_2  and  O1_4 
REMARK    2  A    between atoms: C2_2  and  C4_6 
REMARK    3  A    between atoms: C6_10  and  C7_11 
REMARK    4  A    between atoms: C7_11  and  O2_12 
REMARK    5  A    between atoms: N2_20  and  N3_21 
REMARK    6  A    between atoms: N3_21  and  O3_23 
ROOT
HETATM    1  C4  UNL     1       9.677  35.988  71.991  1.00  0.00     0.060 C 
HETATM    2  C5  UNL     1      10.913  35.830  72.419  1.00  0.00     0.124 A 
HETATM    3  N1  UNL     1      11.523  36.761  73.352  1.00  0.00    -0.344 N 
ATOM      4  H1  UNL     1      11.051  37.582  73.731  1.00  0.00     0.167 HD
HETATM    5  C6  UNL     1      12.720  36.430  73.640  1.00  0.00     0.042 A 
HETATM    6  C8  UNL     1      13.098  35.187  72.917  1.00  0.00     0.097 A 
HETATM    7  C9  UNL     1      13.300  34.025  73.850  1.00  0.00     0.040 C 
HETATM    8  C10 UNL     1      14.632  33.907  74.472  1.00  0.00     0.003 C 
HETATM    9  C11 UNL     1      15.788  34.314  73.626  1.00  0.00     0.000 C 
HETATM   10  C12 UNL     1      15.447  34.572  72.193  1.00  0.00     0.003 C 
HETATM   11  C13 UNL     1      14.234  35.400  71.972  1.00  0.00     0.040 C 
HETATM   12  N2  UNL     1      11.903  34.862  72.163  1.00  0.00    -0.242 N 
ENDROOT
BRANCH   1  13
HETATM   13  C2  UNL     1       8.921  35.154  71.064  1.00  0.00     0.072 C 
HETATM   14  C1  UNL     1       8.495  33.871  71.733  1.00  0.00     0.050 C 
HETATM   15  C3  UNL     1       7.632  35.850  70.609  1.00  0.00     0.050 C 
BRANCH  13  16
HETATM   16  O1  UNL     1       9.627  34.859  69.882  1.00  0.00    -0.387 OA
ATOM     17  H1  UNL     1       9.307  34.043  69.515  1.00  0.00     0.211 HD
ENDBRANCH  13  16
ENDBRANCH   1  13
BRANCH  12  18
HETATM   18  N3  UNL     1      11.783  33.768  71.332  1.00  0.00    -0.205 N 
ATOM     19  H3  UNL     1      11.425  32.917  71.766  1.00  0.00     0.216 HD
BRANCH  18  20
HETATM   20  O3  UNL     1      12.049  33.686  70.141  1.00  0.00    -0.274 OA
ATOM     21  H3  UNL     1      12.160  32.903  69.615  1.00  0.00     0.246 HD
ENDBRANCH  18  20
ENDBRANCH  12  18
BRANCH   5  22
HETATM   22  C7  UNL     1      13.558  37.233  74.580  1.00  0.00     0.219 C 
BRANCH  22  23
HETATM   23  O2  UNL     1      13.420  38.591  74.316  1.00  0.00    -0.395 OA
ATOM     24  H2  UNL     1      14.261  39.028  74.376  1.00  0.00     0.209 HD
ENDBRANCH  22  23
ENDBRANCH   5  22
TORSDOF 6
ENDMDL
MODEL 2
REMARK VINA RESULT: -6.949082738      3.755      6.239
REMARK  6 active torsions:
REMARK  status: ('A' for Active; 'I' for Inactive)
REMARK    1  A    between atoms: C2_2  and  O1_4 
REMARK    2  A    between atoms: C2_2  and  C4_6 
REMARK    3  A    between atoms: C6_10  and  C7_11 
REMARK    4  A    between atoms: C7_11  and  O2_12 
REMARK    5  A    between atoms: N2_20  and  N3_21 
REMARK    6  A    between atoms: N3_21  and  O3_23 
ROOT
HETATM    1  C4  UNL     1      15.673  35.221  77.853  1.00  0.00     0.060 C 
HETATM    2  C5  UNL     1      15.286  35.698  76.687  1.00  0.00     0.124 A 
HETATM    3  N1  UNL     1      15.304  37.121  76.401  1.00  0.00    -0.344 N 
ATOM      4  H1  UNL     1      15.609  37.834  77.065  1.00  0.00     0.167 HD
HETATM    5  C6  UNL     1      14.894  37.375  75.222  1.00  0.00     0.042 A 
HETATM    6  C8  UNL     1      14.528  36.114  74.522  1.00  0.00     0.097 A 
HETATM    7  C9  UNL     1      15.453  35.809  73.377  1.00  0.00     0.040 C 
HETATM    8  C10 UNL     1      15.137  36.455  72.089  1.00  0.00     0.003 C 
HETATM    9  C11 UNL     1      13.690  36.619  71.775  1.00  0.00     0.000 C 
HETATM   10  C12 UNL     1      12.769  35.903  72.711  1.00  0.00     0.003 C 
HETATM   11  C13 UNL     1      13.082  36.065  74.153  1.00  0.00     0.040 C 
HETATM   12  N2  UNL     1      14.804  35.091  75.512  1.00  0.00    -0.242 N 
ENDROOT
BRANCH   1  13
HETATM   13  C2  UNL     1      15.716  33.833  78.299  1.00  0.00     0.072 C 
HETATM   14  C1  UNL     1      16.931  33.135  77.741  1.00  0.00     0.050 C 
HETATM   15  C3  UNL     1      15.832  33.740  79.826  1.00  0.00     0.050 C 
BRANCH  13  16
HETATM   16  O1  UNL     1      14.558  33.106  77.964  1.00  0.00    -0.387 OA
ATOM     17  H1  UNL     1      13.825  33.702  77.867  1.00  0.00     0.211 HD
ENDBRANCH  13  16
ENDBRANCH   1  13
BRANCH  12  18
HETATM   18  N3  UNL     1      14.615  33.740  75.306  1.00  0.00    -0.205 N 
ATOM     19  H3  UNL     1      13.686  33.382  75.529  1.00  0.00     0.216 HD
BRANCH  18  20
HETATM   20  O3  UNL     1      15.417  32.916  74.890  1.00  0.00    -0.274 OA
ATOM     21  H3  UNL     1      15.292  32.261  74.214  1.00  0.00     0.246 HD
ENDBRANCH  18  20
ENDBRANCH  12  18
BRANCH   5  22
HETATM   22  C7  UNL     1      14.820  38.769  74.691  1.00  0.00     0.219 C 
BRANCH  22  23
HETATM   23  O2  UNL     1      14.888  39.689  75.733  1.00  0.00    -0.395 OA
ATOM     24  H2  UNL     1      14.186  39.539  76.354  1.00  0.00     0.209 HD
ENDBRANCH  22  23
ENDBRANCH   5  22
TORSDOF 6
ENDMDL
MODEL 3
REMARK VINA RESULT: -6.753412065      3.473      6.616
REMARK  6 active torsions:
REMARK  status: ('A' for Active; 'I' for Inactive)
REMARK    1  A    between atoms: C2_2  and  O1_4 
REMARK    2  A    between atoms: C2_2  and  C4_6 
REMARK    3  A    between atoms: C6_10  and  C7_11 
REMARK    4  A    between atoms: C7_11  and  O2_12 
REMARK    5  A    between atoms: N2_20  and  N3_21 
REMARK    6  A    between atoms: N3_21  and  O3_23 
ROOT
HETATM    1  C4  UNL     1      16.547  33.008  75.616  1.00  0.00     0.060 C 
HETATM    2  C5  UNL     1      15.908  33.882  74.866  1.00  0.00     0.124 A 
HETATM    3  N1  UNL     1      15.942  33.813  73.416  1.00  0.00    -0.344 N 
ATOM      4  H1  UNL     1      16.449  33.101  72.890  1.00  0.00     0.167 HD
HETATM    5  C6  UNL     1      15.261  34.747  72.879  1.00  0.00     0.042 A 
HETATM    6  C8  UNL     1      14.652  35.608  73.927  1.00  0.00     0.097 A 
HETATM    7  C9  UNL     1      13.154  35.493  73.959  1.00  0.00     0.040 C 
HETATM    8  C10 UNL     1      12.410  36.349  73.016  1.00  0.00     0.003 C 
HETATM    9  C11 UNL     1      12.986  37.697  72.760  1.00  0.00     0.000 C 
HETATM   10  C12 UNL     1      14.115  38.070  73.668  1.00  0.00     0.003 C 
HETATM   11  C13 UNL     1      15.143  37.017  73.864  1.00  0.00     0.040 C 
HETATM   12  N2  UNL     1      15.104  34.999  75.163  1.00  0.00    -0.242 N 
ENDROOT
BRANCH   1  13
HETATM   13  C2  UNL     1      16.615  32.935  77.071  1.00  0.00     0.072 C 
HETATM   14  C1  UNL     1      15.304  32.453  77.640  1.00  0.00     0.050 C 
HETATM   15  C3  UNL     1      17.678  31.930  77.532  1.00  0.00     0.050 C 
BRANCH  13  16
HETATM   16  O1  UNL     1      16.969  34.159  77.671  1.00  0.00    -0.387 OA
ATOM     17  H1  UNL     1      16.412  34.851  77.334  1.00  0.00     0.211 HD
ENDBRANCH  13  16
ENDBRANCH   1  13
BRANCH  12  18
HETATM   18  N3  UNL     1      14.780  35.463  76.421  1.00  0.00    -0.205 N 
ATOM     19  H3  UNL     1      13.975  35.020  76.865  1.00  0.00     0.216 HD
BRANCH  18  20
HETATM   20  O3  UNL     1      15.333  36.337  77.074  1.00  0.00    -0.274 OA
ATOM     21  H3  UNL     1      15.183  36.581  77.979  1.00  0.00     0.246 HD
ENDBRANCH  18  20
ENDBRANCH  12  18
BRANCH   5  22
HETATM   22  C7  UNL     1      15.143  34.888  71.396  1.00  0.00     0.219 C 
BRANCH  22  23
HETATM   23  O2  UNL     1      15.845  36.005  70.957  1.00  0.00    -0.395 OA
ATOM     24  H2  UNL     1      16.669  35.745  70.563  1.00  0.00     0.209 HD
ENDBRANCH  22  23
ENDBRANCH   5  22
TORSDOF 6
ENDMDL
MODEL 4
REMARK VINA RESULT: -6.710286479      4.396      5.983
REMARK  6 active torsions:
REMARK  status: ('A' for Active; 'I' for Inactive)
REMARK    1  A    between atoms: C2_2  and  O1_4 
REMARK    2  A    between atoms: C2_2  and  C4_6 
REMARK    3  A    between atoms: C6_10  and  C7_11 
REMARK    4  A    between atoms: C7_11  and  O2_12 
REMARK    5  A    between atoms: N2_20  and  N3_21 
REMARK    6  A    between atoms: N3_21  and  O3_23 
ROOT
HETATM    1  C4  UNL     1      14.815  35.932  74.957  1.00  0.00     0.060 C 
HETATM    2  C5  UNL     1      15.277  35.055  75.826  1.00  0.00     0.124 A 
HETATM    3  N1  UNL     1      15.332  35.346  77.247  1.00  0.00    -0.344 N 
ATOM      4  H1  UNL     1      15.026  36.226  77.663  1.00  0.00     0.167 HD
HETATM    5  C6  UNL     1      15.808  34.370  77.914  1.00  0.00     0.042 A 
HETATM    6  C8  UNL     1      16.153  33.245  77.004  1.00  0.00     0.097 A 
HETATM    7  C9  UNL     1      15.273  32.046  77.220  1.00  0.00     0.040 C 
HETATM    8  C10 UNL     1      15.676  31.121  78.296  1.00  0.00     0.003 C 
HETATM    9  C11 UNL     1      17.142  30.936  78.485  1.00  0.00     0.000 C 
HETATM   10  C12 UNL     1      17.986  31.544  77.411  1.00  0.00     0.003 C 
HETATM   11  C13 UNL     1      17.612  32.926  77.019  1.00  0.00     0.040 C 
HETATM   12  N2  UNL     1      15.788  33.750  75.695  1.00  0.00    -0.242 N 
ENDROOT
BRANCH   1  13
HETATM   13  C2  UNL     1      14.692  35.801  73.510  1.00  0.00     0.072 C 
HETATM   14  C1  UNL     1      13.530  34.908  73.156  1.00  0.00     0.050 C 
HETATM   15  C3  UNL     1      14.409  37.156  72.848  1.00  0.00     0.050 C 
BRANCH  13  16
HETATM   16  O1  UNL     1      15.863  35.319  72.895  1.00  0.00    -0.387 OA
ATOM     17  H1  UNL     1      16.319  34.735  73.491  1.00  0.00     0.211 HD
ENDBRANCH  13  16
ENDBRANCH   1  13
BRANCH  12  18
HETATM   18  N3  UNL     1      15.930  33.040  74.521  1.00  0.00    -0.205 N 
ATOM     19  H3  UNL     1      15.116  32.500  74.227  1.00  0.00     0.216 HD
BRANCH  18  20
HETATM   20  O3  UNL     1      16.907  32.974  73.787  1.00  0.00    -0.274 OA
ATOM     21  H3  UNL     1      17.024  32.442  73.009  1.00  0.00     0.246 HD
ENDBRANCH  18  20
ENDBRANCH  12  18
BRANCH   5  22
HETATM   22  C7  UNL     1      15.966  34.426  79.398  1.00  0.00     0.219 C 
BRANCH  22  23
HETATM   23  O2  UNL     1      14.778  34.067  80.026  1.00  0.00    -0.395 OA
ATOM     24  H2  UNL     1      14.559  34.695  80.704  1.00  0.00     0.209 HD
ENDBRANCH  22  23
ENDBRANCH   5  22
TORSDOF 6
ENDMDL
MODEL 5
REMARK VINA RESULT: -6.577980525      1.034      1.075
REMARK  6 active torsions:
REMARK  status: ('A' for Active; 'I' for Inactive)
REMARK    1  A    between atoms: C2_2  and  O1_4 
REMARK    2  A    between atoms: C2_2  and  C4_6 
REMARK    3  A    between atoms: C6_10  and  C7_11 
REMARK    4  A    between atoms: C7_11  and  O2_12 
REMARK    5  A    between atoms: N2_20  and  N3_21 
REMARK    6  A    between atoms: N3_21  and  O3_23 
ROOT
HETATM    1  C4  UNL     1      10.488  36.671  72.410  1.00  0.00     0.060 C 
HETATM    2  C5  UNL     1      11.718  36.288  72.687  1.00  0.00     0.124 A 
HETATM    3  N1  UNL     1      12.671  37.181  73.322  1.00  0.00    -0.344 N 
ATOM      4  H1  UNL     1      12.461  38.143  73.590  1.00  0.00     0.167 HD
HETATM    5  C6  UNL     1      13.801  36.620  73.503  1.00  0.00     0.042 A 
HETATM    6  C8  UNL     1      13.767  35.221  72.999  1.00  0.00     0.097 A 
HETATM    7  C9  UNL     1      13.880  34.213  74.109  1.00  0.00     0.040 C 
HETATM    8  C10 UNL     1      15.246  33.876  74.553  1.00  0.00     0.003 C 
HETATM    9  C11 UNL     1      16.291  33.846  73.493  1.00  0.00     0.000 C 
HETATM   10  C12 UNL     1      15.760  33.943  72.098  1.00  0.00     0.003 C 
HETATM   11  C13 UNL     1      14.734  34.994  71.884  1.00  0.00     0.040 C 
HETATM   12  N2  UNL     1      12.415  35.079  72.497  1.00  0.00    -0.242 N 
ENDROOT
BRANCH   1  13
HETATM   13  C2  UNL     1       9.417  35.907  71.781  1.00  0.00     0.072 C 
HETATM   14  C1  UNL     1       8.892  34.855  72.726  1.00  0.00     0.050 C 
HETATM   15  C3  UNL     1       8.222  36.803  71.431  1.00  0.00     0.050 C 
BRANCH  13  16
HETATM   16  O1  UNL     1       9.804  35.304  70.569  1.00  0.00    -0.387 OA
ATOM     17  H1  UNL     1       9.988  35.976  69.923  1.00  0.00     0.211 HD
ENDBRANCH  13  16
ENDBRANCH   1  13
BRANCH  12  18
HETATM   18  N3  UNL     1      11.915  33.927  71.926  1.00  0.00    -0.205 N 
ATOM     19  H3  UNL     1      11.501  33.255  72.572  1.00  0.00     0.216 HD
BRANCH  18  20
HETATM   20  O3  UNL     1      11.904  33.608  70.745  1.00  0.00    -0.274 OA
ATOM     21  H3  UNL     1      11.272  33.067  70.287  1.00  0.00     0.246 HD
ENDBRANCH  18  20
ENDBRANCH  12  18
BRANCH   5  22
HETATM   22  C7  UNL     1      14.947  37.336  74.140  1.00  0.00     0.219 C 
BRANCH  22  23
HETATM   23  O2  UNL     1      15.384  38.374  73.325  1.00  0.00    -0.395 OA
ATOM     24  H2  UNL     1      15.557  39.152  73.842  1.00  0.00     0.209 HD
ENDBRANCH  22  23
ENDBRANCH   5  22
TORSDOF 6
ENDMDL
