MODEL 1
REMARK VINA RESULT: -7.986134488      0.000      0.000
REMARK  2 active torsions:
REMARK  status: ('A' for Active; 'I' for Inactive)
REMARK    1  A    between atoms: C2_2  and  N1_4 
REMARK    2  A    between atoms: C5_10  and  C6_11 
ROOT
HETATM    1  C6  UNL     1      16.178  33.838  74.714  1.00  0.00     0.079 C 
HETATM    2  C7  UNL     1      16.393  33.266  76.041  1.00  0.00     0.034 C 
HETATM    3  C8  UNL     1      17.826  32.713  75.907  1.00  0.00     0.125 C 
HETATM    4  N4  UNL     1      18.042  32.574  74.487  1.00  0.00    -0.365 N 
HETATM    5  C9  UNL     1      19.219  32.344  73.738  1.00  0.00     0.073 C 
HETATM    6  N5  UNL     1      20.304  31.923  74.344  1.00  0.00    -0.389 N 
ATOM      7  H51 UNL     1      21.153  31.757  73.804  1.00  0.00     0.157 HD
ATOM      8  H52 UNL     1      20.232  31.781  75.351  1.00  0.00     0.157 HD
HETATM    9  C10 UNL     1      19.323  32.551  72.279  1.00  0.00     0.076 C 
HETATM   10  C11 UNL     1      17.946  32.377  71.678  1.00  0.00     0.009 C 
HETATM   11  C12 UNL     1      16.997  33.270  72.444  1.00  0.00     0.026 C 
HETATM   12  C13 UNL     1      16.759  32.716  73.828  1.00  0.00     0.097 C 
ENDROOT
BRANCH   1  13
HETATM   13  C5  UNL     1      14.912  34.339  74.303  1.00  0.00     0.105 A 
HETATM   14  N1  UNL     1      14.398  35.561  74.184  1.00  0.00    -0.275 N 
HETATM   15  N2  UNL     1      13.138  35.484  73.752  1.00  0.00    -0.292 N 
HETATM   16  C4  UNL     1      12.809  34.197  73.581  1.00  0.00     0.199 A 
ATOM     17  H2  UNL     1      12.523  36.279  73.579  1.00  0.00     0.188 HD
HETATM   18  N3  UNL     1      13.894  33.505  73.918  1.00  0.00    -0.339 N 
ATOM     19  H3  UNL     1      13.960  32.488  73.894  1.00  0.00     0.168 HD
BRANCH  14  20
HETATM   20  C2  UNL     1      15.100  36.775  74.473  1.00  0.00     0.101 C 
HETATM   21  C1  UNL     1      14.276  37.486  75.569  1.00  0.00     0.034 C 
HETATM   22  C3  UNL     1      15.018  37.717  73.279  1.00  0.00     0.034 C 
ENDBRANCH  14  20
ENDBRANCH   1  13
TORSDOF 2
ENDMDL
MODEL 2
REMARK VINA RESULT: -7.623226788      1.579      3.140
REMARK  2 active torsions:
REMARK  status: ('A' for Active; 'I' for Inactive)
REMARK    1  A    between atoms: C2_2  and  N1_4 
REMARK    2  A    between atoms: C5_10  and  C6_11 
ROOT
HETATM    1  C6  UNL     1      15.593  33.442  74.704  1.00  0.00     0.079 C 
HETATM    2  C7  UNL     1      16.848  33.413  73.955  1.00  0.00     0.034 C 
HETATM    3  C8  UNL     1      17.781  32.697  74.952  1.00  0.00     0.125 C 
HETATM    4  N4  UNL     1      17.151  32.861  76.240  1.00  0.00    -0.365 N 
HETATM    5  C9  UNL     1      17.394  32.240  77.486  1.00  0.00     0.073 C 
HETATM    6  N5  UNL     1      18.512  31.579  77.677  1.00  0.00    -0.389 N 
ATOM      7  H51 UNL     1      18.688  31.131  78.576  1.00  0.00     0.157 HD
ATOM      8  H52 UNL     1      19.161  31.552  76.890  1.00  0.00     0.157 HD
HETATM    9  C10 UNL     1      16.455  32.279  78.625  1.00  0.00     0.076 C 
HETATM   10  C11 UNL     1      15.621  33.534  78.507  1.00  0.00     0.009 C 
HETATM   11  C12 UNL     1      15.032  33.562  77.115  1.00  0.00     0.026 C 
HETATM   12  C13 UNL     1      16.108  33.857  76.097  1.00  0.00     0.097 C 
ENDROOT
BRANCH   1  13
HETATM   13  C5  UNL     1      14.454  34.157  74.241  1.00  0.00     0.105 A 
HETATM   14  N1  UNL     1      14.179  35.449  74.082  1.00  0.00    -0.275 N 
HETATM   15  N2  UNL     1      12.939  35.595  73.610  1.00  0.00    -0.292 N 
HETATM   16  C4  UNL     1      12.383  34.387  73.453  1.00  0.00     0.199 A 
ATOM     17  H2  UNL     1      12.487  36.485  73.402  1.00  0.00     0.188 HD
HETATM   18  N3  UNL     1      13.311  33.516  73.838  1.00  0.00    -0.339 N 
ATOM     19  H3  UNL     1      13.188  32.503  73.836  1.00  0.00     0.168 HD
BRANCH  14  20
HETATM   20  C2  UNL     1      15.084  36.520  74.372  1.00  0.00     0.101 C 
HETATM   21  C1  UNL     1      14.464  37.285  75.562  1.00  0.00     0.034 C 
HETATM   22  C3  UNL     1      15.070  37.532  73.234  1.00  0.00     0.034 C 
ENDBRANCH  14  20
ENDBRANCH   1  13
TORSDOF 2
ENDMDL
MODEL 3
REMARK VINA RESULT: -7.562791802      2.004      5.919
REMARK  2 active torsions:
REMARK  status: ('A' for Active; 'I' for Inactive)
REMARK    1  A    between atoms: C2_2  and  N1_4 
REMARK    2  A    between atoms: C5_10  and  C6_11 
ROOT
HETATM    1  C6  UNL     1      14.540  35.763  74.272  1.00  0.00     0.079 C 
HETATM    2  C7  UNL     1      15.138  37.090  74.142  1.00  0.00     0.034 C 
HETATM    3  C8  UNL     1      13.908  37.943  73.773  1.00  0.00     0.125 C 
HETATM    4  N4  UNL     1      12.939  37.003  73.261  1.00  0.00    -0.365 N 
HETATM    5  C9  UNL     1      11.559  37.139  72.988  1.00  0.00     0.073 C 
HETATM    6  N5  UNL     1      11.025  38.334  72.910  1.00  0.00    -0.389 N 
ATOM      7  H51 UNL     1      10.029  38.432  72.712  1.00  0.00     0.157 HD
ATOM      8  H52 UNL     1      11.658  39.122  73.055  1.00  0.00     0.157 HD
HETATM    9  C10 UNL     1      10.644  35.999  72.777  1.00  0.00     0.076 C 
HETATM   10  C11 UNL     1      11.453  34.833  72.253  1.00  0.00     0.009 C 
HETATM   11  C12 UNL     1      12.619  34.628  73.192  1.00  0.00     0.026 C 
HETATM   12  C13 UNL     1      13.622  35.746  73.033  1.00  0.00     0.097 C 
ENDROOT
BRANCH   1  13
HETATM   13  C5  UNL     1      15.329  34.594  74.457  1.00  0.00     0.105 A 
HETATM   14  N1  UNL     1      15.600  33.821  75.506  1.00  0.00    -0.275 N 
HETATM   15  N2  UNL     1      16.415  32.829  75.141  1.00  0.00    -0.292 N 
HETATM   16  C4  UNL     1      16.690  32.943  73.836  1.00  0.00     0.199 A 
ATOM     17  H2  UNL     1      16.773  32.100  75.759  1.00  0.00     0.188 HD
HETATM   18  N3  UNL     1      16.025  34.019  73.425  1.00  0.00    -0.339 N 
ATOM     19  H3  UNL     1      16.032  34.371  72.468  1.00  0.00     0.168 HD
BRANCH  14  20
HETATM   20  C2  UNL     1      15.086  34.024  76.827  1.00  0.00     0.101 C 
HETATM   21  C1  UNL     1      16.281  34.520  77.672  1.00  0.00     0.034 C 
HETATM   22  C3  UNL     1      14.722  32.685  77.453  1.00  0.00     0.034 C 
ENDBRANCH  14  20
ENDBRANCH   1  13
TORSDOF 2
ENDMDL
MODEL 4
REMARK VINA RESULT: -7.400324325      1.432      2.828
REMARK  2 active torsions:
REMARK  status: ('A' for Active; 'I' for Inactive)
REMARK    1  A    between atoms: C2_2  and  N1_4 
REMARK    2  A    between atoms: C5_10  and  C6_11 
ROOT
HETATM    1  C6  UNL     1      14.848  33.519  73.790  1.00  0.00     0.079 C 
HETATM    2  C7  UNL     1      15.766  33.526  72.652  1.00  0.00     0.034 C 
HETATM    3  C8  UNL     1      17.070  33.033  73.311  1.00  0.00     0.125 C 
HETATM    4  N4  UNL     1      16.898  33.289  74.720  1.00  0.00    -0.365 N 
HETATM    5  C9  UNL     1      17.633  32.852  75.846  1.00  0.00     0.073 C 
HETATM    6  N5  UNL     1      18.827  32.334  75.684  1.00  0.00    -0.389 N 
ATOM      7  H51 UNL     1      19.358  32.019  76.496  1.00  0.00     0.157 HD
ATOM      8  H52 UNL     1      19.168  32.277  74.724  1.00  0.00     0.157 HD
HETATM    9  C10 UNL     1      17.140  32.935  77.236  1.00  0.00     0.076 C 
HETATM   10  C11 UNL     1      16.152  34.076  77.320  1.00  0.00     0.009 C 
HETATM   11  C12 UNL     1      15.128  33.876  76.226  1.00  0.00     0.026 C 
HETATM   12  C13 UNL     1      15.744  34.150  74.876  1.00  0.00     0.097 C 
ENDROOT
BRANCH   1  13
HETATM   13  C5  UNL     1      13.534  34.055  73.703  1.00  0.00     0.105 A 
HETATM   14  N1  UNL     1      13.046  35.287  73.575  1.00  0.00    -0.275 N 
HETATM   15  N2  UNL     1      11.713  35.247  73.545  1.00  0.00    -0.292 N 
HETATM   16  C4  UNL     1      11.307  33.976  73.652  1.00  0.00     0.199 A 
ATOM     17  H2  UNL     1      11.100  36.057  73.454  1.00  0.00     0.188 HD
HETATM   18  N3  UNL     1      12.421  33.255  73.748  1.00  0.00    -0.339 N 
ATOM     19  H3  UNL     1      12.444  32.239  73.843  1.00  0.00     0.168 HD
BRANCH  14  20
HETATM   20  C2  UNL     1      13.840  36.474  73.481  1.00  0.00     0.101 C 
HETATM   21  C1  UNL     1      13.769  37.141  74.873  1.00  0.00     0.034 C 
HETATM   22  C3  UNL     1      13.163  37.478  72.557  1.00  0.00     0.034 C 
ENDBRANCH  14  20
ENDBRANCH   1  13
TORSDOF 2
ENDMDL
MODEL 5
REMARK VINA RESULT: -7.236708030      2.773      4.845
REMARK  2 active torsions:
REMARK  status: ('A' for Active; 'I' for Inactive)
REMARK    1  A    between atoms: C2_2  and  N1_4 
REMARK    2  A    between atoms: C5_10  and  C6_11 
ROOT
HETATM    1  C6  UNL     1      16.014  33.025  75.830  1.00  0.00     0.079 C 
HETATM    2  C7  UNL     1      15.024  33.767  75.053  1.00  0.00     0.034 C 
HETATM    3  C8  UNL     1      15.495  33.487  73.612  1.00  0.00     0.125 C 
HETATM    4  N4  UNL     1      16.879  33.096  73.739  1.00  0.00    -0.365 N 
HETATM    5  C9  UNL     1      17.771  32.501  72.818  1.00  0.00     0.073 C 
HETATM    6  N5  UNL     1      17.476  32.490  71.540  1.00  0.00    -0.389 N 
ATOM      7  H51 UNL     1      18.120  32.061  70.875  1.00  0.00     0.157 HD
ATOM      8  H52 UNL     1      16.592  32.927  71.276  1.00  0.00     0.157 HD
HETATM    9  C10 UNL     1      19.050  31.868  73.200  1.00  0.00     0.076 C 
HETATM   10  C11 UNL     1      19.534  32.513  74.479  1.00  0.00     0.009 C 
HETATM   11  C12 UNL     1      18.400  32.454  75.477  1.00  0.00     0.026 C 
HETATM   12  C13 UNL     1      17.307  33.419  75.085  1.00  0.00     0.097 C 
ENDROOT
BRANCH   1  13
HETATM   13  C5  UNL     1      16.082  33.112  77.248  1.00  0.00     0.105 A 
HETATM   14  N1  UNL     1      16.182  32.213  78.224  1.00  0.00    -0.275 N 
HETATM   15  N2  UNL     1      16.204  32.828  79.408  1.00  0.00    -0.292 N 
HETATM   16  C4  UNL     1      16.118  34.150  79.219  1.00  0.00     0.199 A 
ATOM     17  H2  UNL     1      16.276  32.364  80.313  1.00  0.00     0.188 HD
HETATM   18  N3  UNL     1      16.044  34.317  77.902  1.00  0.00    -0.339 N 
ATOM     19  H3  UNL     1      15.968  35.222  77.438  1.00  0.00     0.168 HD
BRANCH  14  20
HETATM   20  C2  UNL     1      16.260  30.797  78.026  1.00  0.00     0.101 C 
HETATM   21  C1  UNL     1      14.799  30.297  77.985  1.00  0.00     0.034 C 
HETATM   22  C3  UNL     1      16.844  30.132  79.266  1.00  0.00     0.034 C 
ENDBRANCH  14  20
ENDBRANCH   1  13
TORSDOF 2
ENDMDL
