MODEL 1
REMARK VINA RESULT: -8.321752728      0.000      0.000
REMARK  7 active torsions:
REMARK  status: ('A' for Active; 'I' for Inactive)
REMARK       I    between atoms: C2_2  and  N1_4 
REMARK    1  A    between atoms: N1_4  and  C3_6 
REMARK    2  A    between atoms: C3_6  and  C5_8 
REMARK    3  A    between atoms: C5_8  and  C15_23 
REMARK    4  A    between atoms: N2_9  and  N3_11 
REMARK       I    between atoms: N3_11  and  C6_13 
REMARK    5  A    between atoms: C6_13  and  C7_15 
REMARK    6  A    between atoms: C7_15  and  C8_16 
REMARK    7  A    between atoms: C8_16  and  C9_17 
ROOT
HETATM    1  C5  UNL     1      36.129  22.304  22.868  1.00  0.00     0.033 C 
HETATM    2  N2  UNL     1      36.319  22.834  23.975  1.00  0.00    -0.303 N 
ATOM      3  H2  UNL     1      35.619  23.548  24.180  1.00  0.00     0.186 HD
ENDROOT
BRANCH   2   4
HETATM    4  N3  UNL     1      37.200  22.710  24.959  1.00  0.00    -0.270 N 
HETATM    5  C6  UNL     1      38.522  23.259  24.857  1.00  0.00     0.235 C 
HETATM    6  O2  UNL     1      38.931  23.876  23.863  1.00  0.00    -0.272 OA
ATOM      7  H3  UNL     1      36.931  22.213  25.809  1.00  0.00     0.190 HD
BRANCH   5   8
HETATM    8  C7  UNL     1      39.453  23.073  26.014  1.00  0.00     0.105 C 
BRANCH   8   9
HETATM    9  C8  UNL     1      38.962  23.855  27.200  1.00  0.00     0.014 C 
BRANCH   9  10
HETATM   10  C9  UNL     1      39.481  25.238  27.178  1.00  0.00    -0.014 C 
HETATM   11  C10 UNL     1      39.893  25.735  28.533  1.00  0.00     0.004 C 
HETATM   12  C11 UNL     1      40.034  27.264  28.398  1.00  0.00     0.000 C 
HETATM   13  C12 UNL     1      41.125  27.556  27.418  1.00  0.00     0.000 C 
HETATM   14  C13 UNL     1      40.894  26.886  26.079  1.00  0.00     0.000 C 
HETATM   15  C14 UNL     1      40.696  25.398  26.278  1.00  0.00     0.004 C 
ENDBRANCH   9  10
ENDBRANCH   8   9
ENDBRANCH   5   8
ENDBRANCH   2   4
BRANCH   1  16
HETATM   16  C3  UNL     1      34.921  22.851  22.118  1.00  0.00     0.128 C 
HETATM   17  C4  UNL     1      35.139  24.198  21.527  1.00  0.00     0.038 C 
BRANCH  16  18
HETATM   18  N1  UNL     1      33.766  22.884  22.989  1.00  0.00    -0.352 N 
HETATM   19  C2  UNL     1      32.558  22.216  22.689  1.00  0.00     0.214 C 
HETATM   20  C1  UNL     1      31.414  22.295  23.629  1.00  0.00     0.117 C 
HETATM   21  O1  UNL     1      32.434  21.541  21.618  1.00  0.00    -0.274 OA
ATOM     22  H1  UNL     1      33.827  23.415  23.858  1.00  0.00     0.163 HD
ENDBRANCH  16  18
ENDBRANCH   1  16
BRANCH   1  23
HETATM   23  C15 UNL     1      36.932  21.261  22.240  1.00  0.00    -0.009 C 
HETATM   24  C16 UNL     1      37.429  20.211  23.183  1.00  0.00     0.021 C 
HETATM   25  C17 UNL     1      38.167  21.844  21.525  1.00  0.00     0.021 C 
HETATM   26  C18 UNL     1      36.110  20.508  21.176  1.00  0.00     0.021 C 
ENDBRANCH   1  23
TORSDOF 7
ENDMDL
MODEL 2
REMARK VINA RESULT: -7.933612800      1.757      1.914
REMARK  7 active torsions:
REMARK  status: ('A' for Active; 'I' for Inactive)
REMARK       I    between atoms: C2_2  and  N1_4 
REMARK    1  A    between atoms: N1_4  and  C3_6 
REMARK    2  A    between atoms: C3_6  and  C5_8 
REMARK    3  A    between atoms: C5_8  and  C15_23 
REMARK    4  A    between atoms: N2_9  and  N3_11 
REMARK       I    between atoms: N3_11  and  C6_13 
REMARK    5  A    between atoms: C6_13  and  C7_15 
REMARK    6  A    between atoms: C7_15  and  C8_16 
REMARK    7  A    between atoms: C8_16  and  C9_17 
ROOT
HETATM    1  C5  UNL     1      37.633  22.980  21.881  1.00  0.00     0.033 C 
HETATM    2  N2  UNL     1      38.147  23.679  22.769  1.00  0.00    -0.303 N 
ATOM      3  H2  UNL     1      37.919  24.667  22.655  1.00  0.00     0.186 HD
ENDROOT
BRANCH   2   4
HETATM    4  N3  UNL     1      38.916  23.470  23.830  1.00  0.00    -0.270 N 
HETATM    5  C6  UNL     1      38.355  23.197  25.122  1.00  0.00     0.235 C 
HETATM    6  O2  UNL     1      37.136  23.138  25.339  1.00  0.00    -0.272 OA
ATOM      7  H3  UNL     1      39.930  23.503  23.724  1.00  0.00     0.190 HD
BRANCH   5   8
HETATM    8  C7  UNL     1      39.296  22.973  26.265  1.00  0.00     0.105 C 
BRANCH   8   9
HETATM    9  C8  UNL     1      38.902  23.834  27.432  1.00  0.00     0.014 C 
BRANCH   9  10
HETATM   10  C9  UNL     1      39.446  25.200  27.293  1.00  0.00    -0.014 C 
HETATM   11  C10 UNL     1      39.926  25.778  28.593  1.00  0.00     0.004 C 
HETATM   12  C11 UNL     1      40.090  27.290  28.349  1.00  0.00     0.000 C 
HETATM   13  C12 UNL     1      41.144  27.491  27.306  1.00  0.00     0.000 C 
HETATM   14  C13 UNL     1      40.843  26.738  26.027  1.00  0.00     0.000 C 
HETATM   15  C14 UNL     1      40.624  25.272  26.335  1.00  0.00     0.004 C 
ENDBRANCH   9  10
ENDBRANCH   8   9
ENDBRANCH   5   8
ENDBRANCH   2   4
BRANCH   1  16
HETATM   16  C3  UNL     1      36.812  23.769  20.867  1.00  0.00     0.128 C 
HETATM   17  C4  UNL     1      37.634  24.492  19.861  1.00  0.00     0.038 C 
BRANCH  16  18
HETATM   18  N1  UNL     1      35.945  24.705  21.549  1.00  0.00    -0.352 N 
HETATM   19  C2  UNL     1      34.550  24.513  21.667  1.00  0.00     0.214 C 
HETATM   20  C1  UNL     1      33.722  25.517  22.380  1.00  0.00     0.117 C 
HETATM   21  O1  UNL     1      33.987  23.487  21.170  1.00  0.00    -0.274 OA
ATOM     22  H1  UNL     1      36.359  25.541  21.962  1.00  0.00     0.163 HD
ENDBRANCH  16  18
ENDBRANCH   1  16
BRANCH   1  23
HETATM   23  C15 UNL     1      37.751  21.536  21.716  1.00  0.00    -0.009 C 
HETATM   24  C16 UNL     1      38.455  20.841  22.839  1.00  0.00     0.021 C 
HETATM   25  C17 UNL     1      38.500  21.169  20.420  1.00  0.00     0.021 C 
HETATM   26  C18 UNL     1      36.358  20.882  21.630  1.00  0.00     0.021 C 
ENDBRANCH   1  23
TORSDOF 7
ENDMDL
MODEL 3
REMARK VINA RESULT: -7.921114024      0.619      1.188
REMARK  7 active torsions:
REMARK  status: ('A' for Active; 'I' for Inactive)
REMARK       I    between atoms: C2_2  and  N1_4 
REMARK    1  A    between atoms: N1_4  and  C3_6 
REMARK    2  A    between atoms: C3_6  and  C5_8 
REMARK    3  A    between atoms: C5_8  and  C15_23 
REMARK    4  A    between atoms: N2_9  and  N3_11 
REMARK       I    between atoms: N3_11  and  C6_13 
REMARK    5  A    between atoms: C6_13  and  C7_15 
REMARK    6  A    between atoms: C7_15  and  C8_16 
REMARK    7  A    between atoms: C8_16  and  C9_17 
ROOT
HETATM    1  C5  UNL     1      36.260  21.813  22.491  1.00  0.00     0.033 C 
HETATM    2  N2  UNL     1      36.435  22.385  23.580  1.00  0.00    -0.303 N 
ATOM      3  H2  UNL     1      35.733  23.106  23.747  1.00  0.00     0.186 HD
ENDROOT
BRANCH   2   4
HETATM    4  N3  UNL     1      37.301  22.297  24.581  1.00  0.00    -0.270 N 
HETATM    5  C6  UNL     1      38.545  23.012  24.562  1.00  0.00     0.235 C 
HETATM    6  O2  UNL     1      38.896  23.748  23.629  1.00  0.00    -0.272 OA
ATOM      7  H3  UNL     1      37.076  21.708  25.384  1.00  0.00     0.190 HD
BRANCH   5   8
HETATM    8  C7  UNL     1      39.464  22.856  25.733  1.00  0.00     0.105 C 
BRANCH   8   9
HETATM    9  C8  UNL     1      38.941  23.639  26.905  1.00  0.00     0.014 C 
BRANCH   9  10
HETATM   10  C9  UNL     1      39.812  24.794  27.205  1.00  0.00    -0.014 C 
HETATM   11  C10 UNL     1      39.934  25.754  26.059  1.00  0.00     0.004 C 
HETATM   12  C11 UNL     1      41.139  26.656  26.388  1.00  0.00     0.000 C 
HETATM   13  C12 UNL     1      40.832  27.422  27.635  1.00  0.00     0.000 C 
HETATM   14  C13 UNL     1      40.465  26.518  28.794  1.00  0.00     0.000 C 
HETATM   15  C14 UNL     1      39.323  25.609  28.393  1.00  0.00     0.004 C 
ENDBRANCH   9  10
ENDBRANCH   8   9
ENDBRANCH   5   8
ENDBRANCH   2   4
BRANCH   1  16
HETATM   16  C3  UNL     1      35.064  22.332  21.702  1.00  0.00     0.128 C 
HETATM   17  C4  UNL     1      35.276  23.678  21.105  1.00  0.00     0.038 C 
BRANCH  16  18
HETATM   18  N1  UNL     1      33.885  22.354  22.541  1.00  0.00    -0.352 N 
HETATM   19  C2  UNL     1      32.616  21.922  22.093  1.00  0.00     0.214 C 
HETATM   20  C1  UNL     1      31.450  21.974  23.009  1.00  0.00     0.117 C 
HETATM   21  O1  UNL     1      32.455  21.486  20.909  1.00  0.00    -0.274 OA
ATOM     22  H1  UNL     1      33.974  22.696  23.498  1.00  0.00     0.163 HD
ENDBRANCH  16  18
ENDBRANCH   1  16
BRANCH   1  23
HETATM   23  C15 UNL     1      37.070  20.746  21.915  1.00  0.00    -0.009 C 
HETATM   24  C16 UNL     1      37.367  19.619  22.855  1.00  0.00     0.021 C 
HETATM   25  C17 UNL     1      38.425  21.271  21.401  1.00  0.00     0.021 C 
HETATM   26  C18 UNL     1      36.351  20.105  20.713  1.00  0.00     0.021 C 
ENDBRANCH   1  23
TORSDOF 7
ENDMDL
MODEL 4
REMARK VINA RESULT: -7.724200371      1.765      3.445
REMARK  7 active torsions:
REMARK  status: ('A' for Active; 'I' for Inactive)
REMARK       I    between atoms: C2_2  and  N1_4 
REMARK    1  A    between atoms: N1_4  and  C3_6 
REMARK    2  A    between atoms: C3_6  and  C5_8 
REMARK    3  A    between atoms: C5_8  and  C15_23 
REMARK    4  A    between atoms: N2_9  and  N3_11 
REMARK       I    between atoms: N3_11  and  C6_13 
REMARK    5  A    between atoms: C6_13  and  C7_15 
REMARK    6  A    between atoms: C7_15  and  C8_16 
REMARK    7  A    between atoms: C8_16  and  C9_17 
ROOT
HETATM    1  C5  UNL     1      34.814  22.946  22.560  1.00  0.00     0.033 C 
HETATM    2  N2  UNL     1      35.910  22.759  23.111  1.00  0.00    -0.303 N 
ATOM      3  H2  UNL     1      36.534  22.194  22.534  1.00  0.00     0.186 HD
ENDROOT
BRANCH   2   4
HETATM    4  N3  UNL     1      36.478  23.104  24.259  1.00  0.00    -0.270 N 
HETATM    5  C6  UNL     1      37.899  23.025  24.447  1.00  0.00     0.235 C 
HETATM    6  O2  UNL     1      38.684  22.638  23.570  1.00  0.00    -0.272 OA
ATOM      7  H3  UNL     1      35.891  23.433  25.026  1.00  0.00     0.190 HD
BRANCH   5   8
HETATM    8  C7  UNL     1      38.456  23.434  25.775  1.00  0.00     0.105 C 
BRANCH   8   9
HETATM    9  C8  UNL     1      39.887  23.868  25.621  1.00  0.00     0.014 C 
BRANCH   9  10
HETATM   10  C9  UNL     1      40.242  24.900  26.616  1.00  0.00    -0.014 C 
HETATM   11  C10 UNL     1      40.370  26.272  26.023  1.00  0.00     0.004 C 
HETATM   12  C11 UNL     1      41.099  27.124  27.079  1.00  0.00     0.000 C 
HETATM   13  C12 UNL     1      40.243  27.200  28.303  1.00  0.00     0.000 C 
HETATM   14  C13 UNL     1      39.871  25.831  28.834  1.00  0.00     0.000 C 
HETATM   15  C14 UNL     1      39.220  25.015  27.737  1.00  0.00     0.004 C 
ENDBRANCH   9  10
ENDBRANCH   8   9
ENDBRANCH   5   8
ENDBRANCH   2   4
BRANCH   1  16
HETATM   16  C3  UNL     1      34.688  22.294  21.188  1.00  0.00     0.128 C 
HETATM   17  C4  UNL     1      34.660  20.808  21.230  1.00  0.00     0.038 C 
BRANCH  16  18
HETATM   18  N1  UNL     1      35.763  22.735  20.326  1.00  0.00    -0.352 N 
HETATM   19  C2  UNL     1      35.613  23.775  19.382  1.00  0.00     0.214 C 
HETATM   20  C1  UNL     1      36.760  24.175  18.530  1.00  0.00     0.117 C 
HETATM   21  O1  UNL     1      34.502  24.381  19.249  1.00  0.00    -0.274 OA
ATOM     22  H1  UNL     1      36.671  22.275  20.404  1.00  0.00     0.163 HD
ENDBRANCH  16  18
ENDBRANCH   1  16
BRANCH   1  23
HETATM   23  C15 UNL     1      33.676  23.690  23.089  1.00  0.00    -0.009 C 
HETATM   24  C16 UNL     1      33.470  23.539  24.564  1.00  0.00     0.021 C 
HETATM   25  C17 UNL     1      32.357  23.277  22.407  1.00  0.00     0.021 C 
HETATM   26  C18 UNL     1      33.853  25.201  22.847  1.00  0.00     0.021 C 
ENDBRANCH   1  23
TORSDOF 7
ENDMDL
MODEL 5
REMARK VINA RESULT: -7.694160921      1.381      1.898
REMARK  7 active torsions:
REMARK  status: ('A' for Active; 'I' for Inactive)
REMARK       I    between atoms: C2_2  and  N1_4 
REMARK    1  A    between atoms: N1_4  and  C3_6 
REMARK    2  A    between atoms: C3_6  and  C5_8 
REMARK    3  A    between atoms: C5_8  and  C15_23 
REMARK    4  A    between atoms: N2_9  and  N3_11 
REMARK       I    between atoms: N3_11  and  C6_13 
REMARK    5  A    between atoms: C6_13  and  C7_15 
REMARK    6  A    between atoms: C7_15  and  C8_16 
REMARK    7  A    between atoms: C8_16  and  C9_17 
ROOT
HETATM    1  C5  UNL     1      36.513  23.773  22.259  1.00  0.00     0.033 C 
HETATM    2  N2  UNL     1      36.917  23.950  23.420  1.00  0.00    -0.303 N 
ATOM      3  H2  UNL     1      36.188  24.336  24.021  1.00  0.00     0.186 HD
ENDROOT
BRANCH   2   4
HETATM    4  N3  UNL     1      38.053  23.765  24.080  1.00  0.00    -0.270 N 
HETATM    5  C6  UNL     1      38.068  23.246  25.417  1.00  0.00     0.235 C 
HETATM    6  O2  UNL     1      37.044  22.938  26.043  1.00  0.00    -0.272 OA
ATOM      7  H3  UNL     1      38.936  23.997  23.625  1.00  0.00     0.190 HD
BRANCH   5   8
HETATM    8  C7  UNL     1      39.395  23.068  26.088  1.00  0.00     0.105 C 
BRANCH   8   9
HETATM    9  C8  UNL     1      40.356  24.123  25.615  1.00  0.00     0.014 C 
BRANCH   9  10
HETATM   10  C9  UNL     1      40.540  25.174  26.636  1.00  0.00    -0.014 C 
HETATM   11  C10 UNL     1      40.578  26.558  26.057  1.00  0.00     0.004 C 
HETATM   12  C11 UNL     1      41.147  27.465  27.166  1.00  0.00     0.000 C 
HETATM   13  C12 UNL     1      40.203  27.447  28.325  1.00  0.00     0.000 C 
HETATM   14  C13 UNL     1      39.926  26.044  28.824  1.00  0.00     0.000 C 
HETATM   15  C14 UNL     1      39.435  25.181  27.681  1.00  0.00     0.004 C 
ENDBRANCH   9  10
ENDBRANCH   8   9
ENDBRANCH   5   8
ENDBRANCH   2   4
BRANCH   1  16
HETATM   16  C3  UNL     1      35.060  24.175  22.039  1.00  0.00     0.128 C 
HETATM   17  C4  UNL     1      34.848  25.645  21.960  1.00  0.00     0.038 C 
BRANCH  16  18
HETATM   18  N1  UNL     1      34.225  23.620  23.082  1.00  0.00    -0.352 N 
HETATM   19  C2  UNL     1      32.910  23.160  22.850  1.00  0.00     0.214 C 
HETATM   20  C1  UNL     1      32.111  22.603  23.969  1.00  0.00     0.117 C 
HETATM   21  O1  UNL     1      32.394  23.214  21.689  1.00  0.00    -0.274 OA
ATOM     22  H1  UNL     1      34.604  23.558  24.028  1.00  0.00     0.163 HD
ENDBRANCH  16  18
ENDBRANCH   1  16
BRANCH   1  23
HETATM   23  C15 UNL     1      37.276  23.253  21.130  1.00  0.00    -0.009 C 
HETATM   24  C16 UNL     1      38.158  22.091  21.463  1.00  0.00     0.021 C 
HETATM   25  C17 UNL     1      38.176  24.334  20.502  1.00  0.00     0.021 C 
HETATM   26  C18 UNL     1      36.332  22.753  20.020  1.00  0.00     0.021 C 
ENDBRANCH   1  23
TORSDOF 7
ENDMDL
