MODEL 1
REMARK VINA RESULT: -6.922181474      0.000      0.000
REMARK  8 active torsions:
REMARK  status: ('A' for Active; 'I' for Inactive)
REMARK    1  A    between atoms: O1_2  and  C2_3 
REMARK    2  A    between atoms: C9_10  and  C10_11 
REMARK    3  A    between atoms: C10_11  and  C11_12 
REMARK    4  A    between atoms: C11_12  and  C12_13 
REMARK    5  A    between atoms: C12_13  and  C13_14 
REMARK    6  A    between atoms: C13_14  and  C14_15 
REMARK    7  A    between atoms: C14_15  and  O2_16 
REMARK    8  A    between atoms: C17_20  and  O3_21 
ROOT
HETATM    1  C2  UNL     1      36.958  22.364  21.452  1.00  0.00     0.065 C 
HETATM    2  C3  UNL     1      37.319  23.110  20.143  1.00  0.00     0.043 C 
HETATM    3  C4  UNL     1      38.046  22.135  19.437  1.00  0.00    -0.007 C 
HETATM    4  C5  UNL     1      39.035  22.105  18.402  1.00  0.00     0.005 C 
HETATM    5  C6  UNL     1      39.666  20.745  18.274  1.00  0.00     0.001 C 
HETATM    6  C7  UNL     1      39.232  19.576  19.085  1.00  0.00     0.005 C 
HETATM    7  C8  UNL     1      38.250  19.985  20.166  1.00  0.00    -0.005 C 
HETATM    8  C9  UNL     1      37.848  19.069  21.242  1.00  0.00    -0.004 C 
HETATM    9  C15 UNL     1      36.957  19.881  22.095  1.00  0.00     0.022 C 
HETATM   10  C16 UNL     1      36.278  21.062  21.338  1.00  0.00     0.046 C 
HETATM   11  C17 UNL     1      37.402  20.507  23.357  1.00  0.00     0.123 C 
HETATM   12  C18 UNL     1      38.528  21.475  23.102  1.00  0.00     0.040 C 
HETATM   13  C19 UNL     1      38.413  22.003  21.763  1.00  0.00     0.027 C 
HETATM   14  C20 UNL     1      38.715  21.293  20.556  1.00  0.00     0.001 C 
ENDROOT
BRANCH   8  15
HETATM   15  C10 UNL     1      38.919  18.223  21.741  1.00  0.00     0.005 C 
BRANCH  15  16
HETATM   16  C11 UNL     1      39.120  16.825  21.383  1.00  0.00     0.000 C 
BRANCH  16  17
HETATM   17  C12 UNL     1      37.948  15.885  21.571  1.00  0.00     0.002 C 
BRANCH  17  18
HETATM   18  C13 UNL     1      38.550  14.660  22.243  1.00  0.00     0.026 C 
BRANCH  18  19
HETATM   19  C14 UNL     1      37.486  13.672  22.656  1.00  0.00     0.164 C 
BRANCH  19  20
HETATM   20  O2  UNL     1      37.060  14.040  23.932  1.00  0.00    -0.401 OA
ATOM     21  H2  UNL     1      37.426  13.408  24.540  1.00  0.00     0.209 HD
ENDBRANCH  19  20
ENDBRANCH  18  19
ENDBRANCH  17  18
ENDBRANCH  16  17
ENDBRANCH  15  16
ENDBRANCH   8  15
BRANCH  11  22
HETATM   22  O3  UNL     1      37.491  19.770  24.495  1.00  0.00    -0.395 OA
ATOM     23  H3  UNL     1      37.355  20.177  25.342  1.00  0.00     0.210 HD
ENDBRANCH  11  22
BRANCH   1  24
HETATM   24  O1  UNL     1      36.509  23.246  22.403  1.00  0.00    -0.385 OA
HETATM   25  C1  UNL     1      36.168  24.495  21.965  1.00  0.00     0.202 C 
ENDBRANCH   1  24
TORSDOF 8
ENDMDL
MODEL 2
REMARK VINA RESULT: -6.908209749      2.659      5.817
REMARK  8 active torsions:
REMARK  status: ('A' for Active; 'I' for Inactive)
REMARK    1  A    between atoms: O1_2  and  C2_3 
REMARK    2  A    between atoms: C9_10  and  C10_11 
REMARK    3  A    between atoms: C10_11  and  C11_12 
REMARK    4  A    between atoms: C11_12  and  C12_13 
REMARK    5  A    between atoms: C12_13  and  C13_14 
REMARK    6  A    between atoms: C13_14  and  C14_15 
REMARK    7  A    between atoms: C14_15  and  O2_16 
REMARK    8  A    between atoms: C17_20  and  O3_21 
ROOT
HETATM    1  C2  UNL     1      37.340  20.216  20.005  1.00  0.00     0.065 C 
HETATM    2  C3  UNL     1      37.292  21.109  18.739  1.00  0.00     0.043 C 
HETATM    3  C4  UNL     1      37.693  22.359  19.242  1.00  0.00    -0.007 C 
HETATM    4  C5  UNL     1      37.536  23.736  18.884  1.00  0.00     0.005 C 
HETATM    5  C6  UNL     1      37.948  24.653  20.004  1.00  0.00     0.001 C 
HETATM    6  C7  UNL     1      38.521  24.155  21.283  1.00  0.00     0.005 C 
HETATM    7  C8  UNL     1      38.436  22.644  21.378  1.00  0.00    -0.005 C 
HETATM    8  C9  UNL     1      38.719  21.923  22.627  1.00  0.00    -0.004 C 
HETATM    9  C15 UNL     1      38.452  20.509  22.297  1.00  0.00     0.022 C 
HETATM   10  C16 UNL     1      38.593  20.186  20.780  1.00  0.00     0.046 C 
HETATM   11  C17 UNL     1      37.199  19.820  22.669  1.00  0.00     0.123 C 
HETATM   12  C18 UNL     1      36.011  20.499  22.038  1.00  0.00     0.040 C 
HETATM   13  C19 UNL     1      36.421  21.139  20.810  1.00  0.00     0.027 C 
HETATM   14  C20 UNL     1      37.194  22.341  20.711  1.00  0.00     0.001 C 
ENDROOT
BRANCH   8  15
HETATM   15  C10 UNL     1      38.246  22.594  23.826  1.00  0.00     0.005 C 
BRANCH  15  16
HETATM   16  C11 UNL     1      38.753  22.363  25.173  1.00  0.00     0.000 C 
BRANCH  16  17
HETATM   17  C12 UNL     1      38.836  23.560  26.096  1.00  0.00     0.002 C 
BRANCH  17  18
HETATM   18  C13 UNL     1      40.071  24.315  25.625  1.00  0.00     0.026 C 
BRANCH  18  19
HETATM   19  C14 UNL     1      40.192  25.660  26.300  1.00  0.00     0.164 C 
BRANCH  19  20
HETATM   20  O2  UNL     1      41.545  25.995  26.304  1.00  0.00    -0.401 OA
ATOM     21  H2  UNL     1      41.728  26.404  27.142  1.00  0.00     0.209 HD
ENDBRANCH  19  20
ENDBRANCH  18  19
ENDBRANCH  17  18
ENDBRANCH  16  17
ENDBRANCH  15  16
ENDBRANCH   8  15
BRANCH  11  22
HETATM   22  O3  UNL     1      37.020  19.353  23.932  1.00  0.00    -0.395 OA
ATOM     23  H3  UNL     1      36.401  19.774  24.516  1.00  0.00     0.210 HD
ENDBRANCH  11  22
BRANCH   1  24
HETATM   24  O1  UNL     1      36.690  19.028  19.784  1.00  0.00    -0.385 OA
HETATM   25  C1  UNL     1      37.416  18.036  19.187  1.00  0.00     0.202 C 
ENDBRANCH   1  24
TORSDOF 8
ENDMDL
MODEL 3
REMARK VINA RESULT: -6.840883387      2.778      5.371
REMARK  8 active torsions:
REMARK  status: ('A' for Active; 'I' for Inactive)
REMARK    1  A    between atoms: O1_2  and  C2_3 
REMARK    2  A    between atoms: C9_10  and  C10_11 
REMARK    3  A    between atoms: C10_11  and  C11_12 
REMARK    4  A    between atoms: C11_12  and  C12_13 
REMARK    5  A    between atoms: C12_13  and  C13_14 
REMARK    6  A    between atoms: C13_14  and  C14_15 
REMARK    7  A    between atoms: C14_15  and  O2_16 
REMARK    8  A    between atoms: C17_20  and  O3_21 
ROOT
HETATM    1  C2  UNL     1      37.930  22.375  23.685  1.00  0.00     0.065 C 
HETATM    2  C3  UNL     1      38.395  20.984  24.184  1.00  0.00     0.043 C 
HETATM    3  C4  UNL     1      38.496  20.257  22.985  1.00  0.00    -0.007 C 
HETATM    4  C5  UNL     1      38.457  18.884  22.581  1.00  0.00     0.005 C 
HETATM    5  C6  UNL     1      38.315  18.746  21.089  1.00  0.00     0.001 C 
HETATM    6  C7  UNL     1      38.304  19.915  20.170  1.00  0.00     0.005 C 
HETATM    7  C8  UNL     1      38.242  21.223  20.936  1.00  0.00    -0.005 C 
HETATM    8  C9  UNL     1      37.990  22.507  20.268  1.00  0.00    -0.004 C 
HETATM    9  C15 UNL     1      37.942  23.486  21.373  1.00  0.00     0.022 C 
HETATM   10  C16 UNL     1      38.731  23.035  22.638  1.00  0.00     0.046 C 
HETATM   11  C17 UNL     1      36.677  24.001  21.936  1.00  0.00     0.123 C 
HETATM   12  C18 UNL     1      35.849  22.877  22.502  1.00  0.00     0.040 C 
HETATM   13  C19 UNL     1      36.722  21.810  22.933  1.00  0.00     0.027 C 
HETATM   14  C20 UNL     1      37.417  20.899  22.073  1.00  0.00     0.001 C 
ENDROOT
BRANCH   8  15
HETATM   15  C10 UNL     1      37.025  22.440  19.184  1.00  0.00     0.005 C 
BRANCH  15  16
HETATM   16  C11 UNL     1      37.335  22.612  17.771  1.00  0.00     0.000 C 
BRANCH  16  17
HETATM   17  C12 UNL     1      38.791  22.790  17.398  1.00  0.00     0.002 C 
BRANCH  17  18
HETATM   18  C13 UNL     1      39.222  21.420  16.894  1.00  0.00     0.026 C 
BRANCH  18  19
HETATM   19  C14 UNL     1      40.610  21.063  17.369  1.00  0.00     0.164 C 
BRANCH  19  20
HETATM   20  O2  UNL     1      41.238  22.256  17.726  1.00  0.00    -0.401 OA
ATOM     21  H2  UNL     1      42.167  22.072  17.792  1.00  0.00     0.209 HD
ENDBRANCH  19  20
ENDBRANCH  18  19
ENDBRANCH  17  18
ENDBRANCH  16  17
ENDBRANCH  15  16
ENDBRANCH   8  15
BRANCH  11  22
HETATM   22  O3  UNL     1      35.992  24.986  21.298  1.00  0.00    -0.395 OA
ATOM     23  H3  UNL     1      35.355  25.510  21.769  1.00  0.00     0.210 HD
ENDBRANCH  11  22
BRANCH   1  24
HETATM   24  O1  UNL     1      37.481  23.139  24.732  1.00  0.00    -0.385 OA
HETATM   25  C1  UNL     1      38.253  23.144  25.860  1.00  0.00     0.202 C 
ENDBRANCH   1  24
TORSDOF 8
ENDMDL
MODEL 4
REMARK VINA RESULT: -6.760391314      2.994      5.658
REMARK  8 active torsions:
REMARK  status: ('A' for Active; 'I' for Inactive)
REMARK    1  A    between atoms: O1_2  and  C2_3 
REMARK    2  A    between atoms: C9_10  and  C10_11 
REMARK    3  A    between atoms: C10_11  and  C11_12 
REMARK    4  A    between atoms: C11_12  and  C12_13 
REMARK    5  A    between atoms: C12_13  and  C13_14 
REMARK    6  A    between atoms: C13_14  and  C14_15 
REMARK    7  A    between atoms: C14_15  and  O2_16 
REMARK    8  A    between atoms: C17_20  and  O3_21 
ROOT
HETATM    1  C2  UNL     1      36.216  21.660  20.107  1.00  0.00     0.065 C 
HETATM    2  C3  UNL     1      36.455  20.373  19.279  1.00  0.00     0.043 C 
HETATM    3  C4  UNL     1      37.211  19.585  20.165  1.00  0.00    -0.007 C 
HETATM    4  C5  UNL     1      38.144  18.503  20.077  1.00  0.00     0.005 C 
HETATM    5  C6  UNL     1      38.861  18.279  21.381  1.00  0.00     0.001 C 
HETATM    6  C7  UNL     1      38.553  19.053  22.614  1.00  0.00     0.005 C 
HETATM    7  C8  UNL     1      37.603  20.199  22.325  1.00  0.00    -0.005 C 
HETATM    8  C9  UNL     1      37.322  21.248  23.316  1.00  0.00    -0.004 C 
HETATM    9  C15 UNL     1      36.422  22.181  22.609  1.00  0.00     0.022 C 
HETATM   10  C16 UNL     1      35.624  21.517  21.448  1.00  0.00     0.046 C 
HETATM   11  C17 UNL     1      36.887  23.449  22.010  1.00  0.00     0.123 C 
HETATM   12  C18 UNL     1      37.929  23.187  20.953  1.00  0.00     0.040 C 
HETATM   13  C19 UNL     1      37.707  21.882  20.375  1.00  0.00     0.027 C 
HETATM   14  C20 UNL     1      37.995  20.628  21.006  1.00  0.00     0.001 C 
ENDROOT
BRANCH   8  15
HETATM   15  C10 UNL     1      38.475  21.652  24.104  1.00  0.00     0.005 C 
BRANCH  15  16
HETATM   16  C11 UNL     1      38.433  22.538  25.260  1.00  0.00     0.000 C 
BRANCH  16  17
HETATM   17  C12 UNL     1      39.375  23.723  25.259  1.00  0.00     0.002 C 
BRANCH  17  18
HETATM   18  C13 UNL     1      39.322  24.248  26.687  1.00  0.00     0.026 C 
BRANCH  18  19
HETATM   19  C14 UNL     1      40.035  25.572  26.820  1.00  0.00     0.164 C 
BRANCH  19  20
HETATM   20  O2  UNL     1      40.158  26.100  25.535  1.00  0.00    -0.401 OA
ATOM     21  H2  UNL     1      41.082  26.259  25.387  1.00  0.00     0.209 HD
ENDBRANCH  19  20
ENDBRANCH  18  19
ENDBRANCH  17  18
ENDBRANCH  16  17
ENDBRANCH  15  16
ENDBRANCH   8  15
BRANCH  11  22
HETATM   22  O3  UNL     1      37.088  24.544  22.789  1.00  0.00    -0.395 OA
ATOM     23  H3  UNL     1      36.446  24.792  23.443  1.00  0.00     0.210 HD
ENDBRANCH  11  22
BRANCH   1  24
HETATM   24  O1  UNL     1      35.757  22.673  19.304  1.00  0.00    -0.385 OA
HETATM   25  C1  UNL     1      34.403  22.863  19.274  1.00  0.00     0.202 C 
ENDBRANCH   1  24
TORSDOF 8
ENDMDL
MODEL 5
REMARK VINA RESULT: -6.701653148      3.432      4.511
REMARK  8 active torsions:
REMARK  status: ('A' for Active; 'I' for Inactive)
REMARK    1  A    between atoms: O1_2  and  C2_3 
REMARK    2  A    between atoms: C9_10  and  C10_11 
REMARK    3  A    between atoms: C10_11  and  C11_12 
REMARK    4  A    between atoms: C11_12  and  C12_13 
REMARK    5  A    between atoms: C12_13  and  C13_14 
REMARK    6  A    between atoms: C13_14  and  C14_15 
REMARK    7  A    between atoms: C14_15  and  O2_16 
REMARK    8  A    between atoms: C17_20  and  O3_21 
ROOT
HETATM    1  C2  UNL     1      35.049  23.721  20.084  1.00  0.00     0.065 C 
HETATM    2  C3  UNL     1      35.471  23.941  18.610  1.00  0.00     0.043 C 
HETATM    3  C4  UNL     1      36.660  23.196  18.526  1.00  0.00    -0.007 C 
HETATM    4  C5  UNL     1      37.840  23.186  17.716  1.00  0.00     0.005 C 
HETATM    5  C6  UNL     1      38.920  22.326  18.315  1.00  0.00     0.001 C 
HETATM    6  C7  UNL     1      38.721  21.532  19.558  1.00  0.00     0.005 C 
HETATM    7  C8  UNL     1      37.400  21.867  20.224  1.00  0.00    -0.005 C 
HETATM    8  C9  UNL     1      37.066  21.397  21.576  1.00  0.00    -0.004 C 
HETATM    9  C15 UNL     1      35.747  22.000  21.853  1.00  0.00     0.022 C 
HETATM   10  C16 UNL     1      34.933  22.334  20.568  1.00  0.00     0.046 C 
HETATM   11  C17 UNL     1      35.575  23.212  22.680  1.00  0.00     0.123 C 
HETATM   12  C18 UNL     1      36.311  24.379  22.073  1.00  0.00     0.040 C 
HETATM   13  C19 UNL     1      36.392  24.202  20.642  1.00  0.00     0.027 C 
HETATM   14  C20 UNL     1      37.246  23.276  19.961  1.00  0.00     0.001 C 
ENDROOT
BRANCH   8  15
HETATM   15  C10 UNL     1      38.185  21.398  22.503  1.00  0.00     0.005 C 
BRANCH  15  16
HETATM   16  C11 UNL     1      38.279  20.580  23.705  1.00  0.00     0.000 C 
BRANCH  16  17
HETATM   17  C12 UNL     1      38.913  21.212  24.926  1.00  0.00     0.002 C 
BRANCH  17  18
HETATM   18  C13 UNL     1      38.820  22.709  24.667  1.00  0.00     0.026 C 
BRANCH  18  19
HETATM   19  C14 UNL     1      38.530  23.476  25.935  1.00  0.00     0.164 C 
BRANCH  19  20
HETATM   20  O2  UNL     1      37.355  22.950  26.470  1.00  0.00    -0.401 OA
ATOM     21  H2  UNL     1      37.018  22.324  25.840  1.00  0.00     0.209 HD
ENDBRANCH  19  20
ENDBRANCH  18  19
ENDBRANCH  17  18
ENDBRANCH  16  17
ENDBRANCH  15  16
ENDBRANCH   8  15
BRANCH  11  22
HETATM   22  O3  UNL     1      35.601  23.128  24.036  1.00  0.00    -0.395 OA
ATOM     23  H3  UNL     1      35.059  22.492  24.488  1.00  0.00     0.210 HD
ENDBRANCH  11  22
BRANCH   1  24
HETATM   24  O1  UNL     1      34.074  24.615  20.447  1.00  0.00    -0.385 OA
HETATM   25  C1  UNL     1      32.784  24.163  20.402  1.00  0.00     0.202 C 
ENDBRANCH   1  24
TORSDOF 8
ENDMDL
