MODEL 1
REMARK VINA RESULT: -6.869491074      0.000      0.000
REMARK  6 active torsions:
REMARK  status: ('A' for Active; 'I' for Inactive)
REMARK    1  A    between atoms: C2_2  and  C3_3 
REMARK    2  A    between atoms: C3_3  and  C4_4 
REMARK    3  A    between atoms: C4_4  and  N1_5 
REMARK       I    between atoms: N1_5  and  C5_7 
REMARK       I    between atoms: C5_7  and  N2_9 
REMARK    4  A    between atoms: N2_9  and  C6_11 
REMARK    5  A    between atoms: N3_14  and  C9_15 
REMARK    6  A    between atoms: C9_15  and  C10_16 
ROOT
HETATM    1  C6  UNL     1      38.481  21.594  22.889  1.00  0.00     0.089 C 
HETATM    2  C7  UNL     1      38.431  21.540  21.379  1.00  0.00     0.055 C 
HETATM    3  C8  UNL     1      38.596  20.174  20.921  1.00  0.00     0.274 C 
HETATM    4  N3  UNL     1      37.988  19.068  21.626  1.00  0.00     0.088 N 
HETATM    5  C15 UNL     1      37.549  19.360  22.938  1.00  0.00     0.274 C 
HETATM    6  C16 UNL     1      37.259  20.798  23.292  1.00  0.00     0.055 C 
ENDROOT
BRANCH   1   7
HETATM    7  N2  UNL     1      38.468  22.923  23.403  1.00  0.00    -0.338 N 
HETATM    8  C5  UNL     1      38.981  23.261  24.667  1.00  0.00     0.316 C 
HETATM    9  N1  UNL     1      38.958  24.579  25.170  1.00  0.00    -0.343 N 
HETATM   10  O1  UNL     1      39.472  22.319  25.344  1.00  0.00    -0.247 OA
ATOM     11  H1  UNL     1      38.543  25.309  24.591  1.00  0.00     0.164 HD
ATOM     12  H2  UNL     1      38.068  23.663  22.827  1.00  0.00     0.164 HD
BRANCH   9  13
HETATM   13  C4  UNL     1      39.483  24.947  26.443  1.00  0.00     0.124 C 
BRANCH  13  14
HETATM   14  C3  UNL     1      40.762  25.712  26.329  1.00  0.00     0.019 C 
BRANCH  14  15
HETATM   15  C2  UNL     1      40.532  27.084  26.935  1.00  0.00    -0.003 C 
HETATM   16  C1  UNL     1      40.276  26.891  28.412  1.00  0.00     0.005 C 
ENDBRANCH  14  15
ENDBRANCH  13  14
ENDBRANCH   9  13
ENDBRANCH   1   7
BRANCH   4  17
HETATM   17  C9  UNL     1      38.956  17.971  21.678  1.00  0.00     0.277 C 
BRANCH  17  18
HETATM   18  C10 UNL     1      38.745  16.915  20.696  1.00  0.00     0.023 C 
HETATM   19  C11 UNL     1      38.912  15.579  21.452  1.00  0.00     0.008 C 
HETATM   20  C12 UNL     1      37.537  15.154  21.953  1.00  0.00     0.010 C 
HETATM   21  C13 UNL     1      36.872  14.264  20.897  1.00  0.00     0.074 C 
HETATM   22  S1  UNL     1      37.249  15.122  19.310  1.00  0.00    -0.169 SA
HETATM   23  C14 UNL     1      37.534  16.885  19.848  1.00  0.00     0.080 C 
ENDBRANCH  17  18
ENDBRANCH   4  17
TORSDOF 6
ENDMDL
MODEL 2
REMARK VINA RESULT: -6.776628833      0.833      1.326
REMARK  6 active torsions:
REMARK  status: ('A' for Active; 'I' for Inactive)
REMARK    1  A    between atoms: C2_2  and  C3_3 
REMARK    2  A    between atoms: C3_3  and  C4_4 
REMARK    3  A    between atoms: C4_4  and  N1_5 
REMARK       I    between atoms: N1_5  and  C5_7 
REMARK       I    between atoms: C5_7  and  N2_9 
REMARK    4  A    between atoms: N2_9  and  C6_11 
REMARK    5  A    between atoms: N3_14  and  C9_15 
REMARK    6  A    between atoms: C9_15  and  C10_16 
ROOT
HETATM    1  C6  UNL     1      38.474  21.807  22.924  1.00  0.00     0.089 C 
HETATM    2  C7  UNL     1      38.421  21.756  21.414  1.00  0.00     0.055 C 
HETATM    3  C8  UNL     1      38.506  20.383  20.956  1.00  0.00     0.274 C 
HETATM    4  N3  UNL     1      37.834  19.314  21.660  1.00  0.00     0.088 N 
HETATM    5  C15 UNL     1      37.413  19.631  22.972  1.00  0.00     0.274 C 
HETATM    6  C16 UNL     1      37.208  21.083  23.327  1.00  0.00     0.055 C 
ENDROOT
BRANCH   1   7
HETATM    7  N2  UNL     1      38.539  23.134  23.438  1.00  0.00    -0.338 N 
HETATM    8  C5  UNL     1      39.047  23.438  24.713  1.00  0.00     0.316 C 
HETATM    9  N1  UNL     1      39.102  24.755  25.215  1.00  0.00    -0.343 N 
HETATM   10  O1  UNL     1      39.460  22.466  25.399  1.00  0.00    -0.247 OA
ATOM     11  H1  UNL     1      38.749  25.511  24.628  1.00  0.00     0.164 HD
ATOM     12  H2  UNL     1      38.202  23.898  22.854  1.00  0.00     0.164 HD
BRANCH   9  13
HETATM   13  C4  UNL     1      39.624  25.089  26.499  1.00  0.00     0.124 C 
BRANCH  13  14
HETATM   14  C3  UNL     1      40.904  25.856  26.409  1.00  0.00     0.019 C 
BRANCH  14  15
HETATM   15  C2  UNL     1      40.681  27.201  27.075  1.00  0.00    -0.003 C 
HETATM   16  C1  UNL     1      40.247  26.936  28.498  1.00  0.00     0.005 C 
ENDBRANCH  14  15
ENDBRANCH  13  14
ENDBRANCH   9  13
ENDBRANCH   1   7
BRANCH   4  17
HETATM   17  C9  UNL     1      38.737  18.163  21.712  1.00  0.00     0.277 C 
BRANCH  17  18
HETATM   18  C10 UNL     1      38.129  16.887  21.355  1.00  0.00     0.023 C 
HETATM   19  C11 UNL     1      37.930  16.914  19.824  1.00  0.00     0.008 C 
HETATM   20  C12 UNL     1      39.173  16.307  19.183  1.00  0.00     0.010 C 
HETATM   21  C13 UNL     1      38.959  14.800  19.002  1.00  0.00     0.074 C 
HETATM   22  S1  UNL     1      38.172  14.283  20.586  1.00  0.00    -0.169 SA
HETATM   23  C14 UNL     1      38.729  15.604  21.779  1.00  0.00     0.080 C 
ENDBRANCH  17  18
ENDBRANCH   4  17
TORSDOF 6
ENDMDL
MODEL 3
REMARK VINA RESULT: -6.744008917      1.016      1.106
REMARK  6 active torsions:
REMARK  status: ('A' for Active; 'I' for Inactive)
REMARK    1  A    between atoms: C2_2  and  C3_3 
REMARK    2  A    between atoms: C3_3  and  C4_4 
REMARK    3  A    between atoms: C4_4  and  N1_5 
REMARK       I    between atoms: N1_5  and  C5_7 
REMARK       I    between atoms: C5_7  and  N2_9 
REMARK    4  A    between atoms: N2_9  and  C6_11 
REMARK    5  A    between atoms: N3_14  and  C9_15 
REMARK    6  A    between atoms: C9_15  and  C10_16 
ROOT
HETATM    1  C6  UNL     1      37.940  22.308  23.125  1.00  0.00     0.089 C 
HETATM    2  C7  UNL     1      38.545  22.284  21.740  1.00  0.00     0.055 C 
HETATM    3  C8  UNL     1      38.522  20.936  21.205  1.00  0.00     0.274 C 
HETATM    4  N3  UNL     1      37.396  20.059  21.431  1.00  0.00     0.088 N 
HETATM    5  C15 UNL     1      36.522  20.458  22.468  1.00  0.00     0.274 C 
HETATM    6  C16 UNL     1      36.502  21.913  22.867  1.00  0.00     0.055 C 
ENDROOT
BRANCH   1   7
HETATM    7  N2  UNL     1      38.059  23.573  23.767  1.00  0.00    -0.338 N 
HETATM    8  C5  UNL     1      38.859  23.784  24.904  1.00  0.00     0.316 C 
HETATM    9  N1  UNL     1      38.965  25.040  25.537  1.00  0.00    -0.343 N 
HETATM   10  O1  UNL     1      39.489  22.785  25.340  1.00  0.00    -0.247 OA
ATOM     11  H1  UNL     1      38.430  25.820  25.154  1.00  0.00     0.164 HD
ATOM     12  H2  UNL     1      37.539  24.363  23.385  1.00  0.00     0.164 HD
BRANCH   9  13
HETATM   13  C4  UNL     1      39.779  25.281  26.682  1.00  0.00     0.124 C 
BRANCH  13  14
HETATM   14  C3  UNL     1      41.049  25.990  26.337  1.00  0.00     0.019 C 
BRANCH  14  15
HETATM   15  C2  UNL     1      41.165  27.195  27.252  1.00  0.00    -0.003 C 
HETATM   16  C1  UNL     1      40.275  26.944  28.447  1.00  0.00     0.005 C 
ENDBRANCH  14  15
ENDBRANCH  13  14
ENDBRANCH   9  13
ENDBRANCH   1   7
BRANCH   4  17
HETATM   17  C9  UNL     1      37.911  18.721  21.727  1.00  0.00     0.277 C 
BRANCH  17  18
HETATM   18  C10 UNL     1      38.537  18.039  20.601  1.00  0.00     0.023 C 
HETATM   19  C11 UNL     1      39.324  16.851  21.196  1.00  0.00     0.008 C 
HETATM   20  C12 UNL     1      38.402  15.637  21.199  1.00  0.00     0.010 C 
HETATM   21  C13 UNL     1      38.585  14.866  19.886  1.00  0.00     0.074 C 
HETATM   22  S1  UNL     1      38.653  16.195  18.611  1.00  0.00    -0.169 SA
HETATM   23  C14 UNL     1      37.747  17.604  19.429  1.00  0.00     0.080 C 
ENDBRANCH  17  18
ENDBRANCH   4  17
TORSDOF 6
ENDMDL
MODEL 4
REMARK VINA RESULT: -6.672259550      1.662      2.120
REMARK  6 active torsions:
REMARK  status: ('A' for Active; 'I' for Inactive)
REMARK    1  A    between atoms: C2_2  and  C3_3 
REMARK    2  A    between atoms: C3_3  and  C4_4 
REMARK    3  A    between atoms: C4_4  and  N1_5 
REMARK       I    between atoms: N1_5  and  C5_7 
REMARK       I    between atoms: C5_7  and  N2_9 
REMARK    4  A    between atoms: N2_9  and  C6_11 
REMARK    5  A    between atoms: N3_14  and  C9_15 
REMARK    6  A    between atoms: C9_15  and  C10_16 
ROOT
HETATM    1  C6  UNL     1      38.139  21.419  23.737  1.00  0.00     0.089 C 
HETATM    2  C7  UNL     1      36.886  21.757  22.962  1.00  0.00     0.055 C 
HETATM    3  C8  UNL     1      36.982  21.248  21.608  1.00  0.00     0.274 C 
HETATM    4  N3  UNL     1      37.583  19.963  21.331  1.00  0.00     0.088 N 
HETATM    5  C15 UNL     1      38.366  19.428  22.379  1.00  0.00     0.274 C 
HETATM    6  C16 UNL     1      38.104  19.908  23.785  1.00  0.00     0.055 C 
ENDROOT
BRANCH   1   7
HETATM    7  N2  UNL     1      38.175  22.012  25.032  1.00  0.00    -0.338 N 
HETATM    8  C5  UNL     1      38.819  23.233  25.298  1.00  0.00     0.316 C 
HETATM    9  N1  UNL     1      38.854  23.809  26.586  1.00  0.00    -0.343 N 
HETATM   10  O1  UNL     1      39.373  23.801  24.321  1.00  0.00    -0.247 OA
ATOM     11  H1  UNL     1      38.399  23.309  27.350  1.00  0.00     0.164 HD
ATOM     12  H2  UNL     1      37.712  21.529  25.801  1.00  0.00     0.164 HD
BRANCH   9  13
HETATM   13  C4  UNL     1      39.490  25.051  26.878  1.00  0.00     0.124 C 
BRANCH  13  14
HETATM   14  C3  UNL     1      39.379  25.420  28.322  1.00  0.00     0.019 C 
BRANCH  14  15
HETATM   15  C2  UNL     1      40.220  26.663  28.544  1.00  0.00    -0.003 C 
HETATM   16  C1  UNL     1      41.111  26.830  27.335  1.00  0.00     0.005 C 
ENDBRANCH  14  15
ENDBRANCH  13  14
ENDBRANCH   9  13
ENDBRANCH   1   7
BRANCH   4  17
HETATM   17  C9  UNL     1      38.414  20.096  20.133  1.00  0.00     0.277 C 
BRANCH  17  18
HETATM   18  C10 UNL     1      38.283  19.012  19.168  1.00  0.00     0.023 C 
HETATM   19  C11 UNL     1      39.702  18.440  18.961  1.00  0.00     0.008 C 
HETATM   20  C12 UNL     1      39.895  17.302  19.956  1.00  0.00     0.010 C 
HETATM   21  C13 UNL     1      39.465  15.984  19.301  1.00  0.00     0.074 C 
HETATM   22  S1  UNL     1      37.907  16.428  18.422  1.00  0.00    -0.169 SA
HETATM   23  C14 UNL     1      37.306  17.920  19.367  1.00  0.00     0.080 C 
ENDBRANCH  17  18
ENDBRANCH   4  17
TORSDOF 6
ENDMDL
MODEL 5
REMARK VINA RESULT: -6.566859378      1.553      1.935
REMARK  6 active torsions:
REMARK  status: ('A' for Active; 'I' for Inactive)
REMARK    1  A    between atoms: C2_2  and  C3_3 
REMARK    2  A    between atoms: C3_3  and  C4_4 
REMARK    3  A    between atoms: C4_4  and  N1_5 
REMARK       I    between atoms: N1_5  and  C5_7 
REMARK       I    between atoms: C5_7  and  N2_9 
REMARK    4  A    between atoms: N2_9  and  C6_11 
REMARK    5  A    between atoms: N3_14  and  C9_15 
REMARK    6  A    between atoms: C9_15  and  C10_16 
ROOT
HETATM    1  C6  UNL     1      37.549  22.885  22.820  1.00  0.00     0.089 C 
HETATM    2  C7  UNL     1      38.468  22.846  21.620  1.00  0.00     0.055 C 
HETATM    3  C8  UNL     1      38.254  21.626  20.866  1.00  0.00     0.274 C 
HETATM    4  N3  UNL     1      36.929  21.081  20.680  1.00  0.00     0.088 N 
HETATM    5  C15 UNL     1      35.941  21.593  21.553  1.00  0.00     0.274 C 
HETATM    6  C16 UNL     1      36.176  22.941  22.187  1.00  0.00     0.055 C 
ENDROOT
BRANCH   1   7
HETATM    7  N2  UNL     1      37.804  23.988  23.685  1.00  0.00    -0.338 N 
HETATM    8  C5  UNL     1      38.731  23.937  24.740  1.00  0.00     0.316 C 
HETATM    9  N1  UNL     1      38.972  25.033  25.595  1.00  0.00    -0.343 N 
HETATM   10  O1  UNL     1      39.350  22.850  24.891  1.00  0.00    -0.247 OA
ATOM     11  H1  UNL     1      38.441  25.890  25.441  1.00  0.00     0.164 HD
ATOM     12  H2  UNL     1      37.289  24.854  23.531  1.00  0.00     0.164 HD
BRANCH   9  13
HETATM   13  C4  UNL     1      39.916  25.008  26.663  1.00  0.00     0.124 C 
BRANCH  13  14
HETATM   14  C3  UNL     1      41.090  25.896  26.403  1.00  0.00     0.019 C 
BRANCH  14  15
HETATM   15  C2  UNL     1      40.814  27.230  27.069  1.00  0.00    -0.003 C 
HETATM   16  C1  UNL     1      40.295  26.944  28.460  1.00  0.00     0.005 C 
ENDBRANCH  14  15
ENDBRANCH  13  14
ENDBRANCH   9  13
ENDBRANCH   1   7
BRANCH   4  17
HETATM   17  C9  UNL     1      37.005  19.628  20.842  1.00  0.00     0.277 C 
BRANCH  17  18
HETATM   18  C10 UNL     1      38.316  19.046  20.584  1.00  0.00     0.023 C 
HETATM   19  C11 UNL     1      38.647  18.163  21.807  1.00  0.00     0.008 C 
HETATM   20  C12 UNL     1      38.153  16.752  21.508  1.00  0.00     0.010 C 
HETATM   21  C13 UNL     1      39.284  15.953  20.851  1.00  0.00     0.074 C 
HETATM   22  S1  UNL     1      40.011  17.144  19.647  1.00  0.00    -0.169 SA
HETATM   23  C14 UNL     1      38.604  18.324  19.327  1.00  0.00     0.080 C 
ENDBRANCH  17  18
ENDBRANCH   4  17
TORSDOF 6
ENDMDL
