MODEL 1
REMARK VINA RESULT: -7.850292723      0.000      0.000
REMARK  6 active torsions:
REMARK  status: ('A' for Active; 'I' for Inactive)
REMARK    1  A    between atoms: C1_2  and  C2_3 
REMARK       I    between atoms: C1_2  and  N1_16 
REMARK    2  A    between atoms: C2_3  and  C3_4 
REMARK    3  A    between atoms: C3_4  and  C4_5 
REMARK    4  A    between atoms: C7_8  and  C8_9 
REMARK    5  A    between atoms: C8_9  and  C9_11 
REMARK    6  A    between atoms: N1_16  and  C12_18 
ROOT
HETATM    1  C3  UNL     1      38.494  21.532  23.004  1.00  0.00     0.014 C 
ENDROOT
BRANCH   1   2
HETATM    2  C2  UNL     1      38.820  21.646  24.459  1.00  0.00     0.103 C 
BRANCH   2   3
HETATM    3  C1  UNL     1      38.835  23.099  24.823  1.00  0.00     0.217 C 
HETATM    4  O1  UNL     1      38.238  23.909  24.080  1.00  0.00    -0.274 OA
HETATM    5  N1  UNL     1      39.525  23.491  25.991  1.00  0.00    -0.356 N 
ATOM      6  H1  UNL     1      39.996  22.793  26.566  1.00  0.00     0.162 HD
BRANCH   5   7
HETATM    7  C12 UNL     1      39.558  24.881  26.367  1.00  0.00     0.084 C 
HETATM    8  C13 UNL     1      39.404  24.954  27.868  1.00  0.00     0.025 C 
HETATM    9  C14 UNL     1      39.731  26.315  28.418  1.00  0.00     0.002 C 
HETATM   10  C15 UNL     1      41.063  26.828  27.917  1.00  0.00     0.000 C 
HETATM   11  C16 UNL     1      40.947  26.917  26.400  1.00  0.00     0.002 C 
HETATM   12  C17 UNL     1      40.856  25.497  25.890  1.00  0.00     0.025 C 
ENDBRANCH   5   7
ENDBRANCH   2   3
ENDBRANCH   1   2
BRANCH   1  13
HETATM   13  C4  UNL     1      37.339  20.636  22.704  1.00  0.00    -0.014 C 
HETATM   14  C5  UNL     1      37.378  19.278  23.310  1.00  0.00     0.005 C 
HETATM   15  C6  UNL     1      38.019  18.207  22.516  1.00  0.00     0.013 C 
HETATM   16  C7  UNL     1      38.965  18.659  21.451  1.00  0.00     0.067 C 
HETATM   17  C10 UNL     1      38.512  19.885  20.712  1.00  0.00     0.013 C 
HETATM   18  C11 UNL     1      37.227  20.447  21.200  1.00  0.00     0.005 C 
BRANCH  16  19
HETATM   19  C8  UNL     1      39.275  17.586  20.487  1.00  0.00     0.229 C 
HETATM   20  O2  UNL     1      40.391  17.614  19.904  1.00  0.00    -0.285 OA
BRANCH  19  21
HETATM   21  C9  UNL     1      38.399  16.482  20.144  1.00  0.00     0.247 C 
HETATM   22  O3  UNL     1      37.450  16.694  19.352  1.00  0.00    -0.642 OA
HETATM   23  O4  UNL     1      38.568  15.203  20.656  1.00  0.00    -0.642 OA
ENDBRANCH  19  21
ENDBRANCH  16  19
ENDBRANCH   1  13
TORSDOF 6
ENDMDL
MODEL 2
REMARK VINA RESULT: -7.828800420      1.218      1.899
REMARK  6 active torsions:
REMARK  status: ('A' for Active; 'I' for Inactive)
REMARK    1  A    between atoms: C1_2  and  C2_3 
REMARK       I    between atoms: C1_2  and  N1_16 
REMARK    2  A    between atoms: C2_3  and  C3_4 
REMARK    3  A    between atoms: C3_4  and  C4_5 
REMARK    4  A    between atoms: C7_8  and  C8_9 
REMARK    5  A    between atoms: C8_9  and  C9_11 
REMARK    6  A    between atoms: N1_16  and  C12_18 
ROOT
HETATM    1  C3  UNL     1      38.582  21.382  23.342  1.00  0.00     0.014 C 
ENDROOT
BRANCH   1   2
HETATM    2  C2  UNL     1      38.693  21.610  24.815  1.00  0.00     0.103 C 
BRANCH   2   3
HETATM    3  C1  UNL     1      38.795  23.085  25.055  1.00  0.00     0.217 C 
HETATM    4  O1  UNL     1      38.297  23.865  24.214  1.00  0.00    -0.274 OA
HETATM    5  N1  UNL     1      39.452  23.531  26.223  1.00  0.00    -0.356 N 
ATOM      6  H1  UNL     1      39.842  22.856  26.881  1.00  0.00     0.162 HD
BRANCH   5   7
HETATM    7  C12 UNL     1      39.567  24.944  26.481  1.00  0.00     0.084 C 
HETATM    8  C13 UNL     1      39.511  25.143  27.977  1.00  0.00     0.025 C 
HETATM    9  C14 UNL     1      39.929  26.527  28.393  1.00  0.00     0.002 C 
HETATM   10  C15 UNL     1      41.247  26.934  27.774  1.00  0.00     0.000 C 
HETATM   11  C16 UNL     1      41.040  26.908  26.264  1.00  0.00     0.002 C 
HETATM   12  C17 UNL     1      40.858  25.457  25.878  1.00  0.00     0.025 C 
ENDBRANCH   5   7
ENDBRANCH   2   3
ENDBRANCH   1   2
BRANCH   1  13
HETATM   13  C4  UNL     1      37.504  20.428  22.949  1.00  0.00    -0.014 C 
HETATM   14  C5  UNL     1      37.872  18.986  22.922  1.00  0.00     0.005 C 
HETATM   15  C6  UNL     1      38.388  18.450  21.643  1.00  0.00     0.013 C 
HETATM   16  C7  UNL     1      38.939  19.457  20.686  1.00  0.00     0.067 C 
HETATM   17  C10 UNL     1      38.155  20.736  20.628  1.00  0.00     0.013 C 
HETATM   18  C11 UNL     1      37.000  20.783  21.560  1.00  0.00     0.005 C 
BRANCH  16  19
HETATM   19  C8  UNL     1      39.092  18.907  19.326  1.00  0.00     0.229 C 
HETATM   20  O2  UNL     1      38.189  18.145  18.887  1.00  0.00    -0.285 OA
BRANCH  19  21
HETATM   21  C9  UNL     1      40.204  19.165  18.431  1.00  0.00     0.247 C 
HETATM   22  O3  UNL     1      40.537  18.273  17.616  1.00  0.00    -0.642 OA
HETATM   23  O4  UNL     1      40.913  20.359  18.442  1.00  0.00    -0.642 OA
ENDBRANCH  19  21
ENDBRANCH  16  19
ENDBRANCH   1  13
TORSDOF 6
ENDMDL
MODEL 3
REMARK VINA RESULT: -7.816577094      3.690      5.112
REMARK  6 active torsions:
REMARK  status: ('A' for Active; 'I' for Inactive)
REMARK    1  A    between atoms: C1_2  and  C2_3 
REMARK       I    between atoms: C1_2  and  N1_16 
REMARK    2  A    between atoms: C2_3  and  C3_4 
REMARK    3  A    between atoms: C3_4  and  C4_5 
REMARK    4  A    between atoms: C7_8  and  C8_9 
REMARK    5  A    between atoms: C8_9  and  C9_11 
REMARK    6  A    between atoms: N1_16  and  C12_18 
ROOT
HETATM    1  C3  UNL     1      37.766  21.063  23.725  1.00  0.00     0.014 C 
ENDROOT
BRANCH   1   2
HETATM    2  C2  UNL     1      38.966  21.454  24.527  1.00  0.00     0.103 C 
BRANCH   2   3
HETATM    3  C1  UNL     1      38.674  22.760  25.201  1.00  0.00     0.217 C 
HETATM    4  O1  UNL     1      37.481  23.102  25.353  1.00  0.00    -0.274 OA
HETATM    5  N1  UNL     1      39.762  23.548  25.636  1.00  0.00    -0.356 N 
ATOM      6  H1  UNL     1      40.718  23.226  25.490  1.00  0.00     0.162 HD
BRANCH   5   7
HETATM    7  C12 UNL     1      39.513  24.809  26.288  1.00  0.00     0.084 C 
HETATM    8  C13 UNL     1      39.234  24.525  27.744  1.00  0.00     0.025 C 
HETATM    9  C14 UNL     1      39.266  25.767  28.593  1.00  0.00     0.002 C 
HETATM   10  C15 UNL     1      40.517  26.584  28.360  1.00  0.00     0.000 C 
HETATM   11  C16 UNL     1      40.504  26.984  26.890  1.00  0.00     0.002 C 
HETATM   12  C17 UNL     1      40.711  25.715  26.095  1.00  0.00     0.025 C 
ENDBRANCH   5   7
ENDBRANCH   2   3
ENDBRANCH   1   2
BRANCH   1  13
HETATM   13  C4  UNL     1      37.933  21.231  22.252  1.00  0.00    -0.014 C 
HETATM   14  C5  UNL     1      38.526  22.517  21.794  1.00  0.00     0.005 C 
HETATM   15  C6  UNL     1      37.586  23.622  21.502  1.00  0.00     0.013 C 
HETATM   16  C7  UNL     1      36.237  23.518  22.137  1.00  0.00     0.067 C 
HETATM   17  C10 UNL     1      35.676  22.126  22.154  1.00  0.00     0.013 C 
HETATM   18  C11 UNL     1      36.579  21.100  21.574  1.00  0.00     0.005 C 
BRANCH  16  19
HETATM   19  C8  UNL     1      35.260  24.439  21.524  1.00  0.00     0.229 C 
HETATM   20  O2  UNL     1      35.227  24.520  20.267  1.00  0.00    -0.285 OA
BRANCH  19  21
HETATM   21  C9  UNL     1      34.319  25.274  22.246  1.00  0.00     0.247 C 
HETATM   22  O3  UNL     1      34.467  26.517  22.204  1.00  0.00    -0.642 OA
HETATM   23  O4  UNL     1      33.263  24.751  22.980  1.00  0.00    -0.642 OA
ENDBRANCH  19  21
ENDBRANCH  16  19
ENDBRANCH   1  13
TORSDOF 6
ENDMDL
MODEL 4
REMARK VINA RESULT: -7.805878507      1.590      2.357
REMARK  6 active torsions:
REMARK  status: ('A' for Active; 'I' for Inactive)
REMARK    1  A    between atoms: C1_2  and  C2_3 
REMARK       I    between atoms: C1_2  and  N1_16 
REMARK    2  A    between atoms: C2_3  and  C3_4 
REMARK    3  A    between atoms: C3_4  and  C4_5 
REMARK    4  A    between atoms: C7_8  and  C8_9 
REMARK    5  A    between atoms: C8_9  and  C9_11 
REMARK    6  A    between atoms: N1_16  and  C12_18 
ROOT
HETATM    1  C3  UNL     1      38.538  21.370  23.732  1.00  0.00     0.014 C 
ENDROOT
BRANCH   1   2
HETATM    2  C2  UNL     1      38.061  22.716  24.176  1.00  0.00     0.103 C 
BRANCH   2   3
HETATM    3  C1  UNL     1      38.969  23.199  25.265  1.00  0.00     0.217 C 
HETATM    4  O1  UNL     1      39.577  22.353  25.958  1.00  0.00    -0.274 OA
HETATM    5  N1  UNL     1      39.099  24.591  25.462  1.00  0.00    -0.356 N 
ATOM      6  H1  UNL     1      38.583  25.243  24.871  1.00  0.00     0.162 HD
BRANCH   5   7
HETATM    7  C12 UNL     1      39.965  25.087  26.502  1.00  0.00     0.084 C 
HETATM    8  C13 UNL     1      40.513  26.418  26.047  1.00  0.00     0.025 C 
HETATM    9  C14 UNL     1      41.177  27.182  27.160  1.00  0.00     0.002 C 
HETATM   10  C15 UNL     1      40.303  27.271  28.391  1.00  0.00     0.000 C 
HETATM   11  C16 UNL     1      40.053  25.839  28.848  1.00  0.00     0.002 C 
HETATM   12  C17 UNL     1      39.181  25.196  27.793  1.00  0.00     0.025 C 
ENDBRANCH   5   7
ENDBRANCH   2   3
ENDBRANCH   1   2
BRANCH   1  13
HETATM   13  C4  UNL     1      37.454  20.468  23.243  1.00  0.00    -0.014 C 
HETATM   14  C5  UNL     1      37.826  19.044  23.025  1.00  0.00     0.005 C 
HETATM   15  C6  UNL     1      38.317  18.678  21.678  1.00  0.00     0.013 C 
HETATM   16  C7  UNL     1      38.844  19.802  20.846  1.00  0.00     0.067 C 
HETATM   17  C10 UNL     1      38.056  21.073  20.967  1.00  0.00     0.013 C 
HETATM   18  C11 UNL     1      36.920  20.995  21.921  1.00  0.00     0.005 C 
BRANCH  16  19
HETATM   19  C8  UNL     1      38.970  19.431  19.423  1.00  0.00     0.229 C 
HETATM   20  O2  UNL     1      37.952  18.978  18.834  1.00  0.00    -0.285 OA
BRANCH  19  21
HETATM   21  C9  UNL     1      40.177  19.540  18.626  1.00  0.00     0.247 C 
HETATM   22  O3  UNL     1      40.635  20.681  18.385  1.00  0.00    -0.642 OA
HETATM   23  O4  UNL     1      40.844  18.432  18.120  1.00  0.00    -0.642 OA
ENDBRANCH  19  21
ENDBRANCH  16  19
ENDBRANCH   1  13
TORSDOF 6
ENDMDL
MODEL 5
REMARK VINA RESULT: -7.762047908      2.016      2.808
REMARK  6 active torsions:
REMARK  status: ('A' for Active; 'I' for Inactive)
REMARK    1  A    between atoms: C1_2  and  C2_3 
REMARK       I    between atoms: C1_2  and  N1_16 
REMARK    2  A    between atoms: C2_3  and  C3_4 
REMARK    3  A    between atoms: C3_4  and  C4_5 
REMARK    4  A    between atoms: C7_8  and  C8_9 
REMARK    5  A    between atoms: C8_9  and  C9_11 
REMARK    6  A    between atoms: N1_16  and  C12_18 
ROOT
HETATM    1  C3  UNL     1      38.746  21.395  23.246  1.00  0.00     0.014 C 
ENDROOT
BRANCH   1   2
HETATM    2  C2  UNL     1      38.549  21.628  24.710  1.00  0.00     0.103 C 
BRANCH   2   3
HETATM    3  C1  UNL     1      38.711  23.093  24.977  1.00  0.00     0.217 C 
HETATM    4  O1  UNL     1      38.300  23.907  24.121  1.00  0.00    -0.274 OA
HETATM    5  N1  UNL     1      39.320  23.492  26.187  1.00  0.00    -0.356 N 
ATOM      6  H1  UNL     1      39.638  22.790  26.855  1.00  0.00     0.162 HD
BRANCH   5   7
HETATM    7  C12 UNL     1      39.490  24.894  26.472  1.00  0.00     0.084 C 
HETATM    8  C13 UNL     1      39.456  25.063  27.972  1.00  0.00     0.025 C 
HETATM    9  C14 UNL     1      39.929  26.422  28.412  1.00  0.00     0.002 C 
HETATM   10  C15 UNL     1      41.255  26.794  27.786  1.00  0.00     0.000 C 
HETATM   11  C16 UNL     1      41.032  26.807  26.279  1.00  0.00     0.002 C 
HETATM   12  C17 UNL     1      40.792  25.372  25.866  1.00  0.00     0.025 C 
ENDBRANCH   5   7
ENDBRANCH   2   3
ENDBRANCH   1   2
BRANCH   1  13
HETATM   13  C4  UNL     1      37.714  20.517  22.622  1.00  0.00    -0.014 C 
HETATM   14  C5  UNL     1      38.203  19.256  22.002  1.00  0.00     0.005 C 
HETATM   15  C6  UNL     1      38.577  19.313  20.571  1.00  0.00     0.013 C 
HETATM   16  C7  UNL     1      38.891  20.671  20.031  1.00  0.00     0.067 C 
HETATM   17  C10 UNL     1      37.995  21.757  20.550  1.00  0.00     0.013 C 
HETATM   18  C11 UNL     1      36.986  21.292  21.535  1.00  0.00     0.005 C 
BRANCH  16  19
HETATM   19  C8  UNL     1      38.897  20.695  18.555  1.00  0.00     0.229 C 
HETATM   20  O2  UNL     1      38.034  20.008  17.946  1.00  0.00    -0.285 OA
BRANCH  19  21
HETATM   21  C9  UNL     1      39.818  21.449  17.727  1.00  0.00     0.247 C 
HETATM   22  O3  UNL     1      39.353  22.148  16.797  1.00  0.00    -0.642 OA
HETATM   23  O4  UNL     1      41.193  21.427  17.923  1.00  0.00    -0.642 OA
ENDBRANCH  19  21
ENDBRANCH  16  19
ENDBRANCH   1  13
TORSDOF 6
ENDMDL
