MODEL 1
REMARK VINA RESULT: -7.011267639      0.000      0.000
REMARK  9 active torsions:
REMARK  status: ('A' for Active; 'I' for Inactive)
REMARK    1  A    between atoms: C2_2  and  C4_4 
REMARK    2  A    between atoms: C4_4  and  C5_5 
REMARK    3  A    between atoms: C5_5  and  N1_6 
REMARK       I    between atoms: N1_6  and  C6_8 
REMARK    4  A    between atoms: N3_11  and  C7_13 
REMARK    5  A    between atoms: C7_13  and  C10_16 
REMARK       I    between atoms: N4_20  and  C14_21 
REMARK    6  A    between atoms: C14_21  and  C15_23 
REMARK    7  A    between atoms: C15_23  and  N5_24 
REMARK    8  A    between atoms: C15_23  and  C21_32 
REMARK       I    between atoms: N5_24  and  C16_26 
REMARK    9  A    between atoms: C16_26  and  C17_28 
ROOT
HETATM    1  C10 UNL     1      36.410 -20.201  22.781  1.00  0.00     0.019 C 
HETATM    2  C11 UNL     1      35.451 -19.377  22.012  1.00  0.00     0.057 C 
HETATM    3  C12 UNL     1      36.206 -18.069  21.861  1.00  0.00     0.026 C 
HETATM    4  C13 UNL     1      37.558 -18.328  22.559  1.00  0.00     0.132 C 
HETATM    5  N4  UNL     1      37.059 -19.275  23.608  1.00  0.00    -0.321 N 
HETATM    6  C14 UNL     1      37.314 -18.955  24.937  1.00  0.00     0.247 C 
HETATM    7  O2  UNL     1      36.771 -19.633  25.835  1.00  0.00    -0.271 OA
ENDROOT
BRANCH   1   8
HETATM    8  C7  UNL     1      36.045 -21.566  23.209  1.00  0.00     0.061 C 
HETATM    9  C8  UNL     1      36.363 -22.580  22.088  1.00  0.00     0.044 C 
HETATM   10  C9  UNL     1      34.524 -21.575  23.295  1.00  0.00     0.044 C 
BRANCH   8  11
HETATM   11  N3  UNL     1      36.442 -22.069  24.400  1.00  0.00    -0.381 N 
HETATM   12  C4  UNL     1      37.260 -22.986  24.987  1.00  0.00     0.004 C 
ATOM     13  H3  UNL     1      35.939 -21.574  25.136  1.00  0.00     0.160 HD
BRANCH  12  14
HETATM   14  C2  UNL     1      37.165 -24.446  24.767  1.00  0.00     0.024 C 
HETATM   15  C1  UNL     1      35.734 -25.007  24.687  1.00  0.00     0.016 C 
HETATM   16  C3  UNL     1      37.817 -25.279  25.853  1.00  0.00     0.016 C 
ENDBRANCH  12  14
BRANCH  12  17
HETATM   17  C5  UNL     1      38.632 -22.464  25.409  1.00  0.00     0.176 C 
BRANCH  17  18
HETATM   18  N1  UNL     1      38.725 -21.817  26.671  1.00  0.00    -0.340 N 
HETATM   19  C6  UNL     1      39.451 -22.204  27.811  1.00  0.00     0.328 C 
HETATM   20  N2  UNL     1      39.421 -21.421  28.983  1.00  0.00    -0.040 NA
HETATM   21  O1  UNL     1      40.146 -23.242  27.841  1.00  0.00    -0.251 OA
ATOM     22  H1  UNL     1      38.192 -20.952  26.762  1.00  0.00     0.164 HD
ENDBRANCH  17  18
ENDBRANCH  12  17
ENDBRANCH   8  11
ENDBRANCH   1   8
BRANCH   6  23
HETATM   23  C15 UNL     1      38.172 -17.882  25.458  1.00  0.00     0.184 C 
BRANCH  23  24
HETATM   24  N5  UNL     1      37.783 -17.644  26.874  1.00  0.00    -0.346 N 
HETATM   25  C16 UNL     1      37.265 -16.421  27.313  1.00  0.00     0.226 C 
HETATM   26  O3  UNL     1      37.128 -15.493  26.472  1.00  0.00    -0.273 OA
ATOM     27  H5  UNL     1      37.897 -18.400  27.549  1.00  0.00     0.163 HD
BRANCH  25  28
HETATM   28  C17 UNL     1      36.868 -16.156  28.713  1.00  0.00     0.030 C 
HETATM   29  C18 UNL     1      35.623 -15.295  28.814  1.00  0.00     0.024 C 
HETATM   30  C19 UNL     1      36.649 -17.401  29.509  1.00  0.00     0.024 C 
HETATM   31  C20 UNL     1      37.969 -15.368  29.433  1.00  0.00     0.024 C 
ENDBRANCH  25  28
ENDBRANCH  23  24
BRANCH  23  32
HETATM   32  C21 UNL     1      39.628 -18.129  25.545  1.00  0.00    -0.022 C 
HETATM   33  C22 UNL     1      40.305 -16.790  25.183  1.00  0.00     0.017 C 
HETATM   34  C23 UNL     1      40.275 -19.149  24.716  1.00  0.00     0.017 C 
HETATM   35  C24 UNL     1      40.024 -18.301  27.026  1.00  0.00     0.017 C 
ENDBRANCH  23  32
ENDBRANCH   6  23
TORSDOF 9
ENDMDL
MODEL 2
REMARK VINA RESULT: -6.848860806      2.137      6.822
REMARK  9 active torsions:
REMARK  status: ('A' for Active; 'I' for Inactive)
REMARK    1  A    between atoms: C2_2  and  C4_4 
REMARK    2  A    between atoms: C4_4  and  C5_5 
REMARK    3  A    between atoms: C5_5  and  N1_6 
REMARK       I    between atoms: N1_6  and  C6_8 
REMARK    4  A    between atoms: N3_11  and  C7_13 
REMARK    5  A    between atoms: C7_13  and  C10_16 
REMARK       I    between atoms: N4_20  and  C14_21 
REMARK    6  A    between atoms: C14_21  and  C15_23 
REMARK    7  A    between atoms: C15_23  and  N5_24 
REMARK    8  A    between atoms: C15_23  and  C21_32 
REMARK       I    between atoms: N5_24  and  C16_26 
REMARK    9  A    between atoms: C16_26  and  C17_28 
ROOT
HETATM    1  C10 UNL     1      39.404 -17.559  25.267  1.00  0.00     0.019 C 
HETATM    2  C11 UNL     1      40.598 -18.338  25.666  1.00  0.00     0.057 C 
HETATM    3  C12 UNL     1      41.000 -18.996  24.358  1.00  0.00     0.026 C 
HETATM    4  C13 UNL     1      39.970 -18.470  23.336  1.00  0.00     0.132 C 
HETATM    5  N4  UNL     1      38.807 -18.347  24.274  1.00  0.00    -0.321 N 
HETATM    6  C14 UNL     1      37.639 -19.023  23.941  1.00  0.00     0.247 C 
HETATM    7  O2  UNL     1      36.714 -19.076  24.779  1.00  0.00    -0.271 OA
ENDROOT
BRANCH   1   8
HETATM    8  C7  UNL     1      38.642 -16.794  26.273  1.00  0.00     0.061 C 
HETATM    9  C8  UNL     1      38.024 -15.533  25.629  1.00  0.00     0.044 C 
HETATM   10  C9  UNL     1      39.682 -16.243  27.242  1.00  0.00     0.044 C 
BRANCH   8  11
HETATM   11  N3  UNL     1      37.729 -17.386  27.076  1.00  0.00    -0.381 N 
HETATM   12  C4  UNL     1      37.559 -18.005  28.277  1.00  0.00     0.004 C 
ATOM     13  H3  UNL     1      36.826 -17.358  26.602  1.00  0.00     0.160 HD
BRANCH  12  14
HETATM   14  C2  UNL     1      38.242 -19.257  28.671  1.00  0.00     0.024 C 
HETATM   15  C1  UNL     1      39.720 -19.102  29.071  1.00  0.00     0.016 C 
HETATM   16  C3  UNL     1      38.274 -20.312  27.582  1.00  0.00     0.016 C 
ENDBRANCH  12  14
BRANCH  12  17
HETATM   17  C5  UNL     1      37.119 -17.097  29.424  1.00  0.00     0.176 C 
BRANCH  17  18
HETATM   18  N1  UNL     1      36.802 -15.748  29.105  1.00  0.00    -0.340 N 
HETATM   19  C6  UNL     1      35.563 -15.091  29.181  1.00  0.00     0.328 C 
HETATM   20  N2  UNL     1      35.444 -13.733  28.820  1.00  0.00    -0.040 NA
HETATM   21  O1  UNL     1      34.522 -15.666  29.565  1.00  0.00    -0.251 OA
ATOM     22  H1  UNL     1      37.582 -15.179  28.776  1.00  0.00     0.164 HD
ENDBRANCH  17  18
ENDBRANCH  12  17
ENDBRANCH   8  11
ENDBRANCH   1   8
BRANCH   6  23
HETATM   23  C15 UNL     1      37.323 -19.715  22.684  1.00  0.00     0.184 C 
BRANCH  23  24
HETATM   24  N5  UNL     1      36.402 -20.837  23.008  1.00  0.00    -0.346 N 
HETATM   25  C16 UNL     1      36.840 -22.163  23.104  1.00  0.00     0.226 C 
HETATM   26  O3  UNL     1      38.060 -22.404  22.904  1.00  0.00    -0.273 OA
ATOM     27  H5  UNL     1      35.416 -20.633  23.167  1.00  0.00     0.163 HD
BRANCH  25  28
HETATM   28  C17 UNL     1      35.948 -23.297  23.426  1.00  0.00     0.030 C 
HETATM   29  C18 UNL     1      36.271 -24.541  22.619  1.00  0.00     0.024 C 
HETATM   30  C19 UNL     1      35.953 -23.657  24.876  1.00  0.00     0.024 C 
HETATM   31  C20 UNL     1      34.499 -22.945  23.070  1.00  0.00     0.024 C 
ENDBRANCH  25  28
ENDBRANCH  23  24
BRANCH  23  32
HETATM   32  C21 UNL     1      36.591 -18.968  21.638  1.00  0.00    -0.022 C 
HETATM   33  C22 UNL     1      36.386 -19.962  20.475  1.00  0.00     0.017 C 
HETATM   34  C23 UNL     1      37.150 -17.753  21.040  1.00  0.00     0.017 C 
HETATM   35  C24 UNL     1      35.142 -18.723  22.112  1.00  0.00     0.017 C 
ENDBRANCH  23  32
ENDBRANCH   6  23
TORSDOF 9
ENDMDL
MODEL 3
REMARK VINA RESULT: -6.716853834      2.049      7.200
REMARK  9 active torsions:
REMARK  status: ('A' for Active; 'I' for Inactive)
REMARK    1  A    between atoms: C2_2  and  C4_4 
REMARK    2  A    between atoms: C4_4  and  C5_5 
REMARK    3  A    between atoms: C5_5  and  N1_6 
REMARK       I    between atoms: N1_6  and  C6_8 
REMARK    4  A    between atoms: N3_11  and  C7_13 
REMARK    5  A    between atoms: C7_13  and  C10_16 
REMARK       I    between atoms: N4_20  and  C14_21 
REMARK    6  A    between atoms: C14_21  and  C15_23 
REMARK    7  A    between atoms: C15_23  and  N5_24 
REMARK    8  A    between atoms: C15_23  and  C21_32 
REMARK       I    between atoms: N5_24  and  C16_26 
REMARK    9  A    between atoms: C16_26  and  C17_28 
ROOT
HETATM    1  C10 UNL     1      39.445 -19.481  25.988  1.00  0.00     0.019 C 
HETATM    2  C11 UNL     1      40.295 -20.645  26.323  1.00  0.00     0.057 C 
HETATM    3  C12 UNL     1      40.624 -21.203  24.950  1.00  0.00     0.026 C 
HETATM    4  C13 UNL     1      39.924 -20.238  23.970  1.00  0.00     0.132 C 
HETATM    5  N4  UNL     1      38.754 -19.890  24.840  1.00  0.00    -0.321 N 
HETATM    6  C14 UNL     1      37.481 -20.107  24.324  1.00  0.00     0.247 C 
HETATM    7  O2  UNL     1      36.495 -19.984  25.080  1.00  0.00    -0.271 OA
ENDROOT
BRANCH   1   8
HETATM    8  C7  UNL     1      38.840 -18.666  27.061  1.00  0.00     0.061 C 
HETATM    9  C8  UNL     1      39.941 -18.098  27.984  1.00  0.00     0.044 C 
HETATM   10  C9  UNL     1      38.086 -19.650  27.947  1.00  0.00     0.044 C 
BRANCH   8  11
HETATM   11  N3  UNL     1      37.930 -17.702  26.796  1.00  0.00    -0.381 N 
HETATM   12  C4  UNL     1      37.419 -16.521  27.241  1.00  0.00     0.004 C 
ATOM     13  H3  UNL     1      37.442 -17.955  25.936  1.00  0.00     0.160 HD
BRANCH  12  14
HETATM   14  C2  UNL     1      36.745 -16.347  28.547  1.00  0.00     0.024 C 
HETATM   15  C1  UNL     1      35.937 -15.047  28.702  1.00  0.00     0.016 C 
HETATM   16  C3  UNL     1      37.691 -16.325  29.732  1.00  0.00     0.016 C 
ENDBRANCH  12  14
BRANCH  12  17
HETATM   17  C5  UNL     1      38.058 -15.266  26.649  1.00  0.00     0.176 C 
BRANCH  17  18
HETATM   18  N1  UNL     1      38.293 -15.252  25.247  1.00  0.00    -0.340 N 
HETATM   19  C6  UNL     1      39.429 -15.678  24.538  1.00  0.00     0.328 C 
HETATM   20  N2  UNL     1      39.476 -15.586  23.131  1.00  0.00    -0.040 NA
HETATM   21  O1  UNL     1      40.436 -16.151  25.107  1.00  0.00    -0.251 OA
ATOM     22  H1  UNL     1      37.533 -14.882  24.677  1.00  0.00     0.164 HD
ENDBRANCH  17  18
ENDBRANCH  12  17
ENDBRANCH   8  11
ENDBRANCH   1   8
BRANCH   6  23
HETATM   23  C15 UNL     1      37.116 -20.476  22.949  1.00  0.00     0.184 C 
BRANCH  23  24
HETATM   24  N5  UNL     1      36.077 -21.538  23.031  1.00  0.00    -0.346 N 
HETATM   25  C16 UNL     1      36.393 -22.901  22.984  1.00  0.00     0.226 C 
HETATM   26  O3  UNL     1      37.603 -23.229  22.866  1.00  0.00    -0.273 OA
ATOM     27  H5  UNL     1      35.100 -21.264  23.125  1.00  0.00     0.163 HD
BRANCH  25  28
HETATM   28  C17 UNL     1      35.383 -23.977  23.065  1.00  0.00     0.030 C 
HETATM   29  C18 UNL     1      35.303 -24.600  24.446  1.00  0.00     0.024 C 
HETATM   30  C19 UNL     1      34.014 -23.533  22.665  1.00  0.00     0.024 C 
HETATM   31  C20 UNL     1      35.761 -25.126  22.121  1.00  0.00     0.024 C 
ENDBRANCH  25  28
ENDBRANCH  23  24
BRANCH  23  32
HETATM   32  C21 UNL     1      36.483 -19.450  22.093  1.00  0.00    -0.022 C 
HETATM   33  C22 UNL     1      37.457 -18.253  22.079  1.00  0.00     0.017 C 
HETATM   34  C23 UNL     1      35.166 -18.898  22.418  1.00  0.00     0.017 C 
HETATM   35  C24 UNL     1      36.528 -19.919  20.623  1.00  0.00     0.017 C 
ENDBRANCH  23  32
ENDBRANCH   6  23
TORSDOF 9
ENDMDL
MODEL 4
REMARK VINA RESULT: -6.712049573      1.936      6.880
REMARK  9 active torsions:
REMARK  status: ('A' for Active; 'I' for Inactive)
REMARK    1  A    between atoms: C2_2  and  C4_4 
REMARK    2  A    between atoms: C4_4  and  C5_5 
REMARK    3  A    between atoms: C5_5  and  N1_6 
REMARK       I    between atoms: N1_6  and  C6_8 
REMARK    4  A    between atoms: N3_11  and  C7_13 
REMARK    5  A    between atoms: C7_13  and  C10_16 
REMARK       I    between atoms: N4_20  and  C14_21 
REMARK    6  A    between atoms: C14_21  and  C15_23 
REMARK    7  A    between atoms: C15_23  and  N5_24 
REMARK    8  A    between atoms: C15_23  and  C21_32 
REMARK       I    between atoms: N5_24  and  C16_26 
REMARK    9  A    between atoms: C16_26  and  C17_28 
ROOT
HETATM    1  C10 UNL     1      39.398 -17.901  25.359  1.00  0.00     0.019 C 
HETATM    2  C11 UNL     1      40.640 -18.589  25.775  1.00  0.00     0.057 C 
HETATM    3  C12 UNL     1      40.945 -19.454  24.566  1.00  0.00     0.026 C 
HETATM    4  C13 UNL     1      39.819 -19.118  23.566  1.00  0.00     0.132 C 
HETATM    5  N4  UNL     1      38.738 -18.850  24.569  1.00  0.00    -0.321 N 
HETATM    6  C14 UNL     1      37.562 -19.584  24.458  1.00  0.00     0.247 C 
HETATM    7  O2  UNL     1      36.713 -19.504  25.372  1.00  0.00    -0.271 OA
ENDROOT
BRANCH   1   8
HETATM    8  C7  UNL     1      38.706 -16.984  26.287  1.00  0.00     0.061 C 
HETATM    9  C8  UNL     1      38.049 -15.827  25.504  1.00  0.00     0.044 C 
HETATM   10  C9  UNL     1      39.809 -16.308  27.092  1.00  0.00     0.044 C 
BRANCH   8  11
HETATM   11  N3  UNL     1      37.847 -17.438  27.228  1.00  0.00    -0.381 N 
HETATM   12  C4  UNL     1      37.764 -17.924  28.497  1.00  0.00     0.004 C 
ATOM     13  H3  UNL     1      36.905 -17.403  26.839  1.00  0.00     0.160 HD
BRANCH  12  14
HETATM   14  C2  UNL     1      38.419 -19.171  28.954  1.00  0.00     0.024 C 
HETATM   15  C1  UNL     1      39.925 -19.054  29.244  1.00  0.00     0.016 C 
HETATM   16  C3  UNL     1      38.331 -20.314  27.961  1.00  0.00     0.016 C 
ENDBRANCH  12  14
BRANCH  12  17
HETATM   17  C5  UNL     1      37.485 -16.883  29.580  1.00  0.00     0.176 C 
BRANCH  17  18
HETATM   18  N1  UNL     1      37.031 -15.605  29.155  1.00  0.00    -0.340 N 
HETATM   19  C6  UNL     1      35.720 -15.101  29.116  1.00  0.00     0.328 C 
HETATM   20  N2  UNL     1      35.465 -13.792  28.660  1.00  0.00    -0.040 NA
HETATM   21  O1  UNL     1      34.733 -15.776  29.477  1.00  0.00    -0.251 OA
ATOM     22  H1  UNL     1      37.758 -14.965  28.834  1.00  0.00     0.164 HD
ENDBRANCH  17  18
ENDBRANCH  12  17
ENDBRANCH   8  11
ENDBRANCH   1   8
BRANCH   6  23
HETATM   23  C15 UNL     1      37.157 -20.481  23.367  1.00  0.00     0.184 C 
BRANCH  23  24
HETATM   24  N5  UNL     1      36.798 -21.791  23.973  1.00  0.00    -0.346 N 
HETATM   25  C16 UNL     1      37.570 -22.943  23.780  1.00  0.00     0.226 C 
HETATM   26  O3  UNL     1      38.603 -22.856  23.065  1.00  0.00    -0.273 OA
ATOM     27  H5  UNL     1      35.960 -21.853  24.550  1.00  0.00     0.163 HD
BRANCH  25  28
HETATM   28  C17 UNL     1      37.239 -24.257  24.371  1.00  0.00     0.030 C 
HETATM   29  C18 UNL     1      35.748 -24.440  24.589  1.00  0.00     0.024 C 
HETATM   30  C19 UNL     1      37.747 -25.409  23.568  1.00  0.00     0.024 C 
HETATM   31  C20 UNL     1      37.872 -24.383  25.762  1.00  0.00     0.024 C 
ENDBRANCH  25  28
ENDBRANCH  23  24
BRANCH  23  32
HETATM   32  C21 UNL     1      35.953 -20.130  22.582  1.00  0.00    -0.022 C 
HETATM   33  C22 UNL     1      36.219 -20.643  21.151  1.00  0.00     0.017 C 
HETATM   34  C23 UNL     1      35.517 -18.739  22.442  1.00  0.00     0.017 C 
HETATM   35  C24 UNL     1      34.779 -21.025  23.032  1.00  0.00     0.017 C 
ENDBRANCH  23  32
ENDBRANCH   6  23
TORSDOF 9
ENDMDL
MODEL 5
REMARK VINA RESULT: -6.651765990      2.038      7.180
REMARK  9 active torsions:
REMARK  status: ('A' for Active; 'I' for Inactive)
REMARK    1  A    between atoms: C2_2  and  C4_4 
REMARK    2  A    between atoms: C4_4  and  C5_5 
REMARK    3  A    between atoms: C5_5  and  N1_6 
REMARK       I    between atoms: N1_6  and  C6_8 
REMARK    4  A    between atoms: N3_11  and  C7_13 
REMARK    5  A    between atoms: C7_13  and  C10_16 
REMARK       I    between atoms: N4_20  and  C14_21 
REMARK    6  A    between atoms: C14_21  and  C15_23 
REMARK    7  A    between atoms: C15_23  and  N5_24 
REMARK    8  A    between atoms: C15_23  and  C21_32 
REMARK       I    between atoms: N5_24  and  C16_26 
REMARK    9  A    between atoms: C16_26  and  C17_28 
ROOT
HETATM    1  C10 UNL     1      39.550 -19.401  26.044  1.00  0.00     0.019 C 
HETATM    2  C11 UNL     1      40.493 -20.497  26.359  1.00  0.00     0.057 C 
HETATM    3  C12 UNL     1      40.851 -21.014  24.977  1.00  0.00     0.026 C 
HETATM    4  C13 UNL     1      40.067 -20.099  24.014  1.00  0.00     0.132 C 
HETATM    5  N4  UNL     1      38.882 -19.852  24.898  1.00  0.00    -0.321 N 
HETATM    6  C14 UNL     1      37.626 -20.164  24.391  1.00  0.00     0.247 C 
HETATM    7  O2  UNL     1      36.640 -20.126  25.158  1.00  0.00    -0.271 OA
ENDROOT
BRANCH   1   8
HETATM    8  C7  UNL     1      38.894 -18.646  27.130  1.00  0.00     0.061 C 
HETATM    9  C8  UNL     1      39.955 -18.035  28.071  1.00  0.00     0.044 C 
HETATM   10  C9  UNL     1      38.194 -19.691  27.990  1.00  0.00     0.044 C 
BRANCH   8  11
HETATM   11  N3  UNL     1      37.931 -17.731  26.880  1.00  0.00    -0.381 N 
HETATM   12  C4  UNL     1      37.369 -16.574  27.330  1.00  0.00     0.004 C 
ATOM     13  H3  UNL     1      37.438 -18.013  26.032  1.00  0.00     0.160 HD
BRANCH  12  14
HETATM   14  C2  UNL     1      36.716 -16.427  28.650  1.00  0.00     0.024 C 
HETATM   15  C1  UNL     1      35.854 -15.164  28.820  1.00  0.00     0.016 C 
HETATM   16  C3  UNL     1      37.684 -16.360  29.815  1.00  0.00     0.016 C 
ENDBRANCH  12  14
BRANCH  12  17
HETATM   17  C5  UNL     1      37.932 -15.292  26.719  1.00  0.00     0.176 C 
BRANCH  17  18
HETATM   18  N1  UNL     1      38.181 -15.291  25.319  1.00  0.00    -0.340 N 
HETATM   19  C6  UNL     1      39.351 -15.653  24.630  1.00  0.00     0.328 C 
HETATM   20  N2  UNL     1      39.408 -15.587  23.223  1.00  0.00    -0.040 NA
HETATM   21  O1  UNL     1      40.381 -16.044  25.220  1.00  0.00    -0.251 OA
ATOM     22  H1  UNL     1      37.403 -14.986  24.734  1.00  0.00     0.164 HD
ENDBRANCH  17  18
ENDBRANCH  12  17
ENDBRANCH   8  11
ENDBRANCH   1   8
BRANCH   6  23
HETATM   23  C15 UNL     1      37.277 -20.548  23.016  1.00  0.00     0.184 C 
BRANCH  23  24
HETATM   24  N5  UNL     1      36.196 -21.567  23.096  1.00  0.00    -0.346 N 
HETATM   25  C16 UNL     1      36.449 -22.939  22.977  1.00  0.00     0.226 C 
HETATM   26  O3  UNL     1      37.637 -23.313  22.795  1.00  0.00    -0.273 OA
ATOM     27  H5  UNL     1      35.237 -21.256  23.243  1.00  0.00     0.163 HD
BRANCH  25  28
HETATM   28  C17 UNL     1      35.396 -23.974  23.054  1.00  0.00     0.030 C 
HETATM   29  C18 UNL     1      34.019 -23.431  22.718  1.00  0.00     0.024 C 
HETATM   30  C19 UNL     1      35.666 -25.156  22.182  1.00  0.00     0.024 C 
HETATM   31  C20 UNL     1      35.285 -24.506  24.488  1.00  0.00     0.024 C 
ENDBRANCH  25  28
ENDBRANCH  23  24
BRANCH  23  32
HETATM   32  C21 UNL     1      36.704 -19.517  22.124  1.00  0.00    -0.022 C 
HETATM   33  C22 UNL     1      36.722 -20.128  20.707  1.00  0.00     0.017 C 
HETATM   34  C23 UNL     1      37.317 -18.192  22.004  1.00  0.00     0.017 C 
HETATM   35  C24 UNL     1      35.191 -19.392  22.403  1.00  0.00     0.017 C 
ENDBRANCH  23  32
ENDBRANCH   6  23
TORSDOF 9
ENDMDL
