MODEL 1
REMARK VINA RESULT: -6.899779079      0.000      0.000
REMARK  9 active torsions:
REMARK  status: ('A' for Active; 'I' for Inactive)
REMARK    1  A    between atoms: C2_2  and  C3_3 
REMARK    2  A    between atoms: C3_3  and  C5_5 
REMARK    3  A    between atoms: C6_8  and  O1_9 
REMARK    4  A    between atoms: C7_11  and  C8_12 
REMARK    5  A    between atoms: C8_12  and  C9_13 
REMARK    6  A    between atoms: C13_20  and  C14_21 
REMARK    7  A    between atoms: C14_21  and  C15_22 
REMARK    8  A    between atoms: C19_29  and  C20_30 
REMARK    9  A    between atoms: C20_30  and  C21_31 
ROOT
HETATM    1  C5  UNL     1      38.145 -20.226  25.669  1.00  0.00     0.179 C 
HETATM    2  N1  UNL     1      38.798 -21.372  25.124  1.00  0.00    -0.359 N 
ATOM      3  H1  UNL     1      38.208 -21.920  24.497  1.00  0.00     0.162 HD
HETATM    4  C6  UNL     1      40.082 -21.891  25.276  1.00  0.00     0.135 C 
HETATM    5  C7  UNL     1      40.741 -22.481  26.467  1.00  0.00     0.159 C 
HETATM    6  N2  UNL     1      39.859 -22.644  27.605  1.00  0.00    -0.347 N 
ATOM      7  H2  UNL     1      38.958 -23.085  27.423  1.00  0.00     0.163 HD
HETATM    8  C12 UNL     1      40.111 -22.259  28.931  1.00  0.00     0.249 C 
HETATM    9  O2  UNL     1      39.565 -22.982  29.821  1.00  0.00    -0.271 OA
HETATM   10  C13 UNL     1      40.919 -21.135  29.410  1.00  0.00     0.277 C 
HETATM   11  N3  UNL     1      40.028 -20.062  29.812  1.00  0.00    -0.060 N 
ATOM     12  H31 UNL     1      40.396 -19.543  30.609  1.00  0.00     0.278 HD
ATOM     13  H32 UNL     1      39.175 -20.418  30.243  1.00  0.00     0.278 HD
HETATM   14  C18 UNL     1      39.737 -19.177  28.668  1.00  0.00     0.262 C 
HETATM   15  C19 UNL     1      38.295 -18.750  28.634  1.00  0.00     0.133 C 
HETATM   16  N4  UNL     1      37.396 -19.762  28.117  1.00  0.00    -0.350 N 
ATOM     17  H4  UNL     1      36.632 -20.009  28.746  1.00  0.00     0.163 HD
HETATM   18  C25 UNL     1      37.396 -20.452  26.921  1.00  0.00     0.241 C 
HETATM   19  O3  UNL     1      36.614 -21.481  26.848  1.00  0.00    -0.271 OA
ENDROOT
BRANCH  15  20
HETATM   20  C20 UNL     1      38.063 -17.416  28.080  1.00  0.00    -0.000 C 
BRANCH  20  21
HETATM   21  C21 UNL     1      37.021 -16.512  28.536  1.00  0.00    -0.000 C 
HETATM   22  C22 UNL     1      36.692 -15.280  28.365  1.00  0.00    -0.088 C 
HETATM   23  C23 UNL     1      35.436 -14.775  29.097  1.00  0.00     0.043 C 
HETATM   24  C24 UNL     1      37.399 -14.256  27.597  1.00  0.00     0.043 C 
ENDBRANCH  20  21
ENDBRANCH  15  20
BRANCH  10  25
HETATM   25  C14 UNL     1      41.987 -21.473  30.381  1.00  0.00     0.046 C 
BRANCH  25  26
HETATM   26  C15 UNL     1      43.344 -21.764  29.909  1.00  0.00    -0.020 C 
HETATM   27  C16 UNL     1      43.655 -20.732  28.797  1.00  0.00     0.009 C 
HETATM   28  C17 UNL     1      44.378 -21.482  30.973  1.00  0.00     0.009 C 
ENDBRANCH  25  26
ENDBRANCH  10  25
BRANCH   1  29
HETATM   29  C3  UNL     1      37.106 -19.620  24.711  1.00  0.00     0.013 C 
HETATM   30  C4  UNL     1      36.957 -20.344  23.426  1.00  0.00     0.012 C 
BRANCH  29  31
HETATM   31  C2  UNL     1      37.178 -18.141  24.599  1.00  0.00     0.002 C 
HETATM   32  C1  UNL     1      38.527 -17.540  24.437  1.00  0.00     0.005 C 
ENDBRANCH  29  31
ENDBRANCH   1  29
BRANCH   4  33
HETATM   33  O1  UNL     1      40.885 -21.890  24.249  1.00  0.00    -0.348 OA
ATOM     34  H1  UNL     1      40.536 -22.126  23.397  1.00  0.00     0.219 HD
ENDBRANCH   4  33
BRANCH   5  35
HETATM   35  C8  UNL     1      41.538 -23.714  26.202  1.00  0.00     0.037 C 
BRANCH  35  36
HETATM   36  C9  UNL     1      42.756 -23.976  26.962  1.00  0.00    -0.020 C 
HETATM   37  C10 UNL     1      44.007 -24.325  26.251  1.00  0.00     0.009 C 
HETATM   38  C11 UNL     1      42.590 -24.978  28.094  1.00  0.00     0.009 C 
ENDBRANCH  35  36
ENDBRANCH   5  35
TORSDOF 9
ENDMDL
MODEL 2
REMARK VINA RESULT: -6.649616694      2.022      7.641
REMARK  9 active torsions:
REMARK  status: ('A' for Active; 'I' for Inactive)
REMARK    1  A    between atoms: C2_2  and  C3_3 
REMARK    2  A    between atoms: C3_3  and  C5_5 
REMARK    3  A    between atoms: C6_8  and  O1_9 
REMARK    4  A    between atoms: C7_11  and  C8_12 
REMARK    5  A    between atoms: C8_12  and  C9_13 
REMARK    6  A    between atoms: C13_20  and  C14_21 
REMARK    7  A    between atoms: C14_21  and  C15_22 
REMARK    8  A    between atoms: C19_29  and  C20_30 
REMARK    9  A    between atoms: C20_30  and  C21_31 
ROOT
HETATM    1  C5  UNL     1      40.874 -21.060  28.930  1.00  0.00     0.179 C 
HETATM    2  N1  UNL     1      39.929 -20.283  29.665  1.00  0.00    -0.359 N 
ATOM      3  H1  UNL     1      39.437 -20.811  30.385  1.00  0.00     0.162 HD
HETATM    4  C6  UNL     1      39.546 -18.945  29.593  1.00  0.00     0.135 C 
HETATM    5  C7  UNL     1      38.835 -18.208  28.521  1.00  0.00     0.159 C 
HETATM    6  N2  UNL     1      38.369 -19.053  27.439  1.00  0.00    -0.347 N 
ATOM      7  H2  UNL     1      37.864 -19.898  27.707  1.00  0.00     0.163 HD
HETATM    8  C12 UNL     1      38.538 -18.835  26.063  1.00  0.00     0.249 C 
HETATM    9  O2  UNL     1      37.609 -19.282  25.322  1.00  0.00    -0.271 OA
HETATM   10  C13 UNL     1      39.646 -18.159  25.382  1.00  0.00     0.277 C 
HETATM   11  N3  UNL     1      40.517 -19.166  24.805  1.00  0.00    -0.060 N 
ATOM     12  H31 UNL     1      40.926 -18.853  23.924  1.00  0.00     0.278 HD
ATOM     13  H32 UNL     1      39.992 -19.966  24.454  1.00  0.00     0.278 HD
HETATM   14  C18 UNL     1      41.551 -19.571  25.776  1.00  0.00     0.262 C 
HETATM   15  C19 UNL     1      41.806 -21.054  25.748  1.00  0.00     0.133 C 
HETATM   16  N4  UNL     1      40.803 -21.833  26.448  1.00  0.00    -0.350 N 
ATOM     17  H4  UNL     1      40.360 -22.556  25.881  1.00  0.00     0.163 HD
HETATM   18  C25 UNL     1      40.343 -21.765  27.748  1.00  0.00     0.241 C 
HETATM   19  O3  UNL     1      39.258 -22.420  28.012  1.00  0.00    -0.271 OA
ENDROOT
BRANCH  15  20
HETATM   20  C20 UNL     1      43.180 -21.447  26.058  1.00  0.00    -0.000 C 
BRANCH  20  21
HETATM   21  C21 UNL     1      43.993 -20.831  27.093  1.00  0.00    -0.000 C 
HETATM   22  C22 UNL     1      44.918 -21.189  27.912  1.00  0.00    -0.088 C 
HETATM   23  C23 UNL     1      45.491 -20.109  28.847  1.00  0.00     0.043 C 
HETATM   24  C24 UNL     1      45.473 -22.525  28.117  1.00  0.00     0.043 C 
ENDBRANCH  20  21
ENDBRANCH  15  20
BRANCH  10  25
HETATM   25  C14 UNL     1      39.268 -17.049  24.476  1.00  0.00     0.046 C 
BRANCH  25  26
HETATM   26  C15 UNL     1      40.271 -16.451  23.589  1.00  0.00    -0.020 C 
HETATM   27  C16 UNL     1      39.533 -16.065  22.284  1.00  0.00     0.009 C 
HETATM   28  C17 UNL     1      40.778 -15.134  24.127  1.00  0.00     0.009 C 
ENDBRANCH  25  26
ENDBRANCH  10  25
BRANCH   1  29
HETATM   29  C3  UNL     1      41.516 -22.173  29.776  1.00  0.00     0.013 C 
HETATM   30  C4  UNL     1      42.508 -21.697  30.770  1.00  0.00     0.012 C 
BRANCH  29  31
HETATM   31  C2  UNL     1      41.926 -23.367  28.995  1.00  0.00     0.002 C 
HETATM   32  C1  UNL     1      42.624 -24.451  29.732  1.00  0.00     0.005 C 
ENDBRANCH  29  31
ENDBRANCH   1  29
BRANCH   4  33
HETATM   33  O1  UNL     1      39.825 -18.158  30.596  1.00  0.00    -0.348 OA
ATOM     34  H1  UNL     1      39.588 -17.241  30.535  1.00  0.00     0.219 HD
ENDBRANCH   4  33
BRANCH   5  35
HETATM   35  C8  UNL     1      37.771 -17.275  28.992  1.00  0.00     0.037 C 
BRANCH  35  36
HETATM   36  C9  UNL     1      37.949 -15.833  28.855  1.00  0.00    -0.020 C 
HETATM   37  C10 UNL     1      36.767 -14.942  28.853  1.00  0.00     0.009 C 
HETATM   38  C11 UNL     1      38.826 -15.414  27.686  1.00  0.00     0.009 C 
ENDBRANCH  35  36
ENDBRANCH   5  35
TORSDOF 9
ENDMDL
MODEL 3
REMARK VINA RESULT: -6.626928517      1.419      1.937
REMARK  9 active torsions:
REMARK  status: ('A' for Active; 'I' for Inactive)
REMARK    1  A    between atoms: C2_2  and  C3_3 
REMARK    2  A    between atoms: C3_3  and  C5_5 
REMARK    3  A    between atoms: C6_8  and  O1_9 
REMARK    4  A    between atoms: C7_11  and  C8_12 
REMARK    5  A    between atoms: C8_12  and  C9_13 
REMARK    6  A    between atoms: C13_20  and  C14_21 
REMARK    7  A    between atoms: C14_21  and  C15_22 
REMARK    8  A    between atoms: C19_29  and  C20_30 
REMARK    9  A    between atoms: C20_30  and  C21_31 
ROOT
HETATM    1  C5  UNL     1      37.420 -20.748  24.818  1.00  0.00     0.179 C 
HETATM    2  N1  UNL     1      38.004 -22.024  24.560  1.00  0.00    -0.359 N 
ATOM      3  H1  UNL     1      37.336 -22.721  24.233  1.00  0.00     0.162 HD
HETATM    4  C6  UNL     1      39.307 -22.506  24.666  1.00  0.00     0.135 C 
HETATM    5  C7  UNL     1      40.156 -22.718  25.863  1.00  0.00     0.159 C 
HETATM    6  N2  UNL     1      39.465 -22.496  27.118  1.00  0.00    -0.347 N 
ATOM      7  H2  UNL     1      38.556 -22.947  27.222  1.00  0.00     0.163 HD
HETATM    8  C12 UNL     1      39.911 -21.728  28.205  1.00  0.00     0.249 C 
HETATM    9  O2  UNL     1      39.526 -22.125  29.347  1.00  0.00    -0.271 OA
HETATM   10  C13 UNL     1      40.760 -20.534  28.182  1.00  0.00     0.277 C 
HETATM   11  N3  UNL     1      39.920 -19.365  28.364  1.00  0.00    -0.060 N 
ATOM     12  H31 UNL     1      40.396 -18.635  28.895  1.00  0.00     0.278 HD
ATOM     13  H32 UNL     1      39.152 -19.547  29.010  1.00  0.00     0.278 HD
HETATM   14  C18 UNL     1      39.436 -18.869  27.062  1.00  0.00     0.262 C 
HETATM   15  C19 UNL     1      37.997 -18.432  27.121  1.00  0.00     0.133 C 
HETATM   16  N4  UNL     1      37.051 -19.529  27.087  1.00  0.00    -0.350 N 
ATOM     17  H4  UNL     1      36.399 -19.548  27.871  1.00  0.00     0.163 HD
HETATM   18  C25 UNL     1      36.879 -20.554  26.178  1.00  0.00     0.241 C 
HETATM   19  O3  UNL     1      36.118 -21.534  26.548  1.00  0.00    -0.271 OA
ENDROOT
BRANCH  15  20
HETATM   20  C20 UNL     1      37.653 -17.329  26.224  1.00  0.00    -0.000 C 
BRANCH  20  21
HETATM   21  C21 UNL     1      37.416 -15.964  26.661  1.00  0.00    -0.000 C 
HETATM   22  C22 UNL     1      36.933 -15.369  27.694  1.00  0.00    -0.088 C 
HETATM   23  C23 UNL     1      36.906 -13.830  27.675  1.00  0.00     0.043 C 
HETATM   24  C24 UNL     1      36.342 -15.970  28.888  1.00  0.00     0.043 C 
ENDBRANCH  20  21
ENDBRANCH  15  20
BRANCH  10  25
HETATM   25  C14 UNL     1      41.973 -20.585  29.033  1.00  0.00     0.046 C 
BRANCH  25  26
HETATM   26  C15 UNL     1      43.289 -20.801  28.423  1.00  0.00    -0.020 C 
HETATM   27  C16 UNL     1      43.585 -22.317  28.538  1.00  0.00     0.009 C 
HETATM   28  C17 UNL     1      43.265 -20.544  26.935  1.00  0.00     0.009 C 
ENDBRANCH  25  26
ENDBRANCH  10  25
BRANCH   1  29
HETATM   29  C3  UNL     1      36.232 -20.438  23.892  1.00  0.00     0.013 C 
HETATM   30  C4  UNL     1      35.875 -21.535  22.960  1.00  0.00     0.012 C 
BRANCH  29  31
HETATM   31  C2  UNL     1      36.275 -19.082  23.288  1.00  0.00     0.002 C 
HETATM   32  C1  UNL     1      35.228 -18.756  22.285  1.00  0.00     0.005 C 
ENDBRANCH  29  31
ENDBRANCH   1  29
BRANCH   4  33
HETATM   33  O1  UNL     1      39.941 -22.845  23.577  1.00  0.00    -0.348 OA
ATOM     34  H1  UNL     1      40.327 -23.711  23.525  1.00  0.00     0.219 HD
ENDBRANCH   4  33
BRANCH   5  35
HETATM   35  C8  UNL     1      40.928 -23.994  25.874  1.00  0.00     0.037 C 
BRANCH  35  36
HETATM   36  C9  UNL     1      40.605 -25.038  26.842  1.00  0.00    -0.020 C 
HETATM   37  C10 UNL     1      41.580 -25.389  27.899  1.00  0.00     0.009 C 
HETATM   38  C11 UNL     1      40.123 -26.342  26.227  1.00  0.00     0.009 C 
ENDBRANCH  35  36
ENDBRANCH   5  35
TORSDOF 9
ENDMDL
MODEL 4
REMARK VINA RESULT: -6.625359111      1.449      1.831
REMARK  9 active torsions:
REMARK  status: ('A' for Active; 'I' for Inactive)
REMARK    1  A    between atoms: C2_2  and  C3_3 
REMARK    2  A    between atoms: C3_3  and  C5_5 
REMARK    3  A    between atoms: C6_8  and  O1_9 
REMARK    4  A    between atoms: C7_11  and  C8_12 
REMARK    5  A    between atoms: C8_12  and  C9_13 
REMARK    6  A    between atoms: C13_20  and  C14_21 
REMARK    7  A    between atoms: C14_21  and  C15_22 
REMARK    8  A    between atoms: C19_29  and  C20_30 
REMARK    9  A    between atoms: C20_30  and  C21_31 
ROOT
HETATM    1  C5  UNL     1      38.870 -18.437  25.786  1.00  0.00     0.179 C 
HETATM    2  N1  UNL     1      39.666 -19.359  25.043  1.00  0.00    -0.359 N 
ATOM      3  H1  UNL     1      39.248 -19.638  24.155  1.00  0.00     0.162 HD
HETATM    4  C6  UNL     1      40.901 -19.955  25.289  1.00  0.00     0.135 C 
HETATM    5  C7  UNL     1      41.301 -20.939  26.324  1.00  0.00     0.159 C 
HETATM    6  N2  UNL     1      40.195 -21.437  27.117  1.00  0.00    -0.347 N 
ATOM      7  H2  UNL     1      39.372 -21.752  26.603  1.00  0.00     0.163 HD
HETATM    8  C12 UNL     1      40.134 -21.533  28.516  1.00  0.00     0.249 C 
HETATM    9  O2  UNL     1      39.429 -22.488  28.967  1.00  0.00    -0.271 OA
HETATM   10  C13 UNL     1      40.777 -20.672  29.512  1.00  0.00     0.277 C 
HETATM   11  N3  UNL     1      39.784 -19.759  30.047  1.00  0.00    -0.060 N 
ATOM     12  H31 UNL     1      39.948 -19.555  31.033  1.00  0.00     0.278 HD
ATOM     13  H32 UNL     1      38.869 -20.202  30.133  1.00  0.00     0.278 HD
HETATM   14  C18 UNL     1      39.723 -18.529  29.235  1.00  0.00     0.262 C 
HETATM   15  C19 UNL     1      38.310 -18.053  29.032  1.00  0.00     0.133 C 
HETATM   16  N4  UNL     1      37.583 -18.792  28.019  1.00  0.00    -0.350 N 
ATOM     17  H4  UNL     1      36.707 -19.202  28.343  1.00  0.00     0.163 HD
HETATM   18  C25 UNL     1      37.871 -19.037  26.691  1.00  0.00     0.241 C 
HETATM   19  O3  UNL     1      37.160 -19.947  26.104  1.00  0.00    -0.271 OA
ENDROOT
BRANCH  15  20
HETATM   20  C20 UNL     1      38.161 -16.602  28.924  1.00  0.00    -0.000 C 
BRANCH  20  21
HETATM   21  C21 UNL     1      36.922 -15.886  29.180  1.00  0.00    -0.000 C 
HETATM   22  C22 UNL     1      36.324 -14.836  28.738  1.00  0.00    -0.088 C 
HETATM   23  C23 UNL     1      34.960 -14.486  29.359  1.00  0.00     0.043 C 
HETATM   24  C24 UNL     1      36.802 -13.878  27.743  1.00  0.00     0.043 C 
ENDBRANCH  20  21
ENDBRANCH  15  20
BRANCH  10  25
HETATM   25  C14 UNL     1      41.614 -21.363  30.521  1.00  0.00     0.046 C 
BRANCH  25  26
HETATM   26  C15 UNL     1      42.768 -22.161  30.096  1.00  0.00    -0.020 C 
HETATM   27  C16 UNL     1      43.934 -21.795  31.047  1.00  0.00     0.009 C 
HETATM   28  C17 UNL     1      42.547 -23.636  30.337  1.00  0.00     0.009 C 
ENDBRANCH  25  26
ENDBRANCH  10  25
BRANCH   1  29
HETATM   29  C3  UNL     1      38.049 -17.498  24.886  1.00  0.00     0.013 C 
HETATM   30  C4  UNL     1      38.108 -17.824  23.440  1.00  0.00     0.012 C 
BRANCH  29  31
HETATM   31  C2  UNL     1      38.198 -16.059  25.218  1.00  0.00     0.002 C 
HETATM   32  C1  UNL     1      39.553 -15.594  25.613  1.00  0.00     0.005 C 
ENDBRANCH  29  31
ENDBRANCH   1  29
BRANCH   4  33
HETATM   33  O1  UNL     1      41.911 -19.642  24.525  1.00  0.00    -0.348 OA
ATOM     34  H1  UNL     1      42.484 -20.336  24.220  1.00  0.00     0.219 HD
ENDBRANCH   4  33
BRANCH   5  35
HETATM   35  C8  UNL     1      42.178 -22.045  25.840  1.00  0.00     0.037 C 
BRANCH  35  36
HETATM   36  C9  UNL     1      43.582 -22.093  26.237  1.00  0.00    -0.020 C 
HETATM   37  C10 UNL     1      44.116 -23.299  26.910  1.00  0.00     0.009 C 
HETATM   38  C11 UNL     1      44.052 -20.889  27.038  1.00  0.00     0.009 C 
ENDBRANCH  35  36
ENDBRANCH   5  35
TORSDOF 9
ENDMDL
MODEL 5
REMARK VINA RESULT: -6.617224882      3.183      7.617
REMARK  9 active torsions:
REMARK  status: ('A' for Active; 'I' for Inactive)
REMARK    1  A    between atoms: C2_2  and  C3_3 
REMARK    2  A    between atoms: C3_3  and  C5_5 
REMARK    3  A    between atoms: C6_8  and  O1_9 
REMARK    4  A    between atoms: C7_11  and  C8_12 
REMARK    5  A    between atoms: C8_12  and  C9_13 
REMARK    6  A    between atoms: C13_20  and  C14_21 
REMARK    7  A    between atoms: C14_21  and  C15_22 
REMARK    8  A    between atoms: C19_29  and  C20_30 
REMARK    9  A    between atoms: C20_30  and  C21_31 
ROOT
HETATM    1  C5  UNL     1      42.355 -25.838  29.059  1.00  0.00     0.179 C 
HETATM    2  N1  UNL     1      43.421 -25.337  29.866  1.00  0.00    -0.359 N 
ATOM      3  H1  UNL     1      43.688 -25.964  30.625  1.00  0.00     0.162 HD
HETATM    4  C6  UNL     1      44.168 -24.162  29.822  1.00  0.00     0.135 C 
HETATM    5  C7  UNL     1      43.758 -22.757  30.059  1.00  0.00     0.159 C 
HETATM    6  N2  UNL     1      42.392 -22.615  30.522  1.00  0.00    -0.347 N 
ATOM      7  H2  UNL     1      42.108 -23.219  31.293  1.00  0.00     0.163 HD
HETATM    8  C12 UNL     1      41.417 -21.736  30.024  1.00  0.00     0.249 C 
HETATM    9  O2  UNL     1      40.568 -21.326  30.873  1.00  0.00    -0.271 OA
HETATM   10  C13 UNL     1      41.261 -21.238  28.654  1.00  0.00     0.277 C 
HETATM   11  N3  UNL     1      40.186 -21.972  28.014  1.00  0.00    -0.060 N 
ATOM     12  H31 UNL     1      39.661 -21.386  27.364  1.00  0.00     0.278 HD
ATOM     13  H32 UNL     1      39.433 -22.188  28.667  1.00  0.00     0.278 HD
HETATM   14  C18 UNL     1      40.708 -23.186  27.359  1.00  0.00     0.262 C 
HETATM   15  C19 UNL     1      39.796 -24.369  27.545  1.00  0.00     0.133 C 
HETATM   16  N4  UNL     1      39.904 -24.991  28.850  1.00  0.00    -0.350 N 
ATOM     17  H4  UNL     1      39.023 -25.057  29.360  1.00  0.00     0.163 HD
HETATM   18  C25 UNL     1      40.992 -25.510  29.522  1.00  0.00     0.241 C 
HETATM   19  O3  UNL     1      40.826 -25.767  30.780  1.00  0.00    -0.271 OA
ENDROOT
BRANCH  15  20
HETATM   20  C20 UNL     1      39.792 -25.321  26.436  1.00  0.00    -0.000 C 
BRANCH  20  21
HETATM   21  C21 UNL     1      38.613 -26.039  25.979  1.00  0.00    -0.000 C 
HETATM   22  C22 UNL     1      38.297 -26.825  25.012  1.00  0.00    -0.088 C 
HETATM   23  C23 UNL     1      36.851 -27.351  24.972  1.00  0.00     0.043 C 
HETATM   24  C24 UNL     1      39.129 -27.254  23.888  1.00  0.00     0.043 C 
ENDBRANCH  20  21
ENDBRANCH  15  20
BRANCH  10  25
HETATM   25  C14 UNL     1      41.203 -19.764  28.504  1.00  0.00     0.046 C 
BRANCH  25  26
HETATM   26  C15 UNL     1      39.949 -19.115  28.112  1.00  0.00    -0.020 C 
HETATM   27  C16 UNL     1      39.495 -18.263  29.323  1.00  0.00     0.009 C 
HETATM   28  C17 UNL     1      40.164 -18.102  27.011  1.00  0.00     0.009 C 
ENDBRANCH  25  26
ENDBRANCH  10  25
BRANCH   1  29
HETATM   29  C3  UNL     1      42.359 -27.372  28.951  1.00  0.00     0.013 C 
HETATM   30  C4  UNL     1      43.669 -28.005  29.237  1.00  0.00     0.012 C 
BRANCH  29  31
HETATM   31  C2  UNL     1      41.650 -27.896  27.757  1.00  0.00     0.002 C 
HETATM   32  C1  UNL     1      42.414 -27.945  26.484  1.00  0.00     0.005 C 
ENDBRANCH  29  31
ENDBRANCH   1  29
BRANCH   4  33
HETATM   33  O1  UNL     1      45.438 -24.237  29.535  1.00  0.00    -0.348 OA
ATOM     34  H1  UNL     1      45.720 -24.018  28.654  1.00  0.00     0.219 HD
ENDBRANCH   4  33
BRANCH   5  35
HETATM   35  C8  UNL     1      44.708 -21.950  30.878  1.00  0.00     0.037 C 
BRANCH  35  36
HETATM   36  C9  UNL     1      45.271 -20.714  30.342  1.00  0.00    -0.020 C 
HETATM   37  C10 UNL     1      45.050 -20.360  28.922  1.00  0.00     0.009 C 
HETATM   38  C11 UNL     1      46.752 -20.522  30.625  1.00  0.00     0.009 C 
ENDBRANCH  35  36
ENDBRANCH   5  35
TORSDOF 9
ENDMDL
