MODEL 1
REMARK VINA RESULT: -6.896145454      0.000      0.000
REMARK  10 active torsions:
REMARK  status: ('A' for Active; 'I' for Inactive)
REMARK    1  A    between atoms: C2_2  and  C3_3 
REMARK    2  A    between atoms: C4_4  and  O1_5 
REMARK    3  A    between atoms: C7_9  and  C8_10 
REMARK    4  A    between atoms: C8_10  and  N1_11 
REMARK    5  A    between atoms: N1_11  and  C9_12 
REMARK       I    between atoms: N1_11  and  C11_14 
REMARK       I    between atoms: C11_14  and  N2_16 
REMARK    6  A    between atoms: N2_16  and  C12_18 
REMARK    7  A    between atoms: N3_22  and  C16_23 
REMARK    8  A    between atoms: C16_23  and  C17_24 
REMARK    9  A    between atoms: C18_25  and  C19_26 
REMARK   10  A    between atoms: C19_26  and  C20_27 
ROOT
HETATM    1  C3  UNL     1      38.057 -20.859  26.344  1.00  0.00     0.252 C 
HETATM    2  C4  UNL     1      37.903 -22.320  26.067  1.00  0.00     0.157 C 
HETATM    3  C5  UNL     1      39.324 -22.816  26.260  1.00  0.00     0.047 C 
HETATM    4  C6  UNL     1      39.181 -24.265  26.686  1.00  0.00     0.015 C 
HETATM    5  C7  UNL     1      39.823 -21.947  27.343  1.00  0.00     0.248 C 
HETATM    6  N3  UNL     1      39.223 -20.689  27.170  1.00  0.00     0.105 N 
ENDROOT
BRANCH   6   7
HETATM    7  C16 UNL     1      38.941 -19.939  28.373  1.00  0.00     0.300 C 
BRANCH   7   8
HETATM    8  C17 UNL     1      38.608 -18.534  28.200  1.00  0.00    -0.001 C 
HETATM    9  C18 UNL     1      38.611 -17.641  29.209  1.00  0.00    -0.027 C 
BRANCH   9  10
HETATM   10  C19 UNL     1      38.266 -16.215  29.004  1.00  0.00     0.052 C 
BRANCH  10  11
HETATM   11  C20 UNL     1      36.995 -16.152  28.173  1.00  0.00     0.088 C 
HETATM   12  C21 UNL     1      37.157 -15.114  27.112  1.00  0.00     0.045 C 
HETATM   13  C22 UNL     1      36.913 -13.711  27.598  1.00  0.00     0.124 C 
HETATM   14  N4  UNL     1      35.565 -13.664  28.130  1.00  0.00    -0.367 N 
HETATM   15  C23 UNL     1      35.199 -14.662  29.071  1.00  0.00     0.167 C 
ATOM     16  H4  UNL     1      34.905 -12.943  27.839  1.00  0.00     0.161 HD
HETATM   17  S1  UNL     1      33.985 -14.356  30.131  1.00  0.00    -0.041 SA
HETATM   18  N5  UNL     1      35.895 -15.895  29.068  1.00  0.00    -0.362 N 
ATOM     19  H5  UNL     1      35.608 -16.625  29.720  1.00  0.00     0.162 HD
ENDBRANCH  10  11
ENDBRANCH   9  10
ENDBRANCH   7   8
ENDBRANCH   6   7
BRANCH   1  20
HETATM   20  C2  UNL     1      38.090 -20.092  25.065  1.00  0.00     0.034 C 
HETATM   21  C1  UNL     1      37.010 -19.050  24.976  1.00  0.00     0.007 C 
ENDBRANCH   1  20
BRANCH   5  22
HETATM   22  C8  UNL     1      41.279 -22.018  27.630  1.00  0.00     0.163 C 
BRANCH  22  23
HETATM   23  N1  UNL     1      41.727 -22.174  28.958  1.00  0.00    -0.333 N 
HETATM   24  C11 UNL     1      43.051 -21.839  29.320  1.00  0.00     0.318 C 
HETATM   25  O2  UNL     1      43.892 -21.393  28.472  1.00  0.00    -0.247 OA
HETATM   26  N2  UNL     1      43.593 -21.953  30.638  1.00  0.00    -0.335 N 
ATOM     27  H2  UNL     1      42.987 -22.300  31.381  1.00  0.00     0.165 HD
BRANCH  23  28
HETATM   28  C9  UNL     1      40.849 -22.674  29.995  1.00  0.00     0.123 C 
HETATM   29  C10 UNL     1      40.949 -24.178  30.144  1.00  0.00     0.026 C 
ENDBRANCH  23  28
BRANCH  26  30
HETATM   30  C12 UNL     1      44.953 -21.603  30.973  1.00  0.00     0.023 C 
HETATM   31  C13 UNL     1      45.316 -20.197  30.576  1.00  0.00     0.037 C 
HETATM   32  C14 UNL     1      45.127 -21.701  32.467  1.00  0.00     0.037 C 
HETATM   33  C15 UNL     1      45.962 -22.531  30.331  1.00  0.00     0.037 C 
ENDBRANCH  26  30
ENDBRANCH  22  23
ENDBRANCH   5  22
BRANCH   2  34
HETATM   34  O1  UNL     1      37.526 -22.642  24.781  1.00  0.00    -0.393 OA
ATOM     35  H1  UNL     1      36.590 -22.643  24.619  1.00  0.00     0.210 HD
ENDBRANCH   2  34
TORSDOF 10
ENDMDL
MODEL 2
REMARK VINA RESULT: -6.887128353      1.711      2.369
REMARK  10 active torsions:
REMARK  status: ('A' for Active; 'I' for Inactive)
REMARK    1  A    between atoms: C2_2  and  C3_3 
REMARK    2  A    between atoms: C4_4  and  O1_5 
REMARK    3  A    between atoms: C7_9  and  C8_10 
REMARK    4  A    between atoms: C8_10  and  N1_11 
REMARK    5  A    between atoms: N1_11  and  C9_12 
REMARK       I    between atoms: N1_11  and  C11_14 
REMARK       I    between atoms: C11_14  and  N2_16 
REMARK    6  A    between atoms: N2_16  and  C12_18 
REMARK    7  A    between atoms: N3_22  and  C16_23 
REMARK    8  A    between atoms: C16_23  and  C17_24 
REMARK    9  A    between atoms: C18_25  and  C19_26 
REMARK   10  A    between atoms: C19_26  and  C20_27 
ROOT
HETATM    1  C3  UNL     1      40.498 -20.329  26.673  1.00  0.00     0.252 C 
HETATM    2  C4  UNL     1      39.965 -21.522  25.947  1.00  0.00     0.157 C 
HETATM    3  C5  UNL     1      40.196 -22.624  26.963  1.00  0.00     0.047 C 
HETATM    4  C6  UNL     1      39.130 -23.663  26.668  1.00  0.00     0.015 C 
HETATM    5  C7  UNL     1      39.978 -21.929  28.247  1.00  0.00     0.248 C 
HETATM    6  N3  UNL     1      40.441 -20.612  28.083  1.00  0.00     0.105 N 
ENDROOT
BRANCH   6   7
HETATM    7  C16 UNL     1      39.739 -19.587  28.822  1.00  0.00     0.300 C 
BRANCH   7   8
HETATM    8  C17 UNL     1      39.111 -18.536  28.038  1.00  0.00    -0.001 C 
HETATM    9  C18 UNL     1      39.264 -17.223  28.300  1.00  0.00    -0.027 C 
BRANCH   9  10
HETATM   10  C19 UNL     1      38.611 -16.173  27.484  1.00  0.00     0.052 C 
BRANCH  10  11
HETATM   11  C20 UNL     1      38.248 -15.020  28.405  1.00  0.00     0.088 C 
HETATM   12  C21 UNL     1      37.359 -15.524  29.492  1.00  0.00     0.045 C 
HETATM   13  C22 UNL     1      35.917 -15.655  29.081  1.00  0.00     0.124 C 
HETATM   14  N4  UNL     1      35.469 -14.345  28.647  1.00  0.00    -0.367 N 
HETATM   15  C23 UNL     1      36.271 -13.663  27.695  1.00  0.00     0.167 C 
ATOM     16  H4  UNL     1      34.611 -13.931  29.012  1.00  0.00     0.161 HD
HETATM   17  S1  UNL     1      35.581 -12.524  26.737  1.00  0.00    -0.041 SA
HETATM   18  N5  UNL     1      37.646 -13.986  27.601  1.00  0.00    -0.362 N 
ATOM     19  H5  UNL     1      38.230 -13.469  26.942  1.00  0.00     0.162 HD
ENDBRANCH  10  11
ENDBRANCH   9  10
ENDBRANCH   7   8
ENDBRANCH   6   7
BRANCH   1  20
HETATM   20  C2  UNL     1      41.859 -19.983  26.170  1.00  0.00     0.034 C 
HETATM   21  C1  UNL     1      42.954 -20.357  27.130  1.00  0.00     0.007 C 
ENDBRANCH   1  20
BRANCH   5  22
HETATM   22  C8  UNL     1      40.349 -22.677  29.475  1.00  0.00     0.163 C 
BRANCH  22  23
HETATM   23  N1  UNL     1      41.660 -23.174  29.625  1.00  0.00    -0.333 N 
HETATM   24  C11 UNL     1      42.675 -22.378  30.203  1.00  0.00     0.318 C 
HETATM   25  O2  UNL     1      42.456 -21.187  30.603  1.00  0.00    -0.247 OA
HETATM   26  N2  UNL     1      44.027 -22.796  30.406  1.00  0.00    -0.335 N 
ATOM     27  H2  UNL     1      44.290 -23.737  30.117  1.00  0.00     0.165 HD
BRANCH  23  28
HETATM   28  C9  UNL     1      42.011 -24.513  29.202  1.00  0.00     0.123 C 
HETATM   29  C10 UNL     1      41.150 -25.562  29.876  1.00  0.00     0.026 C 
ENDBRANCH  23  28
BRANCH  26  30
HETATM   30  C12 UNL     1      45.041 -21.955  30.998  1.00  0.00     0.023 C 
HETATM   31  C13 UNL     1      44.861 -21.769  32.482  1.00  0.00     0.037 C 
HETATM   32  C14 UNL     1      46.388 -22.598  30.791  1.00  0.00     0.037 C 
HETATM   33  C15 UNL     1      45.087 -20.579  30.371  1.00  0.00     0.037 C 
ENDBRANCH  26  30
ENDBRANCH  22  23
ENDBRANCH   5  22
BRANCH   2  34
HETATM   34  O1  UNL     1      40.647 -21.870  24.800  1.00  0.00    -0.393 OA
ATOM     35  H1  UNL     1      40.707 -22.802  24.628  1.00  0.00     0.210 HD
ENDBRANCH   2  34
TORSDOF 10
ENDMDL
MODEL 3
REMARK VINA RESULT: -6.855062012      2.187      3.479
REMARK  10 active torsions:
REMARK  status: ('A' for Active; 'I' for Inactive)
REMARK    1  A    between atoms: C2_2  and  C3_3 
REMARK    2  A    between atoms: C4_4  and  O1_5 
REMARK    3  A    between atoms: C7_9  and  C8_10 
REMARK    4  A    between atoms: C8_10  and  N1_11 
REMARK    5  A    between atoms: N1_11  and  C9_12 
REMARK       I    between atoms: N1_11  and  C11_14 
REMARK       I    between atoms: C11_14  and  N2_16 
REMARK    6  A    between atoms: N2_16  and  C12_18 
REMARK    7  A    between atoms: N3_22  and  C16_23 
REMARK    8  A    between atoms: C16_23  and  C17_24 
REMARK    9  A    between atoms: C18_25  and  C19_26 
REMARK   10  A    between atoms: C19_26  and  C20_27 
ROOT
HETATM    1  C3  UNL     1      40.380 -18.812  25.720  1.00  0.00     0.252 C 
HETATM    2  C4  UNL     1      39.120 -18.604  24.942  1.00  0.00     0.157 C 
HETATM    3  C5  UNL     1      38.365 -19.885  25.241  1.00  0.00     0.047 C 
HETATM    4  C6  UNL     1      36.899 -19.516  25.116  1.00  0.00     0.015 C 
HETATM    5  C7  UNL     1      38.766 -20.178  26.631  1.00  0.00     0.248 C 
HETATM    6  N3  UNL     1      40.097 -19.751  26.773  1.00  0.00     0.105 N 
ENDROOT
BRANCH   6   7
HETATM    7  C16 UNL     1      40.476 -19.248  28.074  1.00  0.00     0.300 C 
BRANCH   7   8
HETATM    8  C17 UNL     1      39.503 -18.410  28.756  1.00  0.00    -0.001 C 
HETATM    9  C18 UNL     1      39.221 -17.147  28.382  1.00  0.00    -0.027 C 
BRANCH   9  10
HETATM   10  C19 UNL     1      38.226 -16.314  29.096  1.00  0.00     0.052 C 
BRANCH  10  11
HETATM   11  C20 UNL     1      36.972 -16.240  28.241  1.00  0.00     0.088 C 
HETATM   12  C21 UNL     1      37.171 -15.219  27.170  1.00  0.00     0.045 C 
HETATM   13  C22 UNL     1      36.942 -13.806  27.633  1.00  0.00     0.124 C 
HETATM   14  N4  UNL     1      35.585 -13.730  28.139  1.00  0.00    -0.367 N 
HETATM   15  C23 UNL     1      35.185 -14.710  29.086  1.00  0.00     0.167 C 
ATOM     16  H4  UNL     1      34.943 -13.001  27.827  1.00  0.00     0.161 HD
HETATM   17  S1  UNL     1      33.956 -14.370  30.119  1.00  0.00    -0.041 SA
HETATM   18  N5  UNL     1      35.859 -15.953  29.111  1.00  0.00    -0.362 N 
ATOM     19  H5  UNL     1      35.548 -16.671  29.767  1.00  0.00     0.162 HD
ENDBRANCH  10  11
ENDBRANCH   9  10
ENDBRANCH   7   8
ENDBRANCH   6   7
BRANCH   1  20
HETATM   20  C2  UNL     1      41.487 -19.225  24.809  1.00  0.00     0.034 C 
HETATM   21  C1  UNL     1      42.278 -20.390  25.336  1.00  0.00     0.007 C 
ENDBRANCH   1  20
BRANCH   5  22
HETATM   22  C8  UNL     1      38.374 -21.506  27.166  1.00  0.00     0.163 C 
BRANCH  22  23
HETATM   23  N1  UNL     1      39.284 -22.582  27.112  1.00  0.00    -0.333 N 
HETATM   24  C11 UNL     1      39.964 -23.015  28.272  1.00  0.00     0.318 C 
HETATM   25  O2  UNL     1      39.794 -22.454  29.405  1.00  0.00    -0.247 OA
HETATM   26  N2  UNL     1      40.896 -24.098  28.319  1.00  0.00    -0.335 N 
ATOM     27  H2  UNL     1      41.091 -24.605  27.456  1.00  0.00     0.165 HD
BRANCH  23  28
HETATM   28  C9  UNL     1      39.548 -23.284  25.873  1.00  0.00     0.123 C 
HETATM   29  C10 UNL     1      38.269 -23.660  25.154  1.00  0.00     0.026 C 
ENDBRANCH  23  28
BRANCH  26  30
HETATM   30  C12 UNL     1      41.577 -24.513  29.523  1.00  0.00     0.023 C 
HETATM   31  C13 UNL     1      40.662 -25.176  30.519  1.00  0.00     0.037 C 
HETATM   32  C14 UNL     1      42.640 -25.517  29.160  1.00  0.00     0.037 C 
HETATM   33  C15 UNL     1      42.255 -23.359  30.228  1.00  0.00     0.037 C 
ENDBRANCH  26  30
ENDBRANCH  22  23
ENDBRANCH   5  22
BRANCH   2  34
HETATM   34  O1  UNL     1      39.275 -18.527  23.575  1.00  0.00    -0.393 OA
ATOM     35  H1  UNL     1      39.383 -19.358  23.129  1.00  0.00     0.210 HD
ENDBRANCH   2  34
TORSDOF 10
ENDMDL
MODEL 4
REMARK VINA RESULT: -6.847100517      2.325      3.384
REMARK  10 active torsions:
REMARK  status: ('A' for Active; 'I' for Inactive)
REMARK    1  A    between atoms: C2_2  and  C3_3 
REMARK    2  A    between atoms: C4_4  and  O1_5 
REMARK    3  A    between atoms: C7_9  and  C8_10 
REMARK    4  A    between atoms: C8_10  and  N1_11 
REMARK    5  A    between atoms: N1_11  and  C9_12 
REMARK       I    between atoms: N1_11  and  C11_14 
REMARK       I    between atoms: C11_14  and  N2_16 
REMARK    6  A    between atoms: N2_16  and  C12_18 
REMARK    7  A    between atoms: N3_22  and  C16_23 
REMARK    8  A    between atoms: C16_23  and  C17_24 
REMARK    9  A    between atoms: C18_25  and  C19_26 
REMARK   10  A    between atoms: C19_26  and  C20_27 
ROOT
HETATM    1  C3  UNL     1      35.893 -22.758  24.607  1.00  0.00     0.252 C 
HETATM    2  C4  UNL     1      35.686 -24.238  24.596  1.00  0.00     0.157 C 
HETATM    3  C5  UNL     1      37.112 -24.745  24.698  1.00  0.00     0.047 C 
HETATM    4  C6  UNL     1      37.002 -26.100  25.372  1.00  0.00     0.015 C 
HETATM    5  C7  UNL     1      37.753 -23.729  25.556  1.00  0.00     0.248 C 
HETATM    6  N3  UNL     1      37.154 -22.496  25.249  1.00  0.00     0.105 N 
ENDROOT
BRANCH   6   7
HETATM    7  C16 UNL     1      37.031 -21.551  26.336  1.00  0.00     0.300 C 
BRANCH   7   8
HETATM    8  C17 UNL     1      36.820 -20.160  25.968  1.00  0.00    -0.001 C 
HETATM    9  C18 UNL     1      37.611 -19.153  26.389  1.00  0.00    -0.027 C 
BRANCH   9  10
HETATM   10  C19 UNL     1      37.371 -17.744  25.999  1.00  0.00     0.052 C 
BRANCH  10  11
HETATM   11  C20 UNL     1      38.130 -16.852  26.967  1.00  0.00     0.088 C 
HETATM   12  C21 UNL     1      37.979 -17.394  28.351  1.00  0.00     0.045 C 
HETATM   13  C22 UNL     1      36.681 -17.012  29.010  1.00  0.00     0.124 C 
HETATM   14  N4  UNL     1      36.619 -15.563  29.039  1.00  0.00    -0.367 N 
HETATM   15  C23 UNL     1      36.861 -14.874  27.822  1.00  0.00     0.167 C 
ATOM     16  H4  UNL     1      36.410 -15.060  29.901  1.00  0.00     0.161 HD
HETATM   17  S1  UNL     1      36.246 -13.367  27.619  1.00  0.00    -0.041 SA
HETATM   18  N5  UNL     1      37.628 -15.509  26.817  1.00  0.00    -0.362 N 
ATOM     19  H5  UNL     1      37.833 -15.000  25.956  1.00  0.00     0.162 HD
ENDBRANCH  10  11
ENDBRANCH   9  10
ENDBRANCH   7   8
ENDBRANCH   6   7
BRANCH   1  20
HETATM   20  C2  UNL     1      35.781 -22.210  23.224  1.00  0.00     0.034 C 
HETATM   21  C1  UNL     1      34.771 -21.101  23.111  1.00  0.00     0.007 C 
ENDBRANCH   1  20
BRANCH   5  22
HETATM   22  C8  UNL     1      39.231 -23.803  25.677  1.00  0.00     0.163 C 
BRANCH  22  23
HETATM   23  N1  UNL     1      39.831 -23.847  26.953  1.00  0.00    -0.333 N 
HETATM   24  C11 UNL     1      40.354 -22.676  27.547  1.00  0.00     0.318 C 
HETATM   25  O2  UNL     1      40.316 -21.544  26.962  1.00  0.00    -0.247 OA
HETATM   26  N2  UNL     1      40.971 -22.619  28.836  1.00  0.00    -0.335 N 
ATOM     27  H2  UNL     1      41.043 -23.481  29.376  1.00  0.00     0.165 HD
BRANCH  23  28
HETATM   28  C9  UNL     1      39.925 -25.084  27.698  1.00  0.00     0.123 C 
HETATM   29  C10 UNL     1      40.394 -26.233  26.829  1.00  0.00     0.026 C 
ENDBRANCH  23  28
BRANCH  26  30
HETATM   30  C12 UNL     1      41.499 -21.405  29.413  1.00  0.00     0.023 C 
HETATM   31  C13 UNL     1      40.502 -20.276  29.426  1.00  0.00     0.037 C 
HETATM   32  C14 UNL     1      41.882 -21.675  30.846  1.00  0.00     0.037 C 
HETATM   33  C15 UNL     1      42.734 -20.912  28.691  1.00  0.00     0.037 C 
ENDBRANCH  26  30
ENDBRANCH  22  23
ENDBRANCH   5  22
BRANCH   2  34
HETATM   34  O1  UNL     1      35.149 -24.752  23.434  1.00  0.00    -0.393 OA
ATOM     35  H1  UNL     1      35.685 -25.397  22.988  1.00  0.00     0.210 HD
ENDBRANCH   2  34
TORSDOF 10
ENDMDL
MODEL 5
REMARK VINA RESULT: -6.836733741      1.969      2.339
REMARK  10 active torsions:
REMARK  status: ('A' for Active; 'I' for Inactive)
REMARK    1  A    between atoms: C2_2  and  C3_3 
REMARK    2  A    between atoms: C4_4  and  O1_5 
REMARK    3  A    between atoms: C7_9  and  C8_10 
REMARK    4  A    between atoms: C8_10  and  N1_11 
REMARK    5  A    between atoms: N1_11  and  C9_12 
REMARK       I    between atoms: N1_11  and  C11_14 
REMARK       I    between atoms: C11_14  and  N2_16 
REMARK    6  A    between atoms: N2_16  and  C12_18 
REMARK    7  A    between atoms: N3_22  and  C16_23 
REMARK    8  A    between atoms: C16_23  and  C17_24 
REMARK    9  A    between atoms: C18_25  and  C19_26 
REMARK   10  A    between atoms: C19_26  and  C20_27 
ROOT
HETATM    1  C3  UNL     1      40.273 -18.905  25.330  1.00  0.00     0.252 C 
HETATM    2  C4  UNL     1      41.283 -19.736  24.605  1.00  0.00     0.157 C 
HETATM    3  C5  UNL     1      42.313 -19.977  25.693  1.00  0.00     0.047 C 
HETATM    4  C6  UNL     1      42.969 -21.296  25.328  1.00  0.00     0.015 C 
HETATM    5  C7  UNL     1      41.481 -20.068  26.909  1.00  0.00     0.248 C 
HETATM    6  N3  UNL     1      40.405 -19.181  26.736  1.00  0.00     0.105 N 
ENDROOT
BRANCH   6   7
HETATM    7  C16 UNL     1      39.150 -19.567  27.341  1.00  0.00     0.300 C 
BRANCH   7   8
HETATM    8  C17 UNL     1      38.374 -18.505  27.961  1.00  0.00    -0.001 C 
HETATM    9  C18 UNL     1      38.921 -17.375  28.449  1.00  0.00    -0.027 C 
BRANCH   9  10
HETATM   10  C19 UNL     1      38.105 -16.310  29.078  1.00  0.00     0.052 C 
BRANCH  10  11
HETATM   11  C20 UNL     1      36.888 -16.068  28.201  1.00  0.00     0.088 C 
HETATM   12  C21 UNL     1      37.192 -14.971  27.235  1.00  0.00     0.045 C 
HETATM   13  C22 UNL     1      37.047 -13.593  27.822  1.00  0.00     0.124 C 
HETATM   14  N4  UNL     1      35.683 -13.466  28.298  1.00  0.00    -0.367 N 
HETATM   15  C23 UNL     1      35.185 -14.496  29.139  1.00  0.00     0.167 C 
ATOM     16  H4  UNL     1      35.104 -12.667  28.039  1.00  0.00     0.161 HD
HETATM   17  S1  UNL     1      33.951 -14.164  30.166  1.00  0.00    -0.041 SA
HETATM   18  N5  UNL     1      35.771 -15.782  29.065  1.00  0.00    -0.362 N 
ATOM     19  H5  UNL     1      35.389 -16.532  29.643  1.00  0.00     0.162 HD
ENDBRANCH  10  11
ENDBRANCH   9  10
ENDBRANCH   7   8
ENDBRANCH   6   7
BRANCH   1  20
HETATM   20  C2  UNL     1      40.431 -17.466  24.967  1.00  0.00     0.034 C 
HETATM   21  C1  UNL     1      39.135 -16.813  24.578  1.00  0.00     0.007 C 
ENDBRANCH   1  20
BRANCH   5  22
HETATM   22  C8  UNL     1      42.205 -20.080  28.205  1.00  0.00     0.163 C 
BRANCH  22  23
HETATM   23  N1  UNL     1      42.502 -21.307  28.833  1.00  0.00    -0.333 N 
HETATM   24  C11 UNL     1      43.593 -21.419  29.725  1.00  0.00     0.318 C 
HETATM   25  O2  UNL     1      44.352 -20.431  29.993  1.00  0.00    -0.247 OA
HETATM   26  N2  UNL     1      43.967 -22.615  30.414  1.00  0.00    -0.335 N 
ATOM     27  H2  UNL     1      43.410 -23.455  30.260  1.00  0.00     0.165 HD
BRANCH  23  28
HETATM   28  C9  UNL     1      41.701 -22.489  28.593  1.00  0.00     0.123 C 
HETATM   29  C10 UNL     1      40.426 -22.482  29.412  1.00  0.00     0.026 C 
ENDBRANCH  23  28
BRANCH  26  30
HETATM   30  C12 UNL     1      45.089 -22.696  31.318  1.00  0.00     0.023 C 
HETATM   31  C13 UNL     1      46.376 -22.206  30.706  1.00  0.00     0.037 C 
HETATM   32  C14 UNL     1      44.811 -21.829  32.519  1.00  0.00     0.037 C 
HETATM   33  C15 UNL     1      45.331 -24.105  31.813  1.00  0.00     0.037 C 
ENDBRANCH  26  30
ENDBRANCH  22  23
ENDBRANCH   5  22
BRANCH   2  34
HETATM   34  O1  UNL     1      41.927 -19.107  23.561  1.00  0.00    -0.393 OA
ATOM     35  H1  UNL     1      42.533 -19.648  23.070  1.00  0.00     0.210 HD
ENDBRANCH   2  34
TORSDOF 10
ENDMDL
