MODEL 1
REMARK VINA RESULT: -7.756866833      0.000      0.000
REMARK  10 active torsions:
REMARK  status: ('A' for Active; 'I' for Inactive)
REMARK    1  A    between atoms: C5_5  and  C6_6 
REMARK    2  A    between atoms: C6_6  and  N2_10 
REMARK    3  A    between atoms: N2_10  and  O1_12 
REMARK    4  A    between atoms: C10_16  and  N3_17 
REMARK       I    between atoms: N3_17  and  C11_19 
REMARK       I    between atoms: C11_19  and  N4_21 
REMARK    5  A    between atoms: N4_21  and  C12_23 
REMARK    6  A    between atoms: C12_23  and  C13_24 
REMARK    7  A    between atoms: C13_24  and  C14_25 
REMARK    8  A    between atoms: C13_24  and  C15_28 
REMARK    9  A    between atoms: C13_24  and  C21_35 
REMARK   10  A    between atoms: C14_25  and  O3_26 
ROOT
HETATM    1  C1  UNL     1      40.213 -17.322  24.992  1.00  0.00     0.018 C 
HETATM    2  C2  UNL     1      39.566 -16.903  25.929  1.00  0.00    -0.075 C 
HETATM    3  C3  UNL     1      38.807 -16.425  27.081  1.00  0.00     0.044 A 
HETATM    4  C4  UNL     1      37.932 -15.366  26.977  1.00  0.00     0.038 A 
HETATM    5  C5  UNL     1      37.211 -14.891  28.038  1.00  0.00     0.011 A 
HETATM    6  C8  UNL     1      37.402 -15.537  29.268  1.00  0.00     0.017 A 
HETATM    7  C9  UNL     1      38.288 -16.611  29.382  1.00  0.00     0.032 A 
HETATM    8  C10 UNL     1      38.991 -17.066  28.314  1.00  0.00     0.055 A 
ENDROOT
BRANCH   8   9
HETATM    9  N3  UNL     1      39.811 -18.178  28.363  1.00  0.00    -0.308 N 
HETATM   10  C11 UNL     1      39.492 -19.553  28.523  1.00  0.00     0.320 C 
HETATM   11  O2  UNL     1      38.301 -19.836  28.705  1.00  0.00    -0.247 OA
HETATM   12  N4  UNL     1      40.512 -20.479  28.472  1.00  0.00    -0.342 N 
ATOM     13  H4  UNL     1      41.408 -20.047  28.243  1.00  0.00     0.164 HD
ATOM     14  H3  UNL     1      40.807 -17.979  28.270  1.00  0.00     0.170 HD
BRANCH  12  15
HETATM   15  C12 UNL     1      40.630 -21.877  28.657  1.00  0.00     0.141 C 
BRANCH  15  16
HETATM   16  C13 UNL     1      41.963 -22.373  29.217  1.00  0.00     0.031 C 
BRANCH  16  17
HETATM   17  C14 UNL     1      42.116 -21.898  30.625  1.00  0.00     0.180 C 
BRANCH  17  18
HETATM   18  O3  UNL     1      40.917 -21.446  31.209  1.00  0.00    -0.400 OA
ATOM     19  H3  UNL     1      41.044 -20.892  31.970  1.00  0.00     0.209 HD
ENDBRANCH  17  18
ENDBRANCH  16  17
BRANCH  16  20
HETATM   20  C15 UNL     1      43.004 -21.658  28.349  1.00  0.00    -0.045 A 
HETATM   21  C16 UNL     1      43.980 -20.906  28.982  1.00  0.00     0.009 A 
HETATM   22  C17 UNL     1      45.008 -20.272  28.266  1.00  0.00     0.019 A 
HETATM   23  C18 UNL     1      45.043 -20.400  26.905  1.00  0.00     0.011 A 
HETATM   24 BR1  UNL     1      46.469 -19.534  25.936  1.00  0.00    -0.051 Br
HETATM   25  C19 UNL     1      44.090 -21.135  26.269  1.00  0.00     0.019 A 
HETATM   26  C20 UNL     1      43.086 -21.751  27.002  1.00  0.00     0.009 A 
ENDBRANCH  16  20
BRANCH  16  27
HETATM   27  C21 UNL     1      42.107 -23.838  29.111  1.00  0.00    -0.036 C 
HETATM   28  C22 UNL     1      43.519 -24.313  29.307  1.00  0.00     0.015 C 
HETATM   29  C23 UNL     1      41.263 -24.618  30.131  1.00  0.00     0.015 C 
HETATM   30  C24 UNL     1      41.635 -24.391  27.774  1.00  0.00     0.015 C 
ENDBRANCH  16  27
ENDBRANCH  15  16
ENDBRANCH  12  15
ENDBRANCH   8   9
BRANCH   5  31
HETATM   31  C6  UNL     1      36.320 -13.758  27.938  1.00  0.00     0.129 C 
HETATM   32  N1  UNL     1      36.791 -12.645  27.453  1.00  0.00    -0.383 N 
ATOM     33  H12 UNL     1      37.776 -12.627  27.188  1.00  0.00     0.157 HD
ATOM     34  H11 UNL     1      36.161 -11.845  27.382  1.00  0.00     0.157 HD
BRANCH  31  35
HETATM   35  N2  UNL     1      34.964 -13.781  28.302  1.00  0.00    -0.251 N 
ATOM     36  H2  UNL     1      34.263 -14.002  27.595  1.00  0.00     0.196 HD
BRANCH  35  37
HETATM   37  O1  UNL     1      34.566 -13.521  29.560  1.00  0.00    -0.284 OA
HETATM   38  C7  UNL     1      33.781 -14.506  30.129  1.00  0.00     0.237 C 
ENDBRANCH  35  37
ENDBRANCH  31  35
ENDBRANCH   5  31
TORSDOF 10
ENDMDL
MODEL 2
REMARK VINA RESULT: -7.728520952      1.299      1.771
REMARK  10 active torsions:
REMARK  status: ('A' for Active; 'I' for Inactive)
REMARK    1  A    between atoms: C5_5  and  C6_6 
REMARK    2  A    between atoms: C6_6  and  N2_10 
REMARK    3  A    between atoms: N2_10  and  O1_12 
REMARK    4  A    between atoms: C10_16  and  N3_17 
REMARK       I    between atoms: N3_17  and  C11_19 
REMARK       I    between atoms: C11_19  and  N4_21 
REMARK    5  A    between atoms: N4_21  and  C12_23 
REMARK    6  A    between atoms: C12_23  and  C13_24 
REMARK    7  A    between atoms: C13_24  and  C14_25 
REMARK    8  A    between atoms: C13_24  and  C15_28 
REMARK    9  A    between atoms: C13_24  and  C21_35 
REMARK   10  A    between atoms: C14_25  and  O3_26 
ROOT
HETATM    1  C1  UNL     1      37.284 -19.713  25.471  1.00  0.00     0.018 C 
HETATM    2  C2  UNL     1      37.398 -18.871  26.337  1.00  0.00    -0.075 C 
HETATM    3  C3  UNL     1      37.560 -17.884  27.401  1.00  0.00     0.044 A 
HETATM    4  C4  UNL     1      37.026 -16.618  27.295  1.00  0.00     0.038 A 
HETATM    5  C5  UNL     1      37.164 -15.669  28.270  1.00  0.00     0.011 A 
HETATM    6  C8  UNL     1      37.890 -16.041  29.411  1.00  0.00     0.017 A 
HETATM    7  C9  UNL     1      38.436 -17.321  29.525  1.00  0.00     0.032 A 
HETATM    8  C10 UNL     1      38.283 -18.247  28.545  1.00  0.00     0.055 A 
ENDROOT
BRANCH   8   9
HETATM    9  N3  UNL     1      38.731 -19.551  28.655  1.00  0.00    -0.308 N 
HETATM   10  C11 UNL     1      39.970 -20.136  28.278  1.00  0.00     0.320 C 
HETATM   11  O2  UNL     1      40.786 -19.402  27.705  1.00  0.00    -0.247 OA
HETATM   12  N4  UNL     1      40.186 -21.467  28.564  1.00  0.00    -0.342 N 
ATOM     13  H4  UNL     1      39.419 -21.871  29.101  1.00  0.00     0.164 HD
ATOM     14  H3  UNL     1      38.064 -20.197  29.075  1.00  0.00     0.170 HD
BRANCH  12  15
HETATM   15  C12 UNL     1      41.205 -22.413  28.299  1.00  0.00     0.141 C 
BRANCH  15  16
HETATM   16  C13 UNL     1      42.390 -22.416  29.265  1.00  0.00     0.031 C 
BRANCH  16  17
HETATM   17  C14 UNL     1      42.043 -21.616  30.478  1.00  0.00     0.180 C 
BRANCH  17  18
HETATM   18  O3  UNL     1      40.905 -22.084  31.164  1.00  0.00    -0.400 OA
ATOM     19  H3  UNL     1      41.088 -22.789  31.774  1.00  0.00     0.209 HD
ENDBRANCH  17  18
ENDBRANCH  16  17
BRANCH  16  20
HETATM   20  C15 UNL     1      43.484 -21.671  28.491  1.00  0.00    -0.045 A 
HETATM   21  C16 UNL     1      43.442 -21.698  27.108  1.00  0.00     0.009 A 
HETATM   22  C17 UNL     1      44.367 -20.990  26.324  1.00  0.00     0.019 A 
HETATM   23  C18 UNL     1      45.337 -20.256  26.947  1.00  0.00     0.011 A 
HETATM   24 BR1  UNL     1      46.594 -19.277  25.857  1.00  0.00    -0.051 Br
HETATM   25  C19 UNL     1      45.391 -20.220  28.306  1.00  0.00     0.019 A 
HETATM   26  C20 UNL     1      44.464 -20.929  29.056  1.00  0.00     0.009 A 
ENDBRANCH  16  20
BRANCH  16  27
HETATM   27  C21 UNL     1      42.828 -23.781  29.612  1.00  0.00    -0.036 C 
HETATM   28  C22 UNL     1      41.692 -24.702  29.958  1.00  0.00     0.015 C 
HETATM   29  C23 UNL     1      43.606 -24.486  28.491  1.00  0.00     0.015 C 
HETATM   30  C24 UNL     1      43.800 -23.818  30.785  1.00  0.00     0.015 C 
ENDBRANCH  16  27
ENDBRANCH  15  16
ENDBRANCH  12  15
ENDBRANCH   8   9
BRANCH   5  31
HETATM   31  C6  UNL     1      36.635 -14.330  28.144  1.00  0.00     0.129 C 
HETATM   32  N1  UNL     1      37.396 -13.413  27.622  1.00  0.00    -0.383 N 
ATOM     33  H12 UNL     1      38.340 -13.686  27.347  1.00  0.00     0.157 HD
ATOM     34  H11 UNL     1      37.022 -12.468  27.533  1.00  0.00     0.157 HD
BRANCH  31  35
HETATM   35  N2  UNL     1      35.335 -13.954  28.521  1.00  0.00    -0.251 N 
ATOM     36  H2  UNL     1      34.987 -13.034  28.252  1.00  0.00     0.196 HD
BRANCH  35  37
HETATM   37  O1  UNL     1      34.539 -14.774  29.229  1.00  0.00    -0.284 OA
HETATM   38  C7  UNL     1      33.791 -14.146  30.207  1.00  0.00     0.237 C 
ENDBRANCH  35  37
ENDBRANCH  31  35
ENDBRANCH   5  31
TORSDOF 10
ENDMDL
MODEL 3
REMARK VINA RESULT: -7.709861257      2.580      3.875
REMARK  10 active torsions:
REMARK  status: ('A' for Active; 'I' for Inactive)
REMARK    1  A    between atoms: C5_5  and  C6_6 
REMARK    2  A    between atoms: C6_6  and  N2_10 
REMARK    3  A    between atoms: N2_10  and  O1_12 
REMARK    4  A    between atoms: C10_16  and  N3_17 
REMARK       I    between atoms: N3_17  and  C11_19 
REMARK       I    between atoms: C11_19  and  N4_21 
REMARK    5  A    between atoms: N4_21  and  C12_23 
REMARK    6  A    between atoms: C12_23  and  C13_24 
REMARK    7  A    between atoms: C13_24  and  C14_25 
REMARK    8  A    between atoms: C13_24  and  C15_28 
REMARK    9  A    between atoms: C13_24  and  C21_35 
REMARK   10  A    between atoms: C14_25  and  O3_26 
ROOT
HETATM    1  C1  UNL     1      39.078 -17.713  24.886  1.00  0.00     0.018 C 
HETATM    2  C2  UNL     1      38.423 -17.183  25.759  1.00  0.00    -0.075 C 
HETATM    3  C3  UNL     1      37.637 -16.580  26.832  1.00  0.00     0.044 A 
HETATM    4  C4  UNL     1      37.238 -15.262  26.779  1.00  0.00     0.038 A 
HETATM    5  C5  UNL     1      36.507 -14.667  27.770  1.00  0.00     0.011 A 
HETATM    6  C8  UNL     1      36.172 -15.467  28.872  1.00  0.00     0.017 A 
HETATM    7  C9  UNL     1      36.575 -16.803  28.935  1.00  0.00     0.032 A 
HETATM    8  C10 UNL     1      37.298 -17.372  27.937  1.00  0.00     0.055 A 
ENDROOT
BRANCH   8   9
HETATM    9  N3  UNL     1      37.642 -18.712  27.919  1.00  0.00    -0.308 N 
HETATM   10  C11 UNL     1      38.770 -19.382  28.463  1.00  0.00     0.320 C 
HETATM   11  O2  UNL     1      39.635 -18.680  29.002  1.00  0.00    -0.247 OA
HETATM   12  N4  UNL     1      38.837 -20.755  28.357  1.00  0.00    -0.342 N 
ATOM     13  H4  UNL     1      37.992 -21.148  27.942  1.00  0.00     0.164 HD
ATOM     14  H3  UNL     1      36.978 -19.316  27.436  1.00  0.00     0.170 HD
BRANCH  12  15
HETATM   15  C12 UNL     1      39.784 -21.757  28.679  1.00  0.00     0.141 C 
BRANCH  15  16
HETATM   16  C13 UNL     1      40.726 -22.181  27.552  1.00  0.00     0.031 C 
BRANCH  16  17
HETATM   17  C14 UNL     1      39.998 -22.120  26.248  1.00  0.00     0.180 C 
BRANCH  17  18
HETATM   18  O3  UNL     1      38.711 -22.691  26.287  1.00  0.00    -0.400 OA
ATOM     19  H3  UNL     1      38.287 -22.739  25.438  1.00  0.00     0.209 HD
ENDBRANCH  17  18
ENDBRANCH  16  17
BRANCH  16  20
HETATM   20  C15 UNL     1      41.027 -23.650  27.870  1.00  0.00    -0.045 A 
HETATM   21  C16 UNL     1      40.852 -24.088  29.172  1.00  0.00     0.009 A 
HETATM   22  C17 UNL     1      41.043 -25.430  29.535  1.00  0.00     0.019 A 
HETATM   23  C18 UNL     1      41.415 -26.329  28.574  1.00  0.00     0.011 A 
HETATM   24 BR1  UNL     1      41.661 -28.173  29.084  1.00  0.00    -0.051 Br
HETATM   25  C19 UNL     1      41.591 -25.913  27.290  1.00  0.00     0.019 A 
HETATM   26  C20 UNL     1      41.395 -24.580  26.959  1.00  0.00     0.009 A 
ENDBRANCH  16  20
BRANCH  16  27
HETATM   27  C21 UNL     1      41.967 -21.383  27.527  1.00  0.00    -0.036 C 
HETATM   28  C22 UNL     1      41.894 -20.195  26.610  1.00  0.00     0.015 C 
HETATM   29  C23 UNL     1      42.370 -20.822  28.900  1.00  0.00     0.015 C 
HETATM   30  C24 UNL     1      43.190 -22.190  27.110  1.00  0.00     0.015 C 
ENDBRANCH  16  27
ENDBRANCH  15  16
ENDBRANCH  12  15
ENDBRANCH   8   9
BRANCH   5  31
HETATM   31  C6  UNL     1      36.117 -13.276  27.730  1.00  0.00     0.129 C 
HETATM   32  N1  UNL     1      35.770 -12.701  28.845  1.00  0.00    -0.383 N 
ATOM     33  H12 UNL     1      35.772 -13.274  29.689  1.00  0.00     0.157 HD
ATOM     34  H11 UNL     1      35.495 -11.719  28.816  1.00  0.00     0.157 HD
BRANCH  31  35
HETATM   35  N2  UNL     1      36.115 -12.487  26.568  1.00  0.00    -0.251 N 
ATOM     36  H2  UNL     1      36.951 -12.456  25.986  1.00  0.00     0.196 HD
BRANCH  35  37
HETATM   37  O1  UNL     1      35.037 -11.771  26.203  1.00  0.00    -0.284 OA
HETATM   38  C7  UNL     1      35.240 -10.942  25.115  1.00  0.00     0.237 C 
ENDBRANCH  35  37
ENDBRANCH  31  35
ENDBRANCH   5  31
TORSDOF 10
ENDMDL
MODEL 4
REMARK VINA RESULT: -7.695349416      2.231      3.381
REMARK  10 active torsions:
REMARK  status: ('A' for Active; 'I' for Inactive)
REMARK    1  A    between atoms: C5_5  and  C6_6 
REMARK    2  A    between atoms: C6_6  and  N2_10 
REMARK    3  A    between atoms: N2_10  and  O1_12 
REMARK    4  A    between atoms: C10_16  and  N3_17 
REMARK       I    between atoms: N3_17  and  C11_19 
REMARK       I    between atoms: C11_19  and  N4_21 
REMARK    5  A    between atoms: N4_21  and  C12_23 
REMARK    6  A    between atoms: C12_23  and  C13_24 
REMARK    7  A    between atoms: C13_24  and  C14_25 
REMARK    8  A    between atoms: C13_24  and  C15_28 
REMARK    9  A    between atoms: C13_24  and  C21_35 
REMARK   10  A    between atoms: C14_25  and  O3_26 
ROOT
HETATM    1  C1  UNL     1      40.229 -17.252  24.904  1.00  0.00     0.018 C 
HETATM    2  C2  UNL     1      39.565 -16.881  25.849  1.00  0.00    -0.075 C 
HETATM    3  C3  UNL     1      38.784 -16.465  27.011  1.00  0.00     0.044 A 
HETATM    4  C4  UNL     1      37.963 -15.359  26.968  1.00  0.00     0.038 A 
HETATM    5  C5  UNL     1      37.224 -14.940  28.039  1.00  0.00     0.011 A 
HETATM    6  C8  UNL     1      37.336 -15.696  29.215  1.00  0.00     0.017 A 
HETATM    7  C9  UNL     1      38.167 -16.818  29.268  1.00  0.00     0.032 A 
HETATM    8  C10 UNL     1      38.890 -17.215  28.190  1.00  0.00     0.055 A 
ENDROOT
BRANCH   8   9
HETATM    9  N3  UNL     1      39.655 -18.367  28.173  1.00  0.00    -0.308 N 
HETATM   10  C11 UNL     1      40.097 -19.198  29.237  1.00  0.00     0.320 C 
HETATM   11  O2  UNL     1      39.817 -18.834  30.386  1.00  0.00    -0.247 OA
HETATM   12  N4  UNL     1      40.805 -20.341  28.934  1.00  0.00    -0.342 N 
ATOM     13  H4  UNL     1      40.868 -20.495  27.927  1.00  0.00     0.164 HD
ATOM     14  H3  UNL     1      39.951 -18.669  27.244  1.00  0.00     0.170 HD
BRANCH  12  15
HETATM   15  C12 UNL     1      41.468 -21.354  29.667  1.00  0.00     0.141 C 
BRANCH  15  16
HETATM   16  C13 UNL     1      42.705 -21.964  29.007  1.00  0.00     0.031 C 
BRANCH  16  17
HETATM   17  C14 UNL     1      42.793 -21.496  27.591  1.00  0.00     0.180 C 
BRANCH  17  18
HETATM   18  O3  UNL     1      41.708 -21.900  26.788  1.00  0.00    -0.400 OA
ATOM     19  H3  UNL     1      40.951 -21.329  26.849  1.00  0.00     0.209 HD
ENDBRANCH  17  18
ENDBRANCH  16  17
BRANCH  16  20
HETATM   20  C15 UNL     1      42.403 -23.467  29.002  1.00  0.00    -0.045 A 
HETATM   21  C16 UNL     1      41.325 -23.921  29.743  1.00  0.00     0.009 A 
HETATM   22  C17 UNL     1      40.941 -25.272  29.742  1.00  0.00     0.019 A 
HETATM   23  C18 UNL     1      41.655 -26.162  28.988  1.00  0.00     0.011 A 
HETATM   24 BR1  UNL     1      41.107 -28.012  28.986  1.00  0.00    -0.051 Br
HETATM   25  C19 UNL     1      42.717 -25.730  28.255  1.00  0.00     0.019 A 
HETATM   26  C20 UNL     1      43.074 -24.390  28.275  1.00  0.00     0.009 A 
ENDBRANCH  16  20
BRANCH  16  27
HETATM   27  C21 UNL     1      43.941 -21.679  29.759  1.00  0.00    -0.036 C 
HETATM   28  C22 UNL     1      43.775 -21.803  31.248  1.00  0.00     0.015 C 
HETATM   29  C23 UNL     1      45.114 -22.603  29.396  1.00  0.00     0.015 C 
HETATM   30  C24 UNL     1      44.500 -20.288  29.490  1.00  0.00     0.015 C 
ENDBRANCH  16  27
ENDBRANCH  15  16
ENDBRANCH  12  15
ENDBRANCH   8   9
BRANCH   5  31
HETATM   31  C6  UNL     1      36.391 -13.760  28.005  1.00  0.00     0.129 C 
HETATM   32  N1  UNL     1      36.930 -12.635  27.633  1.00  0.00    -0.383 N 
ATOM     33  H12 UNL     1      37.924 -12.644  27.404  1.00  0.00     0.157 HD
ATOM     34  H11 UNL     1      36.341 -11.802  27.609  1.00  0.00     0.157 HD
BRANCH  31  35
HETATM   35  N2  UNL     1      35.022 -13.747  28.320  1.00  0.00    -0.251 N 
ATOM     36  H2  UNL     1      34.341 -13.921  27.582  1.00  0.00     0.196 HD
BRANCH  35  37
HETATM   37  O1  UNL     1      34.587 -13.512  29.570  1.00  0.00    -0.284 OA
HETATM   38  C7  UNL     1      33.787 -14.509  30.097  1.00  0.00     0.237 C 
ENDBRANCH  35  37
ENDBRANCH  31  35
ENDBRANCH   5  31
TORSDOF 10
ENDMDL
MODEL 5
REMARK VINA RESULT: -7.680555413      1.714      2.187
REMARK  10 active torsions:
REMARK  status: ('A' for Active; 'I' for Inactive)
REMARK    1  A    between atoms: C5_5  and  C6_6 
REMARK    2  A    between atoms: C6_6  and  N2_10 
REMARK    3  A    between atoms: N2_10  and  O1_12 
REMARK    4  A    between atoms: C10_16  and  N3_17 
REMARK       I    between atoms: N3_17  and  C11_19 
REMARK       I    between atoms: C11_19  and  N4_21 
REMARK    5  A    between atoms: N4_21  and  C12_23 
REMARK    6  A    between atoms: C12_23  and  C13_24 
REMARK    7  A    between atoms: C13_24  and  C14_25 
REMARK    8  A    between atoms: C13_24  and  C15_28 
REMARK    9  A    between atoms: C13_24  and  C21_35 
REMARK   10  A    between atoms: C14_25  and  O3_26 
ROOT
HETATM    1  C1  UNL     1      37.840 -19.198  25.052  1.00  0.00     0.018 C 
HETATM    2  C2  UNL     1      37.782 -18.465  26.017  1.00  0.00    -0.075 C 
HETATM    3  C3  UNL     1      37.734 -17.612  27.201  1.00  0.00     0.044 A 
HETATM    4  C4  UNL     1      37.178 -16.351  27.157  1.00  0.00     0.038 A 
HETATM    5  C5  UNL     1      37.122 -15.525  28.245  1.00  0.00     0.011 A 
HETATM    6  C8  UNL     1      37.668 -16.020  29.439  1.00  0.00     0.017 A 
HETATM    7  C9  UNL     1      38.235 -17.295  29.491  1.00  0.00     0.032 A 
HETATM    8  C10 UNL     1      38.276 -18.098  28.398  1.00  0.00     0.055 A 
ENDROOT
BRANCH   8   9
HETATM    9  N3  UNL     1      38.748 -19.397  28.428  1.00  0.00    -0.308 N 
HETATM   10  C11 UNL     1      40.055 -19.910  28.207  1.00  0.00     0.320 C 
HETATM   11  O2  UNL     1      40.929 -19.097  27.880  1.00  0.00    -0.247 OA
HETATM   12  N4  UNL     1      40.270 -21.263  28.365  1.00  0.00    -0.342 N 
ATOM     13  H4  UNL     1      39.438 -21.744  28.706  1.00  0.00     0.164 HD
ATOM     14  H3  UNL     1      38.044 -20.103  28.643  1.00  0.00     0.170 HD
BRANCH  12  15
HETATM   15  C12 UNL     1      41.354 -22.151  28.171  1.00  0.00     0.141 C 
BRANCH  15  16
HETATM   16  C13 UNL     1      41.672 -23.089  29.336  1.00  0.00     0.031 C 
BRANCH  16  17
HETATM   17  C14 UNL     1      40.742 -22.804  30.471  1.00  0.00     0.180 C 
BRANCH  17  18
HETATM   18  O3  UNL     1      40.986 -21.575  31.113  1.00  0.00    -0.400 OA
ATOM     19  H3  UNL     1      41.718 -21.597  31.719  1.00  0.00     0.209 HD
ENDBRANCH  17  18
ENDBRANCH  16  17
BRANCH  16  20
HETATM   20  C15 UNL     1      43.087 -22.674  29.754  1.00  0.00    -0.045 A 
HETATM   21  C16 UNL     1      43.740 -21.717  28.997  1.00  0.00     0.009 A 
HETATM   22  C17 UNL     1      45.011 -21.233  29.347  1.00  0.00     0.019 A 
HETATM   23  C18 UNL     1      45.620 -21.726  30.468  1.00  0.00     0.011 A 
HETATM   24 BR1  UNL     1      47.361 -21.043  30.945  1.00  0.00    -0.051 Br
HETATM   25  C19 UNL     1      44.991 -22.668  31.222  1.00  0.00     0.019 A 
HETATM   26  C20 UNL     1      43.735 -23.128  30.852  1.00  0.00     0.009 A 
ENDBRANCH  16  20
BRANCH  16  27
HETATM   27  C21 UNL     1      41.637 -24.510  28.939  1.00  0.00    -0.036 C 
HETATM   28  C22 UNL     1      40.979 -25.398  29.958  1.00  0.00     0.015 C 
HETATM   29  C23 UNL     1      40.889 -24.766  27.621  1.00  0.00     0.015 C 
HETATM   30  C24 UNL     1      43.019 -25.092  28.672  1.00  0.00     0.015 C 
ENDBRANCH  16  27
ENDBRANCH  15  16
ENDBRANCH  12  15
ENDBRANCH   8   9
BRANCH   5  31
HETATM   31  C6  UNL     1      36.571 -14.191  28.190  1.00  0.00     0.129 C 
HETATM   32  N1  UNL     1      37.314 -13.236  27.710  1.00  0.00    -0.383 N 
ATOM     33  H12 UNL     1      38.260 -13.480  27.416  1.00  0.00     0.157 HD
ATOM     34  H11 UNL     1      36.925 -12.294  27.672  1.00  0.00     0.157 HD
BRANCH  31  35
HETATM   35  N2  UNL     1      35.269 -13.854  28.596  1.00  0.00    -0.251 N 
ATOM     36  H2  UNL     1      34.943 -12.896  28.473  1.00  0.00     0.196 HD
BRANCH  35  37
HETATM   37  O1  UNL     1      34.443 -14.762  29.143  1.00  0.00    -0.284 OA
HETATM   38  C7  UNL     1      33.755 -14.316  30.256  1.00  0.00     0.237 C 
ENDBRANCH  35  37
ENDBRANCH  31  35
ENDBRANCH   5  31
TORSDOF 10
ENDMDL
