MODEL 1
REMARK VINA RESULT: -9.118060906      0.000      0.000
REMARK  7 active torsions:
REMARK  status: ('A' for Active; 'I' for Inactive)
REMARK       I    between atoms: N1_2  and  C2_4 
REMARK    1  A    between atoms: C2_4  and  C3_6 
REMARK       I    between atoms: C3_6  and  N2_8 
REMARK    2  A    between atoms: N2_8  and  C4_10 
REMARK    3  A    between atoms: C7_13  and  C8_14 
REMARK       I    between atoms: C8_14  and  N3_16 
REMARK    4  A    between atoms: N3_16  and  C9_18 
REMARK    5  A    between atoms: C15_25  and  C16_26 
REMARK       I    between atoms: C16_26  and  N4_28 
REMARK    6  A    between atoms: N4_28  and  C17_30 
REMARK    7  A    between atoms: C21_34  and  N5_35 
REMARK       I    between atoms: N5_35  and  C22_37 
ROOT
HETATM    1  C4  UNL     1      41.445 -21.791  28.238  1.00  0.00     0.036 A 
HETATM    2  C5  UNL     1      41.701 -20.540  28.732  1.00  0.00     0.030 A 
HETATM    3  C6  UNL     1      40.838 -19.487  28.472  1.00  0.00     0.020 A 
HETATM    4  C7  UNL     1      39.677 -19.663  27.697  1.00  0.00     0.048 A 
HETATM    5  C15 UNL     1      39.399 -20.891  27.198  1.00  0.00     0.050 A 
HETATM    6  C25 UNL     1      40.304 -21.930  27.487  1.00  0.00     0.047 A 
ENDROOT
BRANCH   5   7
HETATM    7  C16 UNL     1      38.215 -21.211  26.424  1.00  0.00     0.257 C 
HETATM    8  O4  UNL     1      37.176 -21.518  27.115  1.00  0.00    -0.267 OA
HETATM    9  N4  UNL     1      38.141 -21.199  25.036  1.00  0.00    -0.323 N 
ATOM     10  H4  UNL     1      38.982 -20.940  24.520  1.00  0.00     0.169 HD
BRANCH   9  11
HETATM   11  C17 UNL     1      36.973 -21.521  24.279  1.00  0.00     0.037 A 
HETATM   12  C18 UNL     1      36.025 -20.630  23.886  1.00  0.00     0.029 A 
HETATM   13  C19 UNL     1      34.882 -21.029  23.178  1.00  0.00     0.004 A 
HETATM   14  C20 UNL     1      34.748 -22.391  22.886  1.00  0.00     0.029 A 
HETATM   15  C21 UNL     1      35.668 -23.323  23.256  1.00  0.00     0.036 A 
HETATM   16  C24 UNL     1      36.799 -22.863  23.966  1.00  0.00     0.059 A 
BRANCH  15  17
HETATM   17  N5  UNL     1      35.546 -24.683  22.953  1.00  0.00    -0.327 N 
HETATM   18  C22 UNL     1      34.795 -25.649  23.641  1.00  0.00     0.218 C 
HETATM   19  C23 UNL     1      34.818 -27.076  23.131  1.00  0.00     0.117 C 
HETATM   20  O5  UNL     1      34.097 -25.431  24.656  1.00  0.00    -0.274 OA
ATOM     21  H5  UNL     1      36.064 -25.011  22.137  1.00  0.00     0.169 HD
ENDBRANCH  15  17
ENDBRANCH   9  11
ENDBRANCH   5   7
BRANCH   4  22
HETATM   22  C8  UNL     1      38.858 -18.454  27.444  1.00  0.00     0.257 C 
HETATM   23  O3  UNL     1      38.546 -18.233  26.285  1.00  0.00    -0.267 OA
HETATM   24  N3  UNL     1      38.503 -17.653  28.530  1.00  0.00    -0.323 N 
ATOM     25  H3  UNL     1      38.831 -17.945  29.451  1.00  0.00     0.169 HD
BRANCH  24  26
HETATM   26  C9  UNL     1      37.731 -16.477  28.464  1.00  0.00     0.035 A 
HETATM   27  C10 UNL     1      38.341 -15.337  27.901  1.00  0.00     0.032 A 
HETATM   28  C11 UNL     1      37.678 -14.146  27.803  1.00  0.00     0.044 A 
HETATM   29  C12 UNL     1      36.393 -13.980  28.236  1.00  0.00     0.116 A 
HETATM   30  F1  UNL     1      35.764 -12.791  28.124  1.00  0.00    -0.206 F 
HETATM   31  C13 UNL     1      35.777 -15.075  28.787  1.00  0.00     0.044 A 
HETATM   32  C14 UNL     1      36.451 -16.298  28.891  1.00  0.00     0.032 A 
ENDBRANCH  24  26
ENDBRANCH   4  22
BRANCH   1  33
HETATM   33  N2  UNL     1      42.284 -22.920  28.436  1.00  0.00    -0.319 N 
HETATM   34  C3  UNL     1      42.220 -23.845  29.472  1.00  0.00     0.313 C 
HETATM   35  O2  UNL     1      41.389 -23.827  30.432  1.00  0.00    -0.262 OA
ATOM     36  H2  UNL     1      43.014 -23.069  27.739  1.00  0.00     0.169 HD
BRANCH  34  37
HETATM   37  C2  UNL     1      43.203 -24.956  29.471  1.00  0.00     0.309 C 
HETATM   38  N1  UNL     1      42.884 -26.144  28.763  1.00  0.00    -0.357 N 
HETATM   39  C1  UNL     1      43.802 -27.264  28.724  1.00  0.00     0.149 C 
ATOM     40  H1  UNL     1      41.992 -26.210  28.272  1.00  0.00     0.162 HD
HETATM   41  O1  UNL     1      44.283 -24.824  30.089  1.00  0.00    -0.262 OA
ENDBRANCH  34  37
ENDBRANCH   1  33
TORSDOF 7
ENDMDL
MODEL 2
REMARK VINA RESULT: -9.014564427      3.165      7.163
REMARK  7 active torsions:
REMARK  status: ('A' for Active; 'I' for Inactive)
REMARK       I    between atoms: N1_2  and  C2_4 
REMARK    1  A    between atoms: C2_4  and  C3_6 
REMARK       I    between atoms: C3_6  and  N2_8 
REMARK    2  A    between atoms: N2_8  and  C4_10 
REMARK    3  A    between atoms: C7_13  and  C8_14 
REMARK       I    between atoms: C8_14  and  N3_16 
REMARK    4  A    between atoms: N3_16  and  C9_18 
REMARK    5  A    between atoms: C15_25  and  C16_26 
REMARK       I    between atoms: C16_26  and  N4_28 
REMARK    6  A    between atoms: N4_28  and  C17_30 
REMARK    7  A    between atoms: C21_34  and  N5_35 
REMARK       I    between atoms: N5_35  and  C22_37 
ROOT
HETATM    1  C4  UNL     1      42.144 -22.012  29.646  1.00  0.00     0.036 A 
HETATM    2  C5  UNL     1      41.555 -23.054  28.980  1.00  0.00     0.030 A 
HETATM    3  C6  UNL     1      40.391 -22.859  28.252  1.00  0.00     0.020 A 
HETATM    4  C7  UNL     1      39.776 -21.597  28.172  1.00  0.00     0.048 A 
HETATM    5  C15 UNL     1      40.340 -20.549  28.820  1.00  0.00     0.050 A 
HETATM    6  C25 UNL     1      41.520 -20.793  29.547  1.00  0.00     0.047 A 
ENDROOT
BRANCH   5   7
HETATM    7  C16 UNL     1      39.829 -19.192  28.780  1.00  0.00     0.257 C 
HETATM    8  O4  UNL     1      39.807 -18.582  29.911  1.00  0.00    -0.267 OA
HETATM    9  N4  UNL     1      39.386 -18.539  27.636  1.00  0.00    -0.323 N 
ATOM     10  H4  UNL     1      39.426 -19.050  26.754  1.00  0.00     0.169 HD
BRANCH   9  11
HETATM   11  C17 UNL     1      38.878 -17.204  27.604  1.00  0.00     0.037 A 
HETATM   12  C18 UNL     1      39.497 -16.145  27.018  1.00  0.00     0.029 A 
HETATM   13  C19 UNL     1      38.955 -14.853  27.064  1.00  0.00     0.004 A 
HETATM   14  C20 UNL     1      37.741 -14.687  27.740  1.00  0.00     0.029 A 
HETATM   15  C21 UNL     1      37.081 -15.713  28.342  1.00  0.00     0.036 A 
HETATM   16  C24 UNL     1      37.674 -16.993  28.263  1.00  0.00     0.059 A 
BRANCH  15  17
HETATM   17  N5  UNL     1      35.859 -15.555  29.005  1.00  0.00    -0.327 N 
HETATM   18  C22 UNL     1      35.131 -14.369  29.185  1.00  0.00     0.218 C 
HETATM   19  C23 UNL     1      33.824 -14.435  29.950  1.00  0.00     0.117 C 
HETATM   20  O5  UNL     1      35.472 -13.242  28.762  1.00  0.00    -0.274 OA
ATOM     21  H5  UNL     1      35.450 -16.400  29.405  1.00  0.00     0.169 HD
ENDBRANCH  15  17
ENDBRANCH   9  11
ENDBRANCH   5   7
BRANCH   4  22
HETATM   22  C8  UNL     1      38.509 -21.522  27.408  1.00  0.00     0.257 C 
HETATM   23  O3  UNL     1      37.607 -20.866  27.902  1.00  0.00    -0.267 OA
HETATM   24  N3  UNL     1      38.428 -22.199  26.191  1.00  0.00    -0.323 N 
ATOM     25  H3  UNL     1      39.252 -22.717  25.889  1.00  0.00     0.169 HD
BRANCH  24  26
HETATM   26  C9  UNL     1      37.302 -22.229  25.343  1.00  0.00     0.035 A 
HETATM   27  C10 UNL     1      36.915 -21.013  24.744  1.00  0.00     0.032 A 
HETATM   28  C11 UNL     1      35.831 -20.937  23.916  1.00  0.00     0.044 A 
HETATM   29  C12 UNL     1      35.057 -22.020  23.614  1.00  0.00     0.116 A 
HETATM   30  F1  UNL     1      33.992 -21.914  22.791  1.00  0.00    -0.206 F 
HETATM   31  C13 UNL     1      35.413 -23.216  24.185  1.00  0.00     0.044 A 
HETATM   32  C14 UNL     1      36.523 -23.301  25.035  1.00  0.00     0.032 A 
ENDBRANCH  24  26
ENDBRANCH   4  22
BRANCH   1  33
HETATM   33  N2  UNL     1      43.321 -22.124  30.432  1.00  0.00    -0.319 N 
HETATM   34  C3  UNL     1      44.350 -21.196  30.544  1.00  0.00     0.313 C 
HETATM   35  O2  UNL     1      44.408 -20.077  29.946  1.00  0.00    -0.262 OA
ATOM     36  H2  UNL     1      43.424 -22.982  30.974  1.00  0.00     0.169 HD
BRANCH  34  37
HETATM   37  C2  UNL     1      45.488 -21.526  31.436  1.00  0.00     0.309 C 
HETATM   38  N1  UNL     1      46.809 -21.330  30.955  1.00  0.00    -0.357 N 
HETATM   39  C1  UNL     1      47.961 -21.634  31.779  1.00  0.00     0.149 C 
ATOM     40  H1  UNL     1      46.949 -20.967  30.012  1.00  0.00     0.162 HD
HETATM   41  O1  UNL     1      45.261 -21.969  32.585  1.00  0.00    -0.262 OA
ENDBRANCH  34  37
ENDBRANCH   1  33
TORSDOF 7
ENDMDL
MODEL 3
REMARK VINA RESULT: -8.964166394      0.660      1.049
REMARK  7 active torsions:
REMARK  status: ('A' for Active; 'I' for Inactive)
REMARK       I    between atoms: N1_2  and  C2_4 
REMARK    1  A    between atoms: C2_4  and  C3_6 
REMARK       I    between atoms: C3_6  and  N2_8 
REMARK    2  A    between atoms: N2_8  and  C4_10 
REMARK    3  A    between atoms: C7_13  and  C8_14 
REMARK       I    between atoms: C8_14  and  N3_16 
REMARK    4  A    between atoms: N3_16  and  C9_18 
REMARK    5  A    between atoms: C15_25  and  C16_26 
REMARK       I    between atoms: C16_26  and  N4_28 
REMARK    6  A    between atoms: N4_28  and  C17_30 
REMARK    7  A    between atoms: C21_34  and  N5_35 
REMARK       I    between atoms: N5_35  and  C22_37 
ROOT
HETATM    1  C4  UNL     1      40.955 -22.021  28.808  1.00  0.00     0.036 A 
HETATM    2  C5  UNL     1      41.239 -20.780  29.313  1.00  0.00     0.030 A 
HETATM    3  C6  UNL     1      40.490 -19.675  28.937  1.00  0.00     0.020 A 
HETATM    4  C7  UNL     1      39.420 -19.787  28.031  1.00  0.00     0.048 A 
HETATM    5  C15 UNL     1      39.116 -21.003  27.518  1.00  0.00     0.050 A 
HETATM    6  C25 UNL     1      39.904 -22.096  27.927  1.00  0.00     0.047 A 
ENDROOT
BRANCH   5   7
HETATM    7  C16 UNL     1      38.013 -21.257  26.612  1.00  0.00     0.257 C 
HETATM    8  O4  UNL     1      36.865 -21.395  27.172  1.00  0.00    -0.267 OA
HETATM    9  N4  UNL     1      38.120 -21.350  25.229  1.00  0.00    -0.323 N 
ATOM     10  H4  UNL     1      39.045 -21.225  24.817  1.00  0.00     0.169 HD
BRANCH   9  11
HETATM   11  C17 UNL     1      37.030 -21.606  24.342  1.00  0.00     0.037 A 
HETATM   12  C18 UNL     1      36.203 -20.660  23.825  1.00  0.00     0.029 A 
HETATM   13  C19 UNL     1      35.125 -20.993  22.992  1.00  0.00     0.004 A 
HETATM   14  C20 UNL     1      34.929 -22.348  22.705  1.00  0.00     0.029 A 
HETATM   15  C21 UNL     1      35.729 -23.334  23.195  1.00  0.00     0.036 A 
HETATM   16  C24 UNL     1      36.798 -22.939  24.029  1.00  0.00     0.059 A 
BRANCH  15  17
HETATM   17  N5  UNL     1      35.546 -24.689  22.898  1.00  0.00    -0.327 N 
HETATM   18  C22 UNL     1      34.766 -25.621  23.601  1.00  0.00     0.218 C 
HETATM   19  C23 UNL     1      34.722 -27.049  23.096  1.00  0.00     0.117 C 
HETATM   20  O5  UNL     1      34.094 -25.371  24.626  1.00  0.00    -0.274 OA
ATOM     21  H5  UNL     1      36.036 -25.041  22.075  1.00  0.00     0.169 HD
ENDBRANCH  15  17
ENDBRANCH   9  11
ENDBRANCH   5   7
BRANCH   4  22
HETATM   22  C8  UNL     1      38.725 -18.530  27.666  1.00  0.00     0.257 C 
HETATM   23  O3  UNL     1      38.396 -18.403  26.498  1.00  0.00    -0.267 OA
HETATM   24  N3  UNL     1      38.498 -17.583  28.665  1.00  0.00    -0.323 N 
ATOM     25  H3  UNL     1      38.826 -17.807  29.603  1.00  0.00     0.169 HD
BRANCH  24  26
HETATM   26  C9  UNL     1      37.853 -16.343  28.487  1.00  0.00     0.035 A 
HETATM   27  C10 UNL     1      36.539 -16.223  28.986  1.00  0.00     0.032 A 
HETATM   28  C11 UNL     1      35.827 -15.065  28.853  1.00  0.00     0.044 A 
HETATM   29  C12 UNL     1      36.331 -13.956  28.234  1.00  0.00     0.116 A 
HETATM   30  F1  UNL     1      35.602 -12.826  28.119  1.00  0.00    -0.206 F 
HETATM   31  C13 UNL     1      37.608 -14.048  27.740  1.00  0.00     0.044 A 
HETATM   32  C14 UNL     1      38.343 -15.232  27.873  1.00  0.00     0.032 A 
ENDBRANCH  24  26
ENDBRANCH   4  22
BRANCH   1  33
HETATM   33  N2  UNL     1      41.682 -23.200  29.119  1.00  0.00    -0.319 N 
HETATM   34  C3  UNL     1      43.013 -23.470  28.824  1.00  0.00     0.313 C 
HETATM   35  O2  UNL     1      43.810 -22.694  28.213  1.00  0.00    -0.262 OA
ATOM     36  H2  UNL     1      41.169 -23.931  29.614  1.00  0.00     0.169 HD
BRANCH  34  37
HETATM   37  C2  UNL     1      43.567 -24.777  29.256  1.00  0.00     0.309 C 
HETATM   38  N1  UNL     1      43.161 -25.949  28.566  1.00  0.00    -0.357 N 
HETATM   39  C1  UNL     1      43.667 -27.253  28.940  1.00  0.00     0.149 C 
ATOM     40  H1  UNL     1      42.502 -25.870  27.792  1.00  0.00     0.162 HD
HETATM   41  O1  UNL     1      44.374 -24.818  30.212  1.00  0.00    -0.262 OA
ENDBRANCH  34  37
ENDBRANCH   1  33
TORSDOF 7
ENDMDL
MODEL 4
REMARK VINA RESULT: -8.930857897      3.648      7.929
REMARK  7 active torsions:
REMARK  status: ('A' for Active; 'I' for Inactive)
REMARK       I    between atoms: N1_2  and  C2_4 
REMARK    1  A    between atoms: C2_4  and  C3_6 
REMARK       I    between atoms: C3_6  and  N2_8 
REMARK    2  A    between atoms: N2_8  and  C4_10 
REMARK    3  A    between atoms: C7_13  and  C8_14 
REMARK       I    between atoms: C8_14  and  N3_16 
REMARK    4  A    between atoms: N3_16  and  C9_18 
REMARK    5  A    between atoms: C15_25  and  C16_26 
REMARK       I    between atoms: C16_26  and  N4_28 
REMARK    6  A    between atoms: N4_28  and  C17_30 
REMARK    7  A    between atoms: C21_34  and  N5_35 
REMARK       I    between atoms: N5_35  and  C22_37 
ROOT
HETATM    1  C4  UNL     1      37.984 -17.499  27.891  1.00  0.00     0.036 A 
HETATM    2  C5  UNL     1      38.881 -17.948  28.824  1.00  0.00     0.030 A 
HETATM    3  C6  UNL     1      39.289 -19.272  28.832  1.00  0.00     0.020 A 
HETATM    4  C7  UNL     1      38.802 -20.198  27.891  1.00  0.00     0.048 A 
HETATM    5  C15 UNL     1      37.915 -19.779  26.957  1.00  0.00     0.050 A 
HETATM    6  C25 UNL     1      37.528 -18.426  26.987  1.00  0.00     0.047 A 
ENDROOT
BRANCH   5   7
HETATM    7  C16 UNL     1      37.373 -20.622  25.908  1.00  0.00     0.257 C 
HETATM    8  O4  UNL     1      38.135 -20.783  24.886  1.00  0.00    -0.267 OA
HETATM    9  N4  UNL     1      36.130 -21.244  25.946  1.00  0.00    -0.323 N 
ATOM     10  H4  UNL     1      35.556 -21.102  26.777  1.00  0.00     0.169 HD
BRANCH   9  11
HETATM   11  C17 UNL     1      35.599 -22.068  24.906  1.00  0.00     0.037 A 
HETATM   12  C18 UNL     1      35.104 -21.615  23.725  1.00  0.00     0.029 A 
HETATM   13  C19 UNL     1      34.559 -22.483  22.768  1.00  0.00     0.004 A 
HETATM   14  C20 UNL     1      34.544 -23.849  23.073  1.00  0.00     0.029 A 
HETATM   15  C21 UNL     1      35.028 -24.354  24.240  1.00  0.00     0.036 A 
HETATM   16  C24 UNL     1      35.564 -23.432  25.166  1.00  0.00     0.059 A 
BRANCH  15  17
HETATM   17  N5  UNL     1      35.029 -25.720  24.543  1.00  0.00    -0.327 N 
HETATM   18  C22 UNL     1      36.058 -26.646  24.312  1.00  0.00     0.218 C 
HETATM   19  C23 UNL     1      35.833 -28.089  24.719  1.00  0.00     0.117 C 
HETATM   20  O5  UNL     1      37.163 -26.380  23.789  1.00  0.00    -0.274 OA
ATOM     21  H5  UNL     1      34.184 -26.085  24.983  1.00  0.00     0.169 HD
ENDBRANCH  15  17
ENDBRANCH   9  11
ENDBRANCH   5   7
BRANCH   4  22
HETATM   22  C8  UNL     1      39.270 -21.596  28.030  1.00  0.00     0.257 C 
HETATM   23  O3  UNL     1      39.351 -22.040  29.164  1.00  0.00    -0.267 OA
HETATM   24  N3  UNL     1      39.589 -22.307  26.872  1.00  0.00    -0.323 N 
ATOM     25  H3  UNL     1      39.484 -21.820  25.983  1.00  0.00     0.169 HD
BRANCH  24  26
HETATM   26  C9  UNL     1      40.045 -23.639  26.828  1.00  0.00     0.035 A 
HETATM   27  C10 UNL     1      39.088 -24.639  26.562  1.00  0.00     0.032 A 
HETATM   28  C11 UNL     1      39.429 -25.961  26.510  1.00  0.00     0.044 A 
HETATM   29  C12 UNL     1      40.707 -26.401  26.709  1.00  0.00     0.116 A 
HETATM   30  F1  UNL     1      41.014 -27.714  26.651  1.00  0.00    -0.206 F 
HETATM   31  C13 UNL     1      41.658 -25.446  26.970  1.00  0.00     0.044 A 
HETATM   32  C14 UNL     1      41.314 -24.090  27.024  1.00  0.00     0.032 A 
ENDBRANCH  24  26
ENDBRANCH   4  22
BRANCH   1  33
HETATM   33  N2  UNL     1      37.495 -16.168  27.823  1.00  0.00    -0.319 N 
HETATM   34  C3  UNL     1      36.361 -15.655  28.443  1.00  0.00     0.313 C 
HETATM   35  O2  UNL     1      35.559 -16.308  29.181  1.00  0.00    -0.262 OA
ATOM     36  H2  UNL     1      38.036 -15.515  27.256  1.00  0.00     0.169 HD
BRANCH  34  37
HETATM   37  C2  UNL     1      36.045 -14.221  28.234  1.00  0.00     0.309 C 
HETATM   38  N1  UNL     1      36.369 -13.629  26.985  1.00  0.00    -0.357 N 
HETATM   39  C1  UNL     1      36.085 -12.233  26.720  1.00  0.00     0.149 C 
ATOM     40  H1  UNL     1      36.808 -14.197  26.261  1.00  0.00     0.162 HD
HETATM   41  O1  UNL     1      35.505 -13.568  29.155  1.00  0.00    -0.262 OA
ENDBRANCH  34  37
ENDBRANCH   1  33
TORSDOF 7
ENDMDL
MODEL 5
REMARK VINA RESULT: -8.927886717      3.572      7.890
REMARK  7 active torsions:
REMARK  status: ('A' for Active; 'I' for Inactive)
REMARK       I    between atoms: N1_2  and  C2_4 
REMARK    1  A    between atoms: C2_4  and  C3_6 
REMARK       I    between atoms: C3_6  and  N2_8 
REMARK    2  A    between atoms: N2_8  and  C4_10 
REMARK    3  A    between atoms: C7_13  and  C8_14 
REMARK       I    between atoms: C8_14  and  N3_16 
REMARK    4  A    between atoms: N3_16  and  C9_18 
REMARK    5  A    between atoms: C15_25  and  C16_26 
REMARK       I    between atoms: C16_26  and  N4_28 
REMARK    6  A    between atoms: N4_28  and  C17_30 
REMARK    7  A    between atoms: C21_34  and  N5_35 
REMARK       I    between atoms: N5_35  and  C22_37 
ROOT
HETATM    1  C4  UNL     1      37.954 -17.974  28.376  1.00  0.00     0.036 A 
HETATM    2  C5  UNL     1      39.118 -18.345  28.994  1.00  0.00     0.030 A 
HETATM    3  C6  UNL     1      39.770 -19.514  28.632  1.00  0.00     0.020 A 
HETATM    4  C7  UNL     1      39.263 -20.356  27.624  1.00  0.00     0.048 A 
HETATM    5  C15 UNL     1      38.114 -20.010  26.996  1.00  0.00     0.050 A 
HETATM    6  C25 UNL     1      37.487 -18.816  27.397  1.00  0.00     0.047 A 
ENDROOT
BRANCH   5   7
HETATM    7  C16 UNL     1      37.514 -20.768  25.914  1.00  0.00     0.257 C 
HETATM    8  O4  UNL     1      38.181 -20.776  24.816  1.00  0.00    -0.267 OA
HETATM    9  N4  UNL     1      36.312 -21.462  25.996  1.00  0.00    -0.323 N 
ATOM     10  H4  UNL     1      35.814 -21.442  26.886  1.00  0.00     0.169 HD
BRANCH   9  11
HETATM   11  C17 UNL     1      35.723 -22.201  24.924  1.00  0.00     0.037 A 
HETATM   12  C18 UNL     1      35.225 -21.660  23.781  1.00  0.00     0.029 A 
HETATM   13  C19 UNL     1      34.623 -22.447  22.790  1.00  0.00     0.004 A 
HETATM   14  C20 UNL     1      34.550 -23.826  23.018  1.00  0.00     0.029 A 
HETATM   15  C21 UNL     1      35.034 -24.418  24.145  1.00  0.00     0.036 A 
HETATM   16  C24 UNL     1      35.630 -23.574  25.108  1.00  0.00     0.059 A 
BRANCH  15  17
HETATM   17  N5  UNL     1      34.978 -25.797  24.371  1.00  0.00    -0.327 N 
HETATM   18  C22 UNL     1      36.048 -26.706  24.380  1.00  0.00     0.218 C 
HETATM   19  C23 UNL     1      35.748 -28.168  24.642  1.00  0.00     0.117 C 
HETATM   20  O5  UNL     1      37.248 -26.409  24.186  1.00  0.00    -0.274 OA
ATOM     21  H5  UNL     1      34.053 -26.188  24.550  1.00  0.00     0.169 HD
ENDBRANCH  15  17
ENDBRANCH   9  11
ENDBRANCH   5   7
BRANCH   4  22
HETATM   22  C8  UNL     1      40.018 -21.602  27.359  1.00  0.00     0.257 C 
HETATM   23  O3  UNL     1      41.006 -21.508  26.651  1.00  0.00    -0.267 OA
HETATM   24  N3  UNL     1      39.554 -22.791  27.924  1.00  0.00    -0.323 N 
ATOM     25  H3  UNL     1      38.711 -22.739  28.495  1.00  0.00     0.169 HD
BRANCH  24  26
HETATM   26  C9  UNL     1      40.152 -24.058  27.773  1.00  0.00     0.035 A 
HETATM   27  C10 UNL     1      39.549 -24.952  26.865  1.00  0.00     0.032 A 
HETATM   28  C11 UNL     1      40.047 -26.207  26.658  1.00  0.00     0.044 A 
HETATM   29  C12 UNL     1      41.152 -26.677  27.308  1.00  0.00     0.116 A 
HETATM   30  F1  UNL     1      41.622 -27.922  27.081  1.00  0.00    -0.206 F 
HETATM   31  C13 UNL     1      41.759 -25.826  28.197  1.00  0.00     0.044 A 
HETATM   32  C14 UNL     1      41.253 -24.539  28.414  1.00  0.00     0.032 A 
ENDBRANCH  24  26
ENDBRANCH   4  22
BRANCH   1  33
HETATM   33  N2  UNL     1      37.210 -16.808  28.698  1.00  0.00    -0.319 N 
HETATM   34  C3  UNL     1      36.851 -15.775  27.839  1.00  0.00     0.313 C 
HETATM   35  O2  UNL     1      37.139 -15.702  26.605  1.00  0.00    -0.262 OA
ATOM     36  H2  UNL     1      36.905 -16.718  29.667  1.00  0.00     0.169 HD
BRANCH  34  37
HETATM   37  C2  UNL     1      36.060 -14.652  28.399  1.00  0.00     0.309 C 
HETATM   38  N1  UNL     1      34.955 -14.951  29.238  1.00  0.00    -0.357 N 
HETATM   39  C1  UNL     1      34.145 -13.898  29.816  1.00  0.00     0.149 C 
ATOM     40  H1  UNL     1      34.728 -15.924  29.439  1.00  0.00     0.162 HD
HETATM   41  O1  UNL     1      36.381 -13.475  28.122  1.00  0.00    -0.262 OA
ENDBRANCH  34  37
ENDBRANCH   1  33
TORSDOF 7
ENDMDL
