MODEL 1
REMARK VINA RESULT: -8.951203623      0.000      0.000
REMARK  6 active torsions:
REMARK  status: ('A' for Active; 'I' for Inactive)
REMARK    1  A    between atoms: C2_2  and  C4_4 
REMARK    2  A    between atoms: C4_4  and  C5_5 
REMARK    3  A    between atoms: C7_9  and  C8_10 
REMARK    4  A    between atoms: C11_13  and  N2_14 
REMARK    5  A    between atoms: N2_14  and  C12_16 
REMARK    6  A    between atoms: C20_31  and  C21_32 
ROOT
HETATM    1  C5  UNL     1      37.801 -18.494  27.419  1.00  0.00     0.174 C 
HETATM    2  N1  UNL     1      36.827 -19.102  26.737  1.00  0.00    -0.375 N 
ATOM      3  H1  UNL     1      35.958 -19.160  27.267  1.00  0.00     0.160 HD
HETATM    4  C6  UNL     1      36.717 -19.679  25.465  1.00  0.00     0.052 C 
HETATM    5  C7  UNL     1      37.361 -18.982  24.396  1.00  0.00     0.008 C 
HETATM    6  C11 UNL     1      36.563 -21.198  25.570  1.00  0.00     0.057 C 
HETATM    7  C17 UNL     1      37.508 -21.878  26.421  1.00  0.00     0.024 C 
HETATM    8  C18 UNL     1      38.857 -22.271  26.069  1.00  0.00     0.152 C 
HETATM    9  N4  UNL     1      39.616 -22.604  27.264  1.00  0.00    -0.356 N 
ATOM     10  H4  UNL     1      40.040 -23.531  27.286  1.00  0.00     0.162 HD
HETATM   11  C19 UNL     1      39.830 -21.804  28.379  1.00  0.00     0.241 C 
HETATM   12  O2  UNL     1      39.660 -22.388  29.520  1.00  0.00    -0.271 OA
HETATM   13  C20 UNL     1      40.222 -20.394  28.486  1.00  0.00     0.180 C 
HETATM   14  N5  UNL     1      40.129 -19.594  27.315  1.00  0.00    -0.346 N 
ATOM     15  H5  UNL     1      40.759 -19.814  26.544  1.00  0.00     0.163 HD
HETATM   16  C27 UNL     1      39.218 -18.500  27.132  1.00  0.00     0.241 C 
HETATM   17  O3  UNL     1      39.764 -17.432  26.663  1.00  0.00    -0.271 OA
ENDROOT
BRANCH   6  18
HETATM   18  N2  UNL     1      35.872 -21.762  24.512  1.00  0.00    -0.352 N 
ATOM     19  H2  UNL     1      35.311 -21.085  23.995  1.00  0.00     0.166 HD
BRANCH  18  20
HETATM   20  C12 UNL     1      35.778 -23.046  24.003  1.00  0.00     0.078 A 
HETATM   21  C13 UNL     1      34.960 -24.049  24.389  1.00  0.00     0.107 A 
HETATM   22  C14 UNL     1      34.982 -25.282  23.785  1.00  0.00     0.247 A 
HETATM   23  O1  UNL     1      34.194 -26.210  24.175  1.00  0.00    -0.268 OA
HETATM   24  N3  UNL     1      35.825 -25.550  22.775  1.00  0.00    -0.331 N 
HETATM   25  C15 UNL     1      36.672 -24.604  22.332  1.00  0.00     0.136 A 
ATOM     26  H3  UNL     1      35.824 -26.473  22.342  1.00  0.00     0.168 HD
HETATM   27  C16 UNL     1      36.652 -23.378  22.931  1.00  0.00     0.158 A 
HETATM   28  F1  UNL     1      37.537 -22.445  22.442  1.00  0.00    -0.202 F 
ENDBRANCH  18  20
ENDBRANCH   6  18
BRANCH   5  29
HETATM   29  C8  UNL     1      37.372 -19.376  22.962  1.00  0.00     0.002 C 
HETATM   30  C9  UNL     1      35.992 -18.888  22.341  1.00  0.00     0.013 C 
HETATM   31  C10 UNL     1      38.334 -18.564  22.103  1.00  0.00     0.013 C 
ENDBRANCH   5  29
BRANCH   1  32
HETATM   32  C4  UNL     1      37.385 -16.990  27.511  1.00  0.00     0.038 C 
BRANCH  32  33
HETATM   33  C2  UNL     1      36.725 -16.774  28.847  1.00  0.00    -0.020 C 
HETATM   34  C1  UNL     1      37.737 -16.725  29.972  1.00  0.00     0.009 C 
HETATM   35  C3  UNL     1      36.067 -15.403  28.800  1.00  0.00     0.009 C 
ENDBRANCH  32  33
ENDBRANCH   1  32
BRANCH  13  36
HETATM   36  C21 UNL     1      41.680 -20.355  28.947  1.00  0.00     0.018 C 
HETATM   37  C22 UNL     1      42.628 -20.287  27.782  1.00  0.00     0.007 C 
HETATM   38  C23 UNL     1      43.986 -20.888  28.084  1.00  0.00     0.000 C 
HETATM   39  C24 UNL     1      44.286 -20.582  29.536  1.00  0.00     0.000 C 
HETATM   40  C25 UNL     1      43.392 -21.446  30.370  1.00  0.00     0.000 C 
HETATM   41  C26 UNL     1      42.005 -21.560  29.779  1.00  0.00     0.007 C 
ENDBRANCH  13  36
TORSDOF 6
ENDMDL
MODEL 2
REMARK VINA RESULT: -8.908916437      2.275      5.743
REMARK  6 active torsions:
REMARK  status: ('A' for Active; 'I' for Inactive)
REMARK    1  A    between atoms: C2_2  and  C4_4 
REMARK    2  A    between atoms: C4_4  and  C5_5 
REMARK    3  A    between atoms: C7_9  and  C8_10 
REMARK    4  A    between atoms: C11_13  and  N2_14 
REMARK    5  A    between atoms: N2_14  and  C12_16 
REMARK    6  A    between atoms: C20_31  and  C21_32 
ROOT
HETATM    1  C5  UNL     1      40.945 -20.218  26.594  1.00  0.00     0.174 C 
HETATM    2  N1  UNL     1      40.763 -21.427  26.058  1.00  0.00    -0.375 N 
ATOM      3  H1  UNL     1      41.159 -21.502  25.122  1.00  0.00     0.160 HD
HETATM    4  C6  UNL     1      40.157 -22.619  26.479  1.00  0.00     0.052 C 
HETATM    5  C7  UNL     1      40.368 -22.989  27.844  1.00  0.00     0.008 C 
HETATM    6  C11 UNL     1      38.889 -22.897  25.669  1.00  0.00     0.057 C 
HETATM    7  C17 UNL     1      37.959 -21.803  25.541  1.00  0.00     0.024 C 
HETATM    8  C18 UNL     1      36.969 -21.395  26.516  1.00  0.00     0.152 C 
HETATM    9  N4  UNL     1      36.469 -20.065  26.206  1.00  0.00    -0.356 N 
ATOM     10  H4  UNL     1      35.459 -19.977  26.096  1.00  0.00     0.162 HD
HETATM   11  C19 UNL     1      37.209 -18.901  26.043  1.00  0.00     0.241 C 
HETATM   12  O2  UNL     1      36.895 -18.186  25.013  1.00  0.00    -0.271 OA
HETATM   13  C20 UNL     1      38.298 -18.337  26.849  1.00  0.00     0.180 C 
HETATM   14  N5  UNL     1      38.918 -19.187  27.805  1.00  0.00    -0.346 N 
ATOM     15  H5  UNL     1      38.354 -19.491  28.598  1.00  0.00     0.163 HD
HETATM   16  C27 UNL     1      40.275 -19.649  27.741  1.00  0.00     0.241 C 
HETATM   17  O3  UNL     1      40.927 -19.524  28.845  1.00  0.00    -0.271 OA
ENDROOT
BRANCH   6  18
HETATM   18  N2  UNL     1      38.577 -24.242  25.568  1.00  0.00    -0.352 N 
ATOM     19  H2  UNL     1      39.359 -24.852  25.806  1.00  0.00     0.166 HD
BRANCH  18  20
HETATM   20  C12 UNL     1      37.434 -24.939  25.213  1.00  0.00     0.078 A 
HETATM   21  C13 UNL     1      36.304 -24.470  24.641  1.00  0.00     0.107 A 
HETATM   22  C14 UNL     1      35.242 -25.289  24.347  1.00  0.00     0.247 A 
HETATM   23  O1  UNL     1      34.187 -24.815  23.805  1.00  0.00    -0.268 OA
HETATM   24  N3  UNL     1      35.278 -26.605  24.618  1.00  0.00    -0.331 N 
HETATM   25  C15 UNL     1      36.367 -27.147  25.188  1.00  0.00     0.136 A 
ATOM     26  H3  UNL     1      34.477 -27.193  24.391  1.00  0.00     0.168 HD
HETATM   27  C16 UNL     1      37.425 -26.335  25.481  1.00  0.00     0.158 A 
HETATM   28  F1  UNL     1      38.515 -26.939  26.064  1.00  0.00    -0.202 F 
ENDBRANCH  18  20
ENDBRANCH   6  18
BRANCH   5  29
HETATM   29  C8  UNL     1      39.852 -24.207  28.521  1.00  0.00     0.002 C 
HETATM   30  C9  UNL     1      40.761 -25.420  28.039  1.00  0.00     0.013 C 
HETATM   31  C10 UNL     1      40.141 -24.256  30.016  1.00  0.00     0.013 C 
ENDBRANCH   5  29
BRANCH   1  32
HETATM   32  C4  UNL     1      42.476 -20.105  26.886  1.00  0.00     0.038 C 
BRANCH  32  33
HETATM   33  C2  UNL     1      43.200 -20.996  25.913  1.00  0.00    -0.020 C 
HETATM   34  C1  UNL     1      44.051 -20.199  24.947  1.00  0.00     0.009 C 
HETATM   35  C3  UNL     1      44.159 -21.854  26.724  1.00  0.00     0.009 C 
ENDBRANCH  32  33
ENDBRANCH   1  32
BRANCH  13  36
HETATM   36  C21 UNL     1      37.734 -17.136  27.608  1.00  0.00     0.018 C 
HETATM   37  C22 UNL     1      38.056 -15.841  26.915  1.00  0.00     0.007 C 
HETATM   38  C23 UNL     1      38.132 -14.661  27.862  1.00  0.00     0.000 C 
HETATM   39  C24 UNL     1      37.093 -14.897  28.938  1.00  0.00     0.000 C 
HETATM   40  C25 UNL     1      37.596 -16.005  29.811  1.00  0.00     0.000 C 
HETATM   41  C26 UNL     1      38.272 -17.093  29.008  1.00  0.00     0.007 C 
ENDBRANCH  13  36
TORSDOF 6
ENDMDL
MODEL 3
REMARK VINA RESULT: -8.552270995      2.501      7.435
REMARK  6 active torsions:
REMARK  status: ('A' for Active; 'I' for Inactive)
REMARK    1  A    between atoms: C2_2  and  C4_4 
REMARK    2  A    between atoms: C4_4  and  C5_5 
REMARK    3  A    between atoms: C7_9  and  C8_10 
REMARK    4  A    between atoms: C11_13  and  N2_14 
REMARK    5  A    between atoms: N2_14  and  C12_16 
REMARK    6  A    between atoms: C20_31  and  C21_32 
ROOT
HETATM    1  C5  UNL     1      39.061 -23.197  26.781  1.00  0.00     0.174 C 
HETATM    2  N1  UNL     1      38.669 -21.982  27.171  1.00  0.00    -0.375 N 
ATOM      3  H1  UNL     1      38.333 -21.972  28.133  1.00  0.00     0.160 HD
HETATM    4  C6  UNL     1      38.610 -20.717  26.571  1.00  0.00     0.052 C 
HETATM    5  C7  UNL     1      39.718 -20.358  25.741  1.00  0.00     0.008 C 
HETATM    6  C11 UNL     1      37.158 -20.289  26.348  1.00  0.00     0.057 C 
HETATM    7  C17 UNL     1      36.298 -21.258  25.714  1.00  0.00     0.024 C 
HETATM    8  C18 UNL     1      36.196 -21.521  24.293  1.00  0.00     0.152 C 
HETATM    9  N4  UNL     1      35.507 -22.780  24.059  1.00  0.00    -0.356 N 
ATOM     10  H4  UNL     1      34.685 -22.740  23.457  1.00  0.00     0.162 HD
HETATM   11  C19 UNL     1      35.840 -24.032  24.561  1.00  0.00     0.241 C 
HETATM   12  O2  UNL     1      34.853 -24.715  25.041  1.00  0.00    -0.271 OA
HETATM   13  C20 UNL     1      37.133 -24.719  24.641  1.00  0.00     0.180 C 
HETATM   14  N5  UNL     1      38.306 -23.943  24.432  1.00  0.00    -0.346 N 
ATOM     15  H5  UNL     1      38.454 -23.557  23.500  1.00  0.00     0.163 HD
HETATM   16  C27 UNL     1      39.297 -23.659  25.431  1.00  0.00     0.241 C 
HETATM   17  O3  UNL     1      40.509 -23.851  25.041  1.00  0.00    -0.271 OA
ENDROOT
BRANCH   6  18
HETATM   18  N2  UNL     1      36.976 -18.917  26.344  1.00  0.00    -0.352 N 
ATOM     19  H2  UNL     1      36.435 -18.589  25.544  1.00  0.00     0.166 HD
BRANCH  18  20
HETATM   20  C12 UNL     1      37.368 -17.894  27.190  1.00  0.00     0.078 A 
HETATM   21  C13 UNL     1      37.468 -17.904  28.536  1.00  0.00     0.107 A 
HETATM   22  C14 UNL     1      37.873 -16.801  29.246  1.00  0.00     0.247 A 
HETATM   23  O1  UNL     1      37.957 -16.844  30.520  1.00  0.00    -0.268 OA
HETATM   24  N3  UNL     1      38.191 -15.650  28.629  1.00  0.00    -0.331 N 
HETATM   25  C15 UNL     1      38.117 -15.560  27.289  1.00  0.00     0.136 A 
ATOM     26  H3  UNL     1      38.489 -14.844  29.177  1.00  0.00     0.168 HD
HETATM   27  C16 UNL     1      37.715 -16.656  26.582  1.00  0.00     0.158 A 
HETATM   28  F1  UNL     1      37.656 -16.512  25.215  1.00  0.00    -0.202 F 
ENDBRANCH  18  20
ENDBRANCH   6  18
BRANCH   5  29
HETATM   29  C8  UNL     1      39.901 -19.074  25.015  1.00  0.00     0.002 C 
HETATM   30  C9  UNL     1      41.442 -18.977  24.637  1.00  0.00     0.013 C 
HETATM   31  C10 UNL     1      39.298 -19.059  23.616  1.00  0.00     0.013 C 
ENDBRANCH   5  29
BRANCH   1  32
HETATM   32  C4  UNL     1      40.370 -23.501  27.578  1.00  0.00     0.038 C 
BRANCH  32  33
HETATM   33  C2  UNL     1      40.118 -23.172  29.024  1.00  0.00    -0.020 C 
HETATM   34  C1  UNL     1      40.072 -24.417  29.885  1.00  0.00     0.009 C 
HETATM   35  C3  UNL     1      41.309 -22.358  29.508  1.00  0.00     0.009 C 
ENDBRANCH  32  33
ENDBRANCH   1  32
BRANCH  13  36
HETATM   36  C21 UNL     1      37.131 -25.828  23.587  1.00  0.00     0.018 C 
HETATM   37  C22 UNL     1      38.093 -26.928  23.939  1.00  0.00     0.007 C 
HETATM   38  C23 UNL     1      38.622 -27.667  22.726  1.00  0.00     0.000 C 
HETATM   39  C24 UNL     1      37.493 -27.716  21.718  1.00  0.00     0.000 C 
HETATM   40  C25 UNL     1      37.323 -26.334  21.168  1.00  0.00     0.000 C 
HETATM   41  C26 UNL     1      37.483 -25.277  22.237  1.00  0.00     0.007 C 
ENDBRANCH  13  36
TORSDOF 6
ENDMDL
MODEL 4
REMARK VINA RESULT: -8.541721672      0.978      1.332
REMARK  6 active torsions:
REMARK  status: ('A' for Active; 'I' for Inactive)
REMARK    1  A    between atoms: C2_2  and  C4_4 
REMARK    2  A    between atoms: C4_4  and  C5_5 
REMARK    3  A    between atoms: C7_9  and  C8_10 
REMARK    4  A    between atoms: C11_13  and  N2_14 
REMARK    5  A    between atoms: N2_14  and  C12_16 
REMARK    6  A    between atoms: C20_31  and  C21_32 
ROOT
HETATM    1  C5  UNL     1      38.316 -18.876  27.157  1.00  0.00     0.174 C 
HETATM    2  N1  UNL     1      37.169 -19.357  26.672  1.00  0.00    -0.375 N 
ATOM      3  H1  UNL     1      36.436 -19.404  27.379  1.00  0.00     0.160 HD
HETATM    4  C6  UNL     1      36.733 -19.812  25.420  1.00  0.00     0.052 C 
HETATM    5  C7  UNL     1      37.182 -19.068  24.285  1.00  0.00     0.008 C 
HETATM    6  C11 UNL     1      36.479 -21.320  25.450  1.00  0.00     0.057 C 
HETATM    7  C17 UNL     1      37.529 -22.133  26.015  1.00  0.00     0.024 C 
HETATM    8  C18 UNL     1      38.729 -22.581  25.340  1.00  0.00     0.152 C 
HETATM    9  N4  UNL     1      39.703 -23.066  26.306  1.00  0.00    -0.356 N 
ATOM     10  H4  UNL     1      40.042 -24.018  26.165  1.00  0.00     0.162 HD
HETATM   11  C19 UNL     1      40.223 -22.383  27.397  1.00  0.00     0.241 C 
HETATM   12  O2  UNL     1      40.260 -23.052  28.502  1.00  0.00    -0.271 OA
HETATM   13  C20 UNL     1      40.745 -21.016  27.512  1.00  0.00     0.180 C 
HETATM   14  N5  UNL     1      40.464 -20.112  26.452  1.00  0.00    -0.346 N 
ATOM     15  H5  UNL     1      40.888 -20.306  25.545  1.00  0.00     0.163 HD
HETATM   16  C27 UNL     1      39.629 -18.949  26.558  1.00  0.00     0.241 C 
HETATM   17  O3  UNL     1      40.146 -17.883  26.054  1.00  0.00    -0.271 OA
ENDROOT
BRANCH   6  18
HETATM   18  N2  UNL     1      35.528 -21.744  24.538  1.00  0.00    -0.352 N 
ATOM     19  H2  UNL     1      34.876 -21.007  24.271  1.00  0.00     0.166 HD
BRANCH  18  20
HETATM   20  C12 UNL     1      35.271 -22.950  23.909  1.00  0.00     0.078 A 
HETATM   21  C13 UNL     1      35.051 -24.161  24.465  1.00  0.00     0.107 A 
HETATM   22  C14 UNL     1      34.809 -25.279  23.706  1.00  0.00     0.247 A 
HETATM   23  O1  UNL     1      34.605 -26.410  24.263  1.00  0.00    -0.268 OA
HETATM   24  N3  UNL     1      34.779 -25.220  22.364  1.00  0.00    -0.331 N 
HETATM   25  C15 UNL     1      34.988 -24.050  21.735  1.00  0.00     0.136 A 
ATOM     26  H3  UNL     1      34.598 -26.063  21.821  1.00  0.00     0.168 HD
HETATM   27  C16 UNL     1      35.229 -22.937  22.488  1.00  0.00     0.158 A 
HETATM   28  F1  UNL     1      35.437 -21.766  21.796  1.00  0.00    -0.202 F 
ENDBRANCH  18  20
ENDBRANCH   6  18
BRANCH   5  29
HETATM   29  C8  UNL     1      36.844 -19.334  22.862  1.00  0.00     0.002 C 
HETATM   30  C9  UNL     1      35.506 -18.534  22.550  1.00  0.00     0.013 C 
HETATM   31  C10 UNL     1      37.778 -18.658  21.865  1.00  0.00     0.013 C 
ENDBRANCH   5  29
BRANCH   1  32
HETATM   32  C4  UNL     1      38.057 -17.362  27.448  1.00  0.00     0.038 C 
BRANCH  32  33
HETATM   33  C2  UNL     1      37.203 -17.267  28.683  1.00  0.00    -0.020 C 
HETATM   34  C1  UNL     1      38.040 -17.082  29.932  1.00  0.00     0.009 C 
HETATM   35  C3  UNL     1      36.356 -16.012  28.543  1.00  0.00     0.009 C 
ENDBRANCH  32  33
ENDBRANCH   1  32
BRANCH  13  36
HETATM   36  C21 UNL     1      42.266 -21.113  27.633  1.00  0.00     0.018 C 
HETATM   37  C22 UNL     1      42.737 -20.738  29.010  1.00  0.00     0.007 C 
HETATM   38  C23 UNL     1      44.148 -20.185  29.027  1.00  0.00     0.000 C 
HETATM   39  C24 UNL     1      44.922 -20.929  27.959  1.00  0.00     0.000 C 
HETATM   40  C25 UNL     1      44.433 -20.443  26.630  1.00  0.00     0.000 C 
HETATM   41  C26 UNL     1      42.936 -20.229  26.623  1.00  0.00     0.007 C 
ENDBRANCH  13  36
TORSDOF 6
ENDMDL
MODEL 5
REMARK VINA RESULT: -8.511605933      3.064      7.540
REMARK  6 active torsions:
REMARK  status: ('A' for Active; 'I' for Inactive)
REMARK    1  A    between atoms: C2_2  and  C4_4 
REMARK    2  A    between atoms: C4_4  and  C5_5 
REMARK    3  A    between atoms: C7_9  and  C8_10 
REMARK    4  A    between atoms: C11_13  and  N2_14 
REMARK    5  A    between atoms: N2_14  and  C12_16 
REMARK    6  A    between atoms: C20_31  and  C21_32 
ROOT
HETATM    1  C5  UNL     1      37.034 -20.239  26.467  1.00  0.00     0.174 C 
HETATM    2  N1  UNL     1      37.967 -21.105  26.872  1.00  0.00    -0.375 N 
ATOM      3  H1  UNL     1      37.578 -21.856  27.442  1.00  0.00     0.160 HD
HETATM    4  C6  UNL     1      39.352 -21.227  26.699  1.00  0.00     0.052 C 
HETATM    5  C7  UNL     1      39.856 -20.922  25.396  1.00  0.00     0.008 C 
HETATM    6  C11 UNL     1      40.087 -20.976  28.017  1.00  0.00     0.057 C 
HETATM    7  C17 UNL     1      39.709 -19.789  28.743  1.00  0.00     0.024 C 
HETATM    8  C18 UNL     1      40.175 -18.441  28.494  1.00  0.00     0.152 C 
HETATM    9  N4  UNL     1      39.325 -17.476  29.174  1.00  0.00    -0.356 N 
ATOM     10  H4  UNL     1      39.795 -16.831  29.811  1.00  0.00     0.162 HD
HETATM   11  C19 UNL     1      37.949 -17.331  29.057  1.00  0.00     0.241 C 
HETATM   12  O2  UNL     1      37.310 -17.201  30.173  1.00  0.00    -0.271 OA
HETATM   13  C20 UNL     1      37.087 -17.300  27.870  1.00  0.00     0.180 C 
HETATM   14  N5  UNL     1      37.644 -17.741  26.639  1.00  0.00    -0.346 N 
ATOM     15  H5  UNL     1      38.392 -17.179  26.234  1.00  0.00     0.163 HD
HETATM   16  C27 UNL     1      37.236 -18.915  25.922  1.00  0.00     0.241 C 
HETATM   17  O3  UNL     1      37.038 -18.722  24.664  1.00  0.00    -0.271 OA
ENDROOT
BRANCH   6  18
HETATM   18  N2  UNL     1      41.304 -21.630  28.110  1.00  0.00    -0.352 N 
ATOM     19  H2  UNL     1      41.346 -22.475  27.541  1.00  0.00     0.166 HD
BRANCH  18  20
HETATM   20  C12 UNL     1      42.474 -21.385  28.806  1.00  0.00     0.078 A 
HETATM   21  C13 UNL     1      43.561 -20.687  28.411  1.00  0.00     0.107 A 
HETATM   22  C14 UNL     1      44.660 -20.529  29.220  1.00  0.00     0.247 A 
HETATM   23  O1  UNL     1      45.672 -19.863  28.816  1.00  0.00    -0.268 OA
HETATM   24  N3  UNL     1      44.706 -21.067  30.450  1.00  0.00    -0.331 N 
HETATM   25  C15 UNL     1      43.663 -21.776  30.916  1.00  0.00     0.136 A 
ATOM     26  H3  UNL     1      45.532 -20.937  31.032  1.00  0.00     0.168 HD
HETATM   27  C16 UNL     1      42.569 -21.934  30.115  1.00  0.00     0.158 A 
HETATM   28  F1  UNL     1      41.530 -22.668  30.638  1.00  0.00    -0.202 F 
ENDBRANCH  18  20
ENDBRANCH   6  18
BRANCH   5  29
HETATM   29  C8  UNL     1      41.274 -20.994  24.956  1.00  0.00     0.002 C 
HETATM   30  C9  UNL     1      41.257 -21.123  23.372  1.00  0.00     0.013 C 
HETATM   31  C10 UNL     1      42.034 -19.680  25.093  1.00  0.00     0.013 C 
ENDBRANCH   5  29
BRANCH   1  32
HETATM   32  C4  UNL     1      36.159 -21.007  25.426  1.00  0.00     0.038 C 
BRANCH  32  33
HETATM   33  C2  UNL     1      36.904 -22.251  25.023  1.00  0.00    -0.020 C 
HETATM   34  C1  UNL     1      36.073 -23.499  25.236  1.00  0.00     0.009 C 
HETATM   35  C3  UNL     1      37.156 -22.153  23.526  1.00  0.00     0.009 C 
ENDBRANCH  32  33
ENDBRANCH   1  32
BRANCH  13  36
HETATM   36  C21 UNL     1      36.633 -15.853  27.670  1.00  0.00     0.018 C 
HETATM   37  C22 UNL     1      37.775 -14.965  27.262  1.00  0.00     0.007 C 
HETATM   38  C23 UNL     1      37.583 -13.520  27.675  1.00  0.00     0.000 C 
HETATM   39  C24 UNL     1      36.102 -13.227  27.563  1.00  0.00     0.000 C 
HETATM   40  C25 UNL     1      35.417 -13.945  28.684  1.00  0.00     0.000 C 
HETATM   41  C26 UNL     1      36.012 -15.314  28.924  1.00  0.00     0.007 C 
ENDBRANCH  13  36
TORSDOF 6
ENDMDL
