MODEL 1
REMARK VINA RESULT: -6.429352133      0.000      0.000
REMARK  3 active torsions:
REMARK  status: ('A' for Active; 'I' for Inactive)
REMARK       I    between atoms: N1_2  and  C2_4 
REMARK    1  A    between atoms: C2_4  and  C3_6 
REMARK    2  A    between atoms: C5_9  and  C6_10 
REMARK    3  A    between atoms: C12_16  and  O2_17 
ROOT
HETATM    1  C3  UNL     1      25.546 -48.344   9.218  1.00  0.00     0.106 A 
HETATM    2  S1  UNL     1      26.523 -47.457  10.339  1.00  0.00    -0.093 SA
HETATM    3  C4  UNL     1      25.633 -45.975  10.272  1.00  0.00     0.061 A 
HETATM    4  C5  UNL     1      24.639 -46.235   9.404  1.00  0.00    -0.013 A 
HETATM    5  C12 UNL     1      24.590 -47.471   8.846  1.00  0.00     0.095 A 
ENDROOT
BRANCH   4   6
HETATM    6  C6  UNL     1      23.676 -45.119   9.058  1.00  0.00     0.022 C 
HETATM    7  C7  UNL     1      22.477 -45.351   9.994  1.00  0.00     0.009 C 
HETATM    8  C8  UNL     1      21.552 -44.168   9.743  1.00  0.00     0.001 C 
HETATM    9  C9  UNL     1      22.114 -43.086  10.650  1.00  0.00     0.000 C 
HETATM   10  C10 UNL     1      23.642 -43.097  10.622  1.00  0.00     0.001 C 
HETATM   11  C11 UNL     1      24.254 -43.750   9.416  1.00  0.00     0.009 C 
ENDBRANCH   4   6
BRANCH   5  12
HETATM   12  O2  UNL     1      23.588 -47.826   7.918  1.00  0.00    -0.359 OA
ATOM     13  H2  UNL     1      23.201 -47.183   7.336  1.00  0.00     0.217 HD
ENDBRANCH   5  12
BRANCH   1  14
HETATM   14  C2  UNL     1      25.777 -49.772   8.953  1.00  0.00     0.261 C 
HETATM   15  N1  UNL     1      25.277 -50.350   7.755  1.00  0.00    -0.361 N 
HETATM   16  C1  UNL     1      25.422 -51.681   7.272  1.00  0.00     0.149 C 
ATOM     17  H1  UNL     1      24.738 -49.723   7.158  1.00  0.00     0.162 HD
HETATM   18  O1  UNL     1      26.409 -50.491   9.733  1.00  0.00    -0.267 OA
ENDBRANCH   1  14
TORSDOF 3
ENDMDL
MODEL 2
REMARK VINA RESULT: -6.335781887      1.761      2.009
REMARK  3 active torsions:
REMARK  status: ('A' for Active; 'I' for Inactive)
REMARK       I    between atoms: N1_2  and  C2_4 
REMARK    1  A    between atoms: C2_4  and  C3_6 
REMARK    2  A    between atoms: C5_9  and  C6_10 
REMARK    3  A    between atoms: C12_16  and  O2_17 
ROOT
HETATM    1  C3  UNL     1      25.939 -46.918  10.669  1.00  0.00     0.106 A 
HETATM    2  S1  UNL     1      25.859 -45.862  12.040  1.00  0.00    -0.093 SA
HETATM    3  C4  UNL     1      24.643 -44.799  11.420  1.00  0.00     0.061 A 
HETATM    4  C5  UNL     1      24.361 -45.305  10.206  1.00  0.00    -0.013 A 
HETATM    5  C12 UNL     1      25.038 -46.410   9.806  1.00  0.00     0.095 A 
ENDROOT
BRANCH   4   6
HETATM    6  C6  UNL     1      23.354 -44.578   9.340  1.00  0.00     0.022 C 
HETATM    7  C7  UNL     1      22.045 -45.360   9.545  1.00  0.00     0.009 C 
HETATM    8  C8  UNL     1      20.994 -44.572   8.775  1.00  0.00     0.001 C 
HETATM    9  C9  UNL     1      20.567 -43.501   9.765  1.00  0.00     0.000 C 
HETATM   10  C10 UNL     1      21.775 -42.952  10.524  1.00  0.00     0.001 C 
HETATM   11  C11 UNL     1      23.100 -43.159   9.848  1.00  0.00     0.009 C 
ENDBRANCH   4   6
BRANCH   5  12
HETATM   12  O2  UNL     1      24.813 -47.001   8.544  1.00  0.00    -0.359 OA
ATOM     13  H2  UNL     1      25.378 -46.819   7.803  1.00  0.00     0.217 HD
ENDBRANCH   5  12
BRANCH   1  14
HETATM   14  C2  UNL     1      26.769 -48.132  10.676  1.00  0.00     0.261 C 
HETATM   15  N1  UNL     1      26.384 -49.246   9.884  1.00  0.00    -0.361 N 
HETATM   16  C1  UNL     1      27.050 -50.489   9.698  1.00  0.00     0.149 C 
ATOM     17  H1  UNL     1      25.505 -49.139   9.376  1.00  0.00     0.162 HD
HETATM   18  O1  UNL     1      27.806 -48.214  11.340  1.00  0.00    -0.267 OA
ENDBRANCH   1  14
TORSDOF 3
ENDMDL
MODEL 3
REMARK VINA RESULT: -6.210222342      2.207      2.501
REMARK  3 active torsions:
REMARK  status: ('A' for Active; 'I' for Inactive)
REMARK       I    between atoms: N1_2  and  C2_4 
REMARK    1  A    between atoms: C2_4  and  C3_6 
REMARK    2  A    between atoms: C5_9  and  C6_10 
REMARK    3  A    between atoms: C12_16  and  O2_17 
ROOT
HETATM    1  C3  UNL     1      25.881 -46.885  10.611  1.00  0.00     0.106 A 
HETATM    2  S1  UNL     1      25.844 -45.835  11.988  1.00  0.00    -0.093 SA
HETATM    3  C4  UNL     1      24.630 -44.752  11.400  1.00  0.00     0.061 A 
HETATM    4  C5  UNL     1      24.314 -45.248  10.190  1.00  0.00    -0.013 A 
HETATM    5  C12 UNL     1      24.968 -46.360   9.769  1.00  0.00     0.095 A 
ENDROOT
BRANCH   4   6
HETATM    6  C6  UNL     1      23.299 -44.503   9.350  1.00  0.00     0.022 C 
HETATM    7  C7  UNL     1      22.002 -45.311   9.521  1.00  0.00     0.009 C 
HETATM    8  C8  UNL     1      20.941 -44.509   8.778  1.00  0.00     0.001 C 
HETATM    9  C9  UNL     1      20.496 -43.483   9.808  1.00  0.00     0.000 C 
HETATM   10  C10 UNL     1      21.694 -42.946  10.590  1.00  0.00     0.001 C 
HETATM   11  C11 UNL     1      23.024 -43.108   9.911  1.00  0.00     0.009 C 
ENDBRANCH   4   6
BRANCH   5  12
HETATM   12  O2  UNL     1      24.708 -46.941   8.510  1.00  0.00    -0.359 OA
ATOM     13  H2  UNL     1      25.336 -46.887   7.800  1.00  0.00     0.217 HD
ENDBRANCH   5  12
BRANCH   1  14
HETATM   14  C2  UNL     1      26.694 -48.110  10.594  1.00  0.00     0.261 C 
HETATM   15  N1  UNL     1      27.922 -48.143  11.307  1.00  0.00    -0.361 N 
HETATM   16  C1  UNL     1      28.836 -49.221  11.472  1.00  0.00     0.149 C 
ATOM     17  H1  UNL     1      28.185 -47.271  11.767  1.00  0.00     0.162 HD
HETATM   18  O1  UNL     1      26.338 -49.126   9.989  1.00  0.00    -0.267 OA
ENDBRANCH   1  14
TORSDOF 3
ENDMDL
MODEL 4
REMARK VINA RESULT: -6.154404958      3.916      6.002
REMARK  3 active torsions:
REMARK  status: ('A' for Active; 'I' for Inactive)
REMARK       I    between atoms: N1_2  and  C2_4 
REMARK    1  A    between atoms: C2_4  and  C3_6 
REMARK    2  A    between atoms: C5_9  and  C6_10 
REMARK    3  A    between atoms: C12_16  and  O2_17 
ROOT
HETATM    1  C3  UNL     1      22.733 -44.733   9.848  1.00  0.00     0.106 A 
HETATM    2  S1  UNL     1      23.561 -45.924   8.902  1.00  0.00    -0.093 SA
HETATM    3  C4  UNL     1      24.981 -46.029   9.886  1.00  0.00     0.061 A 
HETATM    4  C5  UNL     1      24.748 -45.156  10.882  1.00  0.00    -0.013 A 
HETATM    5  C12 UNL     1      23.576 -44.472  10.866  1.00  0.00     0.095 A 
ENDROOT
BRANCH   4   6
HETATM    6  C6  UNL     1      25.829 -44.947  11.921  1.00  0.00     0.022 C 
HETATM    7  C7  UNL     1      26.362 -46.362  12.202  1.00  0.00     0.009 C 
HETATM    8  C8  UNL     1      27.530 -46.156  13.157  1.00  0.00     0.001 C 
HETATM    9  C9  UNL     1      28.692 -45.849  12.226  1.00  0.00     0.000 C 
HETATM   10  C10 UNL     1      28.246 -44.933  11.087  1.00  0.00     0.001 C 
HETATM   11  C11 UNL     1      26.998 -44.141  11.358  1.00  0.00     0.009 C 
ENDBRANCH   4   6
BRANCH   5  12
HETATM   12  O2  UNL     1      23.255 -43.529  11.865  1.00  0.00    -0.359 OA
ATOM     13  H2  UNL     1      23.565 -42.633  11.820  1.00  0.00     0.217 HD
ENDBRANCH   5  12
BRANCH   1  14
HETATM   14  C2  UNL     1      21.358 -44.315   9.534  1.00  0.00     0.261 C 
HETATM   15  N1  UNL     1      20.625 -43.554  10.483  1.00  0.00    -0.361 N 
HETATM   16  C1  UNL     1      19.317 -43.004  10.376  1.00  0.00     0.149 C 
ATOM     17  H1  UNL     1      21.105 -43.376  11.366  1.00  0.00     0.162 HD
HETATM   18  O1  UNL     1      20.818 -44.591   8.459  1.00  0.00    -0.267 OA
ENDBRANCH   1  14
TORSDOF 3
ENDMDL
MODEL 5
REMARK VINA RESULT: -6.045799653      3.001      6.083
REMARK  3 active torsions:
REMARK  status: ('A' for Active; 'I' for Inactive)
REMARK       I    between atoms: N1_2  and  C2_4 
REMARK    1  A    between atoms: C2_4  and  C3_6 
REMARK    2  A    between atoms: C5_9  and  C6_10 
REMARK    3  A    between atoms: C12_16  and  O2_17 
ROOT
HETATM    1  C3  UNL     1      24.178 -44.836  10.842  1.00  0.00     0.106 A 
HETATM    2  S1  UNL     1      25.418 -44.923  12.048  1.00  0.00    -0.093 SA
HETATM    3  C4  UNL     1      26.413 -46.092  11.249  1.00  0.00     0.061 A 
HETATM    4  C5  UNL     1      25.751 -46.351  10.107  1.00  0.00    -0.013 A 
HETATM    5  C12 UNL     1      24.580 -45.701   9.890  1.00  0.00     0.095 A 
ENDROOT
BRANCH   4   6
HETATM    6  C6  UNL     1      26.320 -47.393   9.167  1.00  0.00     0.022 C 
HETATM    7  C7  UNL     1      27.828 -47.391   9.470  1.00  0.00     0.009 C 
HETATM    8  C8  UNL     1      28.398 -48.517   8.618  1.00  0.00     0.001 C 
HETATM    9  C9  UNL     1      28.177 -49.752   9.477  1.00  0.00     0.000 C 
HETATM   10  C10 UNL     1      26.810 -49.698  10.159  1.00  0.00     0.001 C 
HETATM   11  C11 UNL     1      25.806 -48.792   9.505  1.00  0.00     0.009 C 
ENDBRANCH   4   6
BRANCH   5  12
HETATM   12  O2  UNL     1      23.816 -45.920   8.724  1.00  0.00    -0.359 OA
ATOM     13  H2  UNL     1      24.078 -46.558   8.072  1.00  0.00     0.217 HD
ENDBRANCH   5  12
BRANCH   1  14
HETATM   14  C2  UNL     1      23.072 -43.873  10.939  1.00  0.00     0.261 C 
HETATM   15  N1  UNL     1      22.093 -43.828   9.910  1.00  0.00    -0.361 N 
HETATM   16  C1  UNL     1      20.923 -43.023   9.819  1.00  0.00     0.149 C 
ATOM     17  H1  UNL     1      22.251 -44.461   9.127  1.00  0.00     0.162 HD
HETATM   18  O1  UNL     1      22.952 -43.105  11.898  1.00  0.00    -0.267 OA
ENDBRANCH   1  14
TORSDOF 3
ENDMDL
