MODEL 1
REMARK VINA RESULT: -6.202505288      0.000      0.000
REMARK  3 active torsions:
REMARK  status: ('A' for Active; 'I' for Inactive)
REMARK    1  A    between atoms: C4_5  and  O1_6 
REMARK    2  A    between atoms: C5_8  and  C6_9 
REMARK       I    between atoms: C6_9  and  N1_11 
REMARK    3  A    between atoms: N1_11  and  C7_13 
ROOT
HETATM    1  C6  UNL     1      25.225 -45.501  10.803  1.00  0.00     0.255 C 
HETATM    2  O2  UNL     1      24.620 -45.814  11.872  1.00  0.00    -0.268 OA
HETATM    3  N1  UNL     1      24.452 -44.951   9.779  1.00  0.00    -0.352 N 
ATOM      4  H1  UNL     1      24.874 -44.675   8.892  1.00  0.00     0.163 HD
ENDROOT
BRANCH   1   5
HETATM    5  C5  UNL     1      26.664 -45.718  10.683  1.00  0.00     0.078 A 
HETATM    6  C2  UNL     1      27.097 -46.791   9.912  1.00  0.00    -0.003 A 
HETATM    7  C1  UNL     1      26.314 -47.801   9.155  1.00  0.00     0.057 C 
HETATM    8  S1  UNL     1      28.789 -46.711  10.014  1.00  0.00    -0.103 SA
HETATM    9  C3  UNL     1      28.942 -45.349  11.013  1.00  0.00     0.087 A 
HETATM   10  C4  UNL     1      27.636 -44.983  11.245  1.00  0.00     0.088 A 
BRANCH  10  11
HETATM   11  O1  UNL     1      27.437 -43.848  12.067  1.00  0.00    -0.359 OA
ATOM     12  H1  UNL     1      26.558 -43.491  12.087  1.00  0.00     0.217 HD
ENDBRANCH  10  11
ENDBRANCH   1   5
BRANCH   3  13
HETATM   13  C7  UNL     1      22.995 -44.778  10.020  1.00  0.00     0.084 C 
HETATM   14  C8  UNL     1      22.798 -43.304  10.248  1.00  0.00     0.025 C 
HETATM   15  C9  UNL     1      21.402 -42.834  10.004  1.00  0.00     0.002 C 
HETATM   16  C10 UNL     1      20.472 -44.008   9.846  1.00  0.00     0.000 C 
HETATM   17  C11 UNL     1      20.910 -44.774   8.621  1.00  0.00     0.002 C 
HETATM   18  C12 UNL     1      22.314 -45.293   8.790  1.00  0.00     0.025 C 
ENDBRANCH   3  13
TORSDOF 3
ENDMDL
MODEL 2
REMARK VINA RESULT: -6.196764093      2.800      5.904
REMARK  3 active torsions:
REMARK  status: ('A' for Active; 'I' for Inactive)
REMARK    1  A    between atoms: C4_5  and  O1_6 
REMARK    2  A    between atoms: C5_8  and  C6_9 
REMARK       I    between atoms: C6_9  and  N1_11 
REMARK    3  A    between atoms: N1_11  and  C7_13 
ROOT
HETATM    1  C6  UNL     1      23.359 -44.212  10.813  1.00  0.00     0.255 C 
HETATM    2  O2  UNL     1      23.316 -43.499  11.859  1.00  0.00    -0.268 OA
HETATM    3  N1  UNL     1      24.549 -44.900  10.568  1.00  0.00    -0.352 N 
ATOM      4  H1  UNL     1      24.653 -45.494   9.745  1.00  0.00     0.163 HD
ENDROOT
BRANCH   1   5
HETATM    5  C5  UNL     1      22.201 -44.288   9.927  1.00  0.00     0.078 A 
HETATM    6  C2  UNL     1      22.198 -45.272   8.944  1.00  0.00    -0.003 A 
HETATM    7  C1  UNL     1      23.216 -46.305   8.623  1.00  0.00     0.057 C 
HETATM    8  S1  UNL     1      20.721 -45.043   8.141  1.00  0.00    -0.103 SA
HETATM    9  C3  UNL     1      20.122 -43.730   9.032  1.00  0.00     0.087 A 
HETATM   10  C4  UNL     1      21.116 -43.500   9.956  1.00  0.00     0.088 A 
BRANCH  10  11
HETATM   11  O1  UNL     1      20.896 -42.437  10.864  1.00  0.00    -0.359 OA
ATOM     12  H1  UNL     1      21.670 -42.052  11.257  1.00  0.00     0.217 HD
ENDBRANCH  10  11
ENDBRANCH   1   5
BRANCH   3  13
HETATM   13  C7  UNL     1      25.660 -44.743  11.545  1.00  0.00     0.084 C 
HETATM   14  C8  UNL     1      25.790 -46.080  12.223  1.00  0.00     0.025 C 
HETATM   15  C9  UNL     1      27.125 -46.315  12.849  1.00  0.00     0.002 C 
HETATM   16  C10 UNL     1      27.925 -45.040  12.873  1.00  0.00     0.000 C 
HETATM   17  C11 UNL     1      28.165 -44.625  11.442  1.00  0.00     0.002 C 
HETATM   18  C12 UNL     1      26.861 -44.358  10.738  1.00  0.00     0.025 C 
ENDBRANCH   3  13
TORSDOF 3
ENDMDL
MODEL 3
REMARK VINA RESULT: -6.133746201      2.353      3.790
REMARK  3 active torsions:
REMARK  status: ('A' for Active; 'I' for Inactive)
REMARK    1  A    between atoms: C4_5  and  O1_6 
REMARK    2  A    between atoms: C5_8  and  C6_9 
REMARK       I    between atoms: C6_9  and  N1_11 
REMARK    3  A    between atoms: N1_11  and  C7_13 
ROOT
HETATM    1  C6  UNL     1      25.312 -47.206   9.301  1.00  0.00     0.255 C 
HETATM    2  O2  UNL     1      25.661 -47.203  10.520  1.00  0.00    -0.268 OA
HETATM    3  N1  UNL     1      24.442 -46.193   8.892  1.00  0.00    -0.352 N 
ATOM      4  H1  UNL     1      24.122 -46.135   7.926  1.00  0.00     0.163 HD
ENDROOT
BRANCH   1   5
HETATM    5  C5  UNL     1      25.816 -48.234   8.396  1.00  0.00     0.078 A 
HETATM    6  C2  UNL     1      27.190 -48.441   8.347  1.00  0.00    -0.003 A 
HETATM    7  C1  UNL     1      28.285 -47.766   9.091  1.00  0.00     0.057 C 
HETATM    8  S1  UNL     1      27.377 -49.685   7.208  1.00  0.00    -0.103 SA
HETATM    9  C3  UNL     1      25.749 -49.936   6.803  1.00  0.00     0.087 A 
HETATM   10  C4  UNL     1      25.087 -49.019   7.588  1.00  0.00     0.088 A 
BRANCH  10  11
HETATM   11  O1  UNL     1      23.677 -48.990   7.468  1.00  0.00    -0.359 OA
ATOM     12  H1  UNL     1      23.291 -49.631   6.882  1.00  0.00     0.217 HD
ENDBRANCH  10  11
ENDBRANCH   1   5
BRANCH   3  13
HETATM   13  C7  UNL     1      23.998 -45.202   9.908  1.00  0.00     0.084 C 
HETATM   14  C8  UNL     1      24.906 -44.015   9.735  1.00  0.00     0.025 C 
HETATM   15  C9  UNL     1      24.344 -42.739  10.269  1.00  0.00     0.002 C 
HETATM   16  C10 UNL     1      23.112 -43.011  11.091  1.00  0.00     0.000 C 
HETATM   17  C11 UNL     1      22.075 -43.611  10.173  1.00  0.00     0.002 C 
HETATM   18  C12 UNL     1      22.563 -44.913   9.596  1.00  0.00     0.025 C 
ENDBRANCH   3  13
TORSDOF 3
ENDMDL
MODEL 4
REMARK VINA RESULT: -6.088715308      2.820      6.167
REMARK  3 active torsions:
REMARK  status: ('A' for Active; 'I' for Inactive)
REMARK    1  A    between atoms: C4_5  and  O1_6 
REMARK    2  A    between atoms: C5_8  and  C6_9 
REMARK       I    between atoms: C6_9  and  N1_11 
REMARK    3  A    between atoms: N1_11  and  C7_13 
ROOT
HETATM    1  C6  UNL     1      24.025 -45.513   9.763  1.00  0.00     0.255 C 
HETATM    2  O2  UNL     1      24.456 -46.457   9.036  1.00  0.00    -0.268 OA
HETATM    3  N1  UNL     1      24.857 -45.088  10.801  1.00  0.00    -0.352 N 
ATOM      4  H1  UNL     1      24.574 -44.332  11.425  1.00  0.00     0.163 HD
ENDROOT
BRANCH   1   5
HETATM    5  C5  UNL     1      22.718 -44.920   9.499  1.00  0.00     0.078 A 
HETATM    6  C2  UNL     1      22.380 -43.759  10.186  1.00  0.00    -0.003 A 
HETATM    7  C1  UNL     1      23.153 -42.983  11.189  1.00  0.00     0.057 C 
HETATM    8  S1  UNL     1      20.824 -43.387   9.621  1.00  0.00    -0.103 SA
HETATM    9  C3  UNL     1      20.608 -44.675   8.538  1.00  0.00     0.087 A 
HETATM   10  C4  UNL     1      21.786 -45.378   8.650  1.00  0.00     0.088 A 
BRANCH  10  11
HETATM   11  O1  UNL     1      21.905 -46.536   7.845  1.00  0.00    -0.359 OA
ATOM     12  H1  UNL     1      22.409 -46.443   7.045  1.00  0.00     0.217 HD
ENDBRANCH  10  11
ENDBRANCH   1   5
BRANCH   3  13
HETATM   13  C7  UNL     1      26.167 -45.770  10.970  1.00  0.00     0.084 C 
HETATM   14  C8  UNL     1      27.200 -44.770  10.529  1.00  0.00     0.025 C 
HETATM   15  C9  UNL     1      28.566 -45.026  11.076  1.00  0.00     0.002 C 
HETATM   16  C10 UNL     1      28.625 -46.384  11.725  1.00  0.00     0.000 C 
HETATM   17  C11 UNL     1      27.666 -46.374  12.891  1.00  0.00     0.002 C 
HETATM   18  C12 UNL     1      26.257 -46.129  12.421  1.00  0.00     0.025 C 
ENDBRANCH   3  13
TORSDOF 3
ENDMDL
MODEL 5
REMARK VINA RESULT: -6.043554387      2.864      6.111
REMARK  3 active torsions:
REMARK  status: ('A' for Active; 'I' for Inactive)
REMARK    1  A    between atoms: C4_5  and  O1_6 
REMARK    2  A    between atoms: C5_8  and  C6_9 
REMARK       I    between atoms: C6_9  and  N1_11 
REMARK    3  A    between atoms: N1_11  and  C7_13 
ROOT
HETATM    1  C6  UNL     1      23.336 -44.718  10.383  1.00  0.00     0.255 C 
HETATM    2  O2  UNL     1      23.165 -44.035  11.437  1.00  0.00    -0.268 OA
HETATM    3  N1  UNL     1      24.603 -45.273  10.191  1.00  0.00    -0.352 N 
ATOM      4  H1  UNL     1      24.811 -45.835   9.365  1.00  0.00     0.163 HD
ENDROOT
BRANCH   1   5
HETATM    5  C5  UNL     1      22.240 -44.895   9.436  1.00  0.00     0.078 A 
HETATM    6  C2  UNL     1      21.229 -43.940   9.427  1.00  0.00    -0.003 A 
HETATM    7  C1  UNL     1      21.062 -42.716  10.252  1.00  0.00     0.057 C 
HETATM    8  S1  UNL     1      20.165 -44.483   8.221  1.00  0.00    -0.103 SA
HETATM    9  C3  UNL     1      20.985 -45.888   7.741  1.00  0.00     0.087 A 
HETATM   10  C4  UNL     1      22.095 -45.896   8.555  1.00  0.00     0.088 A 
BRANCH  10  11
HETATM   11  O1  UNL     1      22.993 -46.976   8.382  1.00  0.00    -0.359 OA
ATOM     12  H1  UNL     1      23.877 -46.751   8.120  1.00  0.00     0.217 HD
ENDBRANCH  10  11
ENDBRANCH   1   5
BRANCH   3  13
HETATM   13  C7  UNL     1      25.640 -45.022  11.228  1.00  0.00     0.084 C 
HETATM   14  C8  UNL     1      25.802 -46.328  11.957  1.00  0.00     0.025 C 
HETATM   15  C9  UNL     1      27.106 -46.466  12.671  1.00  0.00     0.002 C 
HETATM   16  C10 UNL     1      27.831 -45.146  12.701  1.00  0.00     0.000 C 
HETATM   17  C11 UNL     1      28.136 -44.761  11.274  1.00  0.00     0.002 C 
HETATM   18  C12 UNL     1      26.865 -44.592  10.483  1.00  0.00     0.025 C 
ENDBRANCH   3  13
TORSDOF 3
ENDMDL
