MODEL 1
REMARK VINA RESULT: -5.983314721      0.000      0.000
REMARK  5 active torsions:
REMARK  status: ('A' for Active; 'I' for Inactive)
REMARK    1  A    between atoms: C2_2  and  C7_9 
REMARK    2  A    between atoms: C3_3  and  C4_4 
REMARK    3  A    between atoms: C5_5  and  C6_6 
REMARK    4  A    between atoms: C10_12  and  O3_13 
REMARK    5  A    between atoms: C14_18  and  O4_19 
ROOT
HETATM    1  C7  UNL     1     -12.555  83.951   5.122  1.00  0.00     0.025 C 
HETATM    2  C8  UNL     1     -12.189  84.003   6.621  1.00  0.00     0.013 C 
HETATM    3  C9  UNL     1     -10.659  83.955   6.487  1.00  0.00     0.040 C 
HETATM    4  C10 UNL     1     -10.548  82.741   5.578  1.00  0.00     0.069 C 
HETATM    5  C11 UNL     1      -9.179  82.402   5.190  1.00  0.00     0.019 C 
HETATM    6  C12 UNL     1      -8.241  82.791   6.341  1.00  0.00     0.013 C 
HETATM    7  C13 UNL     1      -8.643  83.009   3.953  1.00  0.00     0.039 C 
HETATM    8  C14 UNL     1      -9.663  83.153   2.847  1.00  0.00     0.119 C 
HETATM    9  C15 UNL     1     -10.865  83.825   3.409  1.00  0.00     0.044 C 
HETATM   10  C16 UNL     1     -11.542  83.028   4.509  1.00  0.00    -0.003 C 
HETATM   11  C17 UNL     1     -12.092  81.733   3.991  1.00  0.00     0.019 C 
ENDROOT
BRANCH   1  12
HETATM   12  C2  UNL     1     -13.952  83.620   4.936  1.00  0.00    -0.079 C 
HETATM   13  C1  UNL     1     -14.706  82.878   5.960  1.00  0.00     0.044 C 
HETATM   14  C3  UNL     1     -14.590  84.001   3.839  1.00  0.00     0.003 C 
BRANCH  14  15
HETATM   15  C4  UNL     1     -15.992  83.734   3.579  1.00  0.00     0.007 C 
HETATM   16  C5  UNL     1     -16.340  82.760   2.764  1.00  0.00     0.084 C 
BRANCH  16  17
HETATM   17  C6  UNL     1     -17.743  82.456   2.474  1.00  0.00     0.198 C 
HETATM   18  O1  UNL     1     -18.511  82.172   3.433  1.00  0.00    -0.645 OA
HETATM   19  O2  UNL     1     -18.263  82.465   1.210  1.00  0.00    -0.645 OA
ENDBRANCH  16  17
ENDBRANCH  14  15
ENDBRANCH   1  12
BRANCH   4  20
HETATM   20  O3  UNL     1     -11.051  81.663   6.346  1.00  0.00    -0.389 OA
ATOM     21  H3  UNL     1     -10.394  80.981   6.271  1.00  0.00     0.210 HD
ENDBRANCH   4  20
BRANCH   8  22
HETATM   22  O4  UNL     1      -9.079  84.058   1.926  1.00  0.00    -0.396 OA
ATOM     23  H4  UNL     1      -9.431  84.909   2.160  1.00  0.00     0.210 HD
ENDBRANCH   8  22
TORSDOF 5
ENDMDL
MODEL 2
REMARK VINA RESULT: -5.911092049      2.362      6.766
REMARK  5 active torsions:
REMARK  status: ('A' for Active; 'I' for Inactive)
REMARK    1  A    between atoms: C2_2  and  C7_9 
REMARK    2  A    between atoms: C3_3  and  C4_4 
REMARK    3  A    between atoms: C5_5  and  C6_6 
REMARK    4  A    between atoms: C10_12  and  O3_13 
REMARK    5  A    between atoms: C14_18  and  O4_19 
ROOT
HETATM    1  C7  UNL     1     -13.099  82.514   4.102  1.00  0.00     0.025 C 
HETATM    2  C8  UNL     1     -12.597  81.055   4.176  1.00  0.00     0.013 C 
HETATM    3  C9  UNL     1     -13.899  80.342   3.776  1.00  0.00     0.040 C 
HETATM    4  C10 UNL     1     -14.840  81.018   4.760  1.00  0.00     0.069 C 
HETATM    5  C11 UNL     1     -16.237  80.598   4.642  1.00  0.00     0.019 C 
HETATM    6  C12 UNL     1     -16.263  79.133   4.186  1.00  0.00     0.013 C 
HETATM    7  C13 UNL     1     -17.113  81.366   3.732  1.00  0.00     0.039 C 
HETATM    8  C14 UNL     1     -16.829  82.850   3.712  1.00  0.00     0.119 C 
HETATM    9  C15 UNL     1     -15.371  83.042   3.494  1.00  0.00     0.044 C 
HETATM   10  C16 UNL     1     -14.513  82.461   4.603  1.00  0.00    -0.003 C 
HETATM   11  C17 UNL     1     -14.753  83.161   5.907  1.00  0.00     0.019 C 
ENDROOT
BRANCH   1  12
HETATM   12  C2  UNL     1     -12.189  83.415   4.776  1.00  0.00    -0.079 C 
HETATM   13  C1  UNL     1     -12.116  84.841   4.414  1.00  0.00     0.044 C 
HETATM   14  C3  UNL     1     -11.413  82.975   5.755  1.00  0.00     0.003 C 
BRANCH  14  15
HETATM   15  C4  UNL     1     -10.489  83.810   6.499  1.00  0.00     0.007 C 
HETATM   16  C5  UNL     1     -10.762  84.156   7.739  1.00  0.00     0.084 C 
BRANCH  16  17
HETATM   17  C6  UNL     1      -9.859  84.998   8.526  1.00  0.00     0.198 C 
HETATM   18  O1  UNL     1     -10.356  85.818   9.345  1.00  0.00    -0.645 OA
HETATM   19  O2  UNL     1      -8.497  84.940   8.416  1.00  0.00    -0.645 OA
ENDBRANCH  16  17
ENDBRANCH  14  15
ENDBRANCH   1  12
BRANCH   4  20
HETATM   20  O3  UNL     1     -14.382  80.616   6.038  1.00  0.00    -0.389 OA
ATOM     21  H3  UNL     1     -15.104  80.801   6.627  1.00  0.00     0.210 HD
ENDBRANCH   4  20
BRANCH   8  22
HETATM   22  O4  UNL     1     -17.485  83.334   2.553  1.00  0.00    -0.396 OA
ATOM     23  H4  UNL     1     -16.785  83.595   1.965  1.00  0.00     0.210 HD
ENDBRANCH   8  22
TORSDOF 5
ENDMDL
MODEL 3
REMARK VINA RESULT: -5.859011032      9.987     11.837
REMARK  5 active torsions:
REMARK  status: ('A' for Active; 'I' for Inactive)
REMARK    1  A    between atoms: C2_2  and  C7_9 
REMARK    2  A    between atoms: C3_3  and  C4_4 
REMARK    3  A    between atoms: C5_5  and  C6_6 
REMARK    4  A    between atoms: C10_12  and  O3_13 
REMARK    5  A    between atoms: C14_18  and  O4_19 
ROOT
HETATM    1  C7  UNL     1     -18.899  74.218   5.437  1.00  0.00     0.025 C 
HETATM    2  C8  UNL     1     -17.704  75.149   5.740  1.00  0.00     0.013 C 
HETATM    3  C9  UNL     1     -18.012  75.447   7.215  1.00  0.00     0.040 C 
HETATM    4  C10 UNL     1     -19.464  75.872   7.064  1.00  0.00     0.069 C 
HETATM    5  C11 UNL     1     -20.128  76.208   8.324  1.00  0.00     0.019 C 
HETATM    6  C12 UNL     1     -19.080  76.799   9.278  1.00  0.00     0.013 C 
HETATM    7  C13 UNL     1     -20.828  75.124   9.045  1.00  0.00     0.039 C 
HETATM    8  C14 UNL     1     -21.518  74.130   8.141  1.00  0.00     0.119 C 
HETATM    9  C15 UNL     1     -20.539  73.676   7.117  1.00  0.00     0.044 C 
HETATM   10  C16 UNL     1     -20.044  74.794   6.218  1.00  0.00    -0.003 C 
HETATM   11  C17 UNL     1     -21.155  75.366   5.391  1.00  0.00     0.019 C 
ENDROOT
BRANCH   1  12
HETATM   12  C2  UNL     1     -19.085  74.052   4.011  1.00  0.00    -0.079 C 
HETATM   13  C1  UNL     1     -19.917  72.964   3.470  1.00  0.00     0.044 C 
HETATM   14  C3  UNL     1     -18.522  74.897   3.159  1.00  0.00     0.003 C 
BRANCH  14  15
HETATM   15  C4  UNL     1     -18.672  74.820   1.719  1.00  0.00     0.007 C 
HETATM   16  C5  UNL     1     -17.610  74.825   0.941  1.00  0.00     0.084 C 
BRANCH  16  17
HETATM   17  C6  UNL     1     -17.716  74.749  -0.517  1.00  0.00     0.198 C 
HETATM   18  O1  UNL     1     -16.706  75.038  -1.213  1.00  0.00    -0.645 OA
HETATM   19  O2  UNL     1     -18.862  74.379  -1.165  1.00  0.00    -0.645 OA
ENDBRANCH  16  17
ENDBRANCH  14  15
ENDBRANCH   1  12
BRANCH   4  20
HETATM   20  O3  UNL     1     -19.420  77.049   6.279  1.00  0.00    -0.389 OA
ATOM     21  H3  UNL     1     -20.324  77.333   6.212  1.00  0.00     0.210 HD
ENDBRANCH   4  20
BRANCH   8  22
HETATM   22  O4  UNL     1     -21.795  73.013   8.968  1.00  0.00    -0.396 OA
ATOM     23  H4  UNL     1     -20.951  72.605   9.123  1.00  0.00     0.210 HD
ENDBRANCH   8  22
TORSDOF 5
ENDMDL
MODEL 4
REMARK VINA RESULT: -5.757115394      9.793     11.583
REMARK  5 active torsions:
REMARK  status: ('A' for Active; 'I' for Inactive)
REMARK    1  A    between atoms: C2_2  and  C7_9 
REMARK    2  A    between atoms: C3_3  and  C4_4 
REMARK    3  A    between atoms: C5_5  and  C6_6 
REMARK    4  A    between atoms: C10_12  and  O3_13 
REMARK    5  A    between atoms: C14_18  and  O4_19 
ROOT
HETATM    1  C7  UNL     1     -19.704  73.911   5.516  1.00  0.00     0.025 C 
HETATM    2  C8  UNL     1     -19.528  72.672   6.421  1.00  0.00     0.013 C 
HETATM    3  C9  UNL     1     -19.921  73.309   7.763  1.00  0.00     0.040 C 
HETATM    4  C10 UNL     1     -19.007  74.523   7.715  1.00  0.00     0.069 C 
HETATM    5  C11 UNL     1     -19.139  75.422   8.863  1.00  0.00     0.019 C 
HETATM    6  C12 UNL     1     -19.507  74.582  10.093  1.00  0.00     0.013 C 
HETATM    7  C13 UNL     1     -20.118  76.524   8.765  1.00  0.00     0.039 C 
HETATM    8  C14 UNL     1     -20.219  77.137   7.387  1.00  0.00     0.119 C 
HETATM    9  C15 UNL     1     -20.407  76.038   6.403  1.00  0.00     0.044 C 
HETATM   10  C16 UNL     1     -19.241  75.068   6.351  1.00  0.00    -0.003 C 
HETATM   11  C17 UNL     1     -17.989  75.739   5.871  1.00  0.00     0.019 C 
ENDROOT
BRANCH   1  12
HETATM   12  C2  UNL     1     -19.060  73.717   4.234  1.00  0.00    -0.079 C 
HETATM   13  C1  UNL     1     -17.914  72.805   4.083  1.00  0.00     0.044 C 
HETATM   14  C3  UNL     1     -19.507  74.348   3.158  1.00  0.00     0.003 C 
BRANCH  14  15
HETATM   15  C4  UNL     1     -18.938  74.197   1.832  1.00  0.00     0.007 C 
HETATM   16  C5  UNL     1     -18.775  75.250   1.058  1.00  0.00     0.084 C 
BRANCH  16  17
HETATM   17  C6  UNL     1     -18.205  75.143  -0.286  1.00  0.00     0.198 C 
HETATM   18  O1  UNL     1     -18.761  74.378  -1.120  1.00  0.00    -0.645 OA
HETATM   19  O2  UNL     1     -17.094  75.834  -0.684  1.00  0.00    -0.645 OA
ENDBRANCH  16  17
ENDBRANCH  14  15
ENDBRANCH   1  12
BRANCH   4  20
HETATM   20  O3  UNL     1     -17.694  73.991   7.740  1.00  0.00    -0.389 OA
ATOM     21  H3  UNL     1     -17.591  73.555   6.903  1.00  0.00     0.210 HD
ENDBRANCH   4  20
BRANCH   8  22
HETATM   22  O4  UNL     1     -21.423  77.884   7.405  1.00  0.00    -0.396 OA
ATOM     23  H4  UNL     1     -22.092  77.278   7.106  1.00  0.00     0.210 HD
ENDBRANCH   8  22
TORSDOF 5
ENDMDL
MODEL 5
REMARK VINA RESULT: -5.691051120      2.606      6.665
REMARK  5 active torsions:
REMARK  status: ('A' for Active; 'I' for Inactive)
REMARK    1  A    between atoms: C2_2  and  C7_9 
REMARK    2  A    between atoms: C3_3  and  C4_4 
REMARK    3  A    between atoms: C5_5  and  C6_6 
REMARK    4  A    between atoms: C10_12  and  O3_13 
REMARK    5  A    between atoms: C14_18  and  O4_19 
ROOT
HETATM    1  C7  UNL     1     -13.230  82.429   4.170  1.00  0.00     0.025 C 
HETATM    2  C8  UNL     1     -12.199  81.280   4.130  1.00  0.00     0.013 C 
HETATM    3  C9  UNL     1     -13.143  80.136   3.725  1.00  0.00     0.040 C 
HETATM    4  C10 UNL     1     -14.216  80.342   4.782  1.00  0.00     0.069 C 
HETATM    5  C11 UNL     1     -15.345  79.417   4.682  1.00  0.00     0.019 C 
HETATM    6  C12 UNL     1     -14.827  78.082   4.130  1.00  0.00     0.013 C 
HETATM    7  C13 UNL     1     -16.499  79.826   3.854  1.00  0.00     0.039 C 
HETATM    8  C14 UNL     1     -16.814  81.302   3.924  1.00  0.00     0.119 C 
HETATM    9  C15 UNL     1     -15.559  82.058   3.672  1.00  0.00     0.044 C 
HETATM   10  C16 UNL     1     -14.483  81.804   4.712  1.00  0.00    -0.003 C 
HETATM   11  C17 UNL     1     -14.902  82.291   6.066  1.00  0.00     0.019 C 
ENDROOT
BRANCH   1  12
HETATM   12  C2  UNL     1     -12.704  83.580   4.873  1.00  0.00    -0.079 C 
HETATM   13  C1  UNL     1     -13.034  84.951   4.448  1.00  0.00     0.044 C 
HETATM   14  C3  UNL     1     -11.927  83.419   5.933  1.00  0.00     0.003 C 
BRANCH  14  15
HETATM   15  C4  UNL     1     -11.375  84.513   6.710  1.00  0.00     0.007 C 
HETATM   16  C5  UNL     1     -10.604  84.265   7.748  1.00  0.00     0.084 C 
BRANCH  16  17
HETATM   17  C6  UNL     1     -10.027  85.338   8.559  1.00  0.00     0.198 C 
HETATM   18  O1  UNL     1     -10.805  86.112   9.180  1.00  0.00    -0.645 OA
HETATM   19  O2  UNL     1      -8.680  85.544   8.676  1.00  0.00    -0.645 OA
ENDBRANCH  16  17
ENDBRANCH  14  15
ENDBRANCH   1  12
BRANCH   4  20
HETATM   20  O3  UNL     1     -13.567  80.089   6.015  1.00  0.00    -0.389 OA
ATOM     21  H3  UNL     1     -13.446  80.945   6.409  1.00  0.00     0.210 HD
ENDBRANCH   4  20
BRANCH   8  22
HETATM   22  O4  UNL     1     -17.670  81.548   2.822  1.00  0.00    -0.396 OA
ATOM     23  H4  UNL     1     -17.362  80.965   2.137  1.00  0.00     0.210 HD
ENDBRANCH   8  22
TORSDOF 5
ENDMDL
