MODEL 1
REMARK VINA RESULT: -6.380194088      0.000      0.000
REMARK  4 active torsions:
REMARK  status: ('A' for Active; 'I' for Inactive)
REMARK    1  A    between atoms: C8_8  and  C9_9 
REMARK    2  A    between atoms: C9_9  and  O1_10 
REMARK    3  A    between atoms: C15_17  and  O2_18 
REMARK    4  A    between atoms: C15_17  and  C16_20 
ROOT
HETATM    1  C1  UNL     1     -13.697  78.730   6.560  1.00  0.00     0.019 C 
HETATM    2  C2  UNL     1     -14.387  79.272   5.302  1.00  0.00    -0.002 C 
HETATM    3  C3  UNL     1     -13.512  78.812   4.138  1.00  0.00     0.019 C 
HETATM    4  C4  UNL     1     -15.674  78.521   5.188  1.00  0.00     0.013 C 
HETATM    5  C5  UNL     1     -16.891  79.416   5.226  1.00  0.00     0.005 C 
HETATM    6  C6  UNL     1     -16.665  80.404   4.069  1.00  0.00     0.037 C 
HETATM    7  C7  UNL     1     -15.592  81.306   4.530  1.00  0.00    -0.035 C 
HETATM    8  C8  UNL     1     -15.603  82.566   4.187  1.00  0.00     0.017 C 
HETATM    9  C15 UNL     1     -14.512  80.745   5.384  1.00  0.00     0.176 C 
ENDROOT
BRANCH   8  10
HETATM   10  C9  UNL     1     -16.627  83.233   3.341  1.00  0.00     0.076 C 
HETATM   11  C10 UNL     1     -16.032  84.421   2.584  1.00  0.00     0.042 C 
HETATM   12  C11 UNL     1     -17.217  85.113   1.909  1.00  0.00     0.003 C 
HETATM   13  C12 UNL     1     -17.596  84.217   0.733  1.00  0.00     0.000 C 
HETATM   14  C13 UNL     1     -17.038  82.836   0.900  1.00  0.00     0.003 C 
HETATM   15  C14 UNL     1     -17.196  82.295   2.300  1.00  0.00     0.042 C 
BRANCH  10  16
HETATM   16  O1  UNL     1     -17.635  83.802   4.146  1.00  0.00    -0.386 OA
ATOM     17  H1  UNL     1     -17.448  84.719   4.313  1.00  0.00     0.211 HD
ENDBRANCH  10  16
ENDBRANCH   8  10
BRANCH   9  18
HETATM   18  O2  UNL     1     -14.873  81.056   6.715  1.00  0.00    -0.374 OA
ATOM     19  H2  UNL     1     -15.474  81.791   6.675  1.00  0.00     0.211 HD
ENDBRANCH   9  18
BRANCH   9  20
HETATM   20  C16 UNL     1     -13.196  81.375   5.145  1.00  0.00     0.214 C 
HETATM   21  O3  UNL     1     -12.413  81.752   6.052  1.00  0.00    -0.645 OA
HETATM   22  O4  UNL     1     -12.721  81.599   3.845  1.00  0.00    -0.645 OA
ENDBRANCH   9  20
TORSDOF 4
ENDMDL
MODEL 2
REMARK VINA RESULT: -6.246298335      1.748      2.796
REMARK  4 active torsions:
REMARK  status: ('A' for Active; 'I' for Inactive)
REMARK    1  A    between atoms: C8_8  and  C9_9 
REMARK    2  A    between atoms: C9_9  and  O1_10 
REMARK    3  A    between atoms: C15_17  and  O2_18 
REMARK    4  A    between atoms: C15_17  and  C16_20 
ROOT
HETATM    1  C1  UNL     1     -13.504  78.315   5.380  1.00  0.00     0.019 C 
HETATM    2  C2  UNL     1     -14.291  79.632   5.401  1.00  0.00    -0.002 C 
HETATM    3  C3  UNL     1     -14.998  79.651   6.756  1.00  0.00     0.019 C 
HETATM    4  C4  UNL     1     -13.265  80.719   5.443  1.00  0.00     0.013 C 
HETATM    5  C5  UNL     1     -13.348  81.659   4.263  1.00  0.00     0.005 C 
HETATM    6  C6  UNL     1     -14.791  82.190   4.307  1.00  0.00     0.037 C 
HETATM    7  C7  UNL     1     -15.636  81.060   3.874  1.00  0.00    -0.035 C 
HETATM    8  C8  UNL     1     -16.712  81.281   3.168  1.00  0.00     0.017 C 
HETATM    9  C15 UNL     1     -15.230  79.683   4.259  1.00  0.00     0.176 C 
ENDROOT
BRANCH   8  10
HETATM   10  C9  UNL     1     -17.212  82.609   2.727  1.00  0.00     0.076 C 
HETATM   11  C10 UNL     1     -16.057  83.573   2.452  1.00  0.00     0.042 C 
HETATM   12  C11 UNL     1     -16.710  84.931   2.190  1.00  0.00     0.003 C 
HETATM   13  C12 UNL     1     -17.306  84.832   0.788  1.00  0.00     0.000 C 
HETATM   14  C13 UNL     1     -17.457  83.403   0.361  1.00  0.00     0.003 C 
HETATM   15  C14 UNL     1     -18.012  82.513   1.447  1.00  0.00     0.042 C 
BRANCH  10  16
HETATM   16  O1  UNL     1     -17.944  83.227   3.761  1.00  0.00    -0.386 OA
ATOM     17  H1  UNL     1     -18.836  82.899   3.778  1.00  0.00     0.211 HD
ENDBRANCH  10  16
ENDBRANCH   8  10
BRANCH   9  18
HETATM   18  O2  UNL     1     -14.549  79.155   3.139  1.00  0.00    -0.374 OA
ATOM     19  H2  UNL     1     -15.174  79.119   2.425  1.00  0.00     0.211 HD
ENDBRANCH   9  18
BRANCH   9  20
HETATM   20  C16 UNL     1     -16.380  78.789   4.514  1.00  0.00     0.214 C 
HETATM   21  O3  UNL     1     -17.278  79.011   5.365  1.00  0.00    -0.645 OA
HETATM   22  O4  UNL     1     -16.549  77.596   3.798  1.00  0.00    -0.645 OA
ENDBRANCH   9  20
TORSDOF 4
ENDMDL
MODEL 3
REMARK VINA RESULT: -6.174682482      3.285      6.108
REMARK  4 active torsions:
REMARK  status: ('A' for Active; 'I' for Inactive)
REMARK    1  A    between atoms: C8_8  and  C9_9 
REMARK    2  A    between atoms: C9_9  and  O1_10 
REMARK    3  A    between atoms: C15_17  and  O2_18 
REMARK    4  A    between atoms: C15_17  and  C16_20 
ROOT
HETATM    1  C1  UNL     1     -16.451  81.780   4.384  1.00  0.00     0.019 C 
HETATM    2  C2  UNL     1     -14.976  82.193   4.301  1.00  0.00    -0.002 C 
HETATM    3  C3  UNL     1     -14.289  81.065   3.531  1.00  0.00     0.019 C 
HETATM    4  C4  UNL     1     -14.939  83.396   3.414  1.00  0.00     0.013 C 
HETATM    5  C5  UNL     1     -14.377  84.621   4.096  1.00  0.00     0.005 C 
HETATM    6  C6  UNL     1     -12.982  84.179   4.570  1.00  0.00     0.037 C 
HETATM    7  C7  UNL     1     -13.226  83.267   5.704  1.00  0.00    -0.035 C 
HETATM    8  C8  UNL     1     -12.402  83.247   6.717  1.00  0.00     0.017 C 
HETATM    9  C15 UNL     1     -14.422  82.385   5.659  1.00  0.00     0.176 C 
ENDROOT
BRANCH   8  10
HETATM   10  C9  UNL     1     -11.181  84.080   6.868  1.00  0.00     0.076 C 
HETATM   11  C10 UNL     1     -10.886  84.371   8.340  1.00  0.00     0.042 C 
HETATM   12  C11 UNL     1      -9.731  85.373   8.337  1.00  0.00     0.003 C 
HETATM   13  C12 UNL     1      -8.489  84.560   7.979  1.00  0.00     0.000 C 
HETATM   14  C13 UNL     1      -8.859  83.257   7.336  1.00  0.00     0.003 C 
HETATM   15  C14 UNL     1      -9.956  83.391   6.308  1.00  0.00     0.042 C 
BRANCH  10  16
HETATM   16  O1  UNL     1     -11.379  85.352   6.293  1.00  0.00    -0.386 OA
ATOM     17  H1  UNL     1     -12.088  85.322   5.660  1.00  0.00     0.211 HD
ENDBRANCH  10  16
ENDBRANCH   8  10
BRANCH   9  18
HETATM   18  O2  UNL     1     -15.414  83.043   6.422  1.00  0.00    -0.374 OA
ATOM     19  H2  UNL     1     -16.104  82.410   6.585  1.00  0.00     0.211 HD
ENDBRANCH   9  18
BRANCH   9  20
HETATM   20  C16 UNL     1     -14.198  81.071   6.301  1.00  0.00     0.214 C 
HETATM   21  O3  UNL     1     -13.230  80.312   6.047  1.00  0.00    -0.645 OA
HETATM   22  O4  UNL     1     -15.083  80.572   7.266  1.00  0.00    -0.645 OA
ENDBRANCH   9  20
TORSDOF 4
ENDMDL
MODEL 4
REMARK VINA RESULT: -6.154063401      1.211      1.699
REMARK  4 active torsions:
REMARK  status: ('A' for Active; 'I' for Inactive)
REMARK    1  A    between atoms: C8_8  and  C9_9 
REMARK    2  A    between atoms: C9_9  and  O1_10 
REMARK    3  A    between atoms: C15_17  and  O2_18 
REMARK    4  A    between atoms: C15_17  and  C16_20 
ROOT
HETATM    1  C1  UNL     1     -14.134  77.942   5.544  1.00  0.00     0.019 C 
HETATM    2  C2  UNL     1     -14.223  79.191   4.659  1.00  0.00    -0.002 C 
HETATM    3  C3  UNL     1     -12.842  79.840   4.746  1.00  0.00     0.019 C 
HETATM    4  C4  UNL     1     -14.368  78.689   3.259  1.00  0.00     0.013 C 
HETATM    5  C5  UNL     1     -15.643  79.148   2.591  1.00  0.00     0.005 C 
HETATM    6  C6  UNL     1     -15.580  80.682   2.677  1.00  0.00     0.037 C 
HETATM    7  C7  UNL     1     -15.830  81.003   4.096  1.00  0.00    -0.035 C 
HETATM    8  C8  UNL     1     -16.495  82.081   4.415  1.00  0.00     0.017 C 
HETATM    9  C15 UNL     1     -15.309  80.077   5.135  1.00  0.00     0.176 C 
ENDROOT
BRANCH   8  10
HETATM   10  C9  UNL     1     -17.060  83.075   3.465  1.00  0.00     0.076 C 
HETATM   11  C10 UNL     1     -15.955  83.776   2.673  1.00  0.00     0.042 C 
HETATM   12  C11 UNL     1     -16.656  84.881   1.882  1.00  0.00     0.003 C 
HETATM   13  C12 UNL     1     -17.382  84.169   0.743  1.00  0.00     0.000 C 
HETATM   14  C13 UNL     1     -17.545  82.707   1.033  1.00  0.00     0.003 C 
HETATM   15  C14 UNL     1     -17.976  82.426   2.451  1.00  0.00     0.042 C 
BRANCH  10  16
HETATM   16  O1  UNL     1     -17.702  84.116   4.167  1.00  0.00    -0.386 OA
ATOM     17  H1  UNL     1     -18.351  84.536   3.615  1.00  0.00     0.211 HD
ENDBRANCH  10  16
ENDBRANCH   8  10
BRANCH   9  18
HETATM   18  O2  UNL     1     -16.396  79.245   5.489  1.00  0.00    -0.374 OA
ATOM     19  H2  UNL     1     -16.528  79.345   6.425  1.00  0.00     0.211 HD
ENDBRANCH   9  18
BRANCH   9  20
HETATM   20  C16 UNL     1     -14.886  80.770   6.371  1.00  0.00     0.214 C 
HETATM   21  O3  UNL     1     -15.189  80.399   7.533  1.00  0.00    -0.645 OA
HETATM   22  O4  UNL     1     -14.093  81.925   6.324  1.00  0.00    -0.645 OA
ENDBRANCH   9  20
TORSDOF 4
ENDMDL
MODEL 5
REMARK VINA RESULT: -6.145704092      7.779      9.256
REMARK  4 active torsions:
REMARK  status: ('A' for Active; 'I' for Inactive)
REMARK    1  A    between atoms: C8_8  and  C9_9 
REMARK    2  A    between atoms: C9_9  and  O1_10 
REMARK    3  A    between atoms: C15_17  and  O2_18 
REMARK    4  A    between atoms: C15_17  and  C16_20 
ROOT
HETATM    1  C1  UNL     1     -21.470  75.328   8.709  1.00  0.00     0.019 C 
HETATM    2  C2  UNL     1     -20.439  75.584   7.602  1.00  0.00    -0.002 C 
HETATM    3  C3  UNL     1     -20.418  77.101   7.420  1.00  0.00     0.019 C 
HETATM    4  C4  UNL     1     -19.115  75.208   8.183  1.00  0.00     0.013 C 
HETATM    5  C5  UNL     1     -18.422  74.104   7.420  1.00  0.00     0.005 C 
HETATM    6  C6  UNL     1     -18.317  74.649   5.985  1.00  0.00     0.037 C 
HETATM    7  C7  UNL     1     -19.690  74.595   5.447  1.00  0.00    -0.035 C 
HETATM    8  C8  UNL     1     -19.888  74.321   4.185  1.00  0.00     0.017 C 
HETATM    9  C15 UNL     1     -20.825  74.860   6.370  1.00  0.00     0.176 C 
ENDROOT
BRANCH   8  10
HETATM   10  C9  UNL     1     -18.835  74.041   3.175  1.00  0.00     0.076 C 
HETATM   11  C10 UNL     1     -19.355  73.120   2.071  1.00  0.00     0.042 C 
HETATM   12  C11 UNL     1     -18.136  72.773   1.216  1.00  0.00     0.003 C 
HETATM   13  C12 UNL     1     -17.846  74.027   0.394  1.00  0.00     0.000 C 
HETATM   14  C13 UNL     1     -18.501  75.234   0.994  1.00  0.00     0.003 C 
HETATM   15  C14 UNL     1     -18.356  75.305   2.495  1.00  0.00     0.042 C 
BRANCH  10  16
HETATM   16  O1  UNL     1     -17.772  73.321   3.759  1.00  0.00    -0.386 OA
ATOM     17  H1  UNL     1     -17.181  73.001   3.088  1.00  0.00     0.211 HD
ENDBRANCH  10  16
ENDBRANCH   8  10
BRANCH   9  18
HETATM   18  O2  UNL     1     -21.301  73.590   6.768  1.00  0.00    -0.374 OA
ATOM     19  H2  UNL     1     -22.003  73.357   6.173  1.00  0.00     0.211 HD
ENDBRANCH   9  18
BRANCH   9  20
HETATM   20  C16 UNL     1     -21.957  75.549   5.715  1.00  0.00     0.214 C 
HETATM   21  O3  UNL     1     -21.848  76.581   5.007  1.00  0.00    -0.645 OA
HETATM   22  O4  UNL     1     -23.271  75.079   5.848  1.00  0.00    -0.645 OA
ENDBRANCH   9  20
TORSDOF 4
ENDMDL
