MODEL 1
REMARK VINA RESULT: -5.978069884      0.000      0.000
REMARK  4 active torsions:
REMARK  status: ('A' for Active; 'I' for Inactive)
REMARK    1  A    between atoms: C4_4  and  O1_5 
REMARK    2  A    between atoms: C5_7  and  C7_9 
REMARK    3  A    between atoms: C7_9  and  O2_10 
REMARK    4  A    between atoms: C11_15  and  O3_16 
ROOT
HETATM    1  C1  UNL     1     -15.777  83.728   3.668  1.00  0.00     0.015 C 
HETATM    2  C2  UNL     1     -14.595  83.371   4.107  1.00  0.00    -0.082 C 
HETATM    3  C3  UNL     1     -13.795  84.315   4.933  1.00  0.00     0.066 C 
HETATM    4  C4  UNL     1     -12.523  84.404   4.115  1.00  0.00     0.133 C 
HETATM    5  C5  UNL     1     -11.763  83.093   4.346  1.00  0.00     0.011 C 
HETATM    6  C6  UNL     1     -11.170  83.212   5.741  1.00  0.00     0.021 C 
HETATM    7  C8  UNL     1     -12.572  81.880   4.095  1.00  0.00    -0.022 C 
HETATM    8  C9  UNL     1     -11.934  81.140   2.902  1.00  0.00     0.017 C 
HETATM    9  C10 UNL     1     -12.294  80.936   5.275  1.00  0.00     0.043 C 
HETATM   10  C11 UNL     1     -12.673  79.524   5.041  1.00  0.00     0.127 C 
HETATM   11  C12 UNL     1     -14.104  79.201   5.339  1.00  0.00    -0.018 C 
HETATM   12  C13 UNL     1     -14.271  77.718   5.589  1.00  0.00     0.018 C 
HETATM   13  C14 UNL     1     -14.727  79.977   6.441  1.00  0.00     0.012 C 
HETATM   14  C15 UNL     1     -15.342  81.221   5.784  1.00  0.00     0.006 C 
HETATM   15  C16 UNL     1     -15.002  81.106   4.313  1.00  0.00    -0.005 C 
HETATM   16  C17 UNL     1     -14.902  79.654   4.134  1.00  0.00     0.017 C 
HETATM   17  C18 UNL     1     -14.009  82.030   3.790  1.00  0.00     0.027 C 
ENDROOT
BRANCH   5  18
HETATM   18  C7  UNL     1     -10.544  83.302   3.447  1.00  0.00     0.176 C 
BRANCH  18  19
HETATM   19  O2  UNL     1      -9.402  83.658   4.094  1.00  0.00    -0.400 OA
ATOM     20  H2  UNL     1      -8.707  83.011   4.072  1.00  0.00     0.209 HD
ENDBRANCH  18  19
ENDBRANCH   5  18
BRANCH   4  21
HETATM   21  O1  UNL     1     -11.762  85.474   4.477  1.00  0.00    -0.394 OA
ATOM     22  H1  UNL     1     -11.639  86.080   3.756  1.00  0.00     0.210 HD
ENDBRANCH   4  21
BRANCH  10  23
HETATM   23  O3  UNL     1     -11.897  78.734   5.922  1.00  0.00    -0.395 OA
ATOM     24  H3  UNL     1     -12.324  78.762   6.770  1.00  0.00     0.210 HD
ENDBRANCH  10  23
TORSDOF 4
ENDMDL
MODEL 2
REMARK VINA RESULT: -5.769589447      2.142      4.560
REMARK  4 active torsions:
REMARK  status: ('A' for Active; 'I' for Inactive)
REMARK    1  A    between atoms: C4_4  and  O1_5 
REMARK    2  A    between atoms: C5_7  and  C7_9 
REMARK    3  A    between atoms: C7_9  and  O2_10 
REMARK    4  A    between atoms: C11_15  and  O3_16 
ROOT
HETATM    1  C1  UNL     1     -11.094  84.218   6.808  1.00  0.00     0.015 C 
HETATM    2  C2  UNL     1     -11.899  83.505   6.060  1.00  0.00    -0.082 C 
HETATM    3  C3  UNL     1     -13.242  84.036   5.703  1.00  0.00     0.066 C 
HETATM    4  C4  UNL     1     -14.135  82.931   6.229  1.00  0.00     0.133 C 
HETATM    5  C5  UNL     1     -14.010  81.762   5.246  1.00  0.00     0.011 C 
HETATM    6  C6  UNL     1     -14.817  82.174   4.026  1.00  0.00     0.021 C 
HETATM    7  C8  UNL     1     -12.613  81.351   4.981  1.00  0.00    -0.022 C 
HETATM    8  C9  UNL     1     -12.448  79.912   5.513  1.00  0.00     0.017 C 
HETATM    9  C10 UNL     1     -12.508  81.169   3.459  1.00  0.00     0.043 C 
HETATM   10  C11 UNL     1     -11.336  80.385   3.009  1.00  0.00     0.127 C 
HETATM   11  C12 UNL     1     -10.080  81.178   2.831  1.00  0.00    -0.018 C 
HETATM   12  C13 UNL     1      -9.127  80.461   1.898  1.00  0.00     0.018 C 
HETATM   13  C14 UNL     1     -10.259  82.585   2.392  1.00  0.00     0.012 C 
HETATM   14  C15 UNL     1     -10.377  83.416   3.679  1.00  0.00     0.006 C 
HETATM   15  C16 UNL     1     -10.291  82.413   4.810  1.00  0.00    -0.005 C 
HETATM   16  C17 UNL     1      -9.483  81.345   4.213  1.00  0.00     0.017 C 
HETATM   17  C18 UNL     1     -11.511  82.150   5.555  1.00  0.00     0.027 C 
ENDROOT
BRANCH   5  18
HETATM   18  C7  UNL     1     -14.915  80.725   5.910  1.00  0.00     0.176 C 
BRANCH  18  19
HETATM   19  O2  UNL     1     -15.030  80.838   7.261  1.00  0.00    -0.400 OA
ATOM     20  H2  UNL     1     -15.913  80.742   7.600  1.00  0.00     0.209 HD
ENDBRANCH  18  19
ENDBRANCH   5  18
BRANCH   4  21
HETATM   21  O1  UNL     1     -15.432  83.335   6.336  1.00  0.00    -0.394 OA
ATOM     22  H1  UNL     1     -16.016  82.784   5.828  1.00  0.00     0.210 HD
ENDBRANCH   4  21
BRANCH  10  23
HETATM   23  O3  UNL     1     -11.655  79.858   1.734  1.00  0.00    -0.395 OA
ATOM     24  H3  UNL     1     -10.875  79.934   1.198  1.00  0.00     0.210 HD
ENDBRANCH  10  23
TORSDOF 4
ENDMDL
MODEL 3
REMARK VINA RESULT: -5.742939917      2.222      4.744
REMARK  4 active torsions:
REMARK  status: ('A' for Active; 'I' for Inactive)
REMARK    1  A    between atoms: C4_4  and  O1_5 
REMARK    2  A    between atoms: C5_7  and  C7_9 
REMARK    3  A    between atoms: C7_9  and  O2_10 
REMARK    4  A    between atoms: C11_15  and  O3_16 
ROOT
HETATM    1  C1  UNL     1     -16.905  84.245   3.526  1.00  0.00     0.015 C 
HETATM    2  C2  UNL     1     -16.083  83.226   3.568  1.00  0.00    -0.082 C 
HETATM    3  C3  UNL     1     -15.876  82.391   2.355  1.00  0.00     0.066 C 
HETATM    4  C4  UNL     1     -16.247  81.021   2.884  1.00  0.00     0.133 C 
HETATM    5  C5  UNL     1     -15.077  80.560   3.761  1.00  0.00     0.011 C 
HETATM    6  C6  UNL     1     -13.978  80.162   2.791  1.00  0.00     0.021 C 
HETATM    7  C8  UNL     1     -14.690  81.538   4.803  1.00  0.00    -0.022 C 
HETATM    8  C9  UNL     1     -14.966  80.885   6.172  1.00  0.00     0.017 C 
HETATM    9  C10 UNL     1     -13.156  81.613   4.761  1.00  0.00     0.043 C 
HETATM   10  C11 UNL     1     -12.532  82.212   5.962  1.00  0.00     0.127 C 
HETATM   11  C12 UNL     1     -12.437  83.706   5.941  1.00  0.00    -0.018 C 
HETATM   12  C13 UNL     1     -11.359  84.181   6.891  1.00  0.00     0.018 C 
HETATM   13  C14 UNL     1     -12.248  84.324   4.605  1.00  0.00     0.012 C 
HETATM   14  C15 UNL     1     -13.659  84.595   4.062  1.00  0.00     0.006 C 
HETATM   15  C16 UNL     1     -14.602  84.075   5.126  1.00  0.00    -0.005 C 
HETATM   16  C17 UNL     1     -13.802  84.224   6.346  1.00  0.00     0.017 C 
HETATM   17  C18 UNL     1     -15.343  82.862   4.818  1.00  0.00     0.027 C 
ENDROOT
BRANCH   5  18
HETATM   18  C7  UNL     1     -15.596  79.208   4.251  1.00  0.00     0.176 C 
BRANCH  18  19
HETATM   19  O2  UNL     1     -16.950  79.097   4.315  1.00  0.00    -0.400 OA
ATOM     20  H2  UNL     1     -17.387  78.986   3.478  1.00  0.00     0.209 HD
ENDBRANCH  18  19
ENDBRANCH   5  18
BRANCH   4  21
HETATM   21  O1  UNL     1     -16.473  80.132   1.876  1.00  0.00    -0.394 OA
ATOM     22  H1  UNL     1     -16.828  79.314   2.201  1.00  0.00     0.210 HD
ENDBRANCH   4  21
BRANCH  10  23
HETATM   23  O3  UNL     1     -11.202  81.732   6.022  1.00  0.00    -0.395 OA
ATOM     24  H3  UNL     1     -11.035  81.487   6.924  1.00  0.00     0.210 HD
ENDBRANCH  10  23
TORSDOF 4
ENDMDL
MODEL 4
REMARK VINA RESULT: -5.631807894      1.843      3.895
REMARK  4 active torsions:
REMARK  status: ('A' for Active; 'I' for Inactive)
REMARK    1  A    between atoms: C4_4  and  O1_5 
REMARK    2  A    between atoms: C5_7  and  C7_9 
REMARK    3  A    between atoms: C7_9  and  O2_10 
REMARK    4  A    between atoms: C11_15  and  O3_16 
ROOT
HETATM    1  C1  UNL     1     -12.327  79.334   5.521  1.00  0.00     0.015 C 
HETATM    2  C2  UNL     1     -12.456  80.600   5.211  1.00  0.00    -0.082 C 
HETATM    3  C3  UNL     1     -11.324  81.326   4.575  1.00  0.00     0.066 C 
HETATM    4  C4  UNL     1     -11.129  82.464   5.554  1.00  0.00     0.133 C 
HETATM    5  C5  UNL     1     -12.279  83.448   5.316  1.00  0.00     0.011 C 
HETATM    6  C6  UNL     1     -11.932  84.169   4.024  1.00  0.00     0.021 C 
HETATM    7  C8  UNL     1     -13.619  82.822   5.360  1.00  0.00    -0.022 C 
HETATM    8  C9  UNL     1     -14.372  83.431   6.561  1.00  0.00     0.017 C 
HETATM    9  C10 UNL     1     -14.387  83.383   4.153  1.00  0.00     0.043 C 
HETATM   10  C11 UNL     1     -15.856  83.212   4.219  1.00  0.00     0.127 C 
HETATM   11  C12 UNL     1     -16.359  81.896   3.714  1.00  0.00    -0.018 C 
HETATM   12  C13 UNL     1     -17.817  82.001   3.323  1.00  0.00     0.018 C 
HETATM   13  C14 UNL     1     -15.578  81.286   2.608  1.00  0.00     0.012 C 
HETATM   14  C15 UNL     1     -14.513  80.407   3.280  1.00  0.00     0.006 C 
HETATM   15  C16 UNL     1     -14.724  80.591   4.768  1.00  0.00    -0.005 C 
HETATM   16  C17 UNL     1     -16.155  80.903   4.839  1.00  0.00     0.017 C 
HETATM   17  C18 UNL     1     -13.719  81.354   5.489  1.00  0.00     0.027 C 
ENDROOT
BRANCH   5  18
HETATM   18  C7  UNL     1     -11.982  84.506   6.379  1.00  0.00     0.176 C 
BRANCH  18  19
HETATM   19  O2  UNL     1     -11.326  84.051   7.480  1.00  0.00    -0.400 OA
ATOM     20  H2  UNL     1     -11.827  84.075   8.287  1.00  0.00     0.209 HD
ENDBRANCH  18  19
ENDBRANCH   5  18
BRANCH   4  21
HETATM   21  O1  UNL     1      -9.925  83.079   5.382  1.00  0.00    -0.394 OA
ATOM     22  H1  UNL     1      -9.734  83.684   6.089  1.00  0.00     0.210 HD
ENDBRANCH   4  21
BRANCH  10  23
HETATM   23  O3  UNL     1     -16.426  84.202   3.383  1.00  0.00    -0.395 OA
ATOM     24  H3  UNL     1     -15.712  84.740   3.062  1.00  0.00     0.210 HD
ENDBRANCH  10  23
TORSDOF 4
ENDMDL
MODEL 5
REMARK VINA RESULT: -5.591959246      8.446     10.322
REMARK  4 active torsions:
REMARK  status: ('A' for Active; 'I' for Inactive)
REMARK    1  A    between atoms: C4_4  and  O1_5 
REMARK    2  A    between atoms: C5_7  and  C7_9 
REMARK    3  A    between atoms: C7_9  and  O2_10 
REMARK    4  A    between atoms: C11_15  and  O3_16 
ROOT
HETATM    1  C1  UNL     1     -21.382  73.245   9.753  1.00  0.00     0.015 C 
HETATM    2  C2  UNL     1     -20.489  74.084   9.290  1.00  0.00    -0.082 C 
HETATM    3  C3  UNL     1     -19.267  74.378  10.084  1.00  0.00     0.066 C 
HETATM    4  C4  UNL     1     -19.367  75.884  10.216  1.00  0.00     0.133 C 
HETATM    5  C5  UNL     1     -18.980  76.468   8.853  1.00  0.00     0.011 C 
HETATM    6  C6  UNL     1     -17.469  76.327   8.768  1.00  0.00     0.021 C 
HETATM    7  C8  UNL     1     -19.742  75.898   7.720  1.00  0.00    -0.022 C 
HETATM    8  C9  UNL     1     -20.579  77.040   7.107  1.00  0.00     0.017 C 
HETATM    9  C10 UNL     1     -18.708  75.602   6.623  1.00  0.00     0.043 C 
HETATM   10  C11 UNL     1     -19.278  75.405   5.271  1.00  0.00     0.127 C 
HETATM   11  C12 UNL     1     -19.737  74.011   4.979  1.00  0.00    -0.018 C 
HETATM   12  C13 UNL     1     -19.794  73.773   3.486  1.00  0.00     0.018 C 
HETATM   13  C14 UNL     1     -18.968  72.925   5.639  1.00  0.00     0.012 C 
HETATM   14  C15 UNL     1     -19.666  72.671   6.983  1.00  0.00     0.006 C 
HETATM   15  C16 UNL     1     -20.802  73.670   7.038  1.00  0.00    -0.005 C 
HETATM   16  C17 UNL     1     -21.104  73.871   5.617  1.00  0.00     0.017 C 
HETATM   17  C18 UNL     1     -20.667  74.775   7.974  1.00  0.00     0.027 C 
ENDROOT
BRANCH   5  18
HETATM   18  C7  UNL     1     -19.161  77.963   9.116  1.00  0.00     0.176 C 
BRANCH  18  19
HETATM   19  O2  UNL     1     -18.024  78.634   9.445  1.00  0.00    -0.400 OA
ATOM     20  H2  UNL     1     -18.042  79.069  10.289  1.00  0.00     0.209 HD
ENDBRANCH  18  19
ENDBRANCH   5  18
BRANCH   4  21
HETATM   21  O1  UNL     1     -18.550  76.362  11.196  1.00  0.00    -0.394 OA
ATOM     22  H1  UNL     1     -18.133  77.177  10.941  1.00  0.00     0.210 HD
ENDBRANCH   4  21
BRANCH  10  23
HETATM   23  O3  UNL     1     -18.248  75.686   4.341  1.00  0.00    -0.395 OA
ATOM     24  H3  UNL     1     -17.423  75.585   4.802  1.00  0.00     0.210 HD
ENDBRANCH  10  23
TORSDOF 4
ENDMDL
