MODEL 1
REMARK VINA RESULT: -6.355056380      0.000      0.000
REMARK  4 active torsions:
REMARK  status: ('A' for Active; 'I' for Inactive)
REMARK       I    between atoms: N1_2  and  C2_4 
REMARK    1  A    between atoms: C2_4  and  C3_6 
REMARK    2  A    between atoms: C4_7  and  C5_8 
REMARK    3  A    between atoms: C5_8  and  O2_9 
REMARK    4  A    between atoms: N2_11  and  O3_13 
ROOT
HETATM    1  C3  UNL     1     -15.051  80.323   3.975  1.00  0.00     0.098 C 
HETATM    2  C4  UNL     1     -16.073  79.929   4.947  1.00  0.00     0.076 C 
HETATM    3  C6  UNL     1     -17.035  80.918   4.246  1.00  0.00     0.024 C 
HETATM    4  C7  UNL     1     -15.835  81.585   3.575  1.00  0.00    -0.023 C 
HETATM    5  C8  UNL     1     -16.099  81.729   2.123  1.00  0.00     0.011 C 
HETATM    6  C9  UNL     1     -17.430  82.424   1.881  1.00  0.00     0.005 C 
HETATM    7  C10 UNL     1     -17.343  83.910   1.995  1.00  0.00    -0.018 C 
HETATM    8  C11 UNL     1     -17.602  84.497   0.621  1.00  0.00     0.010 C 
HETATM    9  C12 UNL     1     -16.034  84.413   2.516  1.00  0.00     0.009 C 
HETATM   10  C13 UNL     1     -15.768  84.095   3.931  1.00  0.00    -0.009 C 
HETATM   11  C14 UNL     1     -14.367  84.602   4.320  1.00  0.00     0.005 C 
HETATM   12  C15 UNL     1     -13.894  83.179   4.083  1.00  0.00     0.006 C 
HETATM   13  C16 UNL     1     -15.331  82.751   4.297  1.00  0.00    -0.001 C 
ENDROOT
BRANCH   1  14
HETATM   14  C2  UNL     1     -14.632  79.465   2.882  1.00  0.00     0.223 C 
HETATM   15  N1  UNL     1     -13.283  79.027   2.822  1.00  0.00    -0.365 N 
HETATM   16  C1  UNL     1     -12.810  78.156   1.734  1.00  0.00     0.149 C 
ATOM     17  H1  UNL     1     -12.628  79.322   3.547  1.00  0.00     0.161 HD
HETATM   18  O1  UNL     1     -15.414  79.097   1.991  1.00  0.00    -0.273 OA
ENDBRANCH   1  14
BRANCH   2  19
HETATM   19  C5  UNL     1     -16.631  78.589   5.012  1.00  0.00     0.140 C 
HETATM   20  N2  UNL     1     -16.843  78.020   6.143  1.00  0.00    -0.251 N 
ATOM     21  H2  UNL     1     -17.235  77.079   6.140  1.00  0.00     0.196 HD
BRANCH  19  22
HETATM   22  O2  UNL     1     -16.946  77.895   3.863  1.00  0.00    -0.348 OA
ATOM     23  H2  UNL     1     -16.643  78.192   3.013  1.00  0.00     0.219 HD
ENDBRANCH  19  22
BRANCH  20  24
HETATM   24  O3  UNL     1     -16.576  78.597   7.349  1.00  0.00    -0.288 OA
ATOM     25  H3  UNL     1     -16.275  79.491   7.455  1.00  0.00     0.244 HD
ENDBRANCH  20  24
ENDBRANCH   2  19
TORSDOF 4
ENDMDL
MODEL 2
REMARK VINA RESULT: -6.337483718      2.697      4.364
REMARK  4 active torsions:
REMARK  status: ('A' for Active; 'I' for Inactive)
REMARK       I    between atoms: N1_2  and  C2_4 
REMARK    1  A    between atoms: C2_4  and  C3_6 
REMARK    2  A    between atoms: C4_7  and  C5_8 
REMARK    3  A    between atoms: C5_8  and  O2_9 
REMARK    4  A    between atoms: N2_11  and  O3_13 
ROOT
HETATM    1  C3  UNL     1     -14.954  81.765   5.461  1.00  0.00     0.098 C 
HETATM    2  C4  UNL     1     -15.864  81.943   4.328  1.00  0.00     0.076 C 
HETATM    3  C6  UNL     1     -14.632  81.841   3.398  1.00  0.00     0.024 C 
HETATM    4  C7  UNL     1     -13.724  82.101   4.600  1.00  0.00    -0.023 C 
HETATM    5  C8  UNL     1     -12.640  81.089   4.627  1.00  0.00     0.011 C 
HETATM    6  C9  UNL     1     -11.921  81.029   3.289  1.00  0.00     0.005 C 
HETATM    7  C10 UNL     1     -10.893  82.101   3.128  1.00  0.00    -0.018 C 
HETATM    8  C11 UNL     1      -9.532  81.434   3.079  1.00  0.00     0.010 C 
HETATM    9  C12 UNL     1     -10.906  83.134   4.210  1.00  0.00     0.009 C 
HETATM   10  C13 UNL     1     -12.094  84.006   4.219  1.00  0.00    -0.009 C 
HETATM   11  C14 UNL     1     -12.018  84.971   5.415  1.00  0.00     0.005 C 
HETATM   12  C15 UNL     1     -12.934  83.996   6.133  1.00  0.00     0.006 C 
HETATM   13  C16 UNL     1     -13.352  83.504   4.763  1.00  0.00    -0.001 C 
ENDROOT
BRANCH   1  14
HETATM   14  C2  UNL     1     -14.876  80.531   6.222  1.00  0.00     0.223 C 
HETATM   15  N1  UNL     1     -14.409  79.352   5.584  1.00  0.00    -0.365 N 
HETATM   16  C1  UNL     1     -14.311  78.077   6.315  1.00  0.00     0.149 C 
ATOM     17  H1  UNL     1     -14.136  79.388   4.602  1.00  0.00     0.161 HD
HETATM   18  O1  UNL     1     -15.204  80.469   7.417  1.00  0.00    -0.273 OA
ENDBRANCH   1  14
BRANCH   2  19
HETATM   19  C5  UNL     1     -16.888  80.975   3.973  1.00  0.00     0.140 C 
HETATM   20  N2  UNL     1     -18.100  81.347   3.765  1.00  0.00    -0.251 N 
ATOM     21  H2  UNL     1     -18.784  80.632   3.519  1.00  0.00     0.196 HD
BRANCH  19  22
HETATM   22  O2  UNL     1     -16.587  79.635   3.853  1.00  0.00    -0.348 OA
ATOM     23  H2  UNL     1     -16.712  79.178   3.030  1.00  0.00     0.219 HD
ENDBRANCH  19  22
BRANCH  20  24
HETATM   24  O3  UNL     1     -18.527  82.638   3.851  1.00  0.00    -0.288 OA
ATOM     25  H3  UNL     1     -19.197  82.937   4.454  1.00  0.00     0.244 HD
ENDBRANCH  20  24
ENDBRANCH   2  19
TORSDOF 4
ENDMDL
MODEL 3
REMARK VINA RESULT: -6.289264228      5.837      8.716
REMARK  4 active torsions:
REMARK  status: ('A' for Active; 'I' for Inactive)
REMARK       I    between atoms: N1_2  and  C2_4 
REMARK    1  A    between atoms: C2_4  and  C3_6 
REMARK    2  A    between atoms: C4_7  and  C5_8 
REMARK    3  A    between atoms: C5_8  and  O2_9 
REMARK    4  A    between atoms: N2_11  and  O3_13 
ROOT
HETATM    1  C3  UNL     1     -16.449  74.437   0.711  1.00  0.00     0.098 C 
HETATM    2  C4  UNL     1     -16.906  73.344  -0.150  1.00  0.00     0.076 C 
HETATM    3  C6  UNL     1     -18.117  73.183   0.798  1.00  0.00     0.024 C 
HETATM    4  C7  UNL     1     -17.377  73.999   1.857  1.00  0.00    -0.023 C 
HETATM    5  C8  UNL     1     -18.274  75.056   2.382  1.00  0.00     0.011 C 
HETATM    6  C9  UNL     1     -19.597  74.464   2.845  1.00  0.00     0.005 C 
HETATM    7  C10 UNL     1     -19.524  73.870   4.214  1.00  0.00    -0.018 C 
HETATM    8  C11 UNL     1     -20.399  74.706   5.128  1.00  0.00     0.010 C 
HETATM    9  C12 UNL     1     -18.141  73.790   4.779  1.00  0.00     0.009 C 
HETATM   10  C13 UNL     1     -17.252  72.827   4.104  1.00  0.00    -0.009 C 
HETATM   11  C14 UNL     1     -15.848  72.894   4.731  1.00  0.00     0.005 C 
HETATM   12  C15 UNL     1     -15.479  73.797   3.567  1.00  0.00     0.006 C 
HETATM   13  C16 UNL     1     -16.646  73.182   2.824  1.00  0.00    -0.001 C 
ENDROOT
BRANCH   1  14
HETATM   14  C2  UNL     1     -16.538  75.834   0.325  1.00  0.00     0.223 C 
HETATM   15  N1  UNL     1     -15.614  76.763   0.870  1.00  0.00    -0.365 N 
HETATM   16  C1  UNL     1     -15.662  78.189   0.508  1.00  0.00     0.149 C 
ATOM     17  H1  UNL     1     -14.902  76.437   1.525  1.00  0.00     0.161 HD
HETATM   18  O1  UNL     1     -17.396  76.248  -0.470  1.00  0.00    -0.273 OA
ENDBRANCH   1  14
BRANCH   2  19
HETATM   19  C5  UNL     1     -17.323  73.541  -1.528  1.00  0.00     0.140 C 
HETATM   20  N2  UNL     1     -16.551  73.214  -2.501  1.00  0.00    -0.251 N 
ATOM     21  H2  UNL     1     -16.886  73.372  -3.451  1.00  0.00     0.196 HD
BRANCH  19  22
HETATM   22  O2  UNL     1     -18.555  74.084  -1.826  1.00  0.00    -0.348 OA
ATOM     23  H2  UNL     1     -18.845  74.174  -2.726  1.00  0.00     0.219 HD
ENDBRANCH  19  22
BRANCH  20  24
HETATM   24  O3  UNL     1     -15.312  72.670  -2.342  1.00  0.00    -0.288 OA
ATOM     25  H3  UNL     1     -14.835  72.224  -3.031  1.00  0.00     0.244 HD
ENDBRANCH  20  24
ENDBRANCH   2  19
TORSDOF 4
ENDMDL
MODEL 4
REMARK VINA RESULT: -6.278040890      4.037      6.370
REMARK  4 active torsions:
REMARK  status: ('A' for Active; 'I' for Inactive)
REMARK       I    between atoms: N1_2  and  C2_4 
REMARK    1  A    between atoms: C2_4  and  C3_6 
REMARK    2  A    between atoms: C4_7  and  C5_8 
REMARK    3  A    between atoms: C5_8  and  O2_9 
REMARK    4  A    between atoms: N2_11  and  O3_13 
ROOT
HETATM    1  C3  UNL     1     -12.779  83.181   4.590  1.00  0.00     0.098 C 
HETATM    2  C4  UNL     1     -14.049  82.631   4.113  1.00  0.00     0.076 C 
HETATM    3  C6  UNL     1     -13.413  81.225   4.222  1.00  0.00     0.024 C 
HETATM    4  C7  UNL     1     -12.030  81.874   4.281  1.00  0.00    -0.023 C 
HETATM    5  C8  UNL     1     -11.265  81.302   5.416  1.00  0.00     0.011 C 
HETATM    6  C9  UNL     1     -11.252  79.783   5.350  1.00  0.00     0.005 C 
HETATM    7  C10 UNL     1     -10.224  79.246   4.409  1.00  0.00    -0.018 C 
HETATM    8  C11 UNL     1      -9.186  78.506   5.230  1.00  0.00     0.010 C 
HETATM    9  C12 UNL     1      -9.551  80.288   3.572  1.00  0.00     0.009 C 
HETATM   10  C13 UNL     1     -10.417  80.929   2.567  1.00  0.00    -0.009 C 
HETATM   11  C14 UNL     1      -9.628  82.024   1.827  1.00  0.00     0.005 C 
HETATM   12  C15 UNL     1     -10.290  83.005   2.779  1.00  0.00     0.006 C 
HETATM   13  C16 UNL     1     -11.365  81.958   2.983  1.00  0.00    -0.001 C 
ENDROOT
BRANCH   1  14
HETATM   14  C2  UNL     1     -12.603  83.710   5.931  1.00  0.00     0.223 C 
HETATM   15  N1  UNL     1     -11.467  84.512   6.216  1.00  0.00    -0.365 N 
HETATM   16  C1  UNL     1     -11.245  85.071   7.560  1.00  0.00     0.149 C 
ATOM     17  H1  UNL     1     -10.791  84.704   5.476  1.00  0.00     0.161 HD
HETATM   18  O1  UNL     1     -13.415  83.486   6.842  1.00  0.00    -0.273 OA
ENDBRANCH   1  14
BRANCH   2  19
HETATM   19  C5  UNL     1     -15.287  82.722   4.870  1.00  0.00     0.140 C 
HETATM   20  N2  UNL     1     -16.220  83.526   4.508  1.00  0.00    -0.251 N 
ATOM     21  H2  UNL     1     -17.071  83.556   5.070  1.00  0.00     0.196 HD
BRANCH  19  22
HETATM   22  O2  UNL     1     -15.490  81.950   5.994  1.00  0.00    -0.348 OA
ATOM     23  H2  UNL     1     -16.238  82.097   6.560  1.00  0.00     0.219 HD
ENDBRANCH  19  22
BRANCH  20  24
HETATM   24  O3  UNL     1     -16.145  84.341   3.418  1.00  0.00    -0.288 OA
ATOM     25  H3  UNL     1     -16.657  85.134   3.311  1.00  0.00     0.244 HD
ENDBRANCH  20  24
ENDBRANCH   2  19
TORSDOF 4
ENDMDL
MODEL 5
REMARK VINA RESULT: -6.240786572      4.164      5.670
REMARK  4 active torsions:
REMARK  status: ('A' for Active; 'I' for Inactive)
REMARK       I    between atoms: N1_2  and  C2_4 
REMARK    1  A    between atoms: C2_4  and  C3_6 
REMARK    2  A    between atoms: C4_7  and  C5_8 
REMARK    3  A    between atoms: C5_8  and  O2_9 
REMARK    4  A    between atoms: N2_11  and  O3_13 
ROOT
HETATM    1  C3  UNL     1     -12.278  83.966   4.775  1.00  0.00     0.098 C 
HETATM    2  C4  UNL     1     -12.274  84.316   6.196  1.00  0.00     0.076 C 
HETATM    3  C6  UNL     1     -13.275  83.159   6.423  1.00  0.00     0.024 C 
HETATM    4  C7  UNL     1     -13.565  83.138   4.923  1.00  0.00    -0.023 C 
HETATM    5  C8  UNL     1     -13.480  81.744   4.424  1.00  0.00     0.011 C 
HETATM    6  C9  UNL     1     -14.354  80.816   5.254  1.00  0.00     0.005 C 
HETATM    7  C10 UNL     1     -15.792  80.853   4.853  1.00  0.00    -0.018 C 
HETATM    8  C11 UNL     1     -16.146  79.498   4.272  1.00  0.00     0.010 C 
HETATM    9  C12 UNL     1     -16.129  81.925   3.865  1.00  0.00     0.009 C 
HETATM   10  C13 UNL     1     -16.040  83.300   4.389  1.00  0.00    -0.009 C 
HETATM   11  C14 UNL     1     -16.339  84.303   3.261  1.00  0.00     0.005 C 
HETATM   12  C15 UNL     1     -14.834  84.438   3.116  1.00  0.00     0.006 C 
HETATM   13  C16 UNL     1     -14.732  83.930   4.539  1.00  0.00    -0.001 C 
ENDROOT
BRANCH   1  14
HETATM   14  C2  UNL     1     -11.165  83.295   4.125  1.00  0.00     0.223 C 
HETATM   15  N1  UNL     1     -10.502  83.939   3.048  1.00  0.00    -0.365 N 
HETATM   16  C1  UNL     1      -9.369  83.300   2.359  1.00  0.00     0.149 C 
ATOM     17  H1  UNL     1     -10.816  84.861   2.745  1.00  0.00     0.161 HD
HETATM   18  O1  UNL     1     -10.770  82.174   4.480  1.00  0.00    -0.273 OA
ENDBRANCH   1  14
BRANCH   2  19
HETATM   19  C5  UNL     1     -11.099  84.186   7.042  1.00  0.00     0.140 C 
HETATM   20  N2  UNL     1     -10.474  85.226   7.462  1.00  0.00    -0.251 N 
ATOM     21  H2  UNL     1      -9.654  85.086   8.052  1.00  0.00     0.196 HD
BRANCH  19  22
HETATM   22  O2  UNL     1     -10.626  82.946   7.414  1.00  0.00    -0.348 OA
ATOM     23  H2  UNL     1      -9.956  82.857   8.081  1.00  0.00     0.219 HD
ENDBRANCH  19  22
BRANCH  20  24
HETATM   24  O3  UNL     1     -10.838  86.506   7.167  1.00  0.00    -0.288 OA
ATOM     25  H3  UNL     1     -11.539  86.974   7.605  1.00  0.00     0.244 HD
ENDBRANCH  20  24
ENDBRANCH   2  19
TORSDOF 4
ENDMDL
