MODEL 1
REMARK VINA RESULT: -5.166533183      0.000      0.000
REMARK  4 active torsions:
REMARK  status: ('A' for Active; 'I' for Inactive)
REMARK    1  A    between atoms: C2_2  and  N1_4 
REMARK    2  A    between atoms: N1_4  and  C4_6 
REMARK    3  A    between atoms: C4_6  and  N2_8 
REMARK       I    between atoms: N2_8  and  C5_10 
REMARK       I    between atoms: C5_10  and  N3_12 
REMARK    4  A    between atoms: N3_12  and  C6_14 
ROOT
HETATM    1  N2  UNL     1     -15.258  78.005   8.273  1.00  0.00    -0.286 N 
ATOM      2  H2  UNL     1     -14.341  78.176   8.686  1.00  0.00     0.173 HD
HETATM    3  C5  UNL     1     -15.697  78.888   7.252  1.00  0.00     0.323 C 
HETATM    4  O1  UNL     1     -16.816  78.685   6.743  1.00  0.00    -0.247 OA
HETATM    5  N3  UNL     1     -14.852  79.967   6.845  1.00  0.00    -0.329 N 
ATOM      6  H3  UNL     1     -13.947  80.074   7.304  1.00  0.00     0.165 HD
ENDROOT
BRANCH   1   7
HETATM    7  C4  UNL     1     -16.003  76.905   8.760  1.00  0.00     0.175 C 
HETATM    8  S1  UNL     1     -15.497  75.389   8.331  1.00  0.00    -0.041 SA
BRANCH   7   9
HETATM    9  N1  UNL     1     -17.141  77.050   9.596  1.00  0.00    -0.363 N 
ATOM     10  H1  UNL     1     -17.026  77.448  10.528  1.00  0.00     0.162 HD
BRANCH   9  11
HETATM   11  C2  UNL     1     -18.444  76.651   9.161  1.00  0.00     0.075 C 
HETATM   12  C1  UNL     1     -19.350  77.857   9.008  1.00  0.00     0.032 C 
HETATM   13  C3  UNL     1     -19.088  75.759  10.195  1.00  0.00     0.032 C 
ENDBRANCH   9  11
ENDBRANCH   7   9
ENDBRANCH   1   7
BRANCH   5  14
HETATM   14  C6  UNL     1     -15.211  80.904   5.826  1.00  0.00     0.149 C 
HETATM   15  C7  UNL     1     -14.575  82.256   6.007  1.00  0.00     0.045 C 
HETATM   16  C8  UNL     1     -14.443  83.027   4.722  1.00  0.00    -0.044 C 
HETATM   17  C9  UNL     1     -15.713  83.071   3.927  1.00  0.00     0.015 C 
HETATM   18  C10 UNL     1     -14.147  84.480   5.124  1.00  0.00     0.015 C 
HETATM   19  C11 UNL     1     -13.273  82.584   3.889  1.00  0.00     0.019 C 
HETATM   20  C12 UNL     1     -13.040  81.113   3.898  1.00  0.00     0.077 C 
HETATM   21  S2  UNL     1     -14.604  80.232   4.244  1.00  0.00    -0.144 SA
ENDBRANCH   5  14
TORSDOF 4
ENDMDL
MODEL 2
REMARK VINA RESULT: -5.000725315      7.234      9.172
REMARK  4 active torsions:
REMARK  status: ('A' for Active; 'I' for Inactive)
REMARK    1  A    between atoms: C2_2  and  N1_4 
REMARK    2  A    between atoms: N1_4  and  C4_6 
REMARK    3  A    between atoms: C4_6  and  N2_8 
REMARK       I    between atoms: N2_8  and  C5_10 
REMARK       I    between atoms: C5_10  and  N3_12 
REMARK    4  A    between atoms: N3_12  and  C6_14 
ROOT
HETATM    1  N2  UNL     1     -10.230  83.482   6.057  1.00  0.00    -0.286 N 
ATOM      2  H2  UNL     1      -9.656  83.737   5.253  1.00  0.00     0.173 HD
HETATM    3  C5  UNL     1      -9.797  83.910   7.339  1.00  0.00     0.323 C 
HETATM    4  O1  UNL     1     -10.494  83.605   8.325  1.00  0.00    -0.247 OA
HETATM    5  N3  UNL     1      -8.591  84.671   7.455  1.00  0.00    -0.329 N 
ATOM      6  H3  UNL     1      -8.070  84.886   6.606  1.00  0.00     0.165 HD
ENDROOT
BRANCH   1   7
HETATM    7  C4  UNL     1     -11.402  82.728   5.815  1.00  0.00     0.175 C 
HETATM    8  S1  UNL     1     -11.220  81.219   5.161  1.00  0.00    -0.041 SA
BRANCH   7   9
HETATM    9  N1  UNL     1     -12.705  83.205   6.117  1.00  0.00    -0.363 N 
ATOM     10  H1  UNL     1     -12.867  83.685   7.003  1.00  0.00     0.162 HD
BRANCH   9  11
HETATM   11  C2  UNL     1     -13.795  83.029   5.207  1.00  0.00     0.075 C 
HETATM   12  C1  UNL     1     -14.260  84.365   4.663  1.00  0.00     0.032 C 
HETATM   13  C3  UNL     1     -14.978  82.422   5.923  1.00  0.00     0.032 C 
ENDBRANCH   9  11
ENDBRANCH   7   9
ENDBRANCH   1   7
BRANCH   5  14
HETATM   14  C6  UNL     1      -8.079  85.143   8.704  1.00  0.00     0.149 C 
HETATM   15  C7  UNL     1      -7.206  84.140   9.410  1.00  0.00     0.045 C 
HETATM   16  C8  UNL     1      -6.223  84.770  10.357  1.00  0.00    -0.044 C 
HETATM   17  C9  UNL     1      -6.850  85.766  11.284  1.00  0.00     0.015 C 
HETATM   18  C10 UNL     1      -5.700  83.634  11.249  1.00  0.00     0.015 C 
HETATM   19  C11 UNL     1      -5.016  85.335   9.659  1.00  0.00     0.019 C 
HETATM   20  C12 UNL     1      -5.316  85.990   8.356  1.00  0.00     0.077 C 
HETATM   21  S2  UNL     1      -7.040  86.596   8.341  1.00  0.00    -0.144 SA
ENDBRANCH   5  14
TORSDOF 4
ENDMDL
MODEL 3
REMARK VINA RESULT: -4.956055657      6.347      9.066
REMARK  4 active torsions:
REMARK  status: ('A' for Active; 'I' for Inactive)
REMARK    1  A    between atoms: C2_2  and  N1_4 
REMARK    2  A    between atoms: N1_4  and  C4_6 
REMARK    3  A    between atoms: C4_6  and  N2_8 
REMARK       I    between atoms: N2_8  and  C5_10 
REMARK       I    between atoms: C5_10  and  N3_12 
REMARK    4  A    between atoms: N3_12  and  C6_14 
ROOT
HETATM    1  N2  UNL     1      -8.459  84.443   7.199  1.00  0.00    -0.286 N 
ATOM      2  H2  UNL     1      -8.155  84.791   6.289  1.00  0.00     0.173 HD
HETATM    3  C5  UNL     1      -9.778  83.931   7.301  1.00  0.00     0.323 C 
HETATM    4  O1  UNL     1     -10.157  83.504   8.408  1.00  0.00    -0.247 OA
HETATM    5  N3  UNL     1     -10.620  83.920   6.144  1.00  0.00    -0.329 N 
ATOM      6  H3  UNL     1     -10.244  84.284   5.269  1.00  0.00     0.165 HD
ENDROOT
BRANCH   1   7
HETATM    7  C4  UNL     1      -7.536  84.507   8.269  1.00  0.00     0.175 C 
HETATM    8  S1  UNL     1      -6.223  83.502   8.208  1.00  0.00    -0.041 SA
BRANCH   7   9
HETATM    9  N1  UNL     1      -7.686  85.392   9.369  1.00  0.00    -0.363 N 
ATOM     10  H1  UNL     1      -8.614  85.750   9.597  1.00  0.00     0.162 HD
BRANCH   9  11
HETATM   11  C2  UNL     1      -6.566  85.794  10.163  1.00  0.00     0.075 C 
HETATM   12  C1  UNL     1      -6.782  85.427  11.618  1.00  0.00     0.032 C 
HETATM   13  C3  UNL     1      -6.407  87.295  10.119  1.00  0.00     0.032 C 
ENDBRANCH   9  11
ENDBRANCH   7   9
ENDBRANCH   1   7
BRANCH   5  14
HETATM   14  C6  UNL     1     -11.960  83.423   6.153  1.00  0.00     0.149 C 
HETATM   15  C7  UNL     1     -12.871  84.145   5.196  1.00  0.00     0.045 C 
HETATM   16  C8  UNL     1     -14.047  83.316   4.757  1.00  0.00    -0.044 C 
HETATM   17  C9  UNL     1     -14.776  82.673   5.898  1.00  0.00     0.015 C 
HETATM   18  C10 UNL     1     -15.044  84.295   4.118  1.00  0.00     0.015 C 
HETATM   19  C11 UNL     1     -13.697  82.325   3.682  1.00  0.00     0.019 C 
HETATM   20  C12 UNL     1     -12.363  81.687   3.852  1.00  0.00     0.077 C 
HETATM   21  S2  UNL     1     -11.890  81.682   5.618  1.00  0.00    -0.144 SA
ENDBRANCH   5  14
TORSDOF 4
ENDMDL
MODEL 4
REMARK VINA RESULT: -4.937687201      5.180      7.173
REMARK  4 active torsions:
REMARK  status: ('A' for Active; 'I' for Inactive)
REMARK    1  A    between atoms: C2_2  and  N1_4 
REMARK    2  A    between atoms: N1_4  and  C4_6 
REMARK    3  A    between atoms: C4_6  and  N2_8 
REMARK       I    between atoms: N2_8  and  C5_10 
REMARK       I    between atoms: C5_10  and  N3_12 
REMARK    4  A    between atoms: N3_12  and  C6_14 
ROOT
HETATM    1  N2  UNL     1     -11.481  82.129   5.811  1.00  0.00    -0.286 N 
ATOM      2  H2  UNL     1     -11.333  81.159   5.531  1.00  0.00     0.173 HD
HETATM    3  C5  UNL     1     -12.762  82.694   5.579  1.00  0.00     0.323 C 
HETATM    4  O1  UNL     1     -12.950  83.877   5.919  1.00  0.00    -0.247 OA
HETATM    5  N3  UNL     1     -13.782  81.897   4.971  1.00  0.00    -0.329 N 
ATOM      6  H3  UNL     1     -13.559  80.935   4.719  1.00  0.00     0.165 HD
ENDROOT
BRANCH   1   7
HETATM    7  C4  UNL     1     -10.394  82.815   6.404  1.00  0.00     0.175 C 
HETATM    8  S1  UNL     1      -8.933  82.746   5.632  1.00  0.00    -0.041 SA
BRANCH   7   9
HETATM    9  N1  UNL     1     -10.513  83.557   7.609  1.00  0.00    -0.363 N 
ATOM     10  H1  UNL     1     -11.059  83.171   8.380  1.00  0.00     0.162 HD
BRANCH   9  11
HETATM   11  C2  UNL     1      -9.884  84.832   7.766  1.00  0.00     0.075 C 
HETATM   12  C1  UNL     1      -8.824  84.777   8.848  1.00  0.00     0.032 C 
HETATM   13  C3  UNL     1     -10.897  85.861   8.209  1.00  0.00     0.032 C 
ENDBRANCH   9  11
ENDBRANCH   7   9
ENDBRANCH   1   7
BRANCH   5  14
HETATM   14  C6  UNL     1     -15.099  82.383   4.700  1.00  0.00     0.149 C 
HETATM   15  C7  UNL     1     -15.175  83.250   3.472  1.00  0.00     0.045 C 
HETATM   16  C8  UNL     1     -16.543  83.276   2.846  1.00  0.00    -0.044 C 
HETATM   17  C9  UNL     1     -17.638  83.548   3.832  1.00  0.00     0.015 C 
HETATM   18  C10 UNL     1     -16.546  84.465   1.874  1.00  0.00     0.015 C 
HETATM   19  C11 UNL     1     -16.828  82.060   2.010  1.00  0.00     0.019 C 
HETATM   20  C12 UNL     1     -16.296  80.790   2.578  1.00  0.00     0.077 C 
HETATM   21  S2  UNL     1     -16.153  80.927   4.395  1.00  0.00    -0.144 SA
ENDBRANCH   5  14
TORSDOF 4
ENDMDL
MODEL 5
REMARK VINA RESULT: -4.934858828      5.494      7.162
REMARK  4 active torsions:
REMARK  status: ('A' for Active; 'I' for Inactive)
REMARK    1  A    between atoms: C2_2  and  N1_4 
REMARK    2  A    between atoms: N1_4  and  C4_6 
REMARK    3  A    between atoms: C4_6  and  N2_8 
REMARK       I    between atoms: N2_8  and  C5_10 
REMARK       I    between atoms: C5_10  and  N3_12 
REMARK    4  A    between atoms: N3_12  and  C6_14 
ROOT
HETATM    1  N2  UNL     1     -11.915  84.404   5.888  1.00  0.00    -0.286 N 
ATOM      2  H2  UNL     1     -11.512  84.819   5.047  1.00  0.00     0.173 HD
HETATM    3  C5  UNL     1     -13.239  83.900   5.803  1.00  0.00     0.323 C 
HETATM    4  O1  UNL     1     -13.739  83.391   6.824  1.00  0.00    -0.247 OA
HETATM    5  N3  UNL     1     -13.948  83.989   4.563  1.00  0.00    -0.329 N 
ATOM      6  H3  UNL     1     -13.477  84.418   3.766  1.00  0.00     0.165 HD
ENDROOT
BRANCH   1   7
HETATM    7  C4  UNL     1     -11.116  84.373   7.054  1.00  0.00     0.175 C 
HETATM    8  S1  UNL     1     -10.894  85.795   7.869  1.00  0.00    -0.041 SA
BRANCH   7   9
HETATM    9  N1  UNL     1     -10.517  83.184   7.549  1.00  0.00    -0.363 N 
ATOM     10  H1  UNL     1     -10.910  82.737   8.378  1.00  0.00     0.162 HD
BRANCH   9  11
HETATM   11  C2  UNL     1      -9.377  82.601   6.912  1.00  0.00     0.075 C 
HETATM   12  C1  UNL     1      -9.790  81.426   6.047  1.00  0.00     0.032 C 
HETATM   13  C3  UNL     1      -8.423  82.056   7.949  1.00  0.00     0.032 C 
ENDBRANCH   9  11
ENDBRANCH   7   9
ENDBRANCH   1   7
BRANCH   5  14
HETATM   14  C6  UNL     1     -15.282  83.509   4.386  1.00  0.00     0.149 C 
HETATM   15  C7  UNL     1     -15.780  83.635   2.971  1.00  0.00     0.045 C 
HETATM   16  C8  UNL     1     -16.867  82.652   2.633  1.00  0.00    -0.044 C 
HETATM   17  C9  UNL     1     -17.969  82.619   3.648  1.00  0.00     0.015 C 
HETATM   18  C10 UNL     1     -17.508  83.154   1.331  1.00  0.00     0.015 C 
HETATM   19  C11 UNL     1     -16.341  81.276   2.330  1.00  0.00     0.019 C 
HETATM   20  C12 UNL     1     -15.201  80.855   3.191  1.00  0.00     0.077 C 
HETATM   21  S2  UNL     1     -15.269  81.732   4.794  1.00  0.00    -0.144 SA
ENDBRANCH   5  14
TORSDOF 4
ENDMDL
