MODEL 1
REMARK VINA RESULT: -7.815144094      0.000      0.000
REMARK  6 active torsions:
REMARK  status: ('A' for Active; 'I' for Inactive)
REMARK    1  A    between atoms: O1_2  and  C2_3 
REMARK    2  A    between atoms: C7_9  and  O2_10 
REMARK    3  A    between atoms: C16_21  and  N1_22 
REMARK       I    between atoms: N1_22  and  C17_24 
REMARK    4  A    between atoms: C17_24  and  C18_26 
REMARK    5  A    between atoms: C18_26  and  O6_28 
REMARK    6  A    between atoms: O6_28  and  C19_29 
ROOT
HETATM    1  C2  UNL     1      33.601   3.621  55.278  1.00  0.00     0.103 A 
HETATM    2  C3  UNL     1      33.985   4.117  54.054  1.00  0.00     0.050 A 
HETATM    3  C4  UNL     1      35.274   4.523  53.791  1.00  0.00    -0.013 A 
HETATM    4  C5  UNL     1      36.217   4.433  54.788  1.00  0.00    -0.024 A 
HETATM    5  C6  UNL     1      35.806   3.924  56.032  1.00  0.00     0.054 A 
HETATM    6 BR1  UNL     1      37.111   3.795  57.423  1.00  0.00    -0.047 Br
HETATM    7  C7  UNL     1      34.525   3.518  56.297  1.00  0.00     0.119 A 
HETATM    8  C9  UNL     1      37.638   4.838  54.643  1.00  0.00     0.094 C 
HETATM    9  C10 UNL     1      37.995   4.910  53.203  1.00  0.00     0.048 C 
HETATM   10 CL1  UNL     1      39.743   4.871  52.853  1.00  0.00    -0.086 Cl
HETATM   11  C11 UNL     1      37.118   4.999  52.237  1.00  0.00     0.098 C 
HETATM   12  O3  UNL     1      37.270   5.073  50.856  1.00  0.00    -0.341 OA
HETATM   13  C12 UNL     1      36.191   4.362  50.240  1.00  0.00     0.063 C 
HETATM   14  C13 UNL     1      36.803   3.108  49.639  1.00  0.00     0.046 C 
HETATM   15  C14 UNL     1      35.561   5.252  49.219  1.00  0.00     0.046 C 
HETATM   16  C15 UNL     1      35.259   3.987  51.374  1.00  0.00     0.081 C 
HETATM   17  C16 UNL     1      35.627   5.040  52.465  1.00  0.00     0.114 C 
ENDROOT
BRANCH  17  18
HETATM   18  N1  UNL     1      35.009   6.255  52.072  1.00  0.00    -0.333 N 
HETATM   19  C17 UNL     1      35.282   7.552  52.556  1.00  0.00     0.318 C 
HETATM   20  O4  UNL     1      36.137   7.820  53.426  1.00  0.00    -0.262 OA
ATOM     21  H1  UNL     1      34.284   6.183  51.358  1.00  0.00     0.164 HD
BRANCH  19  22
HETATM   22  C18 UNL     1      34.543   8.720  52.037  1.00  0.00     0.353 C 
HETATM   23  O5  UNL     1      33.694   9.329  52.770  1.00  0.00    -0.254 OA
BRANCH  22  24
HETATM   24  O6  UNL     1      34.718   9.216  50.759  1.00  0.00    -0.287 OA
BRANCH  24  25
HETATM   25  C19 UNL     1      33.681   9.070  49.775  1.00  0.00     0.139 C 
HETATM   26  C20 UNL     1      32.844  10.305  49.681  1.00  0.00     0.064 C 
HETATM   27  C21 UNL     1      34.376   8.762  48.464  1.00  0.00     0.064 C 
HETATM   28 CL2  UNL     1      32.628   7.716  50.220  1.00  0.00    -0.088 Cl
ENDBRANCH  24  25
ENDBRANCH  22  24
ENDBRANCH  19  22
ENDBRANCH  17  18
BRANCH   1  29
HETATM   29  O1  UNL     1      32.284   3.238  55.443  1.00  0.00    -0.353 OA
HETATM   30  C1  UNL     1      31.219   4.131  55.571  1.00  0.00     0.210 C 
ENDBRANCH   1  29
BRANCH   7  31
HETATM   31  O2  UNL     1      34.178   3.023  57.545  1.00  0.00    -0.352 OA
HETATM   32  C8  UNL     1      33.542   3.843  58.523  1.00  0.00     0.210 C 
ENDBRANCH   7  31
TORSDOF 6
ENDMDL
MODEL 2
REMARK VINA RESULT: -7.632968033      1.746      2.118
REMARK  6 active torsions:
REMARK  status: ('A' for Active; 'I' for Inactive)
REMARK    1  A    between atoms: O1_2  and  C2_3 
REMARK    2  A    between atoms: C7_9  and  O2_10 
REMARK    3  A    between atoms: C16_21  and  N1_22 
REMARK       I    between atoms: N1_22  and  C17_24 
REMARK    4  A    between atoms: C17_24  and  C18_26 
REMARK    5  A    between atoms: C18_26  and  O6_28 
REMARK    6  A    between atoms: O6_28  and  C19_29 
ROOT
HETATM    1  C2  UNL     1      33.307   4.092  56.361  1.00  0.00     0.103 A 
HETATM    2  C3  UNL     1      33.830   3.978  55.094  1.00  0.00     0.050 A 
HETATM    3  C4  UNL     1      35.186   3.967  54.851  1.00  0.00    -0.013 A 
HETATM    4  C5  UNL     1      36.053   4.074  55.913  1.00  0.00    -0.024 A 
HETATM    5  C6  UNL     1      35.500   4.190  57.200  1.00  0.00     0.054 A 
HETATM    6 BR1  UNL     1      36.699   4.340  58.681  1.00  0.00    -0.047 Br
HETATM    7  C7  UNL     1      34.153   4.200  57.445  1.00  0.00     0.119 A 
HETATM    8  C9  UNL     1      37.533   4.080  55.795  1.00  0.00     0.094 C 
HETATM    9  C10 UNL     1      37.934   3.508  54.484  1.00  0.00     0.048 C 
HETATM   10 CL1  UNL     1      39.629   2.966  54.380  1.00  0.00    -0.086 Cl
HETATM   11  C11 UNL     1      37.129   3.397  53.459  1.00  0.00     0.098 C 
HETATM   12  O3  UNL     1      37.330   2.892  52.178  1.00  0.00    -0.341 OA
HETATM   13  C12 UNL     1      36.127   2.244  51.749  1.00  0.00     0.063 C 
HETATM   14  C13 UNL     1      36.435   0.756  51.735  1.00  0.00     0.046 C 
HETATM   15  C14 UNL     1      35.757   2.778  50.404  1.00  0.00     0.046 C 
HETATM   16  C15 UNL     1      35.104   2.547  52.824  1.00  0.00     0.081 C 
HETATM   17  C16 UNL     1      35.686   3.838  53.479  1.00  0.00     0.114 C 
ENDROOT
BRANCH  17  18
HETATM   18  N1  UNL     1      35.390   4.906  52.593  1.00  0.00    -0.333 N 
HETATM   19  C17 UNL     1      35.818   6.246  52.690  1.00  0.00     0.318 C 
HETATM   20  O4  UNL     1      36.544   6.695  53.601  1.00  0.00    -0.262 OA
ATOM     21  H1  UNL     1      34.799   4.677  51.793  1.00  0.00     0.164 HD
BRANCH  19  22
HETATM   22  C18 UNL     1      35.416   7.240  51.674  1.00  0.00     0.353 C 
HETATM   23  O5  UNL     1      36.106   8.298  51.493  1.00  0.00    -0.254 OA
BRANCH  22  24
HETATM   24  O6  UNL     1      34.298   7.091  50.875  1.00  0.00    -0.287 OA
BRANCH  24  25
HETATM   25  C19 UNL     1      34.435   6.677  49.506  1.00  0.00     0.139 C 
HETATM   26  C20 UNL     1      33.498   5.559  49.179  1.00  0.00     0.064 C 
HETATM   27  C21 UNL     1      34.160   7.904  48.660  1.00  0.00     0.064 C 
HETATM   28 CL2  UNL     1      36.092   6.119  49.218  1.00  0.00    -0.088 Cl
ENDBRANCH  24  25
ENDBRANCH  22  24
ENDBRANCH  19  22
ENDBRANCH  17  18
BRANCH   1  29
HETATM   29  O1  UNL     1      31.933   4.092  56.501  1.00  0.00    -0.353 OA
HETATM   30  C1  UNL     1      31.037   3.973  55.438  1.00  0.00     0.210 C 
ENDBRANCH   1  29
BRANCH   7  31
HETATM   31  O2  UNL     1      33.665   4.318  58.738  1.00  0.00    -0.352 OA
HETATM   32  C8  UNL     1      33.485   3.177  59.576  1.00  0.00     0.210 C 
ENDBRANCH   7  31
TORSDOF 6
ENDMDL
MODEL 3
REMARK VINA RESULT: -7.571533448      1.671      1.991
REMARK  6 active torsions:
REMARK  status: ('A' for Active; 'I' for Inactive)
REMARK    1  A    between atoms: O1_2  and  C2_3 
REMARK    2  A    between atoms: C7_9  and  O2_10 
REMARK    3  A    between atoms: C16_21  and  N1_22 
REMARK       I    between atoms: N1_22  and  C17_24 
REMARK    4  A    between atoms: C17_24  and  C18_26 
REMARK    5  A    between atoms: C18_26  and  O6_28 
REMARK    6  A    between atoms: O6_28  and  C19_29 
ROOT
HETATM    1  C2  UNL     1      33.356   4.123  55.979  1.00  0.00     0.103 A 
HETATM    2  C3  UNL     1      33.968   3.968  54.757  1.00  0.00     0.050 A 
HETATM    3  C4  UNL     1      35.336   3.892  54.619  1.00  0.00    -0.013 A 
HETATM    4  C5  UNL     1      36.124   3.976  55.742  1.00  0.00    -0.024 A 
HETATM    5  C6  UNL     1      35.481   4.134  56.982  1.00  0.00     0.054 A 
HETATM    6 BR1  UNL     1      36.570   4.252  58.549  1.00  0.00    -0.047 Br
HETATM    7  C7  UNL     1      34.121   4.209  57.123  1.00  0.00     0.119 A 
HETATM    8  C9  UNL     1      37.607   3.914  55.737  1.00  0.00     0.094 C 
HETATM    9  C10 UNL     1      38.080   3.305  54.468  1.00  0.00     0.048 C 
HETATM   10 CL1  UNL     1      39.752   2.686  54.499  1.00  0.00    -0.086 Cl
HETATM   11  C11 UNL     1      37.351   3.216  53.386  1.00  0.00     0.098 C 
HETATM   12  O3  UNL     1      37.626   2.685  52.129  1.00  0.00    -0.341 OA
HETATM   13  C12 UNL     1      36.431   2.085  51.617  1.00  0.00     0.063 C 
HETATM   14  C13 UNL     1      36.670   0.584  51.642  1.00  0.00     0.046 C 
HETATM   15  C14 UNL     1      36.188   2.615  50.242  1.00  0.00     0.046 C 
HETATM   16  C15 UNL     1      35.344   2.449  52.606  1.00  0.00     0.081 C 
HETATM   17  C16 UNL     1      35.933   3.722  53.290  1.00  0.00     0.114 C 
ENDROOT
BRANCH  17  18
HETATM   18  N1  UNL     1      35.754   4.789  52.372  1.00  0.00    -0.333 N 
HETATM   19  C17 UNL     1      36.241   6.107  52.483  1.00  0.00     0.318 C 
HETATM   20  O4  UNL     1      36.923   6.534  53.438  1.00  0.00    -0.262 OA
ATOM     21  H1  UNL     1      35.210   4.577  51.536  1.00  0.00     0.164 HD
BRANCH  19  22
HETATM   22  C18 UNL     1      35.962   7.104  51.429  1.00  0.00     0.353 C 
HETATM   23  O5  UNL     1      36.166   8.346  51.641  1.00  0.00    -0.254 OA
BRANCH  22  24
HETATM   24  O6  UNL     1      35.477   6.764  50.181  1.00  0.00    -0.287 OA
BRANCH  24  25
HETATM   25  C19 UNL     1      34.116   7.057  49.827  1.00  0.00     0.139 C 
HETATM   26  C20 UNL     1      34.039   8.173  48.835  1.00  0.00     0.064 C 
HETATM   27  C21 UNL     1      33.534   5.773  49.272  1.00  0.00     0.064 C 
HETATM   28 CL2  UNL     1      33.217   7.537  51.277  1.00  0.00    -0.088 Cl
ENDBRANCH  24  25
ENDBRANCH  22  24
ENDBRANCH  19  22
ENDBRANCH  17  18
BRANCH   1  29
HETATM   29  O1  UNL     1      31.976   4.187  56.014  1.00  0.00    -0.353 OA
HETATM   30  C1  UNL     1      31.134   3.187  55.527  1.00  0.00     0.210 C 
ENDBRANCH   1  29
BRANCH   7  31
HETATM   31  O2  UNL     1      33.542   4.367  58.374  1.00  0.00    -0.352 OA
HETATM   32  C8  UNL     1      33.355   3.261  59.256  1.00  0.00     0.210 C 
ENDBRANCH   7  31
TORSDOF 6
ENDMDL
MODEL 4
REMARK VINA RESULT: -7.349741642      2.960      6.793
REMARK  6 active torsions:
REMARK  status: ('A' for Active; 'I' for Inactive)
REMARK    1  A    between atoms: O1_2  and  C2_3 
REMARK    2  A    between atoms: C7_9  and  O2_10 
REMARK    3  A    between atoms: C16_21  and  N1_22 
REMARK       I    between atoms: N1_22  and  C17_24 
REMARK    4  A    between atoms: C17_24  and  C18_26 
REMARK    5  A    between atoms: C18_26  and  O6_28 
REMARK    6  A    between atoms: O6_28  and  C19_29 
ROOT
HETATM    1  C2  UNL     1      35.337   7.427  52.371  1.00  0.00     0.103 A 
HETATM    2  C3  UNL     1      35.784   6.486  53.269  1.00  0.00     0.050 A 
HETATM    3  C4  UNL     1      35.651   5.133  53.050  1.00  0.00    -0.013 A 
HETATM    4  C5  UNL     1      35.048   4.702  51.891  1.00  0.00    -0.024 A 
HETATM    5  C6  UNL     1      34.599   5.678  50.986  1.00  0.00     0.054 A 
HETATM    6 BR1  UNL     1      33.760   5.087  49.373  1.00  0.00    -0.047 Br
HETATM    7  C7  UNL     1      34.730   7.025  51.200  1.00  0.00     0.119 A 
HETATM    8  C9  UNL     1      34.837   3.277  51.531  1.00  0.00     0.094 C 
HETATM    9  C10 UNL     1      35.743   2.416  52.334  1.00  0.00     0.048 C 
HETATM   10 CL1  UNL     1      35.998   0.774  51.688  1.00  0.00    -0.086 Cl
HETATM   11  C11 UNL     1      36.326   2.802  53.440  1.00  0.00     0.098 C 
HETATM   12  O3  UNL     1      37.192   2.141  54.305  1.00  0.00    -0.341 OA
HETATM   13  C12 UNL     1      38.138   3.088  54.814  1.00  0.00     0.063 C 
HETATM   14  C13 UNL     1      39.470   2.737  54.172  1.00  0.00     0.046 C 
HETATM   15  C14 UNL     1      38.159   2.979  56.304  1.00  0.00     0.046 C 
HETATM   16  C15 UNL     1      37.664   4.436  54.312  1.00  0.00     0.081 C 
HETATM   17  C16 UNL     1      36.150   4.174  54.041  1.00  0.00     0.114 C 
ENDROOT
BRANCH  17  18
HETATM   18  N1  UNL     1      35.510   4.179  55.308  1.00  0.00    -0.333 N 
HETATM   19  C17 UNL     1      34.133   4.032  55.574  1.00  0.00     0.318 C 
HETATM   20  O4  UNL     1      33.255   3.869  54.701  1.00  0.00    -0.262 OA
ATOM     21  H1  UNL     1      36.116   4.304  56.119  1.00  0.00     0.164 HD
BRANCH  19  22
HETATM   22  C18 UNL     1      33.627   4.060  56.961  1.00  0.00     0.353 C 
HETATM   23  O5  UNL     1      32.524   3.494  57.261  1.00  0.00    -0.254 OA
BRANCH  22  24
HETATM   24  O6  UNL     1      34.299   4.684  57.995  1.00  0.00    -0.287 OA
BRANCH  24  25
HETATM   25  C19 UNL     1      35.056   3.909  58.940  1.00  0.00     0.139 C 
HETATM   26  C20 UNL     1      36.431   4.465  59.123  1.00  0.00     0.064 C 
HETATM   27  C21 UNL     1      34.267   3.926  60.234  1.00  0.00     0.064 C 
HETATM   28 CL2  UNL     1      35.201   2.241  58.357  1.00  0.00    -0.088 Cl
ENDBRANCH  24  25
ENDBRANCH  22  24
ENDBRANCH  19  22
ENDBRANCH  17  18
BRANCH   1  29
HETATM   29  O1  UNL     1      35.518   8.761  52.681  1.00  0.00    -0.353 OA
HETATM   30  C1  UNL     1      34.583   9.540  53.365  1.00  0.00     0.210 C 
ENDBRANCH   1  29
BRANCH   7  31
HETATM   31  O2  UNL     1      34.266   7.943  50.270  1.00  0.00    -0.352 OA
HETATM   32  C8  UNL     1      32.945   8.475  50.340  1.00  0.00     0.210 C 
ENDBRANCH   7  31
TORSDOF 6
ENDMDL
MODEL 5
REMARK VINA RESULT: -7.333497144      1.692      2.237
REMARK  6 active torsions:
REMARK  status: ('A' for Active; 'I' for Inactive)
REMARK    1  A    between atoms: O1_2  and  C2_3 
REMARK    2  A    between atoms: C7_9  and  O2_10 
REMARK    3  A    between atoms: C16_21  and  N1_22 
REMARK       I    between atoms: N1_22  and  C17_24 
REMARK    4  A    between atoms: C17_24  and  C18_26 
REMARK    5  A    between atoms: C18_26  and  O6_28 
REMARK    6  A    between atoms: O6_28  and  C19_29 
ROOT
HETATM    1  C2  UNL     1      33.475   4.025  55.765  1.00  0.00     0.103 A 
HETATM    2  C3  UNL     1      34.114   3.796  54.569  1.00  0.00     0.050 A 
HETATM    3  C4  UNL     1      35.485   3.712  54.467  1.00  0.00    -0.013 A 
HETATM    4  C5  UNL     1      36.247   3.863  55.601  1.00  0.00    -0.024 A 
HETATM    5  C6  UNL     1      35.576   4.096  56.814  1.00  0.00     0.054 A 
HETATM    6 BR1  UNL     1      36.630   4.307  58.395  1.00  0.00    -0.047 Br
HETATM    7  C7  UNL     1      34.213   4.179  56.919  1.00  0.00     0.119 A 
HETATM    8  C9  UNL     1      37.730   3.801  55.634  1.00  0.00     0.094 C 
HETATM    9  C10 UNL     1      38.231   3.117  54.414  1.00  0.00     0.048 C 
HETATM   10 CL1  UNL     1      39.901   2.501  54.521  1.00  0.00    -0.086 Cl
HETATM   11  C11 UNL     1      37.526   2.963  53.323  1.00  0.00     0.098 C 
HETATM   12  O3  UNL     1      37.829   2.357  52.107  1.00  0.00    -0.341 OA
HETATM   13  C12 UNL     1      36.645   1.728  51.604  1.00  0.00     0.063 C 
HETATM   14  C13 UNL     1      36.882   0.231  51.725  1.00  0.00     0.046 C 
HETATM   15  C14 UNL     1      36.435   2.174  50.195  1.00  0.00     0.046 C 
HETATM   16  C15 UNL     1      35.537   2.151  52.545  1.00  0.00     0.081 C 
HETATM   17  C16 UNL     1      36.112   3.462  53.165  1.00  0.00     0.114 C 
ENDROOT
BRANCH  17  18
HETATM   18  N1  UNL     1      35.955   4.472  52.180  1.00  0.00    -0.333 N 
HETATM   19  C17 UNL     1      36.423   5.801  52.232  1.00  0.00     0.318 C 
HETATM   20  O4  UNL     1      37.065   6.291  53.185  1.00  0.00    -0.262 OA
ATOM     21  H1  UNL     1      35.444   4.205  51.338  1.00  0.00     0.164 HD
BRANCH  19  22
HETATM   22  C18 UNL     1      36.173   6.732  51.113  1.00  0.00     0.353 C 
HETATM   23  O5  UNL     1      36.089   6.298  49.916  1.00  0.00    -0.254 OA
BRANCH  22  24
HETATM   24  O6  UNL     1      36.016   8.094  51.287  1.00  0.00    -0.287 OA
BRANCH  24  25
HETATM   25  C19 UNL     1      34.716   8.647  51.546  1.00  0.00     0.139 C 
HETATM   26  C20 UNL     1      34.569   9.039  52.981  1.00  0.00     0.064 C 
HETATM   27  C21 UNL     1      34.567   9.838  50.621  1.00  0.00     0.064 C 
HETATM   28 CL2  UNL     1      33.473   7.442  51.167  1.00  0.00    -0.088 Cl
ENDBRANCH  24  25
ENDBRANCH  22  24
ENDBRANCH  19  22
ENDBRANCH  17  18
BRANCH   1  29
HETATM   29  O1  UNL     1      32.095   4.090  55.764  1.00  0.00    -0.353 OA
HETATM   30  C1  UNL     1      31.258   2.992  55.559  1.00  0.00     0.210 C 
ENDBRANCH   1  29
BRANCH   7  31
HETATM   31  O2  UNL     1      33.606   4.411  58.145  1.00  0.00    -0.352 OA
HETATM   32  C8  UNL     1      33.231   3.340  59.008  1.00  0.00     0.210 C 
ENDBRANCH   7  31
TORSDOF 6
ENDMDL
