MODEL 1
REMARK VINA RESULT: -8.554436822      0.000      0.000
REMARK  9 active torsions:
REMARK  status: ('A' for Active; 'I' for Inactive)
REMARK    1  A    between atoms: N1_1  and  C1_4 
REMARK    2  A    between atoms: C2_7  and  N3_8 
REMARK    3  A    between atoms: N5_15  and  O3_16 
REMARK    4  A    between atoms: C7_23  and  C8_24 
REMARK    5  A    between atoms: C8_24  and  O5_25 
REMARK    6  A    between atoms: C8_24  and  C9_27 
REMARK    7  A    between atoms: C9_27  and  C10_28 
REMARK    8  A    between atoms: C10_28  and  N7_29 
REMARK    9  A    between atoms: N7_29  and  C11_31 
ROOT
HETATM    1  C1  UNL     1      -5.622 -85.099  92.229  1.00  0.00     0.144 A 
HETATM    2  N2  UNL     1      -4.425 -85.227  91.660  1.00  0.00    -0.173 N 
ATOM      3  H2  UNL     1      -3.799 -84.422  91.681  1.00  0.00     0.186 HD
HETATM    4  C2  UNL     1      -3.990 -86.344  91.062  1.00  0.00     0.710 A 
HETATM    5  N6  UNL     1      -4.772 -87.427  91.007  1.00  0.00    -0.186 N 
ATOM      6  H6  UNL     1      -4.448 -88.282  90.554  1.00  0.00     0.184 HD
HETATM    7  C6  UNL     1      -6.005 -87.362  91.569  1.00  0.00     0.093 A 
HETATM    8  C7  UNL     1      -7.018 -88.349  91.650  1.00  0.00     0.038 A 
HETATM    9  C16 UNL     1      -8.038 -87.722  92.324  1.00  0.00     0.104 A 
HETATM   10  N9  UNL     1      -7.691 -86.438  92.642  1.00  0.00    -0.360 N 
ATOM     11  H9  UNL     1      -8.271 -85.764  93.142  1.00  0.00     0.165 HD
HETATM   12  C17 UNL     1      -6.460 -86.227  92.182  1.00  0.00     0.105 A 
ENDROOT
BRANCH   8  13
HETATM   13  C8  UNL     1      -6.900 -89.694  91.106  1.00  0.00     0.058 C 
BRANCH  13  14
HETATM   14  O5  UNL     1      -6.044 -89.812  90.121  1.00  0.00    -0.364 OA
ATOM     15  H5  UNL     1      -6.279 -89.339  89.332  1.00  0.00     0.217 HD
ENDBRANCH  13  14
BRANCH  13  16
HETATM   16  C9  UNL     1      -7.560 -90.924  91.460  1.00  0.00     0.084 C 
BRANCH  16  17
HETATM   17  C10 UNL     1      -7.216 -92.171  90.739  1.00  0.00     0.126 C 
BRANCH  17  18
HETATM   18  N7  UNL     1      -5.983 -92.773  91.228  1.00  0.00    -0.389 N 
ATOM     19  H7  UNL     1      -5.139 -92.728  90.656  1.00  0.00     0.159 HD
BRANCH  18  20
HETATM   20  C11 UNL     1      -5.940 -93.417  92.482  1.00  0.00     0.030 A 
HETATM   21  C12 UNL     1      -6.893 -94.399  92.741  1.00  0.00     0.046 A 
HETATM   22  C13 UNL     1      -6.929 -95.093  93.924  1.00  0.00     0.089 A 
HETATM   23  N8  UNL     1      -6.004 -94.801  94.853  1.00  0.00    -0.375 N 
HETATM   24  C14 UNL     1      -5.059 -93.868  94.666  1.00  0.00     0.089 A 
ATOM     25  H8  UNL     1      -6.021 -95.310  95.736  1.00  0.00     0.164 HD
HETATM   26  C15 UNL     1      -5.027 -93.173  93.475  1.00  0.00     0.046 A 
ENDBRANCH  18  20
ENDBRANCH  17  18
ENDBRANCH  16  17
ENDBRANCH  13  16
ENDBRANCH   8  13
BRANCH   4  27
HETATM   27  N3  UNL     1      -2.665 -86.337  90.486  1.00  0.00    -0.026 N 
HETATM   28  N4  UNL     1      -2.492 -86.437  89.179  1.00  0.00    -0.236 N 
HETATM   29  C3  UNL     1      -1.253 -86.432  88.618  1.00  0.00     0.331 A 
ATOM     30  H4  UNL     1      -3.310 -86.520  88.576  1.00  0.00     0.191 HD
HETATM   31  O1  UNL     1      -1.063 -86.525  87.387  1.00  0.00    -0.260 OA
HETATM   32  C4  UNL     1      -0.149 -86.321  89.435  1.00  0.00     0.345 A 
HETATM   33  O2  UNL     1       1.034 -86.309  88.987  1.00  0.00    -0.259 OA
HETATM   34  N5  UNL     1      -0.325 -86.219  90.764  1.00  0.00    -0.127 N 
HETATM   35  C5  UNL     1      -1.571 -86.228  91.263  1.00  0.00     0.390 A 
HETATM   36  O4  UNL     1      -1.801 -86.135  92.518  1.00  0.00    -0.241 OA
BRANCH  34  37
HETATM   37  O3  UNL     1       0.717 -86.104  91.648  1.00  0.00    -0.276 OA
ATOM     38  H3  UNL     1       0.808 -85.373  92.249  1.00  0.00     0.245 HD
ENDBRANCH  34  37
ENDBRANCH   4  27
BRANCH   1  39
HETATM   39  N1  UNL     1      -6.047 -84.042  92.801  1.00  0.00    -0.383 N 
ATOM     40  H12 UNL     1      -6.207 -83.208  92.236  1.00  0.00     0.157 HD
ATOM     41  H11 UNL     1      -6.245 -83.959  93.798  1.00  0.00     0.157 HD
ENDBRANCH   1  39
TORSDOF 9
ENDMDL
MODEL 2
REMARK VINA RESULT: -8.533706419      0.779      1.199
REMARK  9 active torsions:
REMARK  status: ('A' for Active; 'I' for Inactive)
REMARK    1  A    between atoms: N1_1  and  C1_4 
REMARK    2  A    between atoms: C2_7  and  N3_8 
REMARK    3  A    between atoms: N5_15  and  O3_16 
REMARK    4  A    between atoms: C7_23  and  C8_24 
REMARK    5  A    between atoms: C8_24  and  O5_25 
REMARK    6  A    between atoms: C8_24  and  C9_27 
REMARK    7  A    between atoms: C9_27  and  C10_28 
REMARK    8  A    between atoms: C10_28  and  N7_29 
REMARK    9  A    between atoms: N7_29  and  C11_31 
ROOT
HETATM    1  C1  UNL     1      -5.597 -85.072  92.291  1.00  0.00     0.144 A 
HETATM    2  N2  UNL     1      -4.407 -85.211  91.711  1.00  0.00    -0.173 N 
ATOM      3  H2  UNL     1      -3.764 -84.420  91.749  1.00  0.00     0.186 HD
HETATM    4  C2  UNL     1      -3.999 -86.321  91.082  1.00  0.00     0.710 A 
HETATM    5  N6  UNL     1      -4.804 -87.386  91.004  1.00  0.00    -0.186 N 
ATOM      6  H6  UNL     1      -4.502 -88.235  90.527  1.00  0.00     0.184 HD
HETATM    7  C6  UNL     1      -6.033 -87.309  91.575  1.00  0.00     0.093 A 
HETATM    8  C7  UNL     1      -7.066 -88.276  91.637  1.00  0.00     0.038 A 
HETATM    9  C16 UNL     1      -8.069 -87.645  92.333  1.00  0.00     0.104 A 
HETATM   10  N9  UNL     1      -7.693 -86.377  92.682  1.00  0.00    -0.360 N 
ATOM     11  H9  UNL     1      -8.255 -85.704  93.202  1.00  0.00     0.165 HD
HETATM   12  C17 UNL     1      -6.460 -86.180  92.220  1.00  0.00     0.105 A 
ENDROOT
BRANCH   8  13
HETATM   13  C8  UNL     1      -6.980 -89.608  91.058  1.00  0.00     0.058 C 
BRANCH  13  14
HETATM   14  O5  UNL     1      -6.426 -89.654  89.871  1.00  0.00    -0.364 OA
ATOM     15  H5  UNL     1      -6.579 -90.460  89.393  1.00  0.00     0.217 HD
ENDBRANCH  13  14
BRANCH  13  16
HETATM   16  C9  UNL     1      -7.397 -90.892  91.559  1.00  0.00     0.084 C 
BRANCH  16  17
HETATM   17  C10 UNL     1      -7.685 -91.055  93.003  1.00  0.00     0.126 C 
BRANCH  17  18
HETATM   18  N7  UNL     1      -8.022 -92.430  93.349  1.00  0.00    -0.389 N 
ATOM     19  H7  UNL     1      -8.992 -92.676  93.547  1.00  0.00     0.159 HD
BRANCH  18  20
HETATM   20  C11 UNL     1      -7.024 -93.425  93.414  1.00  0.00     0.030 A 
HETATM   21  C12 UNL     1      -5.818 -93.096  94.026  1.00  0.00     0.046 A 
HETATM   22  C13 UNL     1      -4.790 -93.996  94.151  1.00  0.00     0.089 A 
HETATM   23  N8  UNL     1      -4.973 -95.232  93.661  1.00  0.00    -0.375 N 
HETATM   24  C14 UNL     1      -6.110 -95.613  93.061  1.00  0.00     0.089 A 
ATOM     25  H8  UNL     1      -4.215 -95.910  93.748  1.00  0.00     0.164 HD
HETATM   26  C15 UNL     1      -7.141 -94.705  92.937  1.00  0.00     0.046 A 
ENDBRANCH  18  20
ENDBRANCH  17  18
ENDBRANCH  16  17
ENDBRANCH  13  16
ENDBRANCH   8  13
BRANCH   4  27
HETATM   27  N3  UNL     1      -2.678 -86.327  90.499  1.00  0.00    -0.026 N 
HETATM   28  N4  UNL     1      -2.513 -86.435  89.191  1.00  0.00    -0.236 N 
HETATM   29  C3  UNL     1      -1.278 -86.443  88.623  1.00  0.00     0.331 A 
ATOM     30  H4  UNL     1      -3.335 -86.515  88.593  1.00  0.00     0.191 HD
HETATM   31  O1  UNL     1      -1.095 -86.543  87.391  1.00  0.00    -0.260 OA
HETATM   32  C4  UNL     1      -0.168 -86.337  89.433  1.00  0.00     0.345 A 
HETATM   33  O2  UNL     1       1.012 -86.336  88.978  1.00  0.00    -0.259 OA
HETATM   34  N5  UNL     1      -0.335 -86.227  90.762  1.00  0.00    -0.127 N 
HETATM   35  C5  UNL     1      -1.578 -86.224  91.268  1.00  0.00     0.390 A 
HETATM   36  O4  UNL     1      -1.800 -86.123  92.524  1.00  0.00    -0.241 OA
BRANCH  34  37
HETATM   37  O3  UNL     1       0.713 -86.116  91.640  1.00  0.00    -0.276 OA
ATOM     38  H3  UNL     1       0.599 -86.107  92.583  1.00  0.00     0.245 HD
ENDBRANCH  34  37
ENDBRANCH   4  27
BRANCH   1  39
HETATM   39  N1  UNL     1      -5.997 -84.022  92.893  1.00  0.00    -0.383 N 
ATOM     40  H12 UNL     1      -5.841 -83.115  92.453  1.00  0.00     0.157 HD
ATOM     41  H11 UNL     1      -6.469 -84.013  93.797  1.00  0.00     0.157 HD
ENDBRANCH   1  39
TORSDOF 9
ENDMDL
MODEL 3
REMARK VINA RESULT: -8.440682037      2.450      7.647
REMARK  9 active torsions:
REMARK  status: ('A' for Active; 'I' for Inactive)
REMARK    1  A    between atoms: N1_1  and  C1_4 
REMARK    2  A    between atoms: C2_7  and  N3_8 
REMARK    3  A    between atoms: N5_15  and  O3_16 
REMARK    4  A    between atoms: C7_23  and  C8_24 
REMARK    5  A    between atoms: C8_24  and  O5_25 
REMARK    6  A    between atoms: C8_24  and  C9_27 
REMARK    7  A    between atoms: C9_27  and  C10_28 
REMARK    8  A    between atoms: C10_28  and  N7_29 
REMARK    9  A    between atoms: N7_29  and  C11_31 
ROOT
HETATM    1  C1  UNL     1      -7.626 -86.330  91.916  1.00  0.00     0.144 A 
HETATM    2  N2  UNL     1      -7.638 -87.647  92.107  1.00  0.00    -0.173 N 
ATOM      3  H2  UNL     1      -8.537 -88.126  92.062  1.00  0.00     0.186 HD
HETATM    4  C2  UNL     1      -6.547 -88.383  92.353  1.00  0.00     0.710 A 
HETATM    5  N6  UNL     1      -5.344 -87.804  92.422  1.00  0.00    -0.186 N 
ATOM      6  H6  UNL     1      -4.508 -88.357  92.609  1.00  0.00     0.184 HD
HETATM    7  C6  UNL     1      -5.263 -86.462  92.236  1.00  0.00     0.093 A 
HETATM    8  C7  UNL     1      -4.131 -85.610  92.256  1.00  0.00     0.038 A 
HETATM    9  C16 UNL     1      -4.651 -84.363  92.008  1.00  0.00     0.104 A 
HETATM   10  N9  UNL     1      -6.007 -84.427  91.845  1.00  0.00    -0.360 N 
ATOM     11  H9  UNL     1      -6.628 -83.641  91.651  1.00  0.00     0.165 HD
HETATM   12  C17 UNL     1      -6.371 -85.700  91.984  1.00  0.00     0.105 A 
ENDROOT
BRANCH   8  13
HETATM   13  C8  UNL     1      -2.768 -86.061  92.497  1.00  0.00     0.058 C 
BRANCH  13  14
HETATM   14  O5  UNL     1      -2.666 -87.091  93.301  1.00  0.00    -0.364 OA
ATOM     15  H5  UNL     1      -2.232 -86.909  94.126  1.00  0.00     0.217 HD
ENDBRANCH  13  14
BRANCH  13  16
HETATM   16  C9  UNL     1      -1.505 -85.574  92.005  1.00  0.00     0.084 C 
BRANCH  16  17
HETATM   17  C10 UNL     1      -0.397 -86.528  91.766  1.00  0.00     0.126 C 
BRANCH  17  18
HETATM   18  N7  UNL     1       0.326 -86.240  90.534  1.00  0.00    -0.389 N 
ATOM     19  H7  UNL     1       1.096 -85.571  90.548  1.00  0.00     0.159 HD
BRANCH  18  20
HETATM   20  C11 UNL     1      -0.024 -86.874  89.324  1.00  0.00     0.030 A 
HETATM   21  C12 UNL     1       0.780 -87.922  88.885  1.00  0.00     0.046 A 
HETATM   22  C13 UNL     1       0.518 -88.612  87.728  1.00  0.00     0.089 A 
HETATM   23  N8  UNL     1      -0.557 -88.250  87.010  1.00  0.00    -0.375 N 
HETATM   24  C14 UNL     1      -1.372 -87.251  87.378  1.00  0.00     0.089 A 
ATOM     25  H8  UNL     1      -0.762 -88.756  86.148  1.00  0.00     0.164 HD
HETATM   26  C15 UNL     1      -1.104 -86.560  88.541  1.00  0.00     0.046 A 
ENDBRANCH  18  20
ENDBRANCH  17  18
ENDBRANCH  16  17
ENDBRANCH  13  16
ENDBRANCH   8  13
BRANCH   4  27
HETATM   27  N3  UNL     1      -6.713 -89.806  92.540  1.00  0.00    -0.026 N 
HETATM   28  N4  UNL     1      -6.563 -90.646  91.529  1.00  0.00    -0.236 N 
HETATM   29  C3  UNL     1      -6.715 -91.988  91.684  1.00  0.00     0.331 A 
ATOM     30  H4  UNL     1      -6.328 -90.276  90.608  1.00  0.00     0.191 HD
HETATM   31  O1  UNL     1      -6.579 -92.802  90.747  1.00  0.00    -0.260 OA
HETATM   32  C4  UNL     1      -7.035 -92.486  92.929  1.00  0.00     0.345 A 
HETATM   33  O2  UNL     1      -7.192 -93.721  93.151  1.00  0.00    -0.259 OA
HETATM   34  N5  UNL     1      -7.186 -91.633  93.957  1.00  0.00    -0.127 N 
HETATM   35  C5  UNL     1      -7.024 -90.317  93.746  1.00  0.00     0.390 A 
HETATM   36  O4  UNL     1      -7.155 -89.457  94.683  1.00  0.00    -0.241 OA
BRANCH  34  37
HETATM   37  O3  UNL     1      -7.503 -92.042  95.227  1.00  0.00    -0.276 OA
ATOM     38  H3  UNL     1      -8.319 -91.814  95.656  1.00  0.00     0.245 HD
ENDBRANCH  34  37
ENDBRANCH   4  27
BRANCH   1  39
HETATM   39  N1  UNL     1      -8.657 -85.618  91.680  1.00  0.00    -0.383 N 
ATOM     40  H12 UNL     1      -9.320 -85.935  90.973  1.00  0.00     0.157 HD
ATOM     41  H11 UNL     1      -8.878 -84.740  92.149  1.00  0.00     0.157 HD
ENDBRANCH   1  39
TORSDOF 9
ENDMDL
MODEL 4
REMARK VINA RESULT: -8.404539749      2.606      7.799
REMARK  9 active torsions:
REMARK  status: ('A' for Active; 'I' for Inactive)
REMARK    1  A    between atoms: N1_1  and  C1_4 
REMARK    2  A    between atoms: C2_7  and  N3_8 
REMARK    3  A    between atoms: N5_15  and  O3_16 
REMARK    4  A    between atoms: C7_23  and  C8_24 
REMARK    5  A    between atoms: C8_24  and  O5_25 
REMARK    6  A    between atoms: C8_24  and  C9_27 
REMARK    7  A    between atoms: C9_27  and  C10_28 
REMARK    8  A    between atoms: C10_28  and  N7_29 
REMARK    9  A    between atoms: N7_29  and  C11_31 
ROOT
HETATM    1  C1  UNL     1      -8.783 -86.560  92.257  1.00  0.00     0.144 A 
HETATM    2  N2  UNL     1      -8.697 -87.859  92.535  1.00  0.00    -0.173 N 
ATOM      3  H2  UNL     1      -9.559 -88.356  92.758  1.00  0.00     0.186 HD
HETATM    4  C2  UNL     1      -7.552 -88.555  92.540  1.00  0.00     0.710 A 
HETATM    5  N6  UNL     1      -6.395 -87.950  92.255  1.00  0.00    -0.186 N 
ATOM      6  H6  UNL     1      -5.518 -88.473  92.257  1.00  0.00     0.184 HD
HETATM    7  C6  UNL     1      -6.414 -86.625  91.963  1.00  0.00     0.093 A 
HETATM    8  C7  UNL     1      -5.347 -85.754  91.630  1.00  0.00     0.038 A 
HETATM    9  C16 UNL     1      -5.959 -84.539  91.440  1.00  0.00     0.104 A 
HETATM   10  N9  UNL     1      -7.309 -84.639  91.638  1.00  0.00    -0.360 N 
ATOM     11  H9  UNL     1      -7.987 -83.882  91.558  1.00  0.00     0.165 HD
HETATM   12  C17 UNL     1      -7.577 -85.904  91.954  1.00  0.00     0.105 A 
ENDROOT
BRANCH   8  13
HETATM   13  C8  UNL     1      -3.953 -86.161  91.540  1.00  0.00     0.058 C 
BRANCH  13  14
HETATM   14  O5  UNL     1      -3.714 -87.106  90.665  1.00  0.00    -0.364 OA
ATOM     15  H5  UNL     1      -4.393 -87.223  90.011  1.00  0.00     0.217 HD
ENDBRANCH  13  14
BRANCH  13  16
HETATM   16  C9  UNL     1      -2.782 -85.706  92.245  1.00  0.00     0.084 C 
BRANCH  16  17
HETATM   17  C10 UNL     1      -1.498 -86.424  92.070  1.00  0.00     0.126 C 
BRANCH  17  18
HETATM   18  N7  UNL     1      -0.681 -85.848  91.010  1.00  0.00    -0.389 N 
ATOM     19  H7  UNL     1      -0.176 -84.979  91.181  1.00  0.00     0.159 HD
BRANCH  18  20
HETATM   20  C11 UNL     1      -0.578 -86.477  89.752  1.00  0.00     0.030 A 
HETATM   21  C12 UNL     1       0.284 -87.565  89.639  1.00  0.00     0.046 A 
HETATM   22  C13 UNL     1       0.445 -88.253  88.463  1.00  0.00     0.089 A 
HETATM   23  N8  UNL     1      -0.263 -87.850  87.396  1.00  0.00    -0.375 N 
HETATM   24  C14 UNL     1      -1.110 -86.812  87.438  1.00  0.00     0.089 A 
ATOM     25  H8  UNL     1      -0.151 -88.354  86.516  1.00  0.00     0.164 HD
HETATM   26  C15 UNL     1      -1.269 -86.123  88.623  1.00  0.00     0.046 A 
ENDBRANCH  18  20
ENDBRANCH  17  18
ENDBRANCH  16  17
ENDBRANCH  13  16
ENDBRANCH   8  13
BRANCH   4  27
HETATM   27  N3  UNL     1      -7.612 -89.962  92.861  1.00  0.00    -0.026 N 
HETATM   28  N4  UNL     1      -8.023 -90.845  91.967  1.00  0.00    -0.236 N 
HETATM   29  C3  UNL     1      -8.086 -92.174  92.250  1.00  0.00     0.331 A 
ATOM     30  H4  UNL     1      -8.300 -90.521  91.041  1.00  0.00     0.191 HD
HETATM   31  O1  UNL     1      -8.470 -93.029  91.424  1.00  0.00    -0.260 OA
HETATM   32  C4  UNL     1      -7.712 -92.610  93.503  1.00  0.00     0.345 A 
HETATM   33  O2  UNL     1      -7.744 -93.830  93.839  1.00  0.00    -0.259 OA
HETATM   34  N5  UNL     1      -7.295 -91.712  94.411  1.00  0.00    -0.127 N 
HETATM   35  C5  UNL     1      -7.252 -90.413  94.077  1.00  0.00     0.390 A 
HETATM   36  O4  UNL     1      -6.864 -89.513  94.898  1.00  0.00    -0.241 OA
BRANCH  34  37
HETATM   37  O3  UNL     1      -6.904 -92.060  95.679  1.00  0.00    -0.276 OA
ATOM     38  H3  UNL     1      -6.064 -91.812  96.048  1.00  0.00     0.245 HD
ENDBRANCH  34  37
ENDBRANCH   4  27
BRANCH   1  39
HETATM   39  N1  UNL     1      -9.866 -85.887  92.248  1.00  0.00    -0.383 N 
ATOM     40  H12 UNL     1     -10.491 -85.976  91.447  1.00  0.00     0.157 HD
ATOM     41  H11 UNL     1     -10.165 -85.255  92.990  1.00  0.00     0.157 HD
ENDBRANCH   1  39
TORSDOF 9
ENDMDL
MODEL 5
REMARK VINA RESULT: -8.274603832      1.178      1.660
REMARK  9 active torsions:
REMARK  status: ('A' for Active; 'I' for Inactive)
REMARK    1  A    between atoms: N1_1  and  C1_4 
REMARK    2  A    between atoms: C2_7  and  N3_8 
REMARK    3  A    between atoms: N5_15  and  O3_16 
REMARK    4  A    between atoms: C7_23  and  C8_24 
REMARK    5  A    between atoms: C8_24  and  O5_25 
REMARK    6  A    between atoms: C8_24  and  C9_27 
REMARK    7  A    between atoms: C9_27  and  C10_28 
REMARK    8  A    between atoms: C10_28  and  N7_29 
REMARK    9  A    between atoms: N7_29  and  C11_31 
ROOT
HETATM    1  C1  UNL     1      -5.592 -85.023  92.333  1.00  0.00     0.144 A 
HETATM    2  N2  UNL     1      -4.402 -85.171  91.754  1.00  0.00    -0.173 N 
ATOM      3  H2  UNL     1      -3.748 -84.391  91.804  1.00  0.00     0.186 HD
HETATM    4  C2  UNL     1      -4.010 -86.279  91.110  1.00  0.00     0.710 A 
HETATM    5  N6  UNL     1      -4.830 -87.330  91.016  1.00  0.00    -0.186 N 
ATOM      6  H6  UNL     1      -4.539 -88.177  90.527  1.00  0.00     0.184 HD
HETATM    7  C6  UNL     1      -6.059 -87.243  91.585  1.00  0.00     0.093 A 
HETATM    8  C7  UNL     1      -7.106 -88.195  91.632  1.00  0.00     0.038 A 
HETATM    9  C16 UNL     1      -8.101 -87.559  92.335  1.00  0.00     0.104 A 
HETATM   10  N9  UNL     1      -7.707 -86.302  92.702  1.00  0.00    -0.360 N 
ATOM     11  H9  UNL     1      -8.260 -85.628  93.231  1.00  0.00     0.165 HD
HETATM   12  C17 UNL     1      -6.470 -86.117  92.245  1.00  0.00     0.105 A 
ENDROOT
BRANCH   8  13
HETATM   13  C8  UNL     1      -7.039 -89.520  91.035  1.00  0.00     0.058 C 
BRANCH  13  14
HETATM   14  O5  UNL     1      -6.184 -89.633  90.048  1.00  0.00    -0.364 OA
ATOM     15  H5  UNL     1      -5.811 -90.500  89.943  1.00  0.00     0.217 HD
ENDBRANCH  13  14
BRANCH  13  16
HETATM   16  C9  UNL     1      -7.748 -90.737  91.336  1.00  0.00     0.084 C 
BRANCH  16  17
HETATM   17  C10 UNL     1      -7.282 -91.599  92.447  1.00  0.00     0.126 C 
BRANCH  17  18
HETATM   18  N7  UNL     1      -5.905 -92.040  92.267  1.00  0.00    -0.389 N 
ATOM     19  H7  UNL     1      -5.158 -91.585  92.793  1.00  0.00     0.159 HD
BRANCH  18  20
HETATM   20  C11 UNL     1      -5.591 -93.087  91.376  1.00  0.00     0.030 A 
HETATM   21  C12 UNL     1      -5.967 -94.379  91.735  1.00  0.00     0.046 A 
HETATM   22  C13 UNL     1      -5.720 -95.464  90.932  1.00  0.00     0.089 A 
HETATM   23  N8  UNL     1      -5.094 -95.252  89.763  1.00  0.00    -0.375 N 
HETATM   24  C14 UNL     1      -4.707 -94.034  89.358  1.00  0.00     0.089 A 
ATOM     25  H8  UNL     1      -4.905 -96.052  89.158  1.00  0.00     0.164 HD
HETATM   26  C15 UNL     1      -4.958 -92.946  90.169  1.00  0.00     0.046 A 
ENDBRANCH  18  20
ENDBRANCH  17  18
ENDBRANCH  16  17
ENDBRANCH  13  16
ENDBRANCH   8  13
BRANCH   4  27
HETATM   27  N3  UNL     1      -2.687 -86.296  90.529  1.00  0.00    -0.026 N 
HETATM   28  N4  UNL     1      -2.522 -86.375  89.220  1.00  0.00    -0.236 N 
HETATM   29  C3  UNL     1      -1.285 -86.393  88.654  1.00  0.00     0.331 A 
ATOM     30  H4  UNL     1      -3.344 -86.423  88.618  1.00  0.00     0.191 HD
HETATM   31  O1  UNL     1      -1.102 -86.466  87.420  1.00  0.00    -0.260 OA
HETATM   32  C4  UNL     1      -0.176 -86.329  89.468  1.00  0.00     0.345 A 
HETATM   33  O2  UNL     1       1.006 -86.340  89.015  1.00  0.00    -0.259 OA
HETATM   34  N5  UNL     1      -0.343 -86.249  90.800  1.00  0.00    -0.127 N 
HETATM   35  C5  UNL     1      -1.588 -86.234  91.303  1.00  0.00     0.390 A 
HETATM   36  O4  UNL     1      -1.811 -86.160  92.561  1.00  0.00    -0.241 OA
BRANCH  34  37
HETATM   37  O3  UNL     1       0.704 -86.181  91.682  1.00  0.00    -0.276 OA
ATOM     38  H3  UNL     1       1.026 -86.934  92.162  1.00  0.00     0.245 HD
ENDBRANCH  34  37
ENDBRANCH   4  27
BRANCH   1  39
HETATM   39  N1  UNL     1      -5.977 -83.975  92.948  1.00  0.00    -0.383 N 
ATOM     40  H12 UNL     1      -5.461 -83.675  93.776  1.00  0.00     0.157 HD
ATOM     41  H11 UNL     1      -6.774 -83.400  92.677  1.00  0.00     0.157 HD
ENDBRANCH   1  39
TORSDOF 9
ENDMDL
