MODEL 1
REMARK VINA RESULT: -9.807864566      0.000      0.000
REMARK  7 active torsions:
REMARK  status: ('A' for Active; 'I' for Inactive)
REMARK    1  A    between atoms: N1_3  and  C3_5 
REMARK    2  A    between atoms: N3_9  and  N4_11 
REMARK       I    between atoms: N4_11  and  C5_13 
REMARK    3  A    between atoms: C5_13  and  C6_15 
REMARK    4  A    between atoms: C7_24  and  N10_25 
REMARK    5  A    between atoms: N10_25  and  C8_27 
REMARK    6  A    between atoms: C9_30  and  N12_31 
REMARK    7  A    between atoms: N12_31  and  C10_33 
ROOT
HETATM    1  C3  UNL     1      -6.744 -88.242  91.895  1.00  0.00     0.711 A 
HETATM    2  N2  UNL     1      -7.982 -87.746  91.977  1.00  0.00    -0.020 N 
ATOM      3  H2  UNL     1      -8.755 -88.409  92.047  1.00  0.00     0.203 HD
HETATM    4  C4  UNL     1      -8.278 -86.440  91.973  1.00  0.00     0.726 A 
HETATM    5  N3  UNL     1      -9.421 -85.954  92.049  1.00  0.00    -0.128 N 
ATOM      6  H3  UNL     1      -9.373 -84.935  92.026  1.00  0.00     0.205 HD
HETATM    7  N9  UNL     1      -7.171 -85.613  91.877  1.00  0.00    -0.019 N 
ATOM      8  H9  UNL     1      -7.314 -84.603  91.868  1.00  0.00     0.203 HD
HETATM    9  C7  UNL     1      -5.925 -86.083  91.794  1.00  0.00     0.726 A 
HETATM   10  N15 UNL     1      -5.690 -87.411  91.802  1.00  0.00    -0.021 N 
ATOM     11  H15 UNL     1      -4.739 -87.776  91.739  1.00  0.00     0.203 HD
ENDROOT
BRANCH   9  12
HETATM   12  N10 UNL     1      -4.790 -85.204  91.695  1.00  0.00    -0.021 N 
ATOM     13  H10 UNL     1      -4.912 -84.206  91.865  1.00  0.00     0.203 HD
BRANCH  12  14
HETATM   14  C8  UNL     1      -3.604 -85.667  91.391  1.00  0.00     0.698 A 
HETATM   15  N11 UNL     1      -3.153 -85.665  90.143  1.00  0.00    -0.176 N 
HETATM   16  C9  UNL     1      -1.918 -86.143  89.788  1.00  0.00     0.119 A 
ATOM     17  H11 UNL     1      -3.755 -85.289  89.412  1.00  0.00     0.186 HD
HETATM   18  C14 UNL     1      -1.166 -86.631  90.827  1.00  0.00     0.073 A 
HETATM   19  C15 UNL     1      -1.638 -86.631  92.121  1.00  0.00     0.026 A 
HETATM   20  C16 UNL     1      -0.812 -87.166  93.253  1.00  0.00     0.069 C 
HETATM   21  N14 UNL     1      -2.858 -86.149  92.396  1.00  0.00    -0.195 N 
ATOM     22  H14 UNL     1      -3.212 -86.147  93.353  1.00  0.00     0.184 HD
BRANCH  16  23
HETATM   23  N12 UNL     1      -1.522 -86.103  88.431  1.00  0.00    -0.369 N 
ATOM     24  H12 UNL     1      -1.855 -85.286  87.920  1.00  0.00     0.161 HD
BRANCH  23  25
HETATM   25  C10 UNL     1      -0.752 -86.989  87.663  1.00  0.00     0.110 C 
HETATM   26  C11 UNL     1       0.545 -87.467  88.236  1.00  0.00     0.054 C 
HETATM   27  C12 UNL     1       0.777 -88.776  87.514  1.00  0.00     0.234 C 
HETATM   28  N13 UNL     1      -0.273 -88.878  86.496  1.00  0.00    -0.073 N 
HETATM   29  C13 UNL     1      -1.413 -88.268  87.214  1.00  0.00     0.257 C 
ATOM     30 2H13 UNL     1      -0.050 -88.464  85.591  1.00  0.00     0.277 HD
ATOM     31 1H13 UNL     1      -0.436 -89.814  86.125  1.00  0.00     0.277 HD
ENDBRANCH  23  25
ENDBRANCH  16  23
ENDBRANCH  12  14
ENDBRANCH   9  12
BRANCH   1  32
HETATM   32  N1  UNL     1      -6.460 -89.634  91.902  1.00  0.00    -0.205 N 
HETATM   33  C2  UNL     1      -6.477 -90.340  92.972  1.00  0.00     0.074 C 
HETATM   34  C1  UNL     1      -6.168 -91.793  92.888  1.00  0.00     0.055 C 
ATOM     35  H1  UNL     1      -6.235 -90.092  91.018  1.00  0.00     0.183 HD
ENDBRANCH   1  32
BRANCH   5  36
HETATM   36  N4  UNL     1     -10.679 -86.353  92.151  1.00  0.00    -0.249 N 
HETATM   37  C5  UNL     1     -11.571 -86.339  93.236  1.00  0.00     0.306 C 
HETATM   38  O1  UNL     1     -11.342 -85.919  94.394  1.00  0.00    -0.262 OA
ATOM     39  H4  UNL     1     -11.068 -86.738  91.292  1.00  0.00     0.191 HD
BRANCH  37  40
HETATM   40  C6  UNL     1     -12.930 -86.869  93.027  1.00  0.00     0.202 A 
HETATM   41  N5  UNL     1     -14.064 -86.180  92.802  1.00  0.00    -0.266 N 
HETATM   42  N6  UNL     1     -15.037 -87.069  92.677  1.00  0.00    -0.007 NA
ATOM     43  H5  UNL     1     -14.156 -85.166  92.739  1.00  0.00     0.185 HD
HETATM   44  N7  UNL     1     -14.567 -88.297  92.814  1.00  0.00    -0.007 NA
HETATM   45  N8  UNL     1     -13.253 -88.160  93.031  1.00  0.00    -0.266 N 
ATOM     46  H8  UNL     1     -12.600 -88.928  93.178  1.00  0.00     0.185 HD
ENDBRANCH  37  40
ENDBRANCH   5  36
TORSDOF 7
ENDMDL
MODEL 2
REMARK VINA RESULT: -9.727592785      1.037      1.296
REMARK  7 active torsions:
REMARK  status: ('A' for Active; 'I' for Inactive)
REMARK    1  A    between atoms: N1_3  and  C3_5 
REMARK    2  A    between atoms: N3_9  and  N4_11 
REMARK       I    between atoms: N4_11  and  C5_13 
REMARK    3  A    between atoms: C5_13  and  C6_15 
REMARK    4  A    between atoms: C7_24  and  N10_25 
REMARK    5  A    between atoms: N10_25  and  C8_27 
REMARK    6  A    between atoms: C9_30  and  N12_31 
REMARK    7  A    between atoms: N12_31  and  C10_33 
ROOT
HETATM    1  C3  UNL     1      -6.406 -88.232  92.502  1.00  0.00     0.711 A 
HETATM    2  N2  UNL     1      -7.647 -87.752  92.380  1.00  0.00    -0.020 N 
ATOM      3  H2  UNL     1      -8.418 -88.350  92.675  1.00  0.00     0.203 HD
HETATM    4  C4  UNL     1      -7.947 -86.540  91.896  1.00  0.00     0.726 A 
HETATM    5  N3  UNL     1      -9.092 -86.069  91.774  1.00  0.00    -0.128 N 
ATOM      6  H3  UNL     1      -9.048 -85.128  91.382  1.00  0.00     0.205 HD
HETATM    7  N9  UNL     1      -6.841 -85.794  91.521  1.00  0.00    -0.019 N 
ATOM      8  H9  UNL     1      -6.987 -84.858  91.144  1.00  0.00     0.203 HD
HETATM    9  C7  UNL     1      -5.593 -86.251  91.634  1.00  0.00     0.726 A 
HETATM   10  N15 UNL     1      -5.353 -87.483  92.128  1.00  0.00    -0.021 N 
ATOM     11  H15 UNL     1      -4.400 -87.837  92.215  1.00  0.00     0.203 HD
ENDROOT
BRANCH   9  12
HETATM   12  N10 UNL     1      -4.459 -85.458  91.238  1.00  0.00    -0.021 N 
ATOM     13  H10 UNL     1      -4.539 -84.441  91.218  1.00  0.00     0.203 HD
BRANCH  12  14
HETATM   14  C8  UNL     1      -3.326 -86.022  90.902  1.00  0.00     0.698 A 
HETATM   15  N11 UNL     1      -3.258 -86.935  89.943  1.00  0.00    -0.176 N 
HETATM   16  C9  UNL     1      -2.091 -87.548  89.567  1.00  0.00     0.119 A 
ATOM     17  H11 UNL     1      -4.119 -87.195  89.460  1.00  0.00     0.186 HD
HETATM   18  C14 UNL     1      -0.977 -87.146  90.260  1.00  0.00     0.073 A 
HETATM   19  C15 UNL     1      -1.052 -86.197  91.256  1.00  0.00     0.026 A 
HETATM   20  C16 UNL     1       0.169 -85.761  92.011  1.00  0.00     0.069 C 
HETATM   21  N14 UNL     1      -2.229 -85.640  91.573  1.00  0.00    -0.195 N 
ATOM     22  H14 UNL     1      -2.290 -84.937  92.310  1.00  0.00     0.184 HD
BRANCH  16  23
HETATM   23  N12 UNL     1      -2.115 -88.513  88.534  1.00  0.00    -0.369 N 
ATOM     24  H12 UNL     1      -2.622 -89.367  88.768  1.00  0.00     0.161 HD
BRANCH  23  25
HETATM   25  C10 UNL     1      -1.564 -88.505  87.243  1.00  0.00     0.110 C 
HETATM   26  C11 UNL     1      -0.126 -88.889  87.093  1.00  0.00     0.054 C 
HETATM   27  C12 UNL     1      -0.044 -89.359  85.658  1.00  0.00     0.234 C 
HETATM   28  N13 UNL     1      -1.348 -89.069  85.054  1.00  0.00    -0.073 N 
HETATM   29  C13 UNL     1      -2.248 -89.345  86.195  1.00  0.00     0.257 C 
ATOM     30 2H13 UNL     1      -1.442 -88.145  84.632  1.00  0.00     0.277 HD
ATOM     31 1H13 UNL     1      -1.557 -89.578  84.195  1.00  0.00     0.277 HD
ENDBRANCH  23  25
ENDBRANCH  16  23
ENDBRANCH  12  14
ENDBRANCH   9  12
BRANCH   1  32
HETATM   32  N1  UNL     1      -6.118 -89.524  93.019  1.00  0.00    -0.205 N 
HETATM   33  C2  UNL     1      -6.470 -90.603  92.422  1.00  0.00     0.074 C 
HETATM   34  C1  UNL     1      -6.128 -91.915  93.034  1.00  0.00     0.055 C 
ATOM     35  H1  UNL     1      -5.610 -89.597  93.900  1.00  0.00     0.183 HD
ENDBRANCH   1  32
BRANCH   5  36
HETATM   36  N4  UNL     1     -10.350 -86.415  91.996  1.00  0.00    -0.249 N 
HETATM   37  C5  UNL     1     -11.187 -86.207  93.105  1.00  0.00     0.306 C 
HETATM   38  O1  UNL     1     -10.895 -85.614  94.169  1.00  0.00    -0.262 OA
ATOM     39  H4  UNL     1     -10.789 -86.922  91.228  1.00  0.00     0.191 HD
BRANCH  37  40
HETATM   40  C6  UNL     1     -12.565 -86.729  93.046  1.00  0.00     0.202 A 
HETATM   41  N5  UNL     1     -12.966 -88.014  93.062  1.00  0.00    -0.266 N 
HETATM   42  N6  UNL     1     -14.287 -88.005  92.988  1.00  0.00    -0.007 NA
ATOM     43  H5  UNL     1     -12.367 -88.837  93.121  1.00  0.00     0.185 HD
HETATM   44  N7  UNL     1     -14.744 -86.765  92.925  1.00  0.00    -0.007 NA
HETATM   45  N8  UNL     1     -13.660 -85.979  92.962  1.00  0.00    -0.266 N 
ATOM     46  H8  UNL     1     -13.674 -84.960  92.930  1.00  0.00     0.185 HD
ENDBRANCH  37  40
ENDBRANCH   5  36
TORSDOF 7
ENDMDL
MODEL 3
REMARK VINA RESULT: -9.520642524      1.172      1.544
REMARK  7 active torsions:
REMARK  status: ('A' for Active; 'I' for Inactive)
REMARK    1  A    between atoms: N1_3  and  C3_5 
REMARK    2  A    between atoms: N3_9  and  N4_11 
REMARK       I    between atoms: N4_11  and  C5_13 
REMARK    3  A    between atoms: C5_13  and  C6_15 
REMARK    4  A    between atoms: C7_24  and  N10_25 
REMARK    5  A    between atoms: N10_25  and  C8_27 
REMARK    6  A    between atoms: C9_30  and  N12_31 
REMARK    7  A    between atoms: N12_31  and  C10_33 
ROOT
HETATM    1  C3  UNL     1      -6.410 -88.249  92.461  1.00  0.00     0.711 A 
HETATM    2  N2  UNL     1      -7.642 -87.746  92.343  1.00  0.00    -0.020 N 
ATOM      3  H2  UNL     1      -8.424 -88.332  92.635  1.00  0.00     0.203 HD
HETATM    4  C4  UNL     1      -7.921 -86.526  91.866  1.00  0.00     0.726 A 
HETATM    5  N3  UNL     1      -9.057 -86.033  91.748  1.00  0.00    -0.128 N 
ATOM      6  H3  UNL     1      -8.995 -85.092  91.362  1.00  0.00     0.205 HD
HETATM    7  N9  UNL     1      -6.801 -85.798  91.495  1.00  0.00    -0.019 N 
ATOM      8  H9  UNL     1      -6.930 -84.857  91.123  1.00  0.00     0.203 HD
HETATM    9  C7  UNL     1      -5.561 -86.278  91.604  1.00  0.00     0.726 A 
HETATM   10  N15 UNL     1      -5.344 -87.517  92.090  1.00  0.00    -0.021 N 
ATOM     11  H15 UNL     1      -4.398 -87.889  92.174  1.00  0.00     0.203 HD
ENDROOT
BRANCH   9  12
HETATM   12  N10 UNL     1      -4.414 -85.504  91.212  1.00  0.00    -0.021 N 
ATOM     13  H10 UNL     1      -4.489 -84.489  91.152  1.00  0.00     0.203 HD
BRANCH  12  14
HETATM   14  C8  UNL     1      -3.273 -86.084  90.930  1.00  0.00     0.698 A 
HETATM   15  N11 UNL     1      -3.029 -86.600  89.733  1.00  0.00    -0.176 N 
HETATM   16  C9  UNL     1      -1.850 -87.215  89.405  1.00  0.00     0.119 A 
ATOM     17  H11 UNL     1      -3.757 -86.536  89.021  1.00  0.00     0.186 HD
HETATM   18  C14 UNL     1      -0.921 -87.261  90.413  1.00  0.00     0.073 A 
HETATM   19  C15 UNL     1      -1.178 -86.724  91.656  1.00  0.00     0.026 A 
HETATM   20  C16 UNL     1      -0.159 -86.777  92.755  1.00  0.00     0.069 C 
HETATM   21  N14 UNL     1      -2.356 -86.137  91.908  1.00  0.00    -0.195 N 
ATOM     22  H14 UNL     1      -2.552 -85.738  92.826  1.00  0.00     0.184 HD
BRANCH  16  23
HETATM   23  N12 UNL     1      -1.679 -87.739  88.102  1.00  0.00    -0.369 N 
ATOM     24  H12 UNL     1      -1.122 -87.151  87.482  1.00  0.00     0.161 HD
BRANCH  23  25
HETATM   25  C10 UNL     1      -2.140 -88.926  87.512  1.00  0.00     0.110 C 
HETATM   26  C11 UNL     1      -3.381 -89.549  88.070  1.00  0.00     0.054 C 
HETATM   27  C12 UNL     1      -3.908 -90.362  86.909  1.00  0.00     0.234 C 
HETATM   28  N13 UNL     1      -2.890 -90.289  85.857  1.00  0.00    -0.073 N 
HETATM   29  C13 UNL     1      -2.415 -88.899  86.030  1.00  0.00     0.257 C 
ATOM     30 2H13 UNL     1      -2.168 -91.009  85.893  1.00  0.00     0.277 HD
ATOM     31 1H13 UNL     1      -3.208 -90.532  84.919  1.00  0.00     0.277 HD
ENDBRANCH  23  25
ENDBRANCH  16  23
ENDBRANCH  12  14
ENDBRANCH   9  12
BRANCH   1  32
HETATM   32  N1  UNL     1      -6.146 -89.550  92.969  1.00  0.00    -0.205 N 
HETATM   33  C2  UNL     1      -6.567 -90.616  92.396  1.00  0.00     0.074 C 
HETATM   34  C1  UNL     1      -6.243 -91.939  92.997  1.00  0.00     0.055 C 
ATOM     35  H1  UNL     1      -5.598 -89.639  93.825  1.00  0.00     0.183 HD
ENDBRANCH   1  32
BRANCH   5  36
HETATM   36  N4  UNL     1     -10.321 -86.357  91.969  1.00  0.00    -0.249 N 
HETATM   37  C5  UNL     1     -11.143 -86.171  93.093  1.00  0.00     0.306 C 
HETATM   38  O1  UNL     1     -10.827 -85.625  94.175  1.00  0.00    -0.262 OA
ATOM     39  H4  UNL     1     -10.778 -86.825  91.187  1.00  0.00     0.191 HD
BRANCH  37  40
HETATM   40  C6  UNL     1     -12.533 -86.658  93.027  1.00  0.00     0.202 A 
HETATM   41  N5  UNL     1     -13.663 -85.932  92.930  1.00  0.00    -0.266 N 
HETATM   42  N6  UNL     1     -14.670 -86.790  92.905  1.00  0.00    -0.007 NA
ATOM     43  H5  UNL     1     -13.730 -84.916  92.884  1.00  0.00     0.185 HD
HETATM   44  N7  UNL     1     -14.227 -88.034  92.982  1.00  0.00    -0.007 NA
HETATM   45  N8  UNL     1     -12.894 -87.938  93.058  1.00  0.00    -0.266 N 
ATOM     46  H8  UNL     1     -12.252 -88.727  93.129  1.00  0.00     0.185 HD
ENDBRANCH  37  40
ENDBRANCH   5  36
TORSDOF 7
ENDMDL
MODEL 4
REMARK VINA RESULT: -9.262935848      2.536      4.796
REMARK  7 active torsions:
REMARK  status: ('A' for Active; 'I' for Inactive)
REMARK    1  A    between atoms: N1_3  and  C3_5 
REMARK    2  A    between atoms: N3_9  and  N4_11 
REMARK       I    between atoms: N4_11  and  C5_13 
REMARK    3  A    between atoms: C5_13  and  C6_15 
REMARK    4  A    between atoms: C7_24  and  N10_25 
REMARK    5  A    between atoms: N10_25  and  C8_27 
REMARK    6  A    between atoms: C9_30  and  N12_31 
REMARK    7  A    between atoms: N12_31  and  C10_33 
ROOT
HETATM    1  C3  UNL     1      -6.038 -91.769  91.147  1.00  0.00     0.711 A 
HETATM    2  N2  UNL     1      -6.743 -90.671  91.433  1.00  0.00    -0.020 N 
ATOM      3  H2  UNL     1      -7.159 -90.601  92.361  1.00  0.00     0.203 HD
HETATM    4  C4  UNL     1      -6.940 -89.654  90.583  1.00  0.00     0.726 A 
HETATM    5  N3  UNL     1      -7.589 -88.620  90.824  1.00  0.00    -0.128 N 
ATOM      6  H3  UNL     1      -7.586 -88.004  90.012  1.00  0.00     0.205 HD
HETATM    7  N9  UNL     1      -6.338 -89.830  89.347  1.00  0.00    -0.019 N 
ATOM      8  H9  UNL     1      -6.441 -89.098  88.644  1.00  0.00     0.203 HD
HETATM    9  C7  UNL     1      -5.630 -90.917  89.039  1.00  0.00     0.726 A 
HETATM   10  N15 UNL     1      -5.468 -91.910  89.937  1.00  0.00    -0.021 N 
ATOM     11  H15 UNL     1      -4.927 -92.744  89.706  1.00  0.00     0.203 HD
ENDROOT
BRANCH   9  12
HETATM   12  N10 UNL     1      -5.014 -91.077  87.748  1.00  0.00    -0.021 N 
ATOM     13  H10 UNL     1      -5.372 -91.783  87.105  1.00  0.00     0.203 HD
BRANCH  12  14
HETATM   14  C8  UNL     1      -4.000 -90.331  87.387  1.00  0.00     0.698 A 
HETATM   15  N11 UNL     1      -3.243 -89.705  88.278  1.00  0.00    -0.176 N 
HETATM   16  C9  UNL     1      -2.176 -88.914  87.937  1.00  0.00     0.119 A 
ATOM     17  H11 UNL     1      -3.465 -89.817  89.267  1.00  0.00     0.186 HD
HETATM   18  C14 UNL     1      -1.939 -88.812  86.589  1.00  0.00     0.073 A 
HETATM   19  C15 UNL     1      -2.729 -89.465  85.667  1.00  0.00     0.026 A 
HETATM   20  C16 UNL     1      -2.465 -89.350  84.195  1.00  0.00     0.069 C 
HETATM   21  N14 UNL     1      -3.758 -90.221  86.072  1.00  0.00    -0.195 N 
ATOM     22  H14 UNL     1      -4.346 -90.706  85.394  1.00  0.00     0.184 HD
BRANCH  16  23
HETATM   23  N12 UNL     1      -1.426 -88.283  88.955  1.00  0.00    -0.369 N 
ATOM     24  H12 UNL     1      -0.539 -88.740  89.169  1.00  0.00     0.161 HD
BRANCH  23  25
HETATM   25  C10 UNL     1      -1.685 -87.139  89.725  1.00  0.00     0.110 C 
HETATM   26  C11 UNL     1      -3.114 -86.792  90.005  1.00  0.00     0.054 C 
HETATM   27  C12 UNL     1      -3.024 -85.968  91.271  1.00  0.00     0.234 C 
HETATM   28  N13 UNL     1      -1.597 -85.763  91.531  1.00  0.00    -0.073 N 
HETATM   29  C13 UNL     1      -1.047 -87.064  91.089  1.00  0.00     0.257 C 
ATOM     30 2H13 UNL     1      -1.183 -84.939  91.093  1.00  0.00     0.277 HD
ATOM     31 1H13 UNL     1      -1.358 -85.486  92.483  1.00  0.00     0.277 HD
ENDBRANCH  23  25
ENDBRANCH  16  23
ENDBRANCH  12  14
ENDBRANCH   9  12
BRANCH   1  32
HETATM   32  N1  UNL     1      -5.847 -92.833  92.070  1.00  0.00    -0.205 N 
HETATM   33  C2  UNL     1      -5.163 -92.702  93.146  1.00  0.00     0.074 C 
HETATM   34  C1  UNL     1      -5.013 -93.868  94.058  1.00  0.00     0.055 C 
ATOM     35  H1  UNL     1      -6.272 -93.738  91.869  1.00  0.00     0.183 HD
ENDBRANCH   1  32
BRANCH   5  36
HETATM   36  N4  UNL     1      -8.282 -88.076  91.812  1.00  0.00    -0.249 N 
HETATM   37  C5  UNL     1      -9.607 -88.272  92.232  1.00  0.00     0.306 C 
HETATM   38  O1  UNL     1     -10.451 -89.049  91.729  1.00  0.00    -0.262 OA
ATOM     39  H4  UNL     1      -7.762 -87.395  92.364  1.00  0.00     0.191 HD
BRANCH  37  40
HETATM   40  C6  UNL     1     -10.094 -87.494  93.387  1.00  0.00     0.202 A 
HETATM   41  N5  UNL     1      -9.909 -87.749  94.696  1.00  0.00    -0.266 N 
HETATM   42  N6  UNL     1     -10.525 -86.788  95.366  1.00  0.00    -0.007 NA
ATOM     43  H5  UNL     1      -9.393 -88.533  95.095  1.00  0.00     0.185 HD
HETATM   44  N7  UNL     1     -11.094 -85.931  94.535  1.00  0.00    -0.007 NA
HETATM   45  N8  UNL     1     -10.818 -86.382  93.305  1.00  0.00    -0.266 N 
ATOM     46  H8  UNL     1     -11.119 -85.939  92.437  1.00  0.00     0.185 HD
ENDBRANCH  37  40
ENDBRANCH   5  36
TORSDOF 7
ENDMDL
MODEL 5
REMARK VINA RESULT: -9.255693641      1.617      2.942
REMARK  7 active torsions:
REMARK  status: ('A' for Active; 'I' for Inactive)
REMARK    1  A    between atoms: N1_3  and  C3_5 
REMARK    2  A    between atoms: N3_9  and  N4_11 
REMARK       I    between atoms: N4_11  and  C5_13 
REMARK    3  A    between atoms: C5_13  and  C6_15 
REMARK    4  A    between atoms: C7_24  and  N10_25 
REMARK    5  A    between atoms: N10_25  and  C8_27 
REMARK    6  A    between atoms: C9_30  and  N12_31 
REMARK    7  A    between atoms: N12_31  and  C10_33 
ROOT
HETATM    1  C3  UNL     1      -6.563 -88.660  92.542  1.00  0.00     0.711 A 
HETATM    2  N2  UNL     1      -7.773 -88.109  92.410  1.00  0.00    -0.020 N 
ATOM      3  H2  UNL     1      -8.579 -88.655  92.714  1.00  0.00     0.203 HD
HETATM    4  C4  UNL     1      -8.000 -86.889  91.906  1.00  0.00     0.726 A 
HETATM    5  N3  UNL     1      -9.115 -86.353  91.774  1.00  0.00    -0.128 N 
ATOM      6  H3  UNL     1      -9.013 -85.423  91.367  1.00  0.00     0.205 HD
HETATM    7  N9  UNL     1      -6.851 -86.218  91.520  1.00  0.00    -0.019 N 
ATOM      8  H9  UNL     1      -6.940 -85.281  91.127  1.00  0.00     0.203 HD
HETATM    9  C7  UNL     1      -5.632 -86.747  91.642  1.00  0.00     0.726 A 
HETATM   10  N15 UNL     1      -5.467 -87.982  92.156  1.00  0.00    -0.021 N 
ATOM     11  H15 UNL     1      -4.537 -88.391  92.251  1.00  0.00     0.203 HD
ENDROOT
BRANCH   9  12
HETATM   12  N10 UNL     1      -4.453 -86.030  91.234  1.00  0.00    -0.021 N 
ATOM     13  H10 UNL     1      -4.371 -85.036  91.444  1.00  0.00     0.203 HD
BRANCH  12  14
HETATM   14  C8  UNL     1      -3.482 -86.636  90.597  1.00  0.00     0.698 A 
HETATM   15  N11 UNL     1      -2.212 -86.301  90.779  1.00  0.00    -0.176 N 
HETATM   16  C9  UNL     1      -1.172 -86.912  90.128  1.00  0.00     0.119 A 
ATOM     17  H11 UNL     1      -1.998 -85.551  91.436  1.00  0.00     0.186 HD
HETATM   18  C14 UNL     1      -1.538 -87.912  89.262  1.00  0.00     0.073 A 
HETATM   19  C15 UNL     1      -2.859 -88.257  89.077  1.00  0.00     0.026 A 
HETATM   20  C16 UNL     1      -3.253 -89.350  88.129  1.00  0.00     0.069 C 
HETATM   21  N14 UNL     1      -3.826 -87.615  89.746  1.00  0.00    -0.195 N 
ATOM     22  H14 UNL     1      -4.805 -87.866  89.612  1.00  0.00     0.184 HD
BRANCH  16  23
HETATM   23  N12 UNL     1       0.153 -86.486  90.383  1.00  0.00    -0.369 N 
ATOM     24  H12 UNL     1       0.723 -86.366  89.546  1.00  0.00     0.161 HD
BRANCH  23  25
HETATM   25  C10 UNL     1       0.821 -86.199  91.583  1.00  0.00     0.110 C 
HETATM   26  C11 UNL     1       0.984 -84.762  91.967  1.00  0.00     0.054 C 
HETATM   27  C12 UNL     1       1.146 -84.826  93.470  1.00  0.00     0.234 C 
HETATM   28  N13 UNL     1       1.229 -86.247  93.817  1.00  0.00    -0.073 N 
HETATM   29  C13 UNL     1       0.277 -86.825  92.842  1.00  0.00     0.257 C 
ATOM     30 2H13 UNL     1       2.167 -86.649  93.807  1.00  0.00     0.277 HD
ATOM     31 1H13 UNL     1       1.048 -86.472  94.795  1.00  0.00     0.277 HD
ENDBRANCH  23  25
ENDBRANCH  16  23
ENDBRANCH  12  14
ENDBRANCH   9  12
BRANCH   1  32
HETATM   32  N1  UNL     1      -6.354 -89.959  93.080  1.00  0.00    -0.205 N 
HETATM   33  C2  UNL     1      -7.307 -90.674  93.555  1.00  0.00     0.074 C 
HETATM   34  C1  UNL     1      -6.999 -92.024  94.099  1.00  0.00     0.055 C 
ATOM     35  H1  UNL     1      -5.407 -90.338  93.090  1.00  0.00     0.183 HD
ENDBRANCH   1  32
BRANCH   5  36
HETATM   36  N4  UNL     1     -10.391 -86.618  92.000  1.00  0.00    -0.249 N 
HETATM   37  C5  UNL     1     -11.240 -86.256  93.059  1.00  0.00     0.306 C 
HETATM   38  O1  UNL     1     -10.943 -85.565  94.061  1.00  0.00    -0.262 OA
ATOM     39  H4  UNL     1     -10.836 -87.186  91.280  1.00  0.00     0.191 HD
BRANCH  37  40
HETATM   40  C6  UNL     1     -12.638 -86.722  93.021  1.00  0.00     0.202 A 
HETATM   41  N5  UNL     1     -13.759 -85.981  92.935  1.00  0.00    -0.266 N 
HETATM   42  N6  UNL     1     -14.779 -86.823  92.935  1.00  0.00    -0.007 NA
ATOM     43  H5  UNL     1     -13.811 -84.963  92.879  1.00  0.00     0.185 HD
HETATM   44  N7  UNL     1     -14.354 -88.072  93.018  1.00  0.00    -0.007 NA
HETATM   45  N8  UNL     1     -13.018 -87.996  93.072  1.00  0.00    -0.266 N 
ATOM     46  H8  UNL     1     -12.387 -88.795  93.140  1.00  0.00     0.185 HD
ENDBRANCH  37  40
ENDBRANCH   5  36
TORSDOF 7
ENDMDL
