MODEL 1
REMARK VINA RESULT: -6.944271047      0.000      0.000
REMARK  11 active torsions:
REMARK  status: ('A' for Active; 'I' for Inactive)
REMARK    1  A    between atoms: C3_4  and  S1_5 
REMARK    2  A    between atoms: S1_5  and  C4_6 
REMARK    3  A    between atoms: C4_6  and  C5_7 
REMARK    4  A    between atoms: C6_8  and  N2_9 
REMARK    5  A    between atoms: N2_9  and  O1_11 
REMARK    6  A    between atoms: C7_17  and  C8_18 
REMARK    7  A    between atoms: C9_21  and  O4_22 
REMARK    8  A    between atoms: C11_26  and  C12_27 
REMARK    9  A    between atoms: C12_27  and  O5_28 
REMARK   10  A    between atoms: C12_27  and  N6_30 
REMARK   11  A    between atoms: N6_30  and  N7_32 
ROOT
HETATM    1  N1  UNL     1      -4.718 -86.702  90.791  1.00  0.00    -0.191 NA
HETATM    2  C1  UNL     1      -5.707 -86.790  91.372  1.00  0.00     0.103 C 
HETATM    3  C2  UNL     1      -6.979 -86.935  92.049  1.00  0.00     0.091 C 
HETATM    4  C3  UNL     1      -7.283 -87.853  92.898  1.00  0.00     0.051 C 
HETATM    5  C9  UNL     1      -8.658 -88.008  93.379  1.00  0.00     0.200 C 
HETATM    6  C10 UNL     1      -8.670 -88.728  94.662  1.00  0.00     0.105 C 
HETATM    7  N5  UNL     1      -8.687 -89.277  95.653  1.00  0.00    -0.194 NA
HETATM    8  C11 UNL     1      -9.404 -86.703  93.620  1.00  0.00     0.192 C 
HETATM    9  C13 UNL     1      -9.260 -85.867  92.447  1.00  0.00     0.193 C 
HETATM   10  O6  UNL     1     -10.145 -85.144  91.938  1.00  0.00    -0.290 OA
HETATM   11  C14 UNL     1      -7.972 -85.859  91.761  1.00  0.00     0.095 C 
HETATM   12  N8  UNL     1      -7.697 -84.905  90.883  1.00  0.00    -0.395 N 
ATOM     13  H81 UNL     1      -8.376 -84.169  90.687  1.00  0.00     0.156 HD
ATOM     14  H82 UNL     1      -6.797 -84.899  90.404  1.00  0.00     0.156 HD
ENDROOT
BRANCH   4  15
HETATM   15  S1  UNL     1      -6.130 -89.126  93.411  1.00  0.00    -0.124 SA
BRANCH  15  16
HETATM   16  C4  UNL     1      -6.060 -90.454  92.218  1.00  0.00     0.124 C 
BRANCH  16  17
HETATM   17  C5  UNL     1      -7.215 -91.380  92.102  1.00  0.00     0.034 A 
HETATM   18  C6  UNL     1      -7.592 -92.113  93.245  1.00  0.00     0.149 A 
HETATM   19  N3  UNL     1      -8.763 -92.666  92.948  1.00  0.00    -0.283 N 
HETATM   20  N4  UNL     1      -9.174 -92.381  91.768  1.00  0.00    -0.292 N 
ATOM     21  H3  UNL     1      -9.283 -93.259  93.594  1.00  0.00     0.188 HD
HETATM   22  C7  UNL     1      -8.212 -91.558  91.188  1.00  0.00     0.136 A 
ATOM     23  H4  UNL     1     -10.043 -92.697  91.336  1.00  0.00     0.187 HD
BRANCH  18  24
HETATM   24  N2  UNL     1      -6.861 -92.272  94.422  1.00  0.00    -0.251 N 
ATOM     25  H2  UNL     1      -6.079 -92.922  94.348  1.00  0.00     0.196 HD
BRANCH  24  26
HETATM   26  O1  UNL     1      -6.994 -91.774  95.513  1.00  0.00    -0.288 OA
ATOM     27  H1  UNL     1      -7.084 -92.167  96.373  1.00  0.00     0.244 HD
ENDBRANCH  24  26
ENDBRANCH  18  24
BRANCH  22  28
HETATM   28  C8  UNL     1      -8.400 -90.954  89.901  1.00  0.00     0.229 C 
HETATM   29  O2  UNL     1      -8.606 -91.582  88.812  1.00  0.00    -0.643 OA
HETATM   30  O3  UNL     1      -8.341 -89.544  89.818  1.00  0.00    -0.643 OA
ENDBRANCH  22  28
ENDBRANCH  16  17
ENDBRANCH  15  16
ENDBRANCH   4  15
BRANCH   5  31
HETATM   31  O4  UNL     1      -9.417 -88.780  92.485  1.00  0.00    -0.370 OA
ATOM     32  H4  UNL     1     -10.197 -88.312  92.211  1.00  0.00     0.212 HD
ENDBRANCH   5  31
BRANCH   8  33
HETATM   33  C12 UNL     1     -10.741 -87.160  93.966  1.00  0.00     0.146 C 
BRANCH  33  34
HETATM   34  O5  UNL     1     -11.024 -87.359  95.241  1.00  0.00    -0.348 OA
ATOM     35  H5  UNL     1     -10.448 -87.919  95.748  1.00  0.00     0.219 HD
ENDBRANCH  33  34
BRANCH  33  36
HETATM   36  N6  UNL     1     -11.790 -87.380  93.116  1.00  0.00    -0.289 N 
ATOM     37  H6  UNL     1     -12.117 -86.608  92.535  1.00  0.00     0.188 HD
BRANCH  36  38
HETATM   38  N7  UNL     1     -12.439 -88.628  93.006  1.00  0.00    -0.343 N 
ATOM     39  H72 UNL     1     -11.925 -89.455  93.311  1.00  0.00     0.176 HD
ATOM     40  H71 UNL     1     -13.385 -88.730  92.638  1.00  0.00     0.176 HD
ENDBRANCH  36  38
ENDBRANCH  33  36
ENDBRANCH   8  33
TORSDOF 11
ENDMDL
MODEL 2
REMARK VINA RESULT: -6.766361799      1.602      1.945
REMARK  11 active torsions:
REMARK  status: ('A' for Active; 'I' for Inactive)
REMARK    1  A    between atoms: C3_4  and  S1_5 
REMARK    2  A    between atoms: S1_5  and  C4_6 
REMARK    3  A    between atoms: C4_6  and  C5_7 
REMARK    4  A    between atoms: C6_8  and  N2_9 
REMARK    5  A    between atoms: N2_9  and  O1_11 
REMARK    6  A    between atoms: C7_17  and  C8_18 
REMARK    7  A    between atoms: C9_21  and  O4_22 
REMARK    8  A    between atoms: C11_26  and  C12_27 
REMARK    9  A    between atoms: C12_27  and  O5_28 
REMARK   10  A    between atoms: C12_27  and  N6_30 
REMARK   11  A    between atoms: N6_30  and  N7_32 
ROOT
HETATM    1  N1  UNL     1      -4.686 -87.048  90.662  1.00  0.00    -0.191 NA
HETATM    2  C1  UNL     1      -5.669 -87.057  91.260  1.00  0.00     0.103 C 
HETATM    3  C2  UNL     1      -6.939 -87.094  91.955  1.00  0.00     0.091 C 
HETATM    4  C3  UNL     1      -7.339 -88.026  92.747  1.00  0.00     0.051 C 
HETATM    5  C9  UNL     1      -8.715 -88.049  93.249  1.00  0.00     0.200 C 
HETATM    6  C10 UNL     1      -8.796 -88.849  94.480  1.00  0.00     0.105 C 
HETATM    7  N5  UNL     1      -8.864 -89.460  95.432  1.00  0.00    -0.194 NA
HETATM    8  C11 UNL     1      -9.294 -86.683  93.596  1.00  0.00     0.192 C 
HETATM    9  C13 UNL     1      -9.066 -85.791  92.479  1.00  0.00     0.193 C 
HETATM   10  O6  UNL     1      -9.865 -84.932  92.041  1.00  0.00    -0.290 OA
HETATM   11  C14 UNL     1      -7.798 -85.889  91.764  1.00  0.00     0.095 C 
HETATM   12  N8  UNL     1      -7.423 -84.916  90.947  1.00  0.00    -0.395 N 
ATOM     13  H81 UNL     1      -8.010 -84.092  90.817  1.00  0.00     0.156 HD
ATOM     14  H82 UNL     1      -6.536 -84.985  90.448  1.00  0.00     0.156 HD
ENDROOT
BRANCH   4  15
HETATM   15  S1  UNL     1      -6.343 -89.461  93.145  1.00  0.00    -0.124 SA
BRANCH  15  16
HETATM   16  C4  UNL     1      -6.827 -90.876  92.168  1.00  0.00     0.124 C 
BRANCH  16  17
HETATM   17  C5  UNL     1      -6.230 -92.202  92.472  1.00  0.00     0.034 A 
HETATM   18  C6  UNL     1      -6.608 -92.838  93.672  1.00  0.00     0.149 A 
HETATM   19  N3  UNL     1      -6.132 -94.075  93.588  1.00  0.00    -0.283 N 
HETATM   20  N4  UNL     1      -5.502 -94.304  92.495  1.00  0.00    -0.292 N 
ATOM     21  H3  UNL     1      -6.255 -94.774  94.321  1.00  0.00     0.188 HD
HETATM   22  C7  UNL     1      -5.539 -93.129  91.749  1.00  0.00     0.136 A 
ATOM     23  H4  UNL     1      -5.058 -95.182  92.224  1.00  0.00     0.187 HD
BRANCH  18  24
HETATM   24  N2  UNL     1      -7.290 -92.269  94.747  1.00  0.00    -0.251 N 
ATOM     25  H2  UNL     1      -8.303 -92.376  94.707  1.00  0.00     0.196 HD
BRANCH  24  26
HETATM   26  O1  UNL     1      -6.889 -91.673  95.717  1.00  0.00    -0.288 OA
ATOM     27  H1  UNL     1      -7.052 -91.804  96.643  1.00  0.00     0.244 HD
ENDBRANCH  24  26
ENDBRANCH  18  24
BRANCH  22  28
HETATM   28  C8  UNL     1      -5.024 -93.058  90.412  1.00  0.00     0.229 C 
HETATM   29  O2  UNL     1      -4.640 -91.996  89.823  1.00  0.00    -0.643 OA
HETATM   30  O3  UNL     1      -4.944 -94.259  89.671  1.00  0.00    -0.643 OA
ENDBRANCH  22  28
ENDBRANCH  16  17
ENDBRANCH  15  16
ENDBRANCH   4  15
BRANCH   5  31
HETATM   31  O4  UNL     1      -9.576 -88.658  92.323  1.00  0.00    -0.370 OA
ATOM     32  H4  UNL     1     -10.464 -88.335  92.422  1.00  0.00     0.212 HD
ENDBRANCH   5  31
BRANCH   8  33
HETATM   33  C12 UNL     1     -10.671 -86.999  93.942  1.00  0.00     0.146 C 
BRANCH  33  34
HETATM   34  O5  UNL     1     -10.986 -87.105  95.220  1.00  0.00    -0.348 OA
ATOM     35  H5  UNL     1     -10.389 -86.741  95.862  1.00  0.00     0.219 HD
ENDBRANCH  33  34
BRANCH  33  36
HETATM   36  N6  UNL     1     -11.724 -87.167  93.086  1.00  0.00    -0.289 N 
ATOM     37  H6  UNL     1     -11.979 -86.396  92.469  1.00  0.00     0.188 HD
BRANCH  36  38
HETATM   38  N7  UNL     1     -12.474 -88.361  93.018  1.00  0.00    -0.343 N 
ATOM     39  H72 UNL     1     -11.996 -89.231  93.252  1.00  0.00     0.176 HD
ATOM     40  H71 UNL     1     -13.457 -88.383  92.747  1.00  0.00     0.176 HD
ENDBRANCH  36  38
ENDBRANCH  33  36
ENDBRANCH   8  33
TORSDOF 11
ENDMDL
MODEL 3
REMARK VINA RESULT: -6.538268689      1.179      2.621
REMARK  11 active torsions:
REMARK  status: ('A' for Active; 'I' for Inactive)
REMARK    1  A    between atoms: C3_4  and  S1_5 
REMARK    2  A    between atoms: S1_5  and  C4_6 
REMARK    3  A    between atoms: C4_6  and  C5_7 
REMARK    4  A    between atoms: C6_8  and  N2_9 
REMARK    5  A    between atoms: N2_9  and  O1_11 
REMARK    6  A    between atoms: C7_17  and  C8_18 
REMARK    7  A    between atoms: C9_21  and  O4_22 
REMARK    8  A    between atoms: C11_26  and  C12_27 
REMARK    9  A    between atoms: C12_27  and  O5_28 
REMARK   10  A    between atoms: C12_27  and  N6_30 
REMARK   11  A    between atoms: N6_30  and  N7_32 
ROOT
HETATM    1  N1  UNL     1      -4.681 -86.762  90.763  1.00  0.00    -0.191 NA
HETATM    2  C1  UNL     1      -5.667 -86.846  91.351  1.00  0.00     0.103 C 
HETATM    3  C2  UNL     1      -6.936 -86.982  92.036  1.00  0.00     0.091 C 
HETATM    4  C3  UNL     1      -7.254 -87.921  92.856  1.00  0.00     0.051 C 
HETATM    5  C9  UNL     1      -8.628 -88.060  93.345  1.00  0.00     0.200 C 
HETATM    6  C10 UNL     1      -8.647 -88.822  94.603  1.00  0.00     0.105 C 
HETATM    7  N5  UNL     1      -8.668 -89.403  95.576  1.00  0.00    -0.194 NA
HETATM    8  C11 UNL     1      -9.340 -86.745  93.638  1.00  0.00     0.192 C 
HETATM    9  C13 UNL     1      -9.186 -85.874  92.493  1.00  0.00     0.193 C 
HETATM   10  O6  UNL     1     -10.057 -85.112  92.017  1.00  0.00    -0.290 OA
HETATM   11  C14 UNL     1      -7.905 -85.873  91.794  1.00  0.00     0.095 C 
HETATM   12  N8  UNL     1      -7.615 -84.897  90.947  1.00  0.00    -0.395 N 
ATOM     13  H81 UNL     1      -8.277 -84.139  90.782  1.00  0.00     0.156 HD
ATOM     14  H82 UNL     1      -6.719 -84.897  90.459  1.00  0.00     0.156 HD
ENDROOT
BRANCH   4  15
HETATM   15  S1  UNL     1      -6.129 -89.238  93.314  1.00  0.00    -0.124 SA
BRANCH  15  16
HETATM   16  C4  UNL     1      -6.335 -90.663  92.255  1.00  0.00     0.124 C 
BRANCH  16  17
HETATM   17  C5  UNL     1      -7.070 -91.845  92.772  1.00  0.00     0.034 A 
HETATM   18  C6  UNL     1      -8.315 -92.156  92.189  1.00  0.00     0.149 A 
HETATM   19  N3  UNL     1      -8.638 -93.359  92.652  1.00  0.00    -0.283 N 
HETATM   20  N4  UNL     1      -7.763 -93.848  93.451  1.00  0.00    -0.292 N 
ATOM     21  H3  UNL     1      -9.498 -93.845  92.397  1.00  0.00     0.188 HD
HETATM   22  C7  UNL     1      -6.739 -92.910  93.558  1.00  0.00     0.136 A 
ATOM     23  H4  UNL     1      -7.808 -94.753  93.919  1.00  0.00     0.187 HD
BRANCH  18  24
HETATM   24  N2  UNL     1      -9.076 -91.346  91.348  1.00  0.00    -0.251 N 
ATOM     25  H2  UNL     1      -8.547 -90.611  90.878  1.00  0.00     0.196 HD
BRANCH  24  26
HETATM   26  O1  UNL     1     -10.253 -91.363  91.078  1.00  0.00    -0.288 OA
ATOM     27  H1  UNL     1     -10.737 -91.847  90.421  1.00  0.00     0.244 HD
ENDBRANCH  24  26
ENDBRANCH  18  24
BRANCH  22  28
HETATM   28  C8  UNL     1      -5.534 -93.176  94.289  1.00  0.00     0.229 C 
HETATM   29  O2  UNL     1      -5.473 -93.515  95.516  1.00  0.00    -0.643 OA
HETATM   30  O3  UNL     1      -4.304 -93.042  93.605  1.00  0.00    -0.643 OA
ENDBRANCH  22  28
ENDBRANCH  16  17
ENDBRANCH  15  16
ENDBRANCH   4  15
BRANCH   5  31
HETATM   31  O4  UNL     1      -9.414 -88.781  92.434  1.00  0.00    -0.370 OA
ATOM     32  H4  UNL     1      -9.673 -89.619  92.799  1.00  0.00     0.212 HD
ENDBRANCH   5  31
BRANCH   8  33
HETATM   33  C12 UNL     1     -10.685 -87.182  93.982  1.00  0.00     0.146 C 
BRANCH  33  34
HETATM   34  O5  UNL     1     -10.968 -87.389  95.255  1.00  0.00    -0.348 OA
ATOM     35  H5  UNL     1     -11.604 -86.819  95.673  1.00  0.00     0.219 HD
ENDBRANCH  33  34
BRANCH  33  36
HETATM   36  N6  UNL     1     -11.738 -87.372  93.132  1.00  0.00    -0.289 N 
ATOM     37  H6  UNL     1     -12.063 -86.583  92.573  1.00  0.00     0.188 HD
BRANCH  36  38
HETATM   38  N7  UNL     1     -12.396 -88.613  92.992  1.00  0.00    -0.343 N 
ATOM     39  H72 UNL     1     -12.819 -89.018  93.827  1.00  0.00     0.176 HD
ATOM     40  H71 UNL     1     -12.461 -89.109  92.103  1.00  0.00     0.176 HD
ENDBRANCH  36  38
ENDBRANCH  33  36
ENDBRANCH   8  33
TORSDOF 11
ENDMDL
MODEL 4
REMARK VINA RESULT: -6.535899782      1.653      1.745
REMARK  11 active torsions:
REMARK  status: ('A' for Active; 'I' for Inactive)
REMARK    1  A    between atoms: C3_4  and  S1_5 
REMARK    2  A    between atoms: S1_5  and  C4_6 
REMARK    3  A    between atoms: C4_6  and  C5_7 
REMARK    4  A    between atoms: C6_8  and  N2_9 
REMARK    5  A    between atoms: N2_9  and  O1_11 
REMARK    6  A    between atoms: C7_17  and  C8_18 
REMARK    7  A    between atoms: C9_21  and  O4_22 
REMARK    8  A    between atoms: C11_26  and  C12_27 
REMARK    9  A    between atoms: C12_27  and  O5_28 
REMARK   10  A    between atoms: C12_27  and  N6_30 
REMARK   11  A    between atoms: N6_30  and  N7_32 
ROOT
HETATM    1  N1  UNL     1      -4.645 -86.841  90.768  1.00  0.00    -0.191 NA
HETATM    2  C1  UNL     1      -5.631 -86.911  91.356  1.00  0.00     0.103 C 
HETATM    3  C2  UNL     1      -6.902 -87.032  92.041  1.00  0.00     0.091 C 
HETATM    4  C3  UNL     1      -7.225 -87.956  92.877  1.00  0.00     0.051 C 
HETATM    5  C9  UNL     1      -8.600 -88.082  93.365  1.00  0.00     0.200 C 
HETATM    6  C10 UNL     1      -8.623 -88.823  94.636  1.00  0.00     0.105 C 
HETATM    7  N5  UNL     1      -8.647 -89.388  95.618  1.00  0.00    -0.194 NA
HETATM    8  C11 UNL     1      -9.308 -86.761  93.635  1.00  0.00     0.192 C 
HETATM    9  C13 UNL     1      -9.149 -85.910  92.475  1.00  0.00     0.193 C 
HETATM   10  O6  UNL     1     -10.018 -85.154  91.985  1.00  0.00    -0.290 OA
HETATM   11  C14 UNL     1      -7.867 -85.925  91.779  1.00  0.00     0.095 C 
HETATM   12  N8  UNL     1      -7.573 -84.964  90.915  1.00  0.00    -0.395 N 
ATOM     13  H81 UNL     1      -8.232 -84.207  90.737  1.00  0.00     0.156 HD
ATOM     14  H82 UNL     1      -6.676 -84.974  90.429  1.00  0.00     0.156 HD
ENDROOT
BRANCH   4  15
HETATM   15  S1  UNL     1      -6.104 -89.269  93.359  1.00  0.00    -0.124 SA
BRANCH  15  16
HETATM   16  C4  UNL     1      -6.694 -90.860  92.800  1.00  0.00     0.124 C 
BRANCH  16  17
HETATM   17  C5  UNL     1      -6.034 -91.505  91.635  1.00  0.00     0.034 A 
HETATM   18  C6  UNL     1      -5.364 -92.727  91.849  1.00  0.00     0.149 A 
HETATM   19  N3  UNL     1      -5.079 -93.196  90.639  1.00  0.00    -0.283 N 
HETATM   20  N4  UNL     1      -5.479 -92.432  89.690  1.00  0.00    -0.292 N 
ATOM     21  H3  UNL     1      -4.590 -94.077  90.481  1.00  0.00     0.188 HD
HETATM   22  C7  UNL     1      -6.097 -91.334  90.284  1.00  0.00     0.136 A 
ATOM     23  H4  UNL     1      -5.365 -92.597  88.690  1.00  0.00     0.187 HD
BRANCH  18  24
HETATM   24  N2  UNL     1      -5.021 -93.296  93.074  1.00  0.00    -0.251 N 
ATOM     25  H2  UNL     1      -5.715 -93.945  93.446  1.00  0.00     0.196 HD
BRANCH  24  26
HETATM   26  O1  UNL     1      -4.047 -93.154  93.772  1.00  0.00    -0.288 OA
ATOM     27  H1  UNL     1      -3.510 -93.788  94.233  1.00  0.00     0.244 HD
ENDBRANCH  24  26
ENDBRANCH  18  24
BRANCH  22  28
HETATM   28  C8  UNL     1      -6.764 -90.326  89.513  1.00  0.00     0.229 C 
HETATM   29  O2  UNL     1      -7.781 -89.657  89.891  1.00  0.00    -0.643 OA
HETATM   30  O3  UNL     1      -6.269 -90.049  88.218  1.00  0.00    -0.643 OA
ENDBRANCH  22  28
ENDBRANCH  16  17
ENDBRANCH  15  16
ENDBRANCH   4  15
BRANCH   5  31
HETATM   31  O4  UNL     1      -9.386 -88.817  92.465  1.00  0.00    -0.370 OA
ATOM     32  H4  UNL     1     -10.018 -88.256  92.030  1.00  0.00     0.212 HD
ENDBRANCH   5  31
BRANCH   8  33
HETATM   33  C12 UNL     1     -10.655 -87.187  93.984  1.00  0.00     0.146 C 
BRANCH  33  34
HETATM   34  O5  UNL     1     -10.939 -87.379  95.259  1.00  0.00    -0.348 OA
ATOM     35  H5  UNL     1     -11.157 -88.259  95.544  1.00  0.00     0.219 HD
ENDBRANCH  33  34
BRANCH  33  36
HETATM   36  N6  UNL     1     -11.709 -87.382  93.136  1.00  0.00    -0.289 N 
ATOM     37  H6  UNL     1     -12.031 -86.598  92.569  1.00  0.00     0.188 HD
BRANCH  36  38
HETATM   38  N7  UNL     1     -12.373 -88.621  93.010  1.00  0.00    -0.343 N 
ATOM     39  H72 UNL     1     -13.359 -88.656  93.269  1.00  0.00     0.176 HD
ATOM     40  H71 UNL     1     -11.909 -89.467  92.677  1.00  0.00     0.176 HD
ENDBRANCH  36  38
ENDBRANCH  33  36
ENDBRANCH   8  33
TORSDOF 11
ENDMDL
MODEL 5
REMARK VINA RESULT: -6.367881353      2.331      6.893
REMARK  11 active torsions:
REMARK  status: ('A' for Active; 'I' for Inactive)
REMARK    1  A    between atoms: C3_4  and  S1_5 
REMARK    2  A    between atoms: S1_5  and  C4_6 
REMARK    3  A    between atoms: C4_6  and  C5_7 
REMARK    4  A    between atoms: C6_8  and  N2_9 
REMARK    5  A    between atoms: N2_9  and  O1_11 
REMARK    6  A    between atoms: C7_17  and  C8_18 
REMARK    7  A    between atoms: C9_21  and  O4_22 
REMARK    8  A    between atoms: C11_26  and  C12_27 
REMARK    9  A    between atoms: C12_27  and  O5_28 
REMARK   10  A    between atoms: C12_27  and  N6_30 
REMARK   11  A    between atoms: N6_30  and  N7_32 
ROOT
HETATM    1  N1  UNL     1      -7.991 -89.414  95.526  1.00  0.00    -0.191 NA
HETATM    2  C1  UNL     1      -7.554 -89.961  94.613  1.00  0.00     0.103 C 
HETATM    3  C2  UNL     1      -7.068 -90.677  93.452  1.00  0.00     0.091 C 
HETATM    4  C3  UNL     1      -6.939 -90.194  92.266  1.00  0.00     0.051 C 
HETATM    5  C9  UNL     1      -6.613 -91.062  91.132  1.00  0.00     0.200 C 
HETATM    6  C10 UNL     1      -6.027 -90.272  90.039  1.00  0.00     0.105 C 
HETATM    7  N5  UNL     1      -5.570 -89.670  89.194  1.00  0.00    -0.194 NA
HETATM    8  C11 UNL     1      -5.610 -92.167  91.438  1.00  0.00     0.192 C 
HETATM    9  C13 UNL     1      -6.041 -92.862  92.632  1.00  0.00     0.193 C 
HETATM   10  O6  UNL     1      -5.984 -94.095  92.834  1.00  0.00    -0.290 OA
HETATM   11  C14 UNL     1      -6.618 -92.075  93.717  1.00  0.00     0.095 C 
HETATM   12  N8  UNL     1      -6.747 -92.608  94.923  1.00  0.00    -0.395 N 
ATOM     13  H81 UNL     1      -6.439 -93.563  95.104  1.00  0.00     0.156 HD
ATOM     14  H82 UNL     1      -7.150 -92.058  95.682  1.00  0.00     0.156 HD
ENDROOT
BRANCH   4  15
HETATM   15  S1  UNL     1      -7.334 -88.495  91.858  1.00  0.00    -0.124 SA
BRANCH  15  16
HETATM   16  C4  UNL     1      -9.036 -88.332  91.341  1.00  0.00     0.124 C 
BRANCH  16  17
HETATM   17  C5  UNL     1      -9.865 -87.243  91.919  1.00  0.00     0.034 A 
HETATM   18  C6  UNL     1      -9.856 -85.992  91.270  1.00  0.00     0.149 A 
HETATM   19  N3  UNL     1     -10.834 -85.290  91.831  1.00  0.00    -0.283 N 
HETATM   20  N4  UNL     1     -11.458 -85.931  92.749  1.00  0.00    -0.292 N 
ATOM     21  H3  UNL     1     -11.066 -84.334  91.558  1.00  0.00     0.188 HD
HETATM   22  C7  UNL     1     -10.869 -87.189  92.840  1.00  0.00     0.136 A 
ATOM     23  H4  UNL     1     -12.239 -85.585  93.306  1.00  0.00     0.187 HD
BRANCH  18  24
HETATM   24  N2  UNL     1      -8.969 -85.560  90.285  1.00  0.00    -0.251 N 
ATOM     25  H2  UNL     1      -8.020 -85.922  90.384  1.00  0.00     0.196 HD
BRANCH  24  26
HETATM   26  O1  UNL     1      -9.127 -84.833  89.335  1.00  0.00    -0.288 OA
ATOM     27  H1  UNL     1      -9.736 -84.878  88.607  1.00  0.00     0.244 HD
ENDBRANCH  24  26
ENDBRANCH  18  24
BRANCH  22  28
HETATM   28  C8  UNL     1     -11.391 -88.216  93.694  1.00  0.00     0.229 C 
HETATM   29  O2  UNL     1     -10.967 -88.492  94.864  1.00  0.00    -0.643 OA
HETATM   30  O3  UNL     1     -12.457 -89.004  93.204  1.00  0.00    -0.643 OA
ENDBRANCH  22  28
ENDBRANCH  16  17
ENDBRANCH  15  16
ENDBRANCH   4  15
BRANCH   5  31
HETATM   31  O4  UNL     1      -7.769 -91.662  90.611  1.00  0.00    -0.370 OA
ATOM     32  H4  UNL     1      -8.070 -92.366  91.174  1.00  0.00     0.212 HD
ENDBRANCH   5  31
BRANCH   8  33
HETATM   33  C12 UNL     1      -5.574 -92.917  90.192  1.00  0.00     0.146 C 
BRANCH  33  34
HETATM   34  O5  UNL     1      -4.604 -92.659  89.334  1.00  0.00    -0.348 OA
ATOM     35  H5  UNL     1      -4.760 -92.006  88.661  1.00  0.00     0.219 HD
ENDBRANCH  33  34
BRANCH  33  36
HETATM   36  N6  UNL     1      -6.420 -93.918  89.801  1.00  0.00    -0.289 N 
ATOM     37  H6  UNL     1      -7.307 -93.663  89.365  1.00  0.00     0.188 HD
BRANCH  36  38
HETATM   38  N7  UNL     1      -6.122 -95.286  89.974  1.00  0.00    -0.343 N 
ATOM     39  H72 UNL     1      -5.284 -95.646  89.517  1.00  0.00     0.176 HD
ATOM     40  H71 UNL     1      -6.704 -95.914  90.528  1.00  0.00     0.176 HD
ENDBRANCH  36  38
ENDBRANCH  33  36
ENDBRANCH   8  33
TORSDOF 11
ENDMDL
