MODEL 1
REMARK VINA RESULT: -8.286988065      0.000      0.000
REMARK  9 active torsions:
REMARK  status: ('A' for Active; 'I' for Inactive)
REMARK    1  A    between atoms: N1_1  and  C1_4 
REMARK    2  A    between atoms: C2_7  and  N3_8 
REMARK    3  A    between atoms: N3_8  and  C3_10 
REMARK    4  A    between atoms: C3_10  and  C4_11 
REMARK    5  A    between atoms: C4_11  and  O1_12 
REMARK    6  A    between atoms: C5_16  and  N5_17 
REMARK    7  A    between atoms: N5_17  and  N6_19 
REMARK    8  A    between atoms: C6_21  and  C7_22 
REMARK    9  A    between atoms: N9_28  and  N10_30 
ROOT
HETATM    1  C1  UNL     1     -40.730  -7.590  26.935  1.00  0.00     0.705 A 
HETATM    2  N2  UNL     1     -39.889  -6.963  27.792  1.00  0.00    -0.022 N 
ATOM      3  H2  UNL     1     -39.610  -7.436  28.652  1.00  0.00     0.203 HD
HETATM    4  C2  UNL     1     -39.416  -5.735  27.535  1.00  0.00     0.707 A 
HETATM    5  N4  UNL     1     -39.824  -5.164  26.381  1.00  0.00    -0.020 N 
ATOM      6  H4  UNL     1     -39.482  -4.230  26.156  1.00  0.00     0.203 HD
HETATM    7  C5  UNL     1     -40.654  -5.760  25.518  1.00  0.00     0.726 A 
HETATM    8  N11 UNL     1     -41.122  -6.999  25.791  1.00  0.00    -0.020 N 
ATOM      9  H11 UNL     1     -41.755  -7.473  25.147  1.00  0.00     0.203 HD
ENDROOT
BRANCH   7  10
HETATM   10  N5  UNL     1     -41.044  -5.221  24.418  1.00  0.00    -0.131 N 
ATOM     11  H5  UNL     1     -42.016  -4.934  24.305  1.00  0.00     0.205 HD
BRANCH  10  12
HETATM   12  N6  UNL     1     -40.131  -5.031  23.377  1.00  0.00    -0.295 N 
HETATM   13  C6  UNL     1     -40.185  -5.715  22.278  1.00  0.00     0.146 C 
ATOM     14  H6  UNL     1     -39.398  -4.330  23.486  1.00  0.00     0.186 HD
BRANCH  13  15
HETATM   15  C7  UNL     1     -41.240  -6.724  22.125  1.00  0.00     0.109 A 
HETATM   16  N7  UNL     1     -41.090  -8.036  22.200  1.00  0.00    -0.290 N 
HETATM   17  N8  UNL     1     -42.085  -8.807  22.048  1.00  0.00    -0.278 N 
ATOM     18  H7  UNL     1     -40.168  -8.431  22.382  1.00  0.00     0.187 HD
HETATM   19  C8  UNL     1     -43.285  -8.270  21.811  1.00  0.00     0.179 A 
ATOM     20  H8  UNL     1     -41.971  -9.819  22.104  1.00  0.00     0.189 HD
HETATM   21  N9  UNL     1     -44.433  -8.880  21.625  1.00  0.00    -0.285 N 
HETATM   22  S1  UNL     1     -42.913  -6.593  21.817  1.00  0.00    -0.031 SA
ATOM     23  H9  UNL     1     -45.287  -8.349  21.451  1.00  0.00     0.188 HD
BRANCH  21  24
HETATM   24  N10 UNL     1     -44.453 -10.264  21.674  1.00  0.00    -0.343 N 
ATOM     25 2H10 UNL     1     -43.846 -10.804  21.057  1.00  0.00     0.176 HD
ATOM     26 1H10 UNL     1     -45.084 -10.713  22.336  1.00  0.00     0.176 HD
ENDBRANCH  21  24
ENDBRANCH  13  15
ENDBRANCH  10  12
ENDBRANCH   7  10
BRANCH   4  27
HETATM   27  N3  UNL     1     -38.627  -5.088  28.288  1.00  0.00    -0.223 N 
ATOM     28  H3  UNL     1     -39.047  -4.684  29.125  1.00  0.00     0.177 HD
BRANCH  27  29
HETATM   29  C3  UNL     1     -37.232  -4.849  28.124  1.00  0.00     0.164 C 
BRANCH  29  30
HETATM   30  C4  UNL     1     -36.366  -6.028  28.555  1.00  0.00     0.184 C 
BRANCH  30  31
HETATM   31  O1  UNL     1     -37.119  -7.181  28.601  1.00  0.00    -0.399 OA
ATOM     32  H1  UNL     1     -37.605  -7.224  29.416  1.00  0.00     0.209 HD
ENDBRANCH  30  31
ENDBRANCH  29  30
ENDBRANCH  27  29
ENDBRANCH   4  27
BRANCH   1  33
HETATM   33  N1  UNL     1     -41.149  -8.784  27.252  1.00  0.00    -0.234 N 
ATOM     34  H12 UNL     1     -40.505  -9.488  27.614  1.00  0.00     0.174 HD
ATOM     35  H11 UNL     1     -42.139  -8.993  27.128  1.00  0.00     0.174 HD
ENDBRANCH   1  33
TORSDOF 9
ENDMDL
MODEL 2
REMARK VINA RESULT: -8.269552946      1.604      2.819
REMARK  9 active torsions:
REMARK  status: ('A' for Active; 'I' for Inactive)
REMARK    1  A    between atoms: N1_1  and  C1_4 
REMARK    2  A    between atoms: C2_7  and  N3_8 
REMARK    3  A    between atoms: N3_8  and  C3_10 
REMARK    4  A    between atoms: C3_10  and  C4_11 
REMARK    5  A    between atoms: C4_11  and  O1_12 
REMARK    6  A    between atoms: C5_16  and  N5_17 
REMARK    7  A    between atoms: N5_17  and  N6_19 
REMARK    8  A    between atoms: C6_21  and  C7_22 
REMARK    9  A    between atoms: N9_28  and  N10_30 
ROOT
HETATM    1  C1  UNL     1     -40.062  -4.996  24.843  1.00  0.00     0.705 A 
HETATM    2  N2  UNL     1     -39.281  -4.653  25.896  1.00  0.00    -0.022 N 
ATOM      3  H2  UNL     1     -38.648  -3.858  25.809  1.00  0.00     0.203 HD
HETATM    4  C2  UNL     1     -39.322  -5.336  27.049  1.00  0.00     0.707 A 
HETATM    5  N4  UNL     1     -40.180  -6.378  27.099  1.00  0.00    -0.020 N 
ATOM      6  H4  UNL     1     -40.235  -6.918  27.962  1.00  0.00     0.203 HD
HETATM    7  C5  UNL     1     -40.962  -6.738  26.076  1.00  0.00     0.726 A 
HETATM    8  N11 UNL     1     -40.909  -6.038  24.919  1.00  0.00    -0.020 N 
ATOM      9  H11 UNL     1     -41.497  -6.294  24.126  1.00  0.00     0.203 HD
ENDROOT
BRANCH   7  10
HETATM   10  N5  UNL     1     -41.780  -7.728  26.119  1.00  0.00    -0.131 N 
ATOM     11  H5  UNL     1     -42.774  -7.565  26.278  1.00  0.00     0.205 HD
BRANCH  10  12
HETATM   12  N6  UNL     1     -41.302  -9.031  25.946  1.00  0.00    -0.295 N 
HETATM   13  C6  UNL     1     -41.645  -9.764  24.934  1.00  0.00     0.146 C 
ATOM     14  H6  UNL     1     -40.663  -9.417  26.641  1.00  0.00     0.186 HD
BRANCH  13  15
HETATM   15  C7  UNL     1     -42.567  -9.205  23.938  1.00  0.00     0.109 A 
HETATM   16  N7  UNL     1     -43.878  -9.374  23.897  1.00  0.00    -0.290 N 
HETATM   17  N8  UNL     1     -44.567  -8.837  22.979  1.00  0.00    -0.278 N 
ATOM     18  H7  UNL     1     -44.337  -9.940  24.609  1.00  0.00     0.187 HD
HETATM   19  C8  UNL     1     -43.946  -8.098  22.056  1.00  0.00     0.179 A 
ATOM     20  H8  UNL     1     -45.579  -8.967  22.946  1.00  0.00     0.189 HD
HETATM   21  N9  UNL     1     -44.465  -7.460  21.032  1.00  0.00    -0.285 N 
HETATM   22  S1  UNL     1     -42.313  -8.213  22.572  1.00  0.00    -0.031 SA
ATOM     23  H9  UNL     1     -43.877  -6.926  20.393  1.00  0.00     0.188 HD
BRANCH  21  24
HETATM   24  N10 UNL     1     -45.835  -7.533  20.843  1.00  0.00    -0.343 N 
ATOM     25 2H10 UNL     1     -46.292  -8.443  20.762  1.00  0.00     0.176 HD
ATOM     26 1H10 UNL     1     -46.361  -6.661  20.788  1.00  0.00     0.176 HD
ENDBRANCH  21  24
ENDBRANCH  13  15
ENDBRANCH  10  12
ENDBRANCH   7  10
BRANCH   4  27
HETATM   27  N3  UNL     1     -38.623  -5.074  28.074  1.00  0.00    -0.223 N 
ATOM     28  H3  UNL     1     -39.137  -4.999  28.952  1.00  0.00     0.177 HD
BRANCH  27  29
HETATM   29  C3  UNL     1     -37.215  -4.870  28.166  1.00  0.00     0.164 C 
BRANCH  29  30
HETATM   30  C4  UNL     1     -36.449  -6.133  28.544  1.00  0.00     0.184 C 
BRANCH  30  31
HETATM   31  O1  UNL     1     -37.290  -7.224  28.525  1.00  0.00    -0.399 OA
ATOM     32  H1  UNL     1     -37.029  -7.852  29.189  1.00  0.00     0.209 HD
ENDBRANCH  30  31
ENDBRANCH  29  30
ENDBRANCH  27  29
ENDBRANCH   4  27
BRANCH   1  33
HETATM   33  N1  UNL     1     -39.968  -4.284  23.754  1.00  0.00    -0.234 N 
ATOM     34  H12 UNL     1     -39.121  -4.302  23.186  1.00  0.00     0.174 HD
ATOM     35  H11 UNL     1     -40.767  -3.710  23.488  1.00  0.00     0.174 HD
ENDBRANCH   1  33
TORSDOF 9
ENDMDL
MODEL 3
REMARK VINA RESULT: -7.854837610      3.198      6.985
REMARK  9 active torsions:
REMARK  status: ('A' for Active; 'I' for Inactive)
REMARK    1  A    between atoms: N1_1  and  C1_4 
REMARK    2  A    between atoms: C2_7  and  N3_8 
REMARK    3  A    between atoms: N3_8  and  C3_10 
REMARK    4  A    between atoms: C3_10  and  C4_11 
REMARK    5  A    between atoms: C4_11  and  O1_12 
REMARK    6  A    between atoms: C5_16  and  N5_17 
REMARK    7  A    between atoms: N5_17  and  N6_19 
REMARK    8  A    between atoms: C6_21  and  C7_22 
REMARK    9  A    between atoms: N9_28  and  N10_30 
ROOT
HETATM    1  C1  UNL     1     -44.603  -8.218  21.696  1.00  0.00     0.705 A 
HETATM    2  N2  UNL     1     -44.956  -9.261  22.486  1.00  0.00    -0.022 N 
ATOM      3  H2  UNL     1     -45.934  -9.545  22.529  1.00  0.00     0.203 HD
HETATM    4  C2  UNL     1     -44.047  -9.926  23.214  1.00  0.00     0.707 A 
HETATM    5  N4  UNL     1     -42.769  -9.499  23.113  1.00  0.00    -0.020 N 
ATOM      6  H4  UNL     1     -42.054  -9.985  23.654  1.00  0.00     0.203 HD
HETATM    7  C5  UNL     1     -42.394  -8.474  22.342  1.00  0.00     0.726 A 
HETATM    8  N11 UNL     1     -43.323  -7.813  21.614  1.00  0.00    -0.020 N 
ATOM      9  H11 UNL     1     -43.059  -7.029  21.018  1.00  0.00     0.203 HD
ENDROOT
BRANCH   7  10
HETATM   10  N5  UNL     1     -41.180  -8.065  22.242  1.00  0.00    -0.131 N 
ATOM     11  H5  UNL     1     -40.412  -8.654  22.564  1.00  0.00     0.205 HD
BRANCH  10  12
HETATM   12  N6  UNL     1     -40.915  -6.807  21.691  1.00  0.00    -0.295 N 
HETATM   13  C6  UNL     1     -40.608  -5.783  22.424  1.00  0.00     0.146 C 
ATOM     14  H6  UNL     1     -40.964  -6.692  20.679  1.00  0.00     0.186 HD
BRANCH  13  15
HETATM   15  C7  UNL     1     -40.539  -5.952  23.881  1.00  0.00     0.109 A 
HETATM   16  N7  UNL     1     -41.239  -6.807  24.607  1.00  0.00    -0.290 N 
HETATM   17  N8  UNL     1     -41.089  -6.856  25.865  1.00  0.00    -0.278 N 
ATOM     18  H7  UNL     1     -41.904  -7.432  24.153  1.00  0.00     0.187 HD
HETATM   19  C8  UNL     1     -40.211  -6.030  26.441  1.00  0.00     0.179 A 
ATOM     20  H8  UNL     1     -41.629  -7.514  26.427  1.00  0.00     0.189 HD
HETATM   21  N9  UNL     1     -39.905  -5.918  27.714  1.00  0.00    -0.285 N 
HETATM   22  S1  UNL     1     -39.609  -5.173  25.080  1.00  0.00    -0.031 SA
ATOM     23  H9  UNL     1     -39.211  -5.241  28.028  1.00  0.00     0.188 HD
BRANCH  21  24
HETATM   24  N10 UNL     1     -40.551  -6.747  28.616  1.00  0.00    -0.343 N 
ATOM     25 2H10 UNL     1     -41.269  -6.367  29.234  1.00  0.00     0.176 HD
ATOM     26 1H10 UNL     1     -40.287  -7.731  28.640  1.00  0.00     0.176 HD
ENDBRANCH  21  24
ENDBRANCH  13  15
ENDBRANCH  10  12
ENDBRANCH   7  10
BRANCH   4  27
HETATM   27  N3  UNL     1     -44.302 -10.909  23.973  1.00  0.00    -0.223 N 
ATOM     28  H3  UNL     1     -43.909 -10.855  24.913  1.00  0.00     0.177 HD
BRANCH  27  29
HETATM   29  C3  UNL     1     -45.064 -12.080  23.692  1.00  0.00     0.164 C 
BRANCH  29  30
HETATM   30  C4  UNL     1     -46.103 -12.392  24.763  1.00  0.00     0.184 C 
BRANCH  30  31
HETATM   31  O1  UNL     1     -45.895 -11.603  25.873  1.00  0.00    -0.399 OA
ATOM     32  H1  UNL     1     -46.201 -12.048  26.655  1.00  0.00     0.209 HD
ENDBRANCH  30  31
ENDBRANCH  29  30
ENDBRANCH  27  29
ENDBRANCH   4  27
BRANCH   1  33
HETATM   33  N1  UNL     1     -45.543  -7.620  21.017  1.00  0.00    -0.234 N 
ATOM     34  H12 UNL     1     -45.789  -7.928  20.076  1.00  0.00     0.174 HD
ATOM     35  H11 UNL     1     -46.023  -6.835  21.456  1.00  0.00     0.174 HD
ENDBRANCH   1  33
TORSDOF 9
ENDMDL
MODEL 4
REMARK VINA RESULT: -7.781801204      1.789      3.131
REMARK  9 active torsions:
REMARK  status: ('A' for Active; 'I' for Inactive)
REMARK    1  A    between atoms: N1_1  and  C1_4 
REMARK    2  A    between atoms: C2_7  and  N3_8 
REMARK    3  A    between atoms: N3_8  and  C3_10 
REMARK    4  A    between atoms: C3_10  and  C4_11 
REMARK    5  A    between atoms: C4_11  and  O1_12 
REMARK    6  A    between atoms: C5_16  and  N5_17 
REMARK    7  A    between atoms: N5_17  and  N6_19 
REMARK    8  A    between atoms: C6_21  and  C7_22 
REMARK    9  A    between atoms: N9_28  and  N10_30 
ROOT
HETATM    1  C1  UNL     1     -40.242  -5.122  23.452  1.00  0.00     0.705 A 
HETATM    2  N2  UNL     1     -39.442  -4.553  24.385  1.00  0.00    -0.022 N 
ATOM      3  H2  UNL     1     -38.812  -3.800  24.109  1.00  0.00     0.203 HD
HETATM    4  C2  UNL     1     -39.459  -4.959  25.663  1.00  0.00     0.707 A 
HETATM    5  N4  UNL     1     -40.314  -5.960  25.963  1.00  0.00    -0.020 N 
ATOM      6  H4  UNL     1     -40.351  -6.292  26.927  1.00  0.00     0.203 HD
HETATM    7  C5  UNL     1     -41.115  -6.540  25.062  1.00  0.00     0.726 A 
HETATM    8  N11 UNL     1     -41.086  -6.119  23.777  1.00  0.00    -0.020 N 
ATOM      9  H11 UNL     1     -41.688  -6.546  23.074  1.00  0.00     0.203 HD
ENDROOT
BRANCH   7  10
HETATM   10  N5  UNL     1     -41.930  -7.493  25.343  1.00  0.00    -0.131 N 
ATOM     11  H5  UNL     1     -42.935  -7.356  25.233  1.00  0.00     0.205 HD
BRANCH  10  12
HETATM   12  N6  UNL     1     -41.435  -8.717  25.801  1.00  0.00    -0.295 N 
HETATM   13  C6  UNL     1     -41.712  -9.838  25.212  1.00  0.00     0.146 C 
ATOM     14  H6  UNL     1     -40.835  -8.729  26.626  1.00  0.00     0.186 HD
BRANCH  13  15
HETATM   15  C7  UNL     1     -42.576  -9.817  24.026  1.00  0.00     0.109 A 
HETATM   16  N7  UNL     1     -42.347  -9.169  22.896  1.00  0.00    -0.290 N 
HETATM   17  N8  UNL     1     -43.176  -9.229  21.940  1.00  0.00    -0.278 N 
ATOM     18  H7  UNL     1     -41.496  -8.616  22.794  1.00  0.00     0.187 HD
HETATM   19  C8  UNL     1     -44.283  -9.960  22.093  1.00  0.00     0.179 A 
ATOM     20  H8  UNL     1     -43.001  -8.728  21.068  1.00  0.00     0.189 HD
HETATM   21  N9  UNL     1     -45.261 -10.156  21.238  1.00  0.00    -0.285 N 
HETATM   22  S1  UNL     1     -44.076 -10.559  23.689  1.00  0.00    -0.031 SA
ATOM     23  H9  UNL     1     -46.060 -10.741  21.480  1.00  0.00     0.188 HD
BRANCH  21  24
HETATM   24  N10 UNL     1     -45.177  -9.545  19.998  1.00  0.00    -0.343 N 
ATOM     25 2H10 UNL     1     -45.441  -8.564  19.893  1.00  0.00     0.176 HD
ATOM     26 1H10 UNL     1     -44.847 -10.100  19.210  1.00  0.00     0.176 HD
ENDBRANCH  21  24
ENDBRANCH  13  15
ENDBRANCH  10  12
ENDBRANCH   7  10
BRANCH   4  27
HETATM   27  N3  UNL     1     -38.741  -4.474  26.589  1.00  0.00    -0.223 N 
ATOM     28  H3  UNL     1     -38.150  -3.686  26.322  1.00  0.00     0.177 HD
BRANCH  27  29
HETATM   29  C3  UNL     1     -38.647  -4.881  27.951  1.00  0.00     0.164 C 
BRANCH  29  30
HETATM   30  C4  UNL     1     -37.209  -5.067  28.424  1.00  0.00     0.184 C 
BRANCH  30  31
HETATM   31  O1  UNL     1     -36.604  -6.087  27.722  1.00  0.00    -0.399 OA
ATOM     32  H1  UNL     1     -36.708  -5.950  26.788  1.00  0.00     0.209 HD
ENDBRANCH  30  31
ENDBRANCH  29  30
ENDBRANCH  27  29
ENDBRANCH   4  27
BRANCH   1  33
HETATM   33  N1  UNL     1     -40.171  -4.675  22.229  1.00  0.00    -0.234 N 
ATOM     34  H12 UNL     1     -40.523  -3.748  21.987  1.00  0.00     0.174 HD
ATOM     35  H11 UNL     1     -39.752  -5.279  21.522  1.00  0.00     0.174 HD
ENDBRANCH   1  33
TORSDOF 9
ENDMDL
MODEL 5
REMARK VINA RESULT: -7.780385954      1.098      1.171
REMARK  9 active torsions:
REMARK  status: ('A' for Active; 'I' for Inactive)
REMARK    1  A    between atoms: N1_1  and  C1_4 
REMARK    2  A    between atoms: C2_7  and  N3_8 
REMARK    3  A    between atoms: N3_8  and  C3_10 
REMARK    4  A    between atoms: C3_10  and  C4_11 
REMARK    5  A    between atoms: C4_11  and  O1_12 
REMARK    6  A    between atoms: C5_16  and  N5_17 
REMARK    7  A    between atoms: N5_17  and  N6_19 
REMARK    8  A    between atoms: C6_21  and  C7_22 
REMARK    9  A    between atoms: N9_28  and  N10_30 
ROOT
HETATM    1  C1  UNL     1     -40.770  -7.069  26.986  1.00  0.00     0.705 A 
HETATM    2  N2  UNL     1     -39.699  -6.415  27.498  1.00  0.00    -0.022 N 
ATOM      3  H2  UNL     1     -39.306  -6.723  28.387  1.00  0.00     0.203 HD
HETATM    4  C2  UNL     1     -39.146  -5.372  26.862  1.00  0.00     0.707 A 
HETATM    5  N4  UNL     1     -39.714  -5.014  25.690  1.00  0.00    -0.020 N 
ATOM      6  H4  UNL     1     -39.317  -4.224  25.182  1.00  0.00     0.203 HD
HETATM    7  C5  UNL     1     -40.771  -5.641  25.162  1.00  0.00     0.726 A 
HETATM    8  N11 UNL     1     -41.317  -6.692  25.816  1.00  0.00    -0.020 N 
ATOM      9  H11 UNL     1     -42.122  -7.185  25.431  1.00  0.00     0.203 HD
ENDROOT
BRANCH   7  10
HETATM   10  N5  UNL     1     -41.315  -5.304  24.048  1.00  0.00    -0.131 N 
ATOM     11  H5  UNL     1     -42.296  -5.029  24.018  1.00  0.00     0.205 HD
BRANCH  10  12
HETATM   12  N6  UNL     1     -40.555  -5.317  22.874  1.00  0.00    -0.295 N 
HETATM   13  C6  UNL     1     -40.714  -6.220  21.958  1.00  0.00     0.146 C 
ATOM     14  H6  UNL     1     -39.852  -4.591  22.733  1.00  0.00     0.186 HD
BRANCH  13  15
HETATM   15  C7  UNL     1     -41.724  -7.265  22.165  1.00  0.00     0.109 A 
HETATM   16  N7  UNL     1     -42.932  -7.308  21.627  1.00  0.00    -0.290 N 
HETATM   17  N8  UNL     1     -43.718  -8.268  21.885  1.00  0.00    -0.278 N 
ATOM     18  H7  UNL     1     -43.233  -6.563  20.999  1.00  0.00     0.187 HD
HETATM   19  C8  UNL     1     -43.303  -9.234  22.709  1.00  0.00     0.179 A 
ATOM     20  H8  UNL     1     -44.650  -8.302  21.472  1.00  0.00     0.189 HD
HETATM   21  N9  UNL     1     -43.951 -10.307  23.105  1.00  0.00    -0.285 N 
HETATM   22  S1  UNL     1     -41.721  -8.693  23.098  1.00  0.00    -0.031 SA
ATOM     23  H9  UNL     1     -43.518 -10.974  23.744  1.00  0.00     0.188 HD
BRANCH  21  24
HETATM   24  N10 UNL     1     -45.236 -10.506  22.631  1.00  0.00    -0.343 N 
ATOM     25 2H10 UNL     1     -45.399 -10.622  21.630  1.00  0.00     0.176 HD
ATOM     26 1H10 UNL     1     -46.000 -10.532  23.307  1.00  0.00     0.176 HD
ENDBRANCH  21  24
ENDBRANCH  13  15
ENDBRANCH  10  12
ENDBRANCH   7  10
BRANCH   4  27
HETATM   27  N3  UNL     1     -38.145  -4.714  27.279  1.00  0.00    -0.223 N 
ATOM     28  H3  UNL     1     -37.812  -3.977  26.658  1.00  0.00     0.177 HD
BRANCH  27  29
HETATM   29  C3  UNL     1     -37.424  -4.865  28.499  1.00  0.00     0.164 C 
BRANCH  29  30
HETATM   30  C4  UNL     1     -36.423  -6.015  28.466  1.00  0.00     0.184 C 
BRANCH  30  31
HETATM   31  O1  UNL     1     -37.071  -7.217  28.649  1.00  0.00    -0.399 OA
ATOM     32  H1  UNL     1     -37.239  -7.632  27.811  1.00  0.00     0.209 HD
ENDBRANCH  30  31
ENDBRANCH  29  30
ENDBRANCH  27  29
ENDBRANCH   4  27
BRANCH   1  33
HETATM   33  N1  UNL     1     -41.253  -8.075  27.661  1.00  0.00    -0.234 N 
ATOM     34  H12 UNL     1     -41.307  -8.047  28.679  1.00  0.00     0.174 HD
ATOM     35  H11 UNL     1     -41.576  -8.889  27.139  1.00  0.00     0.174 HD
ENDBRANCH   1  33
TORSDOF 9
ENDMDL
