MODEL 1
REMARK VINA RESULT: -6.652533022      0.000      0.000
REMARK  6 active torsions:
REMARK  status: ('A' for Active; 'I' for Inactive)
REMARK    1  A    between atoms: C1_4  and  C2_6 
REMARK    2  A    between atoms: C2_6  and  C3_7 
REMARK    3  A    between atoms: C3_7  and  C4_8 
REMARK    4  A    between atoms: C4_8  and  O1_9 
REMARK    5  A    between atoms: O1_9  and  C5_10 
REMARK    6  A    between atoms: C8_15  and  C9_16 
ROOT
HETATM    1  C5  UNL     1      22.480  -5.546  10.459  1.00  0.00     0.100 A 
HETATM    2  C6  UNL     1      23.554  -6.130   9.829  1.00  0.00     0.125 A 
HETATM    3  N3  UNL     1      24.191  -5.116   9.190  1.00  0.00    -0.372 N 
ATOM      4  H3  UNL     1      25.034  -5.220   8.626  1.00  0.00     0.164 HD
HETATM    5  C7  UNL     1      23.547  -3.952   9.410  1.00  0.00     0.107 A 
HETATM    6  C8  UNL     1      22.436  -4.192  10.227  1.00  0.00     0.079 A 
ENDROOT
BRANCH   1   7
HETATM    7  O1  UNL     1      21.563  -6.235  11.228  1.00  0.00    -0.349 OA
BRANCH   7   8
HETATM    8  C4  UNL     1      21.834  -6.615  12.560  1.00  0.00     0.176 C 
BRANCH   8   9
HETATM    9  C3  UNL     1      20.612  -6.472  13.433  1.00  0.00     0.034 C 
BRANCH   9  10
HETATM   10  C2  UNL     1      20.898  -7.207  14.730  1.00  0.00     0.074 C 
BRANCH  10  11
HETATM   11  C1  UNL     1      20.731  -6.341  15.916  1.00  0.00     0.086 C 
HETATM   12  N1  UNL     1      19.887  -5.374  15.895  1.00  0.00    -0.391 N 
ATOM     13  H12 UNL     1      19.771  -4.777  16.713  1.00  0.00     0.157 HD
ATOM     14  H11 UNL     1      19.321  -5.185  15.067  1.00  0.00     0.157 HD
HETATM   15  N2  UNL     1      21.516  -6.603  17.064  1.00  0.00    -0.088 NA
ENDBRANCH  10  11
ENDBRANCH   9  10
ENDBRANCH   8   9
ENDBRANCH   7   8
ENDBRANCH   1   7
BRANCH   6  16
HETATM   16  C9  UNL     1      21.464  -3.212  10.710  1.00  0.00     0.269 C 
HETATM   17  N4  UNL     1      21.727  -2.371  11.796  1.00  0.00    -0.057 NA
HETATM   18  O2  UNL     1      20.364  -3.152  10.107  1.00  0.00    -0.271 OA
ENDBRANCH   6  16
TORSDOF 6
ENDMDL
MODEL 2
REMARK VINA RESULT: -6.643038687      2.676      3.635
REMARK  6 active torsions:
REMARK  status: ('A' for Active; 'I' for Inactive)
REMARK    1  A    between atoms: C1_4  and  C2_6 
REMARK    2  A    between atoms: C2_6  and  C3_7 
REMARK    3  A    between atoms: C3_7  and  C4_8 
REMARK    4  A    between atoms: C4_8  and  O1_9 
REMARK    5  A    between atoms: O1_9  and  C5_10 
REMARK    6  A    between atoms: C8_15  and  C9_16 
ROOT
HETATM    1  C5  UNL     1      21.632  -5.350  11.768  1.00  0.00     0.100 A 
HETATM    2  C6  UNL     1      21.746  -6.719  11.840  1.00  0.00     0.125 A 
HETATM    3  N3  UNL     1      22.689  -7.050  10.922  1.00  0.00    -0.372 N 
ATOM      4  H3  UNL     1      23.007  -7.999  10.728  1.00  0.00     0.164 HD
HETATM    5  C7  UNL     1      23.145  -5.941  10.305  1.00  0.00     0.107 A 
HETATM    6  C8  UNL     1      22.484  -4.823  10.827  1.00  0.00     0.079 A 
ENDROOT
BRANCH   1   7
HETATM    7  O1  UNL     1      20.770  -4.602  12.545  1.00  0.00    -0.349 OA
BRANCH   7   8
HETATM    8  C4  UNL     1      19.998  -5.177  13.577  1.00  0.00     0.176 C 
BRANCH   8   9
HETATM    9  C3  UNL     1      19.211  -4.129  14.324  1.00  0.00     0.034 C 
BRANCH   9  10
HETATM   10  C2  UNL     1      17.981  -3.814  13.492  1.00  0.00     0.074 C 
BRANCH  10  11
HETATM   11  C1  UNL     1      18.237  -2.762  12.486  1.00  0.00     0.086 C 
HETATM   12  N1  UNL     1      19.115  -1.852  12.712  1.00  0.00    -0.391 N 
ATOM     13  H12 UNL     1      19.291  -1.127  12.018  1.00  0.00     0.157 HD
ATOM     14  H11 UNL     1      19.647  -1.836  13.583  1.00  0.00     0.157 HD
HETATM   15  N2  UNL     1      17.499  -2.783  11.278  1.00  0.00    -0.088 NA
ENDBRANCH  10  11
ENDBRANCH   9  10
ENDBRANCH   8   9
ENDBRANCH   7   8
ENDBRANCH   1   7
BRANCH   6  16
HETATM   16  C9  UNL     1      22.670  -3.425  10.443  1.00  0.00     0.269 C 
HETATM   17  N4  UNL     1      21.731  -2.434  10.751  1.00  0.00    -0.057 NA
HETATM   18  O2  UNL     1      23.719  -3.138   9.815  1.00  0.00    -0.271 OA
ENDBRANCH   6  16
TORSDOF 6
ENDMDL
MODEL 3
REMARK VINA RESULT: -6.533807083      2.891      4.546
REMARK  6 active torsions:
REMARK  status: ('A' for Active; 'I' for Inactive)
REMARK    1  A    between atoms: C1_4  and  C2_6 
REMARK    2  A    between atoms: C2_6  and  C3_7 
REMARK    3  A    between atoms: C3_7  and  C4_8 
REMARK    4  A    between atoms: C4_8  and  O1_9 
REMARK    5  A    between atoms: O1_9  and  C5_10 
REMARK    6  A    between atoms: C8_15  and  C9_16 
ROOT
HETATM    1  C5  UNL     1      21.890  -4.125  11.049  1.00  0.00     0.100 A 
HETATM    2  C6  UNL     1      22.580  -3.158  10.355  1.00  0.00     0.125 A 
HETATM    3  N3  UNL     1      23.496  -3.833   9.614  1.00  0.00    -0.372 N 
ATOM      4  H3  UNL     1      24.170  -3.399   8.984  1.00  0.00     0.164 HD
HETATM    5  C7  UNL     1      23.385  -5.158   9.833  1.00  0.00     0.107 A 
HETATM    6  C8  UNL     1      22.356  -5.384  10.756  1.00  0.00     0.079 A 
ENDROOT
BRANCH   1   7
HETATM    7  O1  UNL     1      20.859  -3.861  11.929  1.00  0.00    -0.349 OA
BRANCH   7   8
HETATM    8  C4  UNL     1      20.341  -2.561  12.111  1.00  0.00     0.176 C 
BRANCH   8   9
HETATM    9  C3  UNL     1      19.326  -2.524  13.225  1.00  0.00     0.034 C 
BRANCH   9  10
HETATM   10  C2  UNL     1      18.046  -3.136  12.687  1.00  0.00     0.074 C 
BRANCH  10  11
HETATM   11  C1  UNL     1      17.415  -2.298  11.646  1.00  0.00     0.086 C 
HETATM   12  N1  UNL     1      16.897  -1.165  11.956  1.00  0.00    -0.391 N 
ATOM     13  H12 UNL     1      16.462  -0.587  11.238  1.00  0.00     0.157 HD
ATOM     14  H11 UNL     1      16.909  -0.824  12.918  1.00  0.00     0.157 HD
HETATM   15  N2  UNL     1      17.398  -2.771  10.312  1.00  0.00    -0.088 NA
ENDBRANCH  10  11
ENDBRANCH   9  10
ENDBRANCH   8   9
ENDBRANCH   7   8
ENDBRANCH   1   7
BRANCH   6  16
HETATM   16  C9  UNL     1      21.900  -6.672  11.275  1.00  0.00     0.269 C 
HETATM   17  N4  UNL     1      21.911  -6.973  12.642  1.00  0.00    -0.057 NA
HETATM   18  O2  UNL     1      21.493  -7.516  10.439  1.00  0.00    -0.271 OA
ENDBRANCH   6  16
TORSDOF 6
ENDMDL
MODEL 4
REMARK VINA RESULT: -6.499151841      1.373      1.537
REMARK  6 active torsions:
REMARK  status: ('A' for Active; 'I' for Inactive)
REMARK    1  A    between atoms: C1_4  and  C2_6 
REMARK    2  A    between atoms: C2_6  and  C3_7 
REMARK    3  A    between atoms: C3_7  and  C4_8 
REMARK    4  A    between atoms: C4_8  and  O1_9 
REMARK    5  A    between atoms: O1_9  and  C5_10 
REMARK    6  A    between atoms: C8_15  and  C9_16 
ROOT
HETATM    1  C5  UNL     1      22.308  -5.456  10.686  1.00  0.00     0.100 A 
HETATM    2  C6  UNL     1      23.353  -6.070  10.035  1.00  0.00     0.125 A 
HETATM    3  N3  UNL     1      23.969  -5.083   9.336  1.00  0.00    -0.372 N 
ATOM      4  H3  UNL     1      24.789  -5.212   8.743  1.00  0.00     0.164 HD
HETATM    5  C7  UNL     1      23.341  -3.908   9.539  1.00  0.00     0.107 A 
HETATM    6  C8  UNL     1      22.262  -4.111  10.408  1.00  0.00     0.079 A 
ENDROOT
BRANCH   1   7
HETATM    7  O1  UNL     1      21.419  -6.112  11.515  1.00  0.00    -0.349 OA
BRANCH   7   8
HETATM    8  C4  UNL     1      21.837  -6.785  12.683  1.00  0.00     0.176 C 
BRANCH   8   9
HETATM    9  C3  UNL     1      20.660  -7.193  13.534  1.00  0.00     0.034 C 
BRANCH   9  10
HETATM   10  C2  UNL     1      20.446  -6.095  14.559  1.00  0.00     0.074 C 
BRANCH  10  11
HETATM   11  C1  UNL     1      19.328  -5.197  14.197  1.00  0.00     0.086 C 
HETATM   12  N1  UNL     1      19.528  -4.204  13.409  1.00  0.00    -0.391 N 
ATOM     13  H12 UNL     1      18.757  -3.585  13.160  1.00  0.00     0.157 HD
ATOM     14  H11 UNL     1      20.452  -4.015  13.021  1.00  0.00     0.157 HD
HETATM   15  N2  UNL     1      18.046  -5.459  14.736  1.00  0.00    -0.088 NA
ENDBRANCH  10  11
ENDBRANCH   9  10
ENDBRANCH   8   9
ENDBRANCH   7   8
ENDBRANCH   1   7
BRANCH   6  16
HETATM   16  C9  UNL     1      21.314  -3.109  10.893  1.00  0.00     0.269 C 
HETATM   17  N4  UNL     1      21.641  -2.200  11.906  1.00  0.00    -0.057 NA
HETATM   18  O2  UNL     1      20.177  -3.091  10.362  1.00  0.00    -0.271 OA
ENDBRANCH   6  16
TORSDOF 6
ENDMDL
MODEL 5
REMARK VINA RESULT: -6.356133281      2.756      4.910
REMARK  6 active torsions:
REMARK  status: ('A' for Active; 'I' for Inactive)
REMARK    1  A    between atoms: C1_4  and  C2_6 
REMARK    2  A    between atoms: C2_6  and  C3_7 
REMARK    3  A    between atoms: C3_7  and  C4_8 
REMARK    4  A    between atoms: C4_8  and  O1_9 
REMARK    5  A    between atoms: O1_9  and  C5_10 
REMARK    6  A    between atoms: C8_15  and  C9_16 
ROOT
HETATM    1  C5  UNL     1      19.326  -3.974  13.507  1.00  0.00     0.100 A 
HETATM    2  C6  UNL     1      18.087  -3.880  14.097  1.00  0.00     0.125 A 
HETATM    3  N3  UNL     1      17.454  -2.874  13.442  1.00  0.00    -0.372 N 
ATOM      4  H3  UNL     1      16.507  -2.552  13.643  1.00  0.00     0.164 HD
HETATM    5  C7  UNL     1      18.257  -2.362  12.488  1.00  0.00     0.107 A 
HETATM    6  C8  UNL     1      19.477  -3.050  12.501  1.00  0.00     0.079 A 
ENDROOT
BRANCH   1   7
HETATM    7  O1  UNL     1      20.296  -4.883  13.880  1.00  0.00    -0.349 OA
BRANCH   7   8
HETATM    8  C4  UNL     1      20.398  -6.160  13.287  1.00  0.00     0.176 C 
BRANCH   8   9
HETATM    9  C3  UNL     1      21.822  -6.477  12.903  1.00  0.00     0.034 C 
BRANCH   9  10
HETATM   10  C2  UNL     1      21.806  -6.930  11.455  1.00  0.00     0.074 C 
BRANCH  10  11
HETATM   11  C1  UNL     1      22.980  -6.444  10.699  1.00  0.00     0.086 C 
HETATM   12  N1  UNL     1      23.004  -5.243  10.248  1.00  0.00    -0.391 N 
ATOM     13  H12 UNL     1      23.814  -4.908   9.727  1.00  0.00     0.157 HD
ATOM     14  H11 UNL     1      22.221  -4.606  10.399  1.00  0.00     0.157 HD
HETATM   15  N2  UNL     1      24.065  -7.328  10.489  1.00  0.00    -0.088 NA
ENDBRANCH  10  11
ENDBRANCH   9  10
ENDBRANCH   8   9
ENDBRANCH   7   8
ENDBRANCH   1   7
BRANCH   6  16
HETATM   16  C9  UNL     1      20.632  -2.819  11.635  1.00  0.00     0.269 C 
HETATM   17  N4  UNL     1      20.709  -3.338  10.337  1.00  0.00    -0.057 NA
HETATM   18  O2  UNL     1      21.571  -2.130  12.104  1.00  0.00    -0.271 OA
ENDBRANCH   6  16
TORSDOF 6
ENDMDL
