MODEL 1
REMARK VINA RESULT: -6.547811446      0.000      0.000
REMARK  5 active torsions:
REMARK  status: ('A' for Active; 'I' for Inactive)
REMARK       I    between atoms: C2_2  and  N1_4 
REMARK    1  A    between atoms: N1_4  and  C3_6 
REMARK    2  A    between atoms: C8_11  and  N2_12 
REMARK    3  A    between atoms: N2_12  and  C9_14 
REMARK    4  A    between atoms: C9_14  and  C10_15 
REMARK    5  A    between atoms: C10_15  and  N3_16 
ROOT
HETATM    1  C3  UNL     1      22.140  -6.418  11.663  1.00  0.00     0.061 A 
HETATM    2  C4  UNL     1      22.411  -7.765  11.465  1.00  0.00     0.032 A 
HETATM    3  C5  UNL     1      23.384  -8.164  10.555  1.00  0.00     0.002 A 
HETATM    4  C6  UNL     1      24.086  -7.232   9.843  1.00  0.00     0.002 A 
HETATM    5  C7  UNL     1      23.811  -5.901  10.046  1.00  0.00     0.031 A 
HETATM    6  C8  UNL     1      22.859  -5.448  10.934  1.00  0.00     0.055 A 
ENDROOT
BRANCH   6   7
HETATM    7  N2  UNL     1      22.642  -4.070  11.078  1.00  0.00    -0.387 N 
ATOM      8  H2  UNL     1      22.943  -3.571  11.915  1.00  0.00     0.159 HD
BRANCH   7   9
HETATM    9  C9  UNL     1      21.966  -3.372   9.981  1.00  0.00     0.139 C 
BRANCH   9  10
HETATM   10  C10 UNL     1      20.581  -2.930  10.388  1.00  0.00     0.139 C 
BRANCH  10  11
HETATM   11  N3  UNL     1      20.690  -2.344  11.708  1.00  0.00    -0.386 N 
HETATM   12  C11 UNL     1      19.755  -2.438  12.590  1.00  0.00     0.185 C 
HETATM   13  N4  UNL     1      18.574  -3.146  12.241  1.00  0.00    -0.097 NA
ATOM     14  H3  UNL     1      21.541  -1.837  11.950  1.00  0.00     0.159 HD
ENDBRANCH  10  11
ENDBRANCH   9  10
ENDBRANCH   7   9
ENDBRANCH   6   7
BRANCH   1  15
HETATM   15  N1  UNL     1      21.161  -5.987  12.576  1.00  0.00    -0.326 N 
HETATM   16  C2  UNL     1      20.724  -6.606  13.735  1.00  0.00     0.218 C 
HETATM   17  C1  UNL     1      19.645  -5.976  14.598  1.00  0.00     0.117 C 
HETATM   18  O1  UNL     1      21.139  -7.677  14.172  1.00  0.00    -0.274 OA
ATOM     19  H1  UNL     1      20.712  -5.098  12.354  1.00  0.00     0.169 HD
ENDBRANCH   1  15
TORSDOF 5
ENDMDL
MODEL 2
REMARK VINA RESULT: -6.354004740      2.107      3.910
REMARK  5 active torsions:
REMARK  status: ('A' for Active; 'I' for Inactive)
REMARK       I    between atoms: C2_2  and  N1_4 
REMARK    1  A    between atoms: N1_4  and  C3_6 
REMARK    2  A    between atoms: C8_11  and  N2_12 
REMARK    3  A    between atoms: N2_12  and  C9_14 
REMARK    4  A    between atoms: C9_14  and  C10_15 
REMARK    5  A    between atoms: C10_15  and  N3_16 
ROOT
HETATM    1  C3  UNL     1      22.026  -4.574  10.551  1.00  0.00     0.061 A 
HETATM    2  C4  UNL     1      22.824  -3.761   9.756  1.00  0.00     0.032 A 
HETATM    3  C5  UNL     1      23.948  -4.278   9.121  1.00  0.00     0.002 A 
HETATM    4  C6  UNL     1      24.281  -5.594   9.272  1.00  0.00     0.002 A 
HETATM    5  C7  UNL     1      23.485  -6.391  10.061  1.00  0.00     0.031 A 
HETATM    6  C8  UNL     1      22.361  -5.934  10.714  1.00  0.00     0.055 A 
ENDROOT
BRANCH   6   7
HETATM    7  N2  UNL     1      21.606  -6.817  11.500  1.00  0.00    -0.387 N 
ATOM      8  H2  UNL     1      20.857  -7.379  11.095  1.00  0.00     0.159 HD
BRANCH   7   9
HETATM    9  C9  UNL     1      21.932  -6.903  12.926  1.00  0.00     0.139 C 
BRANCH   9  10
HETATM   10  C10 UNL     1      20.715  -7.261  13.743  1.00  0.00     0.139 C 
BRANCH  10  11
HETATM   11  N3  UNL     1      19.997  -6.030  14.002  1.00  0.00    -0.386 N 
HETATM   12  C11 UNL     1      19.994  -5.457  15.156  1.00  0.00     0.185 C 
HETATM   13  N4  UNL     1      20.727  -6.067  16.208  1.00  0.00    -0.097 NA
ATOM     14  H3  UNL     1      19.472  -5.599  13.240  1.00  0.00     0.159 HD
ENDBRANCH  10  11
ENDBRANCH   9  10
ENDBRANCH   7   9
ENDBRANCH   6   7
BRANCH   1  15
HETATM   15  N1  UNL     1      20.885  -4.077  11.206  1.00  0.00    -0.326 N 
HETATM   16  C2  UNL     1      20.731  -2.888  11.898  1.00  0.00     0.218 C 
HETATM   17  C1  UNL     1      19.405  -2.526  12.543  1.00  0.00     0.117 C 
HETATM   18  O1  UNL     1      21.604  -2.038  12.059  1.00  0.00    -0.274 OA
ATOM     19  H1  UNL     1      20.059  -4.674  11.165  1.00  0.00     0.169 HD
ENDBRANCH   1  15
TORSDOF 5
ENDMDL
MODEL 3
REMARK VINA RESULT: -6.271123257      1.389      1.995
REMARK  5 active torsions:
REMARK  status: ('A' for Active; 'I' for Inactive)
REMARK       I    between atoms: C2_2  and  N1_4 
REMARK    1  A    between atoms: N1_4  and  C3_6 
REMARK    2  A    between atoms: C8_11  and  N2_12 
REMARK    3  A    between atoms: N2_12  and  C9_14 
REMARK    4  A    between atoms: C9_14  and  C10_15 
REMARK    5  A    between atoms: C10_15  and  N3_16 
ROOT
HETATM    1  C3  UNL     1      23.010  -5.444  10.973  1.00  0.00     0.061 A 
HETATM    2  C4  UNL     1      23.696  -6.360  10.186  1.00  0.00     0.032 A 
HETATM    3  C5  UNL     1      24.312  -5.957   9.007  1.00  0.00     0.002 A 
HETATM    4  C6  UNL     1      24.248  -4.653   8.606  1.00  0.00     0.002 A 
HETATM    5  C7  UNL     1      23.567  -3.753   9.391  1.00  0.00     0.031 A 
HETATM    6  C8  UNL     1      22.938  -4.095  10.569  1.00  0.00     0.055 A 
ENDROOT
BRANCH   6   7
HETATM    7  N2  UNL     1      22.263  -3.112  11.308  1.00  0.00    -0.387 N 
ATOM      8  H2  UNL     1      22.719  -2.625  12.080  1.00  0.00     0.159 HD
BRANCH   7   9
HETATM    9  C9  UNL     1      20.880  -2.811  10.931  1.00  0.00     0.139 C 
BRANCH   9  10
HETATM   10  C10 UNL     1      19.982  -2.772  12.143  1.00  0.00     0.139 C 
BRANCH  10  11
HETATM   11  N3  UNL     1      18.688  -2.295  11.700  1.00  0.00    -0.386 N 
HETATM   12  C11 UNL     1      17.603  -2.509  12.363  1.00  0.00     0.185 C 
HETATM   13  N4  UNL     1      17.694  -3.244  13.574  1.00  0.00    -0.097 NA
ATOM     14  H3  UNL     1      18.632  -1.768  10.828  1.00  0.00     0.159 HD
ENDBRANCH  10  11
ENDBRANCH   9  10
ENDBRANCH   7   9
ENDBRANCH   6   7
BRANCH   1  15
HETATM   15  N1  UNL     1      22.378  -5.824  12.170  1.00  0.00    -0.326 N 
HETATM   16  C2  UNL     1      21.381  -6.765  12.363  1.00  0.00     0.218 C 
HETATM   17  C1  UNL     1      20.821  -7.037  13.749  1.00  0.00     0.117 C 
HETATM   18  O1  UNL     1      20.865  -7.450  11.483  1.00  0.00    -0.274 OA
ATOM     19  H1  UNL     1      22.697  -5.341  13.010  1.00  0.00     0.169 HD
ENDBRANCH   1  15
TORSDOF 5
ENDMDL
MODEL 4
REMARK VINA RESULT: -6.266728817      2.267      4.305
REMARK  5 active torsions:
REMARK  status: ('A' for Active; 'I' for Inactive)
REMARK       I    between atoms: C2_2  and  N1_4 
REMARK    1  A    between atoms: N1_4  and  C3_6 
REMARK    2  A    between atoms: C8_11  and  N2_12 
REMARK    3  A    between atoms: N2_12  and  C9_14 
REMARK    4  A    between atoms: C9_14  and  C10_15 
REMARK    5  A    between atoms: C10_15  and  N3_16 
ROOT
HETATM    1  C3  UNL     1      23.080  -5.960  10.905  1.00  0.00     0.061 A 
HETATM    2  C4  UNL     1      23.800  -6.363   9.788  1.00  0.00     0.032 A 
HETATM    3  C5  UNL     1      24.126  -7.702   9.604  1.00  0.00     0.002 A 
HETATM    4  C6  UNL     1      23.742  -8.638  10.521  1.00  0.00     0.002 A 
HETATM    5  C7  UNL     1      23.029  -8.230  11.623  1.00  0.00     0.031 A 
HETATM    6  C8  UNL     1      22.678  -6.918  11.858  1.00  0.00     0.055 A 
ENDROOT
BRANCH   6   7
HETATM    7  N2  UNL     1      21.950  -6.588  13.011  1.00  0.00    -0.387 N 
ATOM      8  H2  UNL     1      22.291  -5.889  13.671  1.00  0.00     0.159 HD
BRANCH   7   9
HETATM    9  C9  UNL     1      20.681  -7.286  13.234  1.00  0.00     0.139 C 
BRANCH   9  10
HETATM   10  C10 UNL     1      20.490  -7.616  14.694  1.00  0.00     0.139 C 
BRANCH  10  11
HETATM   11  N3  UNL     1      19.903  -6.451  15.323  1.00  0.00    -0.386 N 
HETATM   12  C11 UNL     1      20.375  -5.934  16.405  1.00  0.00     0.185 C 
HETATM   13  N4  UNL     1      21.515  -6.540  16.995  1.00  0.00    -0.097 NA
ATOM     14  H3  UNL     1      19.084  -6.022  14.892  1.00  0.00     0.159 HD
ENDBRANCH  10  11
ENDBRANCH   9  10
ENDBRANCH   7   9
ENDBRANCH   6   7
BRANCH   1  15
HETATM   15  N1  UNL     1      22.737  -4.612  11.117  1.00  0.00    -0.326 N 
HETATM   16  C2  UNL     1      21.867  -3.815  10.392  1.00  0.00     0.218 C 
HETATM   17  C1  UNL     1      21.627  -2.367  10.782  1.00  0.00     0.117 C 
HETATM   18  O1  UNL     1      21.227  -4.170   9.405  1.00  0.00    -0.274 OA
ATOM     19  H1  UNL     1      23.190  -4.162  11.912  1.00  0.00     0.169 HD
ENDBRANCH   1  15
TORSDOF 5
ENDMDL
MODEL 5
REMARK VINA RESULT: -6.212762743      2.067      4.035
REMARK  5 active torsions:
REMARK  status: ('A' for Active; 'I' for Inactive)
REMARK       I    between atoms: C2_2  and  N1_4 
REMARK    1  A    between atoms: N1_4  and  C3_6 
REMARK    2  A    between atoms: C8_11  and  N2_12 
REMARK    3  A    between atoms: N2_12  and  C9_14 
REMARK    4  A    between atoms: C9_14  and  C10_15 
REMARK    5  A    between atoms: C10_15  and  N3_16 
ROOT
HETATM    1  C3  UNL     1      23.010  -5.944  10.901  1.00  0.00     0.061 A 
HETATM    2  C4  UNL     1      23.921  -6.367   9.942  1.00  0.00     0.032 A 
HETATM    3  C5  UNL     1      24.215  -7.718   9.794  1.00  0.00     0.002 A 
HETATM    4  C6  UNL     1      23.610  -8.647  10.592  1.00  0.00     0.002 A 
HETATM    5  C7  UNL     1      22.709  -8.218  11.539  1.00  0.00     0.031 A 
HETATM    6  C8  UNL     1      22.379  -6.894  11.730  1.00  0.00     0.055 A 
ENDROOT
BRANCH   6   7
HETATM    7  N2  UNL     1      21.450  -6.545  12.721  1.00  0.00    -0.387 N 
ATOM      8  H2  UNL     1      20.946  -5.658  12.685  1.00  0.00     0.159 HD
BRANCH   7   9
HETATM    9  C9  UNL     1      21.229  -7.499  13.810  1.00  0.00     0.139 C 
BRANCH   9  10
HETATM   10  C10 UNL     1      19.854  -7.333  14.410  1.00  0.00     0.139 C 
BRANCH  10  11
HETATM   11  N3  UNL     1      20.017  -6.618  15.659  1.00  0.00    -0.386 N 
HETATM   12  C11 UNL     1      19.884  -5.339  15.751  1.00  0.00     0.185 C 
HETATM   13  N4  UNL     1      19.566  -4.613  14.573  1.00  0.00    -0.097 NA
ATOM     14  H3  UNL     1      20.247  -7.147  16.500  1.00  0.00     0.159 HD
ENDBRANCH  10  11
ENDBRANCH   9  10
ENDBRANCH   7   9
ENDBRANCH   6   7
BRANCH   1  15
HETATM   15  N1  UNL     1      22.694  -4.584  11.072  1.00  0.00    -0.326 N 
HETATM   16  C2  UNL     1      21.859  -3.785  10.309  1.00  0.00     0.218 C 
HETATM   17  C1  UNL     1      21.645  -2.323  10.659  1.00  0.00     0.117 C 
HETATM   18  O1  UNL     1      21.232  -4.150   9.318  1.00  0.00    -0.274 OA
ATOM     19  H1  UNL     1      23.142  -4.124  11.865  1.00  0.00     0.169 HD
ENDBRANCH   1  15
TORSDOF 5
ENDMDL
