MODEL 1
REMARK VINA RESULT: -6.236225562      0.000      0.000
REMARK  6 active torsions:
REMARK  status: ('A' for Active; 'I' for Inactive)
REMARK    1  A    between atoms: N1_1  and  C1_5 
REMARK    2  A    between atoms: C1_5  and  C2_6 
REMARK    3  A    between atoms: C2_6  and  N2_7 
REMARK    4  A    between atoms: C2_6  and  C7_17 
REMARK    5  A    between atoms: N2_7  and  C3_9 
REMARK    6  A    between atoms: C3_9  and  C4_10 
ROOT
HETATM    1  C2  UNL     1      22.855  -4.753   9.286  1.00  0.00     0.158 C 
ENDROOT
BRANCH   1   2
HETATM    2  C1  UNL     1      24.173  -3.994   9.116  1.00  0.00     0.260 C 
BRANCH   2   3
HETATM    3  N1  UNL     1      24.686  -4.154   7.767  1.00  0.00    -0.077 N 
ATOM      4  H13 UNL     1      24.481  -5.080   7.392  1.00  0.00     0.274 HD
ATOM      5  H12 UNL     1      24.159  -3.597   7.094  1.00  0.00     0.274 HD
ATOM      6  H11 UNL     1      25.683  -3.943   7.733  1.00  0.00     0.274 HD
ENDBRANCH   2   3
ENDBRANCH   1   2
BRANCH   1   7
HETATM    7  N2  UNL     1      21.794  -3.931   9.707  1.00  0.00    -0.385 N 
ATOM      8  H2  UNL     1      20.858  -4.103   9.338  1.00  0.00     0.159 HD
BRANCH   7   9
HETATM    9  C3  UNL     1      21.982  -2.887  10.616  1.00  0.00     0.114 C 
BRANCH   9  10
HETATM   10  C4  UNL     1      20.880  -2.998  11.655  1.00  0.00     0.063 A 
HETATM   11  C5  UNL     1      20.504  -4.128  12.336  1.00  0.00     0.119 A 
HETATM   12  N3  UNL     1      19.497  -3.828  13.168  1.00  0.00    -0.360 N 
HETATM   13  C6  UNL     1      19.244  -2.533  13.013  1.00  0.00     0.180 A 
ATOM     14  H3  UNL     1      19.018  -4.470  13.800  1.00  0.00     0.166 HD
HETATM   15  N4  UNL     1      20.078  -2.017  12.097  1.00  0.00    -0.350 N 
ATOM     16  H4  UNL     1      20.099  -1.045  11.789  1.00  0.00     0.166 HD
ENDBRANCH   9  10
ENDBRANCH   7   9
ENDBRANCH   1   7
BRANCH   1  17
HETATM   17  C7  UNL     1      23.070  -6.030   9.962  1.00  0.00     0.050 A 
HETATM   18  C8  UNL     1      22.294  -6.811  10.771  1.00  0.00     0.116 A 
HETATM   19  N5  UNL     1      22.943  -7.932  11.157  1.00  0.00    -0.360 N 
HETATM   20  C9  UNL     1      24.150  -7.852  10.579  1.00  0.00     0.180 A 
ATOM     21  H5  UNL     1      22.591  -8.678  11.757  1.00  0.00     0.166 HD
HETATM   22  N6  UNL     1      24.248  -6.727   9.862  1.00  0.00    -0.353 N 
ATOM     23  H6  UNL     1      25.066  -6.435   9.328  1.00  0.00     0.166 HD
ENDBRANCH   1  17
TORSDOF 6
ENDMDL
MODEL 2
REMARK VINA RESULT: -6.226366021      1.236      1.549
REMARK  6 active torsions:
REMARK  status: ('A' for Active; 'I' for Inactive)
REMARK    1  A    between atoms: N1_1  and  C1_5 
REMARK    2  A    between atoms: C1_5  and  C2_6 
REMARK    3  A    between atoms: C2_6  and  N2_7 
REMARK    4  A    between atoms: C2_6  and  C7_17 
REMARK    5  A    between atoms: N2_7  and  C3_9 
REMARK    6  A    between atoms: C3_9  and  C4_10 
ROOT
HETATM    1  C2  UNL     1      22.385  -4.379   9.711  1.00  0.00     0.158 C 
ENDROOT
BRANCH   1   2
HETATM    2  C1  UNL     1      23.739  -3.675   9.593  1.00  0.00     0.260 C 
BRANCH   2   3
HETATM    3  N1  UNL     1      24.407  -4.051   8.361  1.00  0.00    -0.077 N 
ATOM      4  H13 UNL     1      25.129  -4.754   8.522  1.00  0.00     0.274 HD
ATOM      5  H12 UNL     1      23.797  -4.596   7.751  1.00  0.00     0.274 HD
ATOM      6  H11 UNL     1      24.777  -3.228   7.886  1.00  0.00     0.274 HD
ENDBRANCH   2   3
ENDBRANCH   1   2
BRANCH   1   7
HETATM    7  N2  UNL     1      21.328  -3.501  10.012  1.00  0.00    -0.385 N 
ATOM      8  H2  UNL     1      20.504  -3.493   9.412  1.00  0.00     0.159 HD
BRANCH   7   9
HETATM    9  C3  UNL     1      21.374  -2.638  11.111  1.00  0.00     0.114 C 
BRANCH   9  10
HETATM   10  C4  UNL     1      19.969  -2.574  11.685  1.00  0.00     0.063 A 
HETATM   11  C5  UNL     1      19.627  -2.480  13.011  1.00  0.00     0.119 A 
HETATM   12  N3  UNL     1      18.291  -2.447  13.121  1.00  0.00    -0.360 N 
HETATM   13  C6  UNL     1      17.802  -2.520  11.887  1.00  0.00     0.180 A 
ATOM     14  H3  UNL     1      17.754  -2.378  13.985  1.00  0.00     0.166 HD
HETATM   15  N4  UNL     1      18.812  -2.598  11.006  1.00  0.00    -0.350 N 
ATOM     16  H4  UNL     1      18.716  -2.663   9.993  1.00  0.00     0.166 HD
ENDBRANCH   9  10
ENDBRANCH   7   9
ENDBRANCH   1   7
BRANCH   1  17
HETATM   17  C7  UNL     1      22.507  -5.623  10.467  1.00  0.00     0.050 A 
HETATM   18  C8  UNL     1      23.183  -6.791  10.255  1.00  0.00     0.116 A 
HETATM   19  N5  UNL     1      22.988  -7.672  11.262  1.00  0.00    -0.360 N 
HETATM   20  C9  UNL     1      22.172  -7.044  12.120  1.00  0.00     0.180 A 
ATOM     21  H5  UNL     1      23.377  -8.611  11.350  1.00  0.00     0.166 HD
HETATM   22  N6  UNL     1      21.872  -5.822  11.667  1.00  0.00    -0.353 N 
ATOM     23  H6  UNL     1      21.269  -5.148  12.138  1.00  0.00     0.166 HD
ENDBRANCH   1  17
TORSDOF 6
ENDMDL
MODEL 3
REMARK VINA RESULT: -6.006589059      1.807      5.672
REMARK  6 active torsions:
REMARK  status: ('A' for Active; 'I' for Inactive)
REMARK    1  A    between atoms: N1_1  and  C1_5 
REMARK    2  A    between atoms: C1_5  and  C2_6 
REMARK    3  A    between atoms: C2_6  and  N2_7 
REMARK    4  A    between atoms: C2_6  and  C7_17 
REMARK    5  A    between atoms: N2_7  and  C3_9 
REMARK    6  A    between atoms: C3_9  and  C4_10 
ROOT
HETATM    1  C2  UNL     1      18.940  -2.479  12.365  1.00  0.00     0.158 C 
ENDROOT
BRANCH   1   2
HETATM    2  C1  UNL     1      17.494  -2.381  11.873  1.00  0.00     0.260 C 
BRANCH   2   3
HETATM    3  N1  UNL     1      17.451  -2.297  10.424  1.00  0.00    -0.077 N 
ATOM      4  H13 UNL     1      18.345  -1.996  10.035  1.00  0.00     0.274 HD
ATOM      5  H12 UNL     1      17.400  -3.220   9.993  1.00  0.00     0.274 HD
ATOM      6  H11 UNL     1      16.684  -1.696  10.121  1.00  0.00     0.274 HD
ENDBRANCH   2   3
ENDBRANCH   1   2
BRANCH   1   7
HETATM    7  N2  UNL     1      19.854  -2.789  11.341  1.00  0.00    -0.385 N 
ATOM      8  H2  UNL     1      19.509  -3.223  10.485  1.00  0.00     0.159 HD
BRANCH   7   9
HETATM    9  C3  UNL     1      21.220  -2.521  11.463  1.00  0.00     0.114 C 
BRANCH   9  10
HETATM   10  C4  UNL     1      21.958  -3.668  10.794  1.00  0.00     0.063 A 
HETATM   11  C5  UNL     1      22.094  -4.948  11.271  1.00  0.00     0.119 A 
HETATM   12  N3  UNL     1      22.811  -5.671  10.399  1.00  0.00    -0.360 N 
HETATM   13  C6  UNL     1      23.121  -4.861   9.392  1.00  0.00     0.180 A 
ATOM     14  H3  UNL     1      23.068  -6.654  10.490  1.00  0.00     0.166 HD
HETATM   15  N4  UNL     1      22.609  -3.642   9.620  1.00  0.00    -0.350 N 
ATOM     16  H4  UNL     1      22.698  -2.832   9.006  1.00  0.00     0.166 HD
ENDBRANCH   9  10
ENDBRANCH   7   9
ENDBRANCH   1   7
BRANCH   1  17
HETATM   17  C7  UNL     1      19.014  -3.215  13.625  1.00  0.00     0.050 A 
HETATM   18  C8  UNL     1      19.344  -4.500  13.948  1.00  0.00     0.116 A 
HETATM   19  N5  UNL     1      19.269  -4.717  15.280  1.00  0.00    -0.360 N 
HETATM   20  C9  UNL     1      18.882  -3.545  15.801  1.00  0.00     0.180 A 
ATOM     21  H5  UNL     1      19.464  -5.585  15.779  1.00  0.00     0.166 HD
HETATM   22  N6  UNL     1      18.725  -2.635  14.835  1.00  0.00    -0.353 N 
ATOM     23  H6  UNL     1      18.436  -1.667  14.974  1.00  0.00     0.166 HD
ENDBRANCH   1  17
TORSDOF 6
ENDMDL
MODEL 4
REMARK VINA RESULT: -5.808336739      1.405      1.960
REMARK  6 active torsions:
REMARK  status: ('A' for Active; 'I' for Inactive)
REMARK    1  A    between atoms: N1_1  and  C1_5 
REMARK    2  A    between atoms: C1_5  and  C2_6 
REMARK    3  A    between atoms: C2_6  and  N2_7 
REMARK    4  A    between atoms: C2_6  and  C7_17 
REMARK    5  A    between atoms: N2_7  and  C3_9 
REMARK    6  A    between atoms: C3_9  and  C4_10 
ROOT
HETATM    1  C2  UNL     1      21.996  -4.107  10.199  1.00  0.00     0.158 C 
ENDROOT
BRANCH   1   2
HETATM    2  C1  UNL     1      23.252  -3.241  10.318  1.00  0.00     0.260 C 
BRANCH   2   3
HETATM    3  N1  UNL     1      24.111  -3.422   9.161  1.00  0.00    -0.077 N 
ATOM      4  H13 UNL     1      23.982  -2.679   8.474  1.00  0.00     0.274 HD
ATOM      5  H12 UNL     1      25.091  -3.251   9.387  1.00  0.00     0.274 HD
ATOM      6  H11 UNL     1      23.973  -4.345   8.752  1.00  0.00     0.274 HD
ENDBRANCH   2   3
ENDBRANCH   1   2
BRANCH   1   7
HETATM    7  N2  UNL     1      20.821  -3.432  10.574  1.00  0.00    -0.385 N 
ATOM      8  H2  UNL     1      19.966  -3.595  10.042  1.00  0.00     0.159 HD
BRANCH   7   9
HETATM    9  C3  UNL     1      20.789  -2.546  11.654  1.00  0.00     0.114 C 
BRANCH   9  10
HETATM   10  C4  UNL     1      19.531  -2.856  12.446  1.00  0.00     0.063 A 
HETATM   11  C5  UNL     1      18.298  -2.272  12.293  1.00  0.00     0.119 A 
HETATM   12  N3  UNL     1      17.441  -2.811  13.172  1.00  0.00    -0.360 N 
HETATM   13  C6  UNL     1      18.123  -3.716  13.866  1.00  0.00     0.180 A 
ATOM     14  H3  UNL     1      16.456  -2.572  13.286  1.00  0.00     0.166 HD
HETATM   15  N4  UNL     1      19.392  -3.753  13.435  1.00  0.00    -0.350 N 
ATOM     16  H4  UNL     1      20.128  -4.360  13.796  1.00  0.00     0.166 HD
ENDBRANCH   9  10
ENDBRANCH   7   9
ENDBRANCH   1   7
BRANCH   1  17
HETATM   17  C7  UNL     1      22.237  -5.451  10.720  1.00  0.00     0.050 A 
HETATM   18  C8  UNL     1      22.896  -6.545  10.236  1.00  0.00     0.116 A 
HETATM   19  N5  UNL     1      22.851  -7.581  11.103  1.00  0.00    -0.360 N 
HETATM   20  C9  UNL     1      22.147  -7.127  12.150  1.00  0.00     0.180 A 
ATOM     21  H5  UNL     1      23.262  -8.507  10.985  1.00  0.00     0.166 HD
HETATM   22  N6  UNL     1      21.771  -5.861  11.944  1.00  0.00    -0.353 N 
ATOM     23  H6  UNL     1      21.227  -5.292  12.592  1.00  0.00     0.166 HD
ENDBRANCH   1  17
TORSDOF 6
ENDMDL
MODEL 5
REMARK VINA RESULT: -5.784199252      2.140      3.684
REMARK  6 active torsions:
REMARK  status: ('A' for Active; 'I' for Inactive)
REMARK    1  A    between atoms: N1_1  and  C1_5 
REMARK    2  A    between atoms: C1_5  and  C2_6 
REMARK    3  A    between atoms: C2_6  and  N2_7 
REMARK    4  A    between atoms: C2_6  and  C7_17 
REMARK    5  A    between atoms: N2_7  and  C3_9 
REMARK    6  A    between atoms: C3_9  and  C4_10 
ROOT
HETATM    1  C2  UNL     1      22.575  -6.365  11.093  1.00  0.00     0.158 C 
ENDROOT
BRANCH   1   2
HETATM    2  C1  UNL     1      22.086  -7.543  10.247  1.00  0.00     0.260 C 
BRANCH   2   3
HETATM    3  N1  UNL     1      23.040  -8.637  10.290  1.00  0.00    -0.077 N 
ATOM      4  H13 UNL     1      23.277  -8.969   9.355  1.00  0.00     0.274 HD
ATOM      5  H12 UNL     1      23.966  -8.320  10.578  1.00  0.00     0.274 HD
ATOM      6  H11 UNL     1      22.697  -9.391  10.885  1.00  0.00     0.274 HD
ENDBRANCH   2   3
ENDBRANCH   1   2
BRANCH   1   7
HETATM    7  N2  UNL     1      21.678  -6.006  12.114  1.00  0.00    -0.385 N 
ATOM      8  H2  UNL     1      21.359  -5.039  12.176  1.00  0.00     0.159 HD
BRANCH   7   9
HETATM    9  C3  UNL     1      21.208  -6.935  13.046  1.00  0.00     0.114 C 
BRANCH   9  10
HETATM   10  C4  UNL     1      20.503  -6.150  14.139  1.00  0.00     0.063 A 
HETATM   11  C5  UNL     1      20.593  -6.362  15.492  1.00  0.00     0.119 A 
HETATM   12  N3  UNL     1      19.828  -5.467  16.132  1.00  0.00    -0.360 N 
HETATM   13  C6  UNL     1      19.265  -4.706  15.198  1.00  0.00     0.180 A 
ATOM     14  H3  UNL     1      19.702  -5.384  17.140  1.00  0.00     0.166 HD
HETATM   15  N4  UNL     1      19.668  -5.111  13.984  1.00  0.00    -0.350 N 
ATOM     16  H4  UNL     1      19.388  -4.700  13.094  1.00  0.00     0.166 HD
ENDBRANCH   9  10
ENDBRANCH   7   9
ENDBRANCH   1   7
BRANCH   1  17
HETATM   17  C7  UNL     1      23.142  -5.316  10.249  1.00  0.00     0.050 A 
HETATM   18  C8  UNL     1      23.000  -3.957  10.211  1.00  0.00     0.116 A 
HETATM   19  N5  UNL     1      23.749  -3.403   9.232  1.00  0.00    -0.360 N 
HETATM   20  C9  UNL     1      24.371  -4.435   8.643  1.00  0.00     0.180 A 
ATOM     21  H5  UNL     1      23.825  -2.414   8.993  1.00  0.00     0.166 HD
HETATM   22  N6  UNL     1      24.025  -5.583   9.232  1.00  0.00    -0.353 N 
ATOM     23  H6  UNL     1      24.362  -6.509   8.969  1.00  0.00     0.166 HD
ENDBRANCH   1  17
TORSDOF 6
ENDMDL
