MODEL 1
REMARK VINA RESULT: -7.673126763      0.000      0.000
REMARK  7 active torsions:
REMARK  status: ('A' for Active; 'I' for Inactive)
REMARK    1  A    between atoms: N1_1  and  O1_4 
REMARK    2  A    between atoms: O1_4  and  C1_5 
REMARK    3  A    between atoms: C1_5  and  N2_6 
REMARK    4  A    between atoms: N2_6  and  C2_8 
REMARK    5  A    between atoms: C2_8  and  C3_9 
REMARK    6  A    between atoms: C2_8  and  C10_16 
REMARK    7  A    between atoms: C3_9  and  C4_10 
ROOT
HETATM    1  C2  UNL     1      21.634  -4.056  10.703  1.00  0.00     0.095 C 
ENDROOT
BRANCH   1   2
HETATM    2  N2  UNL     1      22.382  -3.537   9.658  1.00  0.00    -0.341 N 
ATOM      3  H2  UNL     1      21.867  -3.082   8.903  1.00  0.00     0.167 HD
BRANCH   2   4
HETATM    4  C1  UNL     1      23.775  -3.579   9.540  1.00  0.00     0.259 C 
BRANCH   4   5
HETATM    5  O1  UNL     1      24.027  -4.456   8.433  1.00  0.00    -0.240 OA
BRANCH   5   6
HETATM    6  N1  UNL     1      25.007  -4.009   7.664  1.00  0.00    -0.305 N 
ATOM      7  H12 UNL     1      24.956  -3.992   6.646  1.00  0.00     0.184 HD
ATOM      8  H11 UNL     1      25.805  -3.688   8.214  1.00  0.00     0.184 HD
ENDBRANCH   5   6
ENDBRANCH   4   5
ENDBRANCH   2   4
ENDBRANCH   1   2
BRANCH   1   9
HETATM    9  C3  UNL     1      21.957  -5.339  11.313  1.00  0.00     0.012 C 
BRANCH   9  10
HETATM   10  C4  UNL     1      22.673  -6.422  10.664  1.00  0.00     0.010 C 
HETATM   11  C5  UNL     1      21.753  -7.641  10.437  1.00  0.00     0.008 C 
HETATM   12  C6  UNL     1      22.603  -8.719   9.801  1.00  0.00     0.001 C 
HETATM   13  C7  UNL     1      23.766  -9.122  10.645  1.00  0.00     0.000 C 
HETATM   14  C8  UNL     1      24.630  -7.887  10.878  1.00  0.00     0.001 C 
HETATM   15  C9  UNL     1      23.767  -6.902  11.583  1.00  0.00     0.008 C 
ENDBRANCH   9  10
ENDBRANCH   1   9
BRANCH   1  16
HETATM   16  C10 UNL     1      21.146  -3.090  11.678  1.00  0.00     0.281 C 
HETATM   17  N3  UNL     1      20.099  -3.790  12.507  1.00  0.00    -0.056 NA
HETATM   18  O2  UNL     1      21.307  -1.990  11.927  1.00  0.00    -0.269 OA
ENDBRANCH   1  16
TORSDOF 7
ENDMDL
MODEL 2
REMARK VINA RESULT: -7.479781586      1.078      1.645
REMARK  7 active torsions:
REMARK  status: ('A' for Active; 'I' for Inactive)
REMARK    1  A    between atoms: N1_1  and  O1_4 
REMARK    2  A    between atoms: O1_4  and  C1_5 
REMARK    3  A    between atoms: C1_5  and  N2_6 
REMARK    4  A    between atoms: N2_6  and  C2_8 
REMARK    5  A    between atoms: C2_8  and  C3_9 
REMARK    6  A    between atoms: C2_8  and  C10_16 
REMARK    7  A    between atoms: C3_9  and  C4_10 
ROOT
HETATM    1  C2  UNL     1      21.835  -4.510  11.154  1.00  0.00     0.095 C 
ENDROOT
BRANCH   1   2
HETATM    2  N2  UNL     1      22.900  -3.965  10.455  1.00  0.00    -0.341 N 
ATOM      3  H2  UNL     1      23.533  -3.357  10.976  1.00  0.00     0.167 HD
BRANCH   2   4
HETATM    4  C1  UNL     1      23.189  -4.169   9.101  1.00  0.00     0.259 C 
BRANCH   4   5
HETATM    5  O1  UNL     1      24.598  -3.927   8.984  1.00  0.00    -0.240 OA
BRANCH   5   6
HETATM    6  N1  UNL     1      25.011  -4.024   7.729  1.00  0.00    -0.305 N 
ATOM      7  H12 UNL     1      24.983  -3.247   7.069  1.00  0.00     0.184 HD
ATOM      8  H11 UNL     1      25.355  -4.960   7.515  1.00  0.00     0.184 HD
ENDBRANCH   5   6
ENDBRANCH   4   5
ENDBRANCH   2   4
ENDBRANCH   1   2
BRANCH   1   9
HETATM    9  C3  UNL     1      21.994  -5.689  11.995  1.00  0.00     0.012 C 
BRANCH   9  10
HETATM   10  C4  UNL     1      22.459  -6.988  11.543  1.00  0.00     0.010 C 
HETATM   11  C5  UNL     1      23.994  -7.006  11.389  1.00  0.00     0.008 C 
HETATM   12  C6  UNL     1      24.366  -8.381  10.875  1.00  0.00     0.001 C 
HETATM   13  C7  UNL     1      23.728  -8.709   9.566  1.00  0.00     0.000 C 
HETATM   14  C8  UNL     1      22.216  -8.644   9.749  1.00  0.00     0.001 C 
HETATM   15  C9  UNL     1      21.906  -7.251  10.165  1.00  0.00     0.008 C 
ENDBRANCH   9  10
ENDBRANCH   1   9
BRANCH   1  16
HETATM   16  C10 UNL     1      20.886  -3.557  11.715  1.00  0.00     0.281 C 
HETATM   17  N3  UNL     1      21.582  -2.221  11.771  1.00  0.00    -0.056 NA
HETATM   18  O2  UNL     1      19.831  -3.574  12.145  1.00  0.00    -0.269 OA
ENDBRANCH   1  16
TORSDOF 7
ENDMDL
MODEL 3
REMARK VINA RESULT: -6.953633117      2.312      3.366
REMARK  7 active torsions:
REMARK  status: ('A' for Active; 'I' for Inactive)
REMARK    1  A    between atoms: N1_1  and  O1_4 
REMARK    2  A    between atoms: O1_4  and  C1_5 
REMARK    3  A    between atoms: C1_5  and  N2_6 
REMARK    4  A    between atoms: N2_6  and  C2_8 
REMARK    5  A    between atoms: C2_8  and  C3_9 
REMARK    6  A    between atoms: C2_8  and  C10_16 
REMARK    7  A    between atoms: C3_9  and  C4_10 
ROOT
HETATM    1  C2  UNL     1      20.828  -3.283  10.311  1.00  0.00     0.095 C 
ENDROOT
BRANCH   1   2
HETATM    2  N2  UNL     1      20.047  -2.563   9.421  1.00  0.00    -0.341 N 
ATOM      3  H2  UNL     1      20.319  -1.595   9.246  1.00  0.00     0.167 HD
BRANCH   2   4
HETATM    4  C1  UNL     1      18.921  -3.038   8.740  1.00  0.00     0.259 C 
BRANCH   4   5
HETATM    5  O1  UNL     1      17.843  -2.199   9.178  1.00  0.00    -0.240 OA
BRANCH   5   6
HETATM    6  N1  UNL     1      17.510  -2.443  10.436  1.00  0.00    -0.305 N 
ATOM      7  H12 UNL     1      18.021  -3.091  11.035  1.00  0.00     0.184 HD
ATOM      8  H11 UNL     1      16.690  -1.907  10.722  1.00  0.00     0.184 HD
ENDBRANCH   5   6
ENDBRANCH   4   5
ENDBRANCH   2   4
ENDBRANCH   1   2
BRANCH   1   9
HETATM    9  C3  UNL     1      22.068  -3.926   9.897  1.00  0.00     0.012 C 
BRANCH   9  10
HETATM   10  C4  UNL     1      22.365  -5.340  10.026  1.00  0.00     0.010 C 
HETATM   11  C5  UNL     1      22.290  -5.794  11.499  1.00  0.00     0.008 C 
HETATM   12  C6  UNL     1      22.656  -7.262  11.525  1.00  0.00     0.001 C 
HETATM   13  C7  UNL     1      24.022  -7.534  10.987  1.00  0.00     0.000 C 
HETATM   14  C8  UNL     1      24.068  -7.040   9.545  1.00  0.00     0.001 C 
HETATM   15  C9  UNL     1      23.790  -5.580   9.596  1.00  0.00     0.008 C 
ENDBRANCH   9  10
ENDBRANCH   1   9
BRANCH   1  16
HETATM   16  C10 UNL     1      20.910  -2.748  11.664  1.00  0.00     0.281 C 
HETATM   17  N3  UNL     1      19.805  -3.392  12.462  1.00  0.00    -0.056 NA
HETATM   18  O2  UNL     1      21.528  -1.974  12.227  1.00  0.00    -0.269 OA
ENDBRANCH   1  16
TORSDOF 7
ENDMDL
MODEL 4
REMARK VINA RESULT: -6.862908109      1.308      3.472
REMARK  7 active torsions:
REMARK  status: ('A' for Active; 'I' for Inactive)
REMARK    1  A    between atoms: N1_1  and  O1_4 
REMARK    2  A    between atoms: O1_4  and  C1_5 
REMARK    3  A    between atoms: C1_5  and  N2_6 
REMARK    4  A    between atoms: N2_6  and  C2_8 
REMARK    5  A    between atoms: C2_8  and  C3_9 
REMARK    6  A    between atoms: C2_8  and  C10_16 
REMARK    7  A    between atoms: C3_9  and  C4_10 
ROOT
HETATM    1  C2  UNL     1      22.035  -3.900  10.963  1.00  0.00     0.095 C 
ENDROOT
BRANCH   1   2
HETATM    2  N2  UNL     1      20.905  -3.100  10.988  1.00  0.00    -0.341 N 
ATOM      3  H2  UNL     1      20.570  -2.744  10.092  1.00  0.00     0.167 HD
BRANCH   2   4
HETATM    4  C1  UNL     1      20.178  -2.734  12.126  1.00  0.00     0.259 C 
BRANCH   4   5
HETATM    5  O1  UNL     1      18.804  -2.774  11.717  1.00  0.00    -0.240 OA
BRANCH   5   6
HETATM    6  N1  UNL     1      18.079  -1.854  12.334  1.00  0.00    -0.305 N 
ATOM      7  H12 UNL     1      17.399  -1.263  11.856  1.00  0.00     0.184 HD
ATOM      8  H11 UNL     1      18.287  -1.815  13.333  1.00  0.00     0.184 HD
ENDBRANCH   5   6
ENDBRANCH   4   5
ENDBRANCH   2   4
ENDBRANCH   1   2
BRANCH   1   9
HETATM    9  C3  UNL     1      21.993  -5.300  11.364  1.00  0.00     0.012 C 
BRANCH   9  10
HETATM   10  C4  UNL     1      22.695  -6.385  10.704  1.00  0.00     0.010 C 
HETATM   11  C5  UNL     1      21.760  -7.591  10.468  1.00  0.00     0.008 C 
HETATM   12  C6  UNL     1      22.596  -8.673   9.819  1.00  0.00     0.001 C 
HETATM   13  C7  UNL     1      23.756  -9.097  10.657  1.00  0.00     0.000 C 
HETATM   14  C8  UNL     1      24.635  -7.875  10.899  1.00  0.00     0.001 C 
HETATM   15  C9  UNL     1      23.786  -6.887  11.616  1.00  0.00     0.008 C 
ENDBRANCH   9  10
ENDBRANCH   1   9
BRANCH   1  16
HETATM   16  C10 UNL     1      22.953  -3.673   9.854  1.00  0.00     0.281 C 
HETATM   17  N3  UNL     1      22.391  -4.404   8.660  1.00  0.00    -0.056 NA
HETATM   18  O2  UNL     1      23.953  -3.157   9.681  1.00  0.00    -0.269 OA
ENDBRANCH   1  16
TORSDOF 7
ENDMDL
MODEL 5
REMARK VINA RESULT: -6.638124809      2.152      2.951
REMARK  7 active torsions:
REMARK  status: ('A' for Active; 'I' for Inactive)
REMARK    1  A    between atoms: N1_1  and  O1_4 
REMARK    2  A    between atoms: O1_4  and  C1_5 
REMARK    3  A    between atoms: C1_5  and  N2_6 
REMARK    4  A    between atoms: N2_6  and  C2_8 
REMARK    5  A    between atoms: C2_8  and  C3_9 
REMARK    6  A    between atoms: C2_8  and  C10_16 
REMARK    7  A    between atoms: C3_9  and  C4_10 
ROOT
HETATM    1  C2  UNL     1      21.120  -3.527  10.336  1.00  0.00     0.095 C 
ENDROOT
BRANCH   1   2
HETATM    2  N2  UNL     1      20.322  -2.879   9.407  1.00  0.00    -0.341 N 
ATOM      3  H2  UNL     1      20.797  -2.422   8.628  1.00  0.00     0.167 HD
BRANCH   2   4
HETATM    4  C1  UNL     1      18.926  -2.791   9.438  1.00  0.00     0.259 C 
BRANCH   4   5
HETATM    5  O1  UNL     1      18.554  -2.370   8.118  1.00  0.00    -0.240 OA
BRANCH   5   6
HETATM    6  N1  UNL     1      19.019  -3.191   7.190  1.00  0.00    -0.305 N 
ATOM      7  H12 UNL     1      18.911  -4.204   7.234  1.00  0.00     0.184 HD
ATOM      8  H11 UNL     1      19.490  -2.687   6.438  1.00  0.00     0.184 HD
ENDBRANCH   5   6
ENDBRANCH   4   5
ENDBRANCH   2   4
ENDBRANCH   1   2
BRANCH   1   9
HETATM    9  C3  UNL     1      22.389  -4.139   9.963  1.00  0.00     0.012 C 
BRANCH   9  10
HETATM   10  C4  UNL     1      22.978  -5.305  10.595  1.00  0.00     0.010 C 
HETATM   11  C5  UNL     1      23.915  -6.052   9.622  1.00  0.00     0.008 C 
HETATM   12  C6  UNL     1      24.437  -7.265  10.362  1.00  0.00     0.001 C 
HETATM   13  C7  UNL     1      23.353  -8.185  10.816  1.00  0.00     0.000 C 
HETATM   14  C8  UNL     1      22.429  -7.403  11.744  1.00  0.00     0.001 C 
HETATM   15  C9  UNL     1      21.881  -6.281  10.936  1.00  0.00     0.008 C 
ENDBRANCH   9  10
ENDBRANCH   1   9
BRANCH   1  16
HETATM   16  C10 UNL     1      21.168  -2.928  11.664  1.00  0.00     0.281 C 
HETATM   17  N3  UNL     1      20.289  -3.766  12.557  1.00  0.00    -0.056 NA
HETATM   18  O2  UNL     1      21.632  -2.013  12.159  1.00  0.00    -0.269 OA
ENDBRANCH   1  16
TORSDOF 7
ENDMDL
