MODEL 1
REMARK VINA RESULT: -4.897096925      0.000      0.000
REMARK  3 active torsions:
REMARK  status: ('A' for Active; 'I' for Inactive)
REMARK    1  A    between atoms: O1_2  and  N1_3 
REMARK    2  A    between atoms: C2_5  and  N2_6 
REMARK    3  A    between atoms: N2_6  and  C3_8 
ROOT
HETATM    1  C3  UNL     1      27.387  23.113  -9.669  1.00  0.00     0.157 A 
HETATM    2  N3  UNL     1      26.163  22.609  -9.628  1.00  0.00    -0.321 N 
ATOM      3  H3  UNL     1      25.947  21.767 -10.162  1.00  0.00     0.169 HD
HETATM    4  C4  UNL     1      25.224  23.180  -8.907  1.00  0.00     0.151 A 
HETATM    5  S1  UNL     1      23.644  22.642  -8.771  1.00  0.00    -0.052 SA
HETATM    6  S2  UNL     1      25.668  24.584  -8.043  1.00  0.00    -0.020 SA
HETATM    7  S3  UNL     1      27.643  24.525  -8.738  1.00  0.00    -0.014 SA
ENDROOT
BRANCH   1   8
HETATM    8  N2  UNL     1      28.412  22.618 -10.364  1.00  0.00    -0.331 N 
ATOM      9  H2  UNL     1      29.257  22.336  -9.866  1.00  0.00     0.168 HD
BRANCH   8  10
HETATM   10  C2  UNL     1      28.363  22.474 -11.755  1.00  0.00     0.206 C 
HETATM   11  N1  UNL     1      29.125  23.258 -12.466  1.00  0.00    -0.263 N 
ATOM     12  H1  UNL     1      29.717  23.934 -11.983  1.00  0.00     0.195 HD
BRANCH  11  13
HETATM   13  O1  UNL     1      29.163  23.211 -13.837  1.00  0.00    -0.284 OA
HETATM   14  C1  UNL     1      29.845  24.175 -14.572  1.00  0.00     0.237 C 
ENDBRANCH  11  13
ENDBRANCH   8  10
ENDBRANCH   1   8
TORSDOF 3
ENDMDL
MODEL 2
REMARK VINA RESULT: -4.713598165      1.123      1.758
REMARK  3 active torsions:
REMARK  status: ('A' for Active; 'I' for Inactive)
REMARK    1  A    between atoms: O1_2  and  N1_3 
REMARK    2  A    between atoms: C2_5  and  N2_6 
REMARK    3  A    between atoms: N2_6  and  C3_8 
ROOT
HETATM    1  C3  UNL     1      26.843  22.626  -9.856  1.00  0.00     0.157 A 
HETATM    2  N3  UNL     1      26.623  23.545  -8.927  1.00  0.00    -0.321 N 
ATOM      3  H3  UNL     1      27.402  24.099  -8.572  1.00  0.00     0.169 HD
HETATM    4  C4  UNL     1      25.412  23.751  -8.458  1.00  0.00     0.151 A 
HETATM    5  S1  UNL     1      25.005  24.878  -7.290  1.00  0.00    -0.052 SA
HETATM    6  S2  UNL     1      24.165  22.783  -9.105  1.00  0.00    -0.020 SA
HETATM    7  S3  UNL     1      25.469  21.754 -10.381  1.00  0.00    -0.014 SA
ENDROOT
BRANCH   1   8
HETATM    8  N2  UNL     1      28.025  22.334 -10.401  1.00  0.00    -0.331 N 
ATOM      9  H2  UNL     1      28.832  22.204  -9.791  1.00  0.00     0.168 HD
BRANCH   8  10
HETATM   10  C2  UNL     1      28.189  22.200 -11.784  1.00  0.00     0.206 C 
HETATM   11  N1  UNL     1      28.953  23.068 -12.384  1.00  0.00    -0.263 N 
ATOM     12  H1  UNL     1      29.393  23.800 -11.826  1.00  0.00     0.195 HD
BRANCH  11  13
HETATM   13  O1  UNL     1      29.190  23.040 -13.735  1.00  0.00    -0.284 OA
HETATM   14  C1  UNL     1      29.825  24.098 -14.378  1.00  0.00     0.237 C 
ENDBRANCH  11  13
ENDBRANCH   8  10
ENDBRANCH   1   8
TORSDOF 3
ENDMDL
MODEL 3
REMARK VINA RESULT: -4.698909677      4.449      5.531
REMARK  3 active torsions:
REMARK  status: ('A' for Active; 'I' for Inactive)
REMARK    1  A    between atoms: O1_2  and  N1_3 
REMARK    2  A    between atoms: C2_5  and  N2_6 
REMARK    3  A    between atoms: N2_6  and  C3_8 
ROOT
HETATM    1  C3  UNL     1      23.652  24.955  -6.931  1.00  0.00     0.157 A 
HETATM    2  N3  UNL     1      24.963  25.126  -6.857  1.00  0.00    -0.321 N 
ATOM      3  H3  UNL     1      25.578  24.559  -7.440  1.00  0.00     0.169 HD
HETATM    4  C4  UNL     1      25.480  26.020  -6.043  1.00  0.00     0.151 A 
HETATM    5  S1  UNL     1      27.114  26.332  -5.859  1.00  0.00    -0.052 SA
HETATM    6  S2  UNL     1      24.381  26.928  -5.105  1.00  0.00    -0.020 SA
HETATM    7  S3  UNL     1      22.711  25.957  -5.913  1.00  0.00    -0.014 SA
ENDROOT
BRANCH   1   8
HETATM    8  N2  UNL     1      23.021  24.082  -7.718  1.00  0.00    -0.331 N 
ATOM      9  H2  UNL     1      22.018  24.188  -7.870  1.00  0.00     0.168 HD
BRANCH   8  10
HETATM   10  C2  UNL     1      23.695  23.025  -8.340  1.00  0.00     0.206 C 
HETATM   11  N1  UNL     1      23.469  22.835  -9.609  1.00  0.00    -0.263 N 
ATOM     12  H1  UNL     1      22.818  23.457 -10.089  1.00  0.00     0.195 HD
BRANCH  11  13
HETATM   13  O1  UNL     1      24.070  21.832 -10.328  1.00  0.00    -0.284 OA
HETATM   14  C1  UNL     1      25.454  21.697 -10.359  1.00  0.00     0.237 C 
ENDBRANCH  11  13
ENDBRANCH   8  10
ENDBRANCH   1   8
TORSDOF 3
ENDMDL
MODEL 4
REMARK VINA RESULT: -4.686355610      4.165      5.473
REMARK  3 active torsions:
REMARK  status: ('A' for Active; 'I' for Inactive)
REMARK    1  A    between atoms: O1_2  and  N1_3 
REMARK    2  A    between atoms: C2_5  and  N2_6 
REMARK    3  A    between atoms: N2_6  and  C3_8 
ROOT
HETATM    1  C3  UNL     1      23.986  24.884  -6.890  1.00  0.00     0.157 A 
HETATM    2  N3  UNL     1      23.582  25.641  -5.881  1.00  0.00    -0.321 N 
ATOM      3  H3  UNL     1      22.603  25.619  -5.596  1.00  0.00     0.169 HD
HETATM    4  C4  UNL     1      24.428  26.420  -5.244  1.00  0.00     0.151 A 
HETATM    5  S1  UNL     1      24.044  27.420  -3.958  1.00  0.00    -0.052 SA
HETATM    6  S2  UNL     1      26.047  26.396  -5.784  1.00  0.00    -0.020 SA
HETATM    7  S3  UNL     1      25.645  24.995  -7.288  1.00  0.00    -0.014 SA
ENDROOT
BRANCH   1   8
HETATM    8  N2  UNL     1      23.217  24.060  -7.605  1.00  0.00    -0.331 N 
ATOM      9  H2  UNL     1      22.214  24.238  -7.656  1.00  0.00     0.168 HD
BRANCH   8  10
HETATM   10  C2  UNL     1      23.747  22.958  -8.285  1.00  0.00     0.206 C 
HETATM   11  N1  UNL     1      23.600  22.925  -9.580  1.00  0.00    -0.263 N 
ATOM     12  H1  UNL     1      23.111  23.695 -10.036  1.00  0.00     0.195 HD
BRANCH  11  13
HETATM   13  O1  UNL     1      24.076  21.898 -10.355  1.00  0.00    -0.284 OA
HETATM   14  C1  UNL     1      25.440  21.647 -10.462  1.00  0.00     0.237 C 
ENDBRANCH  11  13
ENDBRANCH   8  10
ENDBRANCH   1   8
TORSDOF 3
ENDMDL
MODEL 5
REMARK VINA RESULT: -4.665147360      4.561      6.720
REMARK  3 active torsions:
REMARK  status: ('A' for Active; 'I' for Inactive)
REMARK    1  A    between atoms: O1_2  and  N1_3 
REMARK    2  A    between atoms: C2_5  and  N2_6 
REMARK    3  A    between atoms: N2_6  and  C3_8 
ROOT
HETATM    1  C3  UNL     1      24.505  23.490  -8.664  1.00  0.00     0.157 A 
HETATM    2  N3  UNL     1      25.726  23.989  -8.540  1.00  0.00    -0.321 N 
ATOM      3  H3  UNL     1      25.887  24.774  -7.909  1.00  0.00     0.169 HD
HETATM    4  C4  UNL     1      26.731  23.484  -9.220  1.00  0.00     0.151 A 
HETATM    5  S1  UNL     1      28.315  24.022  -9.151  1.00  0.00    -0.052 SA
HETATM    6  S2  UNL     1      26.376  22.172 -10.252  1.00  0.00    -0.020 SA
HETATM    7  S3  UNL     1      24.344  22.175  -9.746  1.00  0.00    -0.014 SA
ENDROOT
BRANCH   1   8
HETATM    8  N2  UNL     1      23.416  23.921  -8.025  1.00  0.00    -0.331 N 
ATOM      9  H2  UNL     1      22.501  23.591  -8.330  1.00  0.00     0.168 HD
BRANCH   8  10
HETATM   10  C2  UNL     1      23.494  24.814  -6.950  1.00  0.00     0.206 C 
HETATM   11  N1  UNL     1      22.408  25.458  -6.627  1.00  0.00    -0.263 N 
ATOM     12  H1  UNL     1      21.559  25.287  -7.165  1.00  0.00     0.195 HD
BRANCH  11  13
HETATM   13  O1  UNL     1      22.360  26.358  -5.592  1.00  0.00    -0.284 OA
HETATM   14  C1  UNL     1      23.487  27.080  -5.212  1.00  0.00     0.237 C 
ENDBRANCH  11  13
ENDBRANCH   8  10
ENDBRANCH   1   8
TORSDOF 3
ENDMDL
