MODEL 1
REMARK VINA RESULT: -6.627159361      0.000      0.000
REMARK  3 active torsions:
REMARK  status: ('A' for Active; 'I' for Inactive)
REMARK    1  A    between atoms: S1_3  and  C2_4 
REMARK    2  A    between atoms: C2_4  and  C3_5 
REMARK    3  A    between atoms: C4_7  and  O2_8 
ROOT
HETATM    1  N1  UNL     1      22.450  25.913  -6.232  1.00  0.00    -0.184 NA
HETATM    2  C1  UNL     1      23.546  25.550  -6.135  1.00  0.00     0.134 C 
HETATM    3  S1  UNL     1      25.238  25.021  -5.994  1.00  0.00    -0.044 SA
ENDROOT
BRANCH   3   4
HETATM    4  C2  UNL     1      25.947  25.009  -7.635  1.00  0.00     0.158 C 
BRANCH   4   5
HETATM    5  C3  UNL     1      25.419  23.909  -8.485  1.00  0.00     0.100 A 
HETATM    6  O1  UNL     1      24.206  23.512  -8.738  1.00  0.00    -0.288 OA
HETATM    7  C4  UNL     1      24.170  22.487  -9.546  1.00  0.00     0.192 A 
HETATM    8  C5  UNL     1      25.466  22.149  -9.880  1.00  0.00     0.036 A 
HETATM    9  C6  UNL     1      26.258  23.056  -9.207  1.00  0.00     0.110 A 
HETATM   10  C9  UNL     1      26.132  21.115 -10.724  1.00  0.00     0.048 C 
HETATM   11  O3  UNL     1      27.629  22.988  -9.338  1.00  0.00    -0.348 OA
HETATM   12  C7  UNL     1      28.293  22.264 -10.352  1.00  0.00     0.176 C 
HETATM   13  C8  UNL     1      27.339  21.735 -11.380  1.00  0.00     0.031 C 
BRANCH   7  14
HETATM   14  O2  UNL     1      23.061  21.813 -10.028  1.00  0.00    -0.340 OA
ATOM     15  H2  UNL     1      23.035  21.073 -10.624  1.00  0.00     0.220 HD
ENDBRANCH   7  14
ENDBRANCH   4   5
ENDBRANCH   3   4
TORSDOF 3
ENDMDL
MODEL 2
REMARK VINA RESULT: -6.530308858      1.140      1.140
REMARK  3 active torsions:
REMARK  status: ('A' for Active; 'I' for Inactive)
REMARK    1  A    between atoms: S1_3  and  C2_4 
REMARK    2  A    between atoms: C2_4  and  C3_5 
REMARK    3  A    between atoms: C4_7  and  O2_8 
ROOT
HETATM    1  N1  UNL     1      25.329  27.077  -4.489  1.00  0.00    -0.184 NA
HETATM    2  C1  UNL     1      24.882  26.351  -5.274  1.00  0.00     0.134 C 
HETATM    3  S1  UNL     1      24.216  25.214  -6.468  1.00  0.00    -0.044 SA
ENDROOT
BRANCH   3   4
HETATM    4  C2  UNL     1      25.492  24.874  -7.673  1.00  0.00     0.158 C 
BRANCH   4   5
HETATM    5  C3  UNL     1      25.146  23.748  -8.580  1.00  0.00     0.100 A 
HETATM    6  O1  UNL     1      24.002  23.242  -8.939  1.00  0.00    -0.288 OA
HETATM    7  C4  UNL     1      24.133  22.237  -9.763  1.00  0.00     0.192 A 
HETATM    8  C5  UNL     1      25.480  22.033  -9.991  1.00  0.00     0.036 A 
HETATM    9  C6  UNL     1      26.121  22.996  -9.240  1.00  0.00     0.110 A 
HETATM   10  C9  UNL     1      26.311  21.088 -10.791  1.00  0.00     0.048 C 
HETATM   11  O3  UNL     1      27.499  23.064  -9.257  1.00  0.00    -0.348 OA
HETATM   12  C7  UNL     1      28.311  22.430 -10.222  1.00  0.00     0.176 C 
HETATM   13  C8  UNL     1      27.501  21.835 -11.334  1.00  0.00     0.031 C 
BRANCH   7  14
HETATM   14  O2  UNL     1      23.140  21.470 -10.346  1.00  0.00    -0.340 OA
ATOM     15  H2  UNL     1      22.421  21.757 -10.896  1.00  0.00     0.220 HD
ENDBRANCH   7  14
ENDBRANCH   4   5
ENDBRANCH   3   4
TORSDOF 3
ENDMDL
MODEL 3
REMARK VINA RESULT: -6.401952336      3.474      5.135
REMARK  3 active torsions:
REMARK  status: ('A' for Active; 'I' for Inactive)
REMARK    1  A    between atoms: S1_3  and  C2_4 
REMARK    2  A    between atoms: C2_4  and  C3_5 
REMARK    3  A    between atoms: C4_7  and  O2_8 
ROOT
HETATM    1  N1  UNL     1      28.819  22.393 -13.209  1.00  0.00    -0.184 NA
HETATM    2  C1  UNL     1      28.327  22.029 -12.226  1.00  0.00     0.134 C 
HETATM    3  S1  UNL     1      27.545  21.487 -10.723  1.00  0.00    -0.044 SA
ENDROOT
BRANCH   3   4
HETATM    4  C2  UNL     1      27.490  22.878  -9.602  1.00  0.00     0.158 C 
BRANCH   4   5
HETATM    5  C3  UNL     1      26.108  23.216  -9.166  1.00  0.00     0.100 A 
HETATM    6  O1  UNL     1      24.946  22.769  -9.543  1.00  0.00    -0.288 OA
HETATM    7  C4  UNL     1      23.958  23.339  -8.906  1.00  0.00     0.192 A 
HETATM    8  C5  UNL     1      24.483  24.255  -8.016  1.00  0.00     0.036 A 
HETATM    9  C6  UNL     1      25.850  24.172  -8.181  1.00  0.00     0.110 A 
HETATM   10  C9  UNL     1      23.947  25.222  -7.015  1.00  0.00     0.048 C 
HETATM   11  O3  UNL     1      26.675  24.972  -7.418  1.00  0.00    -0.348 OA
HETATM   12  C7  UNL     1      26.262  25.652  -6.252  1.00  0.00     0.176 C 
HETATM   13  C8  UNL     1      24.879  25.256  -5.831  1.00  0.00     0.031 C 
BRANCH   7  14
HETATM   14  O2  UNL     1      22.600  23.110  -9.046  1.00  0.00    -0.340 OA
ATOM     15  H2  UNL     1      21.878  23.621  -8.702  1.00  0.00     0.220 HD
ENDBRANCH   7  14
ENDBRANCH   4   5
ENDBRANCH   3   4
TORSDOF 3
ENDMDL
MODEL 4
REMARK VINA RESULT: -6.386774261      1.433      2.864
REMARK  3 active torsions:
REMARK  status: ('A' for Active; 'I' for Inactive)
REMARK    1  A    between atoms: S1_3  and  C2_4 
REMARK    2  A    between atoms: C2_4  and  C3_5 
REMARK    3  A    between atoms: C4_7  and  O2_8 
ROOT
HETATM    1  N1  UNL     1      23.222  27.458  -5.095  1.00  0.00    -0.184 NA
HETATM    2  C1  UNL     1      24.106  26.765  -5.379  1.00  0.00     0.134 C 
HETATM    3  S1  UNL     1      25.469  25.719  -5.841  1.00  0.00    -0.044 SA
ENDROOT
BRANCH   3   4
HETATM    4  C2  UNL     1      24.990  24.811  -7.304  1.00  0.00     0.158 C 
BRANCH   4   5
HETATM    5  C3  UNL     1      26.153  24.399  -8.136  1.00  0.00     0.100 A 
HETATM    6  O1  UNL     1      27.393  24.792  -8.149  1.00  0.00    -0.288 OA
HETATM    7  C4  UNL     1      28.107  24.173  -9.052  1.00  0.00     0.192 A 
HETATM    8  C5  UNL     1      27.290  23.280  -9.716  1.00  0.00     0.036 A 
HETATM    9  C6  UNL     1      26.050  23.423  -9.130  1.00  0.00     0.110 A 
HETATM   10  C9  UNL     1      27.442  22.292 -10.823  1.00  0.00     0.048 C 
HETATM   11  O3  UNL     1      24.997  22.650  -9.574  1.00  0.00    -0.348 OA
HETATM   12  C7  UNL     1      25.143  21.494 -10.370  1.00  0.00     0.176 C 
HETATM   13  C8  UNL     1      26.579  21.094 -10.520  1.00  0.00     0.031 C 
BRANCH   7  14
HETATM   14  O2  UNL     1      29.450  24.334  -9.342  1.00  0.00    -0.340 OA
ATOM     15  H2  UNL     1      29.857  24.480 -10.187  1.00  0.00     0.220 HD
ENDBRANCH   7  14
ENDBRANCH   4   5
ENDBRANCH   3   4
TORSDOF 3
ENDMDL
MODEL 5
REMARK VINA RESULT: -6.368052380      3.473      5.788
REMARK  3 active torsions:
REMARK  status: ('A' for Active; 'I' for Inactive)
REMARK    1  A    between atoms: S1_3  and  C2_4 
REMARK    2  A    between atoms: C2_4  and  C3_5 
REMARK    3  A    between atoms: C4_7  and  O2_8 
ROOT
HETATM    1  N1  UNL     1      24.328  21.501 -10.360  1.00  0.00    -0.184 NA
HETATM    2  C1  UNL     1      23.954  22.207  -9.520  1.00  0.00     0.134 C 
HETATM    3  S1  UNL     1      23.395  23.315  -8.246  1.00  0.00    -0.044 SA
ENDROOT
BRANCH   3   4
HETATM    4  C2  UNL     1      24.822  23.820  -7.295  1.00  0.00     0.158 C 
BRANCH   4   5
HETATM    5  C3  UNL     1      24.589  25.070  -6.522  1.00  0.00     0.100 A 
HETATM    6  O1  UNL     1      23.512  25.580  -6.000  1.00  0.00    -0.288 OA
HETATM    7  C4  UNL     1      23.736  26.716  -5.396  1.00  0.00     0.192 A 
HETATM    8  C5  UNL     1      25.079  27.013  -5.509  1.00  0.00     0.036 A 
HETATM    9  C6  UNL     1      25.620  25.964  -6.223  1.00  0.00     0.110 A 
HETATM   10  C9  UNL     1      25.985  28.116  -5.074  1.00  0.00     0.048 C 
HETATM   11  O3  UNL     1      26.970  25.959  -6.504  1.00  0.00    -0.348 OA
HETATM   12  C7  UNL     1      27.917  26.782  -5.856  1.00  0.00     0.176 C 
HETATM   13  C8  UNL     1      27.319  27.523  -4.699  1.00  0.00     0.031 C 
BRANCH   7  14
HETATM   14  O2  UNL     1      22.832  27.528  -4.734  1.00  0.00    -0.340 OA
ATOM     15  H2  UNL     1      22.585  28.422  -4.937  1.00  0.00     0.220 HD
ENDBRANCH   7  14
ENDBRANCH   4   5
ENDBRANCH   3   4
TORSDOF 3
ENDMDL
