MODEL 1
REMARK VINA RESULT: -5.643700092      0.000      0.000
REMARK  4 active torsions:
REMARK  status: ('A' for Active; 'I' for Inactive)
REMARK    1  A    between atoms: C2_2  and  C4_4 
REMARK    2  A    between atoms: C5_9  and  N3_10 
REMARK    3  A    between atoms: N3_10  and  N4_12 
REMARK    4  A    between atoms: N4_12  and  C6_14 
ROOT
HETATM    1  C4  UNL     1      24.059  24.542  -7.162  1.00  0.00     0.073 A 
HETATM    2  N1  UNL     1      22.781  24.809  -7.249  1.00  0.00    -0.296 N 
ATOM      3  H1  UNL     1      22.211  24.318  -7.937  1.00  0.00     0.187 HD
HETATM    4  N2  UNL     1      22.241  25.672  -6.487  1.00  0.00    -0.278 N 
ATOM      5  H2  UNL     1      21.245  25.879  -6.557  1.00  0.00     0.189 HD
HETATM    6  C5  UNL     1      23.006  26.302  -5.593  1.00  0.00     0.179 A 
HETATM    7  S2  UNL     1      24.541  25.594  -5.902  1.00  0.00    -0.036 SA
ENDROOT
BRANCH   6   8
HETATM    8  N3  UNL     1      22.657  27.218  -4.720  1.00  0.00    -0.278 N 
ATOM      9  H3  UNL     1      22.068  28.005  -4.991  1.00  0.00     0.189 HD
BRANCH   8  10
HETATM   10  N4  UNL     1      23.109  27.085  -3.428  1.00  0.00    -0.299 N 
ATOM     11  H4  UNL     1      22.622  26.447  -2.798  1.00  0.00     0.187 HD
BRANCH  10  12
HETATM   12  C6  UNL     1      24.128  27.740  -2.985  1.00  0.00     0.188 C 
HETATM   13  S1  UNL     1      25.666  28.238  -2.828  1.00  0.00    -0.073 SA
ENDBRANCH  10  12
ENDBRANCH   8  10
ENDBRANCH   6   8
BRANCH   1  14
HETATM   14  C2  UNL     1      24.851  23.565  -7.972  1.00  0.00     0.036 C 
HETATM   15  C1  UNL     1      26.117  24.208  -8.481  1.00  0.00     0.016 C 
HETATM   16  C3  UNL     1      24.028  23.131  -9.149  1.00  0.00     0.016 C 
ENDBRANCH   1  14
TORSDOF 4
ENDMDL
MODEL 2
REMARK VINA RESULT: -5.598032807      2.620      5.366
REMARK  4 active torsions:
REMARK  status: ('A' for Active; 'I' for Inactive)
REMARK    1  A    between atoms: C2_2  and  C4_4 
REMARK    2  A    between atoms: C5_9  and  N3_10 
REMARK    3  A    between atoms: N3_10  and  N4_12 
REMARK    4  A    between atoms: N4_12  and  C6_14 
ROOT
HETATM    1  C4  UNL     1      25.581  26.425  -5.209  1.00  0.00     0.073 A 
HETATM    2  N1  UNL     1      24.337  26.386  -4.804  1.00  0.00    -0.296 N 
ATOM      3  H1  UNL     1      24.071  26.875  -3.949  1.00  0.00     0.187 HD
HETATM    4  N2  UNL     1      23.457  25.746  -5.462  1.00  0.00    -0.278 N 
ATOM      5  H2  UNL     1      22.488  25.716  -5.144  1.00  0.00     0.189 HD
HETATM    6  C5  UNL     1      23.827  25.114  -6.578  1.00  0.00     0.179 A 
HETATM    7  S2  UNL     1      25.505  25.484  -6.635  1.00  0.00    -0.036 SA
ENDROOT
BRANCH   6   8
HETATM    8  N3  UNL     1      23.088  24.404  -7.398  1.00  0.00    -0.278 N 
ATOM      9  H3  UNL     1      22.209  23.991  -7.089  1.00  0.00     0.189 HD
BRANCH   8  10
HETATM   10  N4  UNL     1      23.537  24.232  -8.687  1.00  0.00    -0.299 N 
ATOM     11  H4  UNL     1      23.581  25.042  -9.306  1.00  0.00     0.187 HD
BRANCH  10  12
HETATM   12  C6  UNL     1      23.903  23.081  -9.140  1.00  0.00     0.188 C 
HETATM   13  S1  UNL     1      24.624  21.979 -10.090  1.00  0.00    -0.073 SA
ENDBRANCH  10  12
ENDBRANCH   8  10
ENDBRANCH   6   8
BRANCH   1  14
HETATM   14  C2  UNL     1      26.735  27.124  -4.563  1.00  0.00     0.036 C 
HETATM   15  C1  UNL     1      26.240  28.177  -3.602  1.00  0.00     0.016 C 
HETATM   16  C3  UNL     1      27.555  27.793  -5.626  1.00  0.00     0.016 C 
ENDBRANCH   1  14
TORSDOF 4
ENDMDL
MODEL 3
REMARK VINA RESULT: -5.585209101      0.647      1.160
REMARK  4 active torsions:
REMARK  status: ('A' for Active; 'I' for Inactive)
REMARK    1  A    between atoms: C2_2  and  C4_4 
REMARK    2  A    between atoms: C5_9  and  N3_10 
REMARK    3  A    between atoms: N3_10  and  N4_12 
REMARK    4  A    between atoms: N4_12  and  C6_14 
ROOT
HETATM    1  C4  UNL     1      23.917  25.136  -7.135  1.00  0.00     0.073 A 
HETATM    2  N1  UNL     1      22.625  25.235  -6.951  1.00  0.00    -0.296 N 
ATOM      3  H1  UNL     1      21.988  24.750  -7.582  1.00  0.00     0.187 HD
HETATM    4  N2  UNL     1      22.155  25.930  -5.995  1.00  0.00    -0.278 N 
ATOM      5  H2  UNL     1      21.148  26.007  -5.853  1.00  0.00     0.189 HD
HETATM    6  C5  UNL     1      23.007  26.556  -5.181  1.00  0.00     0.179 A 
HETATM    7  S2  UNL     1      24.519  26.099  -5.857  1.00  0.00    -0.036 SA
ENDROOT
BRANCH   6   8
HETATM    8  N3  UNL     1      22.738  27.317  -4.144  1.00  0.00    -0.278 N 
ATOM      9  H3  UNL     1      22.085  28.096  -4.220  1.00  0.00     0.189 HD
BRANCH   8  10
HETATM   10  N4  UNL     1      23.365  27.031  -2.954  1.00  0.00    -0.299 N 
ATOM     11  H4  UNL     1      23.064  26.215  -2.421  1.00  0.00     0.187 HD
BRANCH  10  12
HETATM   12  C6  UNL     1      24.322  27.760  -2.487  1.00  0.00     0.188 C 
HETATM   13  S1  UNL     1      25.774  28.478  -2.379  1.00  0.00    -0.073 SA
ENDBRANCH  10  12
ENDBRANCH   8  10
ENDBRANCH   6   8
BRANCH   1  14
HETATM   14  C2  UNL     1      24.635  24.367  -8.200  1.00  0.00     0.036 C 
HETATM   15  C1  UNL     1      24.328  22.895  -8.082  1.00  0.00     0.016 C 
HETATM   16  C3  UNL     1      26.112  24.564  -8.027  1.00  0.00     0.016 C 
ENDBRANCH   1  14
TORSDOF 4
ENDMDL
MODEL 4
REMARK VINA RESULT: -5.544548047      2.587      2.880
REMARK  4 active torsions:
REMARK  status: ('A' for Active; 'I' for Inactive)
REMARK    1  A    between atoms: C2_2  and  C4_4 
REMARK    2  A    between atoms: C5_9  and  N3_10 
REMARK    3  A    between atoms: N3_10  and  N4_12 
REMARK    4  A    between atoms: N4_12  and  C6_14 
ROOT
HETATM    1  C4  UNL     1      24.187  25.250  -7.088  1.00  0.00     0.073 A 
HETATM    2  N1  UNL     1      22.974  24.851  -7.371  1.00  0.00    -0.296 N 
ATOM      3  H1  UNL     1      22.803  24.331  -8.231  1.00  0.00     0.187 HD
HETATM    4  N2  UNL     1      22.004  25.105  -6.588  1.00  0.00    -0.278 N 
ATOM      5  H2  UNL     1      21.059  24.794  -6.811  1.00  0.00     0.189 HD
HETATM    6  C5  UNL     1      22.250  25.786  -5.467  1.00  0.00     0.179 A 
HETATM    7  S2  UNL     1      23.944  26.047  -5.594  1.00  0.00    -0.036 SA
ENDROOT
BRANCH   6   8
HETATM    8  N3  UNL     1      21.405  26.151  -4.531  1.00  0.00    -0.278 N 
ATOM      9  H3  UNL     1      21.319  27.128  -4.253  1.00  0.00     0.189 HD
BRANCH   8  10
HETATM   10  N4  UNL     1      20.639  25.176  -3.935  1.00  0.00    -0.299 N 
ATOM     11  H4  UNL     1      20.478  24.301  -4.435  1.00  0.00     0.187 HD
BRANCH  10  12
HETATM   12  C6  UNL     1      20.118  25.329  -2.765  1.00  0.00     0.188 C 
HETATM   13  S1  UNL     1      19.991  25.350  -1.146  1.00  0.00    -0.073 SA
ENDBRANCH  10  12
ENDBRANCH   8  10
ENDBRANCH   6   8
BRANCH   1  14
HETATM   14  C2  UNL     1      25.433  25.040  -7.890  1.00  0.00     0.036 C 
HETATM   15  C1  UNL     1      25.459  23.644  -8.463  1.00  0.00     0.016 C 
HETATM   16  C3  UNL     1      26.622  25.211  -6.992  1.00  0.00     0.016 C 
ENDBRANCH   1  14
TORSDOF 4
ENDMDL
MODEL 5
REMARK VINA RESULT: -5.543718661      2.353      3.623
REMARK  4 active torsions:
REMARK  status: ('A' for Active; 'I' for Inactive)
REMARK    1  A    between atoms: C2_2  and  C4_4 
REMARK    2  A    between atoms: C5_9  and  N3_10 
REMARK    3  A    between atoms: N3_10  and  N4_12 
REMARK    4  A    between atoms: N4_12  and  C6_14 
ROOT
HETATM    1  C4  UNL     1      25.018  22.701  -9.656  1.00  0.00     0.073 A 
HETATM    2  N1  UNL     1      23.762  22.500  -9.966  1.00  0.00    -0.296 N 
ATOM      3  H1  UNL     1      23.530  22.018 -10.834  1.00  0.00     0.187 HD
HETATM    4  N2  UNL     1      22.829  22.899  -9.199  1.00  0.00    -0.278 N 
ATOM      5  H2  UNL     1      21.852  22.742  -9.443  1.00  0.00     0.189 HD
HETATM    6  C5  UNL     1      23.156  23.528  -8.068  1.00  0.00     0.179 A 
HETATM    7  S2  UNL     1      24.873  23.519  -8.161  1.00  0.00    -0.036 SA
ENDROOT
BRANCH   6   8
HETATM    8  N3  UNL     1      22.361  24.016  -7.145  1.00  0.00    -0.278 N 
ATOM      9  H3  UNL     1      21.781  23.403  -6.574  1.00  0.00     0.189 HD
BRANCH   8  10
HETATM   10  N4  UNL     1      22.334  25.381  -6.971  1.00  0.00    -0.299 N 
ATOM     11  H4  UNL     1      21.907  25.962  -7.693  1.00  0.00     0.187 HD
BRANCH  10  12
HETATM   12  C6  UNL     1      22.831  25.951  -5.927  1.00  0.00     0.188 C 
HETATM   13  S1  UNL     1      23.432  27.118  -4.970  1.00  0.00    -0.073 SA
ENDBRANCH  10  12
ENDBRANCH   8  10
ENDBRANCH   6   8
BRANCH   1  14
HETATM   14  C2  UNL     1      26.231  22.302 -10.436  1.00  0.00     0.036 C 
HETATM   15  C1  UNL     1      26.269  20.805 -10.617  1.00  0.00     0.016 C 
HETATM   16  C3  UNL     1      27.455  22.724  -9.678  1.00  0.00     0.016 C 
ENDBRANCH   1  14
TORSDOF 4
ENDMDL
