MODEL 1
REMARK VINA RESULT: -7.516031614      0.000      0.000
REMARK  5 active torsions:
REMARK  status: ('A' for Active; 'I' for Inactive)
REMARK    1  A    between atoms: C2_2  and  C4_4 
REMARK    2  A    between atoms: C5_8  and  N2_9 
REMARK       I    between atoms: N2_9  and  C6_11 
REMARK    3  A    between atoms: C6_11  and  O2_13 
REMARK    4  A    between atoms: O2_13  and  C7_14 
REMARK    5  A    between atoms: C12_19  and  C13_20 
ROOT
HETATM    1  C4  UNL     1     -18.074  -7.389  28.592  1.00  0.00     0.044 A 
HETATM    2  S1  UNL     1     -18.503  -7.557  26.915  1.00  0.00    -0.012 SA
HETATM    3  N1  UNL     1     -17.400  -6.512  26.282  1.00  0.00    -0.311 N 
ATOM      4  H1  UNL     1     -17.271  -6.278  25.298  1.00  0.00     0.176 HD
HETATM    5  C5  UNL     1     -16.707  -6.032  27.320  1.00  0.00     0.131 A 
HETATM    6  C12 UNL     1     -17.054  -6.488  28.558  1.00  0.00     0.073 A 
ENDROOT
BRANCH   5   7
HETATM    7  N2  UNL     1     -15.662  -5.070  27.016  1.00  0.00    -0.287 N 
HETATM    8  C6  UNL     1     -15.992  -3.699  26.747  1.00  0.00     0.366 C 
HETATM    9  O1  UNL     1     -17.188  -3.342  26.774  1.00  0.00    -0.238 OA
ATOM     10  H2  UNL     1     -14.688  -5.371  26.994  1.00  0.00     0.172 HD
BRANCH   8  11
HETATM   11  O2  UNL     1     -15.009  -2.810  26.467  1.00  0.00    -0.298 OA
BRANCH  11  12
HETATM   12  C7  UNL     1     -13.908  -2.555  27.352  1.00  0.00     0.133 C 
HETATM   13  C8  UNL     1     -14.347  -2.538  28.794  1.00  0.00     0.032 C 
HETATM   14  C9  UNL     1     -13.606  -1.395  29.450  1.00  0.00     0.002 C 
HETATM   15  C10 UNL     1     -13.244  -0.438  28.339  1.00  0.00     0.002 C 
HETATM   16  C11 UNL     1     -13.394  -1.169  27.042  1.00  0.00     0.032 C 
ENDBRANCH  11  12
ENDBRANCH   8  11
ENDBRANCH   5   7
BRANCH   6  17
HETATM   17  C13 UNL     1     -16.374  -6.040  29.781  1.00  0.00     0.160 C 
HETATM   18  C14 UNL     1     -15.835  -6.919  30.829  1.00  0.00     0.097 C 
HETATM   19  O3  UNL     1     -16.227  -4.813  29.985  1.00  0.00    -0.293 OA
ENDBRANCH   6  17
BRANCH   1  20
HETATM   20  C2  UNL     1     -18.785  -8.142  29.625  1.00  0.00    -0.052 C 
HETATM   21  C1  UNL     1     -18.899  -9.443  29.671  1.00  0.00     0.020 C 
HETATM   22  C3  UNL     1     -19.487  -7.357  30.718  1.00  0.00     0.049 C 
ENDBRANCH   1  20
TORSDOF 5
ENDMDL
MODEL 2
REMARK VINA RESULT: -7.417295610      0.559      1.057
REMARK  5 active torsions:
REMARK  status: ('A' for Active; 'I' for Inactive)
REMARK    1  A    between atoms: C2_2  and  C4_4 
REMARK    2  A    between atoms: C5_8  and  N2_9 
REMARK       I    between atoms: N2_9  and  C6_11 
REMARK    3  A    between atoms: C6_11  and  O2_13 
REMARK    4  A    between atoms: O2_13  and  C7_14 
REMARK    5  A    between atoms: C12_19  and  C13_20 
ROOT
HETATM    1  C4  UNL     1     -17.896  -7.176  28.628  1.00  0.00     0.044 A 
HETATM    2  S1  UNL     1     -18.255  -7.292  26.930  1.00  0.00    -0.012 SA
HETATM    3  N1  UNL     1     -17.129  -6.227  26.376  1.00  0.00    -0.311 N 
ATOM      4  H1  UNL     1     -16.960  -5.962  25.406  1.00  0.00     0.176 HD
HETATM    5  C5  UNL     1     -16.481  -5.779  27.457  1.00  0.00     0.131 A 
HETATM    6  C12 UNL     1     -16.878  -6.274  28.664  1.00  0.00     0.073 A 
ENDROOT
BRANCH   5   7
HETATM    7  N2  UNL     1     -15.427  -4.807  27.227  1.00  0.00    -0.287 N 
HETATM    8  C6  UNL     1     -15.749  -3.434  26.963  1.00  0.00     0.366 C 
HETATM    9  O1  UNL     1     -16.946  -3.083  26.930  1.00  0.00    -0.238 OA
ATOM     10  H2  UNL     1     -14.451  -5.103  27.254  1.00  0.00     0.172 HD
BRANCH   8  11
HETATM   11  O2  UNL     1     -14.757  -2.536  26.752  1.00  0.00    -0.298 OA
BRANCH  11  12
HETATM   12  C7  UNL     1     -14.610  -1.335  27.525  1.00  0.00     0.133 C 
HETATM   13  C8  UNL     1     -13.568  -0.419  26.936  1.00  0.00     0.032 C 
HETATM   14  C9  UNL     1     -12.785   0.140  28.103  1.00  0.00     0.002 C 
HETATM   15  C10 UNL     1     -12.952  -0.850  29.232  1.00  0.00     0.002 C 
HETATM   16  C11 UNL     1     -14.107  -1.739  28.891  1.00  0.00     0.032 C 
ENDBRANCH  11  12
ENDBRANCH   8  11
ENDBRANCH   5   7
BRANCH   6  17
HETATM   17  C13 UNL     1     -16.251  -5.865  29.928  1.00  0.00     0.160 C 
HETATM   18  C14 UNL     1     -15.780  -6.775  30.983  1.00  0.00     0.097 C 
HETATM   19  O3  UNL     1     -16.090  -4.645  30.165  1.00  0.00    -0.293 OA
ENDBRANCH   6  17
BRANCH   1  20
HETATM   20  C2  UNL     1     -18.648  -7.963  29.606  1.00  0.00    -0.052 C 
HETATM   21  C1  UNL     1     -18.711  -9.267  29.643  1.00  0.00     0.020 C 
HETATM   22  C3  UNL     1     -19.459  -7.212  30.647  1.00  0.00     0.049 C 
ENDBRANCH   1  20
TORSDOF 5
ENDMDL
MODEL 3
REMARK VINA RESULT: -7.099549961      2.736      4.306
REMARK  5 active torsions:
REMARK  status: ('A' for Active; 'I' for Inactive)
REMARK    1  A    between atoms: C2_2  and  C4_4 
REMARK    2  A    between atoms: C5_8  and  N2_9 
REMARK       I    between atoms: N2_9  and  C6_11 
REMARK    3  A    between atoms: C6_11  and  O2_13 
REMARK    4  A    between atoms: O2_13  and  C7_14 
REMARK    5  A    between atoms: C12_19  and  C13_20 
ROOT
HETATM    1  C4  UNL     1     -15.641  -4.721  30.033  1.00  0.00     0.044 A 
HETATM    2  S1  UNL     1     -14.654  -3.592  30.914  1.00  0.00    -0.012 SA
HETATM    3  N1  UNL     1     -14.432  -2.486  29.715  1.00  0.00    -0.311 N 
ATOM      4  H1  UNL     1     -13.899  -1.619  29.772  1.00  0.00     0.176 HD
HETATM    5  C5  UNL     1     -15.093  -2.955  28.652  1.00  0.00     0.131 A 
HETATM    6  C12 UNL     1     -15.742  -4.145  28.804  1.00  0.00     0.073 A 
ENDROOT
BRANCH   5   7
HETATM    7  N2  UNL     1     -15.044  -2.148  27.446  1.00  0.00    -0.287 N 
HETATM    8  C6  UNL     1     -13.916  -2.230  26.562  1.00  0.00     0.366 C 
HETATM    9  O1  UNL     1     -12.976  -3.002  26.842  1.00  0.00    -0.238 OA
ATOM     10  H2  UNL     1     -15.815  -1.518  27.226  1.00  0.00     0.172 HD
BRANCH   8  11
HETATM   11  O2  UNL     1     -13.881  -1.474  25.439  1.00  0.00    -0.298 OA
BRANCH  11  12
HETATM   12  C7  UNL     1     -14.507  -1.869  24.209  1.00  0.00     0.133 C 
HETATM   13  C8  UNL     1     -15.723  -1.031  23.910  1.00  0.00     0.032 C 
HETATM   14  C9  UNL     1     -16.773  -1.981  23.375  1.00  0.00     0.002 C 
HETATM   15  C10 UNL     1     -16.410  -3.347  23.907  1.00  0.00     0.002 C 
HETATM   16  C11 UNL     1     -14.994  -3.288  24.388  1.00  0.00     0.032 C 
ENDBRANCH  11  12
ENDBRANCH   8  11
ENDBRANCH   5   7
BRANCH   6  17
HETATM   17  C13 UNL     1     -16.504  -4.772  27.715  1.00  0.00     0.160 C 
HETATM   18  C14 UNL     1     -16.164  -6.042  27.057  1.00  0.00     0.097 C 
HETATM   19  O3  UNL     1     -17.534  -4.205  27.283  1.00  0.00    -0.293 OA
ENDBRANCH   6  17
BRANCH   1  20
HETATM   20  C2  UNL     1     -16.134  -5.941  30.674  1.00  0.00    -0.052 C 
HETATM   21  C1  UNL     1     -17.344  -6.420  30.562  1.00  0.00     0.020 C 
HETATM   22  C3  UNL     1     -15.181  -6.702  31.578  1.00  0.00     0.049 C 
ENDBRANCH   1  20
TORSDOF 5
ENDMDL
MODEL 4
REMARK VINA RESULT: -6.902184146      1.769      2.661
REMARK  5 active torsions:
REMARK  status: ('A' for Active; 'I' for Inactive)
REMARK    1  A    between atoms: C2_2  and  C4_4 
REMARK    2  A    between atoms: C5_8  and  N2_9 
REMARK       I    between atoms: N2_9  and  C6_11 
REMARK    3  A    between atoms: C6_11  and  O2_13 
REMARK    4  A    between atoms: O2_13  and  C7_14 
REMARK    5  A    between atoms: C12_19  and  C13_20 
ROOT
HETATM    1  C4  UNL     1     -18.171  -7.311  28.595  1.00  0.00     0.044 A 
HETATM    2  S1  UNL     1     -18.663  -7.590  26.950  1.00  0.00    -0.012 SA
HETATM    3  N1  UNL     1     -17.540  -6.646  26.203  1.00  0.00    -0.311 N 
ATOM      4  H1  UNL     1     -17.436  -6.494  25.201  1.00  0.00     0.176 HD
HETATM    5  C5  UNL     1     -16.794  -6.118  27.179  1.00  0.00     0.131 A 
HETATM    6  C12 UNL     1     -17.116  -6.462  28.459  1.00  0.00     0.073 A 
ENDROOT
BRANCH   5   7
HETATM    7  N2  UNL     1     -15.721  -5.229  26.769  1.00  0.00    -0.287 N 
HETATM    8  C6  UNL     1     -15.989  -3.847  26.488  1.00  0.00     0.366 C 
HETATM    9  O1  UNL     1     -17.155  -3.416  26.599  1.00  0.00    -0.238 OA
ATOM     10  H2  UNL     1     -14.771  -5.590  26.679  1.00  0.00     0.172 HD
BRANCH   8  11
HETATM   11  O2  UNL     1     -14.980  -3.027  26.109  1.00  0.00    -0.298 OA
BRANCH  11  12
HETATM   12  C7  UNL     1     -14.801  -2.577  24.758  1.00  0.00     0.133 C 
HETATM   13  C8  UNL     1     -14.927  -1.079  24.650  1.00  0.00     0.032 C 
HETATM   14  C9  UNL     1     -15.713  -0.808  23.386  1.00  0.00     0.002 C 
HETATM   15  C10 UNL     1     -16.514  -2.060  23.116  1.00  0.00     0.002 C 
HETATM   16  C11 UNL     1     -15.925  -3.164  23.937  1.00  0.00     0.032 C 
ENDBRANCH  11  12
ENDBRANCH   8  11
ENDBRANCH   5   7
BRANCH   6  17
HETATM   17  C13 UNL     1     -16.378  -5.951  29.622  1.00  0.00     0.160 C 
HETATM   18  C14 UNL     1     -15.872  -6.765  30.737  1.00  0.00     0.097 C 
HETATM   19  O3  UNL     1     -16.143  -4.723  29.707  1.00  0.00    -0.293 OA
ENDBRANCH   6  17
BRANCH   1  20
HETATM   20  C2  UNL     1     -18.877  -7.951  29.705  1.00  0.00    -0.052 C 
HETATM   21  C1  UNL     1     -19.457  -7.327  30.695  1.00  0.00     0.020 C 
HETATM   22  C3  UNL     1     -18.912  -9.469  29.742  1.00  0.00     0.049 C 
ENDBRANCH   1  20
TORSDOF 5
ENDMDL
MODEL 5
REMARK VINA RESULT: -6.873345826      3.044      4.464
REMARK  5 active torsions:
REMARK  status: ('A' for Active; 'I' for Inactive)
REMARK    1  A    between atoms: C2_2  and  C4_4 
REMARK    2  A    between atoms: C5_8  and  N2_9 
REMARK       I    between atoms: N2_9  and  C6_11 
REMARK    3  A    between atoms: C6_11  and  O2_13 
REMARK    4  A    between atoms: O2_13  and  C7_14 
REMARK    5  A    between atoms: C12_19  and  C13_20 
ROOT
HETATM    1  C4  UNL     1     -15.571  -4.571  29.833  1.00  0.00     0.044 A 
HETATM    2  S1  UNL     1     -14.534  -3.424  30.629  1.00  0.00    -0.012 SA
HETATM    3  N1  UNL     1     -14.376  -2.348  29.393  1.00  0.00    -0.311 N 
ATOM      4  H1  UNL     1     -13.839  -1.482  29.399  1.00  0.00     0.176 HD
HETATM    5  C5  UNL     1     -15.096  -2.842  28.380  1.00  0.00     0.131 A 
HETATM    6  C12 UNL     1     -15.739  -4.025  28.598  1.00  0.00     0.073 A 
ENDROOT
BRANCH   5   7
HETATM    7  N2  UNL     1     -15.112  -2.065  27.154  1.00  0.00    -0.287 N 
HETATM    8  C6  UNL     1     -14.035  -2.173  26.211  1.00  0.00     0.366 C 
HETATM    9  O1  UNL     1     -13.083  -2.941  26.457  1.00  0.00    -0.238 OA
ATOM     10  H2  UNL     1     -15.893  -1.437  26.961  1.00  0.00     0.172 HD
BRANCH   8  11
HETATM   11  O2  UNL     1     -14.062  -1.445  25.069  1.00  0.00    -0.298 OA
BRANCH  11  12
HETATM   12  C7  UNL     1     -15.277  -0.977  24.465  1.00  0.00     0.133 C 
HETATM   13  C8  UNL     1     -16.040  -2.100  23.810  1.00  0.00     0.032 C 
HETATM   14  C9  UNL     1     -16.569  -1.548  22.504  1.00  0.00     0.002 C 
HETATM   15  C10 UNL     1     -15.663  -0.395  22.140  1.00  0.00     0.002 C 
HETATM   16  C11 UNL     1     -14.891  -0.017  23.365  1.00  0.00     0.032 C 
ENDBRANCH  11  12
ENDBRANCH   8  11
ENDBRANCH   5   7
BRANCH   6  17
HETATM   17  C13 UNL     1     -16.561  -4.676  27.569  1.00  0.00     0.160 C 
HETATM   18  C14 UNL     1     -16.291  -5.990  26.965  1.00  0.00     0.097 C 
HETATM   19  O3  UNL     1     -17.585  -4.093  27.143  1.00  0.00    -0.293 OA
ENDBRANCH   6  17
BRANCH   1  20
HETATM   20  C2  UNL     1     -16.030  -5.773  30.530  1.00  0.00    -0.052 C 
HETATM   21  C1  UNL     1     -17.233  -6.277  30.460  1.00  0.00     0.020 C 
HETATM   22  C3  UNL     1     -15.047  -6.481  31.446  1.00  0.00     0.049 C 
ENDBRANCH   1  20
TORSDOF 5
ENDMDL
