MODEL 1
REMARK VINA RESULT: -7.041880091      0.000      0.000
REMARK  5 active torsions:
REMARK  status: ('A' for Active; 'I' for Inactive)
REMARK    1  A    between atoms: C2_2  and  C4_4 
REMARK    2  A    between atoms: C5_7  and  C6_8 
REMARK    3  A    between atoms: C6_8  and  N2_9 
REMARK       I    between atoms: N2_9  and  C7_10 
REMARK    4  A    between atoms: N2_9  and  C12_18 
REMARK       I    between atoms: C7_10  and  N3_12 
REMARK    5  A    between atoms: N3_12  and  C8_14 
ROOT
HETATM    1  N2  UNL     1     -15.798  -2.832  26.240  1.00  0.00    -0.319 N 
HETATM    2  C7  UNL     1     -14.723  -2.583  27.160  1.00  0.00     0.320 C 
HETATM    3  O1  UNL     1     -13.615  -2.231  26.688  1.00  0.00    -0.247 OA
HETATM    4  N3  UNL     1     -14.841  -2.711  28.567  1.00  0.00    -0.335 N 
ATOM      5  H3  UNL     1     -15.733  -2.995  28.971  1.00  0.00     0.165 HD
ENDROOT
BRANCH   1   6
HETATM    6  C6  UNL     1     -17.048  -3.217  26.794  1.00  0.00     0.206 C 
BRANCH   6   7
HETATM    7  C5  UNL     1     -17.196  -4.648  27.105  1.00  0.00     0.122 A 
HETATM    8  N1  UNL     1     -17.101  -5.120  28.362  1.00  0.00    -0.325 N 
HETATM    9  C4  UNL     1     -17.275  -6.451  28.339  1.00  0.00     0.151 A 
ATOM     10  H1  UNL     1     -16.926  -4.558  29.195  1.00  0.00     0.169 HD
HETATM   11  O2  UNL     1     -17.471  -6.778  27.100  1.00  0.00    -0.222 OA
HETATM   12  N4  UNL     1     -17.430  -5.717  26.333  1.00  0.00    -0.245 N 
ATOM     13  H4  UNL     1     -17.555  -5.707  25.320  1.00  0.00     0.196 HD
BRANCH   9  14
HETATM   14  C2  UNL     1     -17.242  -7.329  29.520  1.00  0.00     0.055 C 
HETATM   15  C1  UNL     1     -18.654  -7.756  29.901  1.00  0.00     0.018 C 
HETATM   16  C3  UNL     1     -16.606  -6.645  30.718  1.00  0.00     0.018 C 
ENDBRANCH   9  14
ENDBRANCH   6   7
ENDBRANCH   1   6
BRANCH   1  17
HETATM   17  C12 UNL     1     -15.610  -2.691  24.829  1.00  0.00     0.026 C 
HETATM   18  C13 UNL     1     -15.134  -1.289  24.432  1.00  0.00     0.037 C 
HETATM   19  C14 UNL     1     -14.630  -3.731  24.331  1.00  0.00     0.037 C 
HETATM   20  C15 UNL     1     -16.910  -2.905  24.056  1.00  0.00     0.037 C 
ENDBRANCH   1  17
BRANCH   4  21
HETATM   21  C8  UNL     1     -13.710  -2.442  29.446  1.00  0.00     0.023 C 
HETATM   22  C9  UNL     1     -14.022  -3.071  30.788  1.00  0.00     0.037 C 
HETATM   23  C10 UNL     1     -13.455  -0.959  29.575  1.00  0.00     0.037 C 
HETATM   24  C11 UNL     1     -12.475  -3.069  28.855  1.00  0.00     0.037 C 
ENDBRANCH   4  21
TORSDOF 5
ENDMDL
MODEL 2
REMARK VINA RESULT: -6.784133209      2.790      6.215
REMARK  5 active torsions:
REMARK  status: ('A' for Active; 'I' for Inactive)
REMARK    1  A    between atoms: C2_2  and  C4_4 
REMARK    2  A    between atoms: C5_7  and  C6_8 
REMARK    3  A    between atoms: C6_8  and  N2_9 
REMARK       I    between atoms: N2_9  and  C7_10 
REMARK    4  A    between atoms: N2_9  and  C12_18 
REMARK       I    between atoms: C7_10  and  N3_12 
REMARK    5  A    between atoms: N3_12  and  C8_14 
ROOT
HETATM    1  N2  UNL     1     -15.601  -3.392  24.758  1.00  0.00    -0.319 N 
HETATM    2  C7  UNL     1     -16.272  -2.587  23.775  1.00  0.00     0.320 C 
HETATM    3  O1  UNL     1     -17.504  -2.765  23.610  1.00  0.00    -0.247 OA
HETATM    4  N3  UNL     1     -15.626  -1.605  22.983  1.00  0.00    -0.335 N 
ATOM      5  H3  UNL     1     -14.626  -1.444  23.101  1.00  0.00     0.165 HD
ENDROOT
BRANCH   1   6
HETATM    6  C6  UNL     1     -14.211  -3.167  24.940  1.00  0.00     0.206 C 
BRANCH   6   7
HETATM    7  C5  UNL     1     -13.856  -2.063  25.848  1.00  0.00     0.122 A 
HETATM    8  N1  UNL     1     -13.991  -2.165  27.183  1.00  0.00    -0.325 N 
HETATM    9  C4  UNL     1     -13.594  -1.013  27.747  1.00  0.00     0.151 A 
ATOM     10  H1  UNL     1     -14.337  -2.983  27.684  1.00  0.00     0.169 HD
HETATM   11  O2  UNL     1     -13.227  -0.233  26.778  1.00  0.00    -0.222 OA
HETATM   12  N4  UNL     1     -13.371  -0.835  25.624  1.00  0.00    -0.245 N 
ATOM     13  H4  UNL     1     -13.152  -0.436  24.711  1.00  0.00     0.196 HD
BRANCH   9  14
HETATM   14  C2  UNL     1     -13.593  -0.735  29.193  1.00  0.00     0.055 C 
HETATM   15  C1  UNL     1     -12.297  -0.046  29.597  1.00  0.00     0.018 C 
HETATM   16  C3  UNL     1     -13.740  -2.004  30.014  1.00  0.00     0.018 C 
ENDBRANCH   9  14
ENDBRANCH   6   7
ENDBRANCH   1   6
BRANCH   1  17
HETATM   17  C12 UNL     1     -16.313  -4.371  25.521  1.00  0.00     0.026 C 
HETATM   18  C13 UNL     1     -17.290  -3.747  26.523  1.00  0.00     0.037 C 
HETATM   19  C14 UNL     1     -17.053  -5.311  24.593  1.00  0.00     0.037 C 
HETATM   20  C15 UNL     1     -15.373  -5.232  26.362  1.00  0.00     0.037 C 
ENDBRANCH   1  17
BRANCH   4  21
HETATM   21  C8  UNL     1     -16.366  -0.821  22.001  1.00  0.00     0.023 C 
HETATM   22  C9  UNL     1     -17.153   0.226  22.762  1.00  0.00     0.037 C 
HETATM   23  C10 UNL     1     -17.269  -1.697  21.167  1.00  0.00     0.037 C 
HETATM   24  C11 UNL     1     -15.385  -0.157  21.071  1.00  0.00     0.037 C 
ENDBRANCH   4  21
TORSDOF 5
ENDMDL
MODEL 3
REMARK VINA RESULT: -6.240122895      0.995      1.329
REMARK  5 active torsions:
REMARK  status: ('A' for Active; 'I' for Inactive)
REMARK    1  A    between atoms: C2_2  and  C4_4 
REMARK    2  A    between atoms: C5_7  and  C6_8 
REMARK    3  A    between atoms: C6_8  and  N2_9 
REMARK       I    between atoms: N2_9  and  C7_10 
REMARK    4  A    between atoms: N2_9  and  C12_18 
REMARK       I    between atoms: C7_10  and  N3_12 
REMARK    5  A    between atoms: N3_12  and  C8_14 
ROOT
HETATM    1  N2  UNL     1     -15.875  -3.022  26.268  1.00  0.00    -0.319 N 
HETATM    2  C7  UNL     1     -14.757  -2.658  27.093  1.00  0.00     0.320 C 
HETATM    3  O1  UNL     1     -13.692  -2.316  26.523  1.00  0.00    -0.247 OA
HETATM    4  N3  UNL     1     -14.786  -2.663  28.510  1.00  0.00    -0.335 N 
ATOM      5  H3  UNL     1     -15.641  -2.938  28.993  1.00  0.00     0.165 HD
ENDROOT
BRANCH   1   6
HETATM    6  C6  UNL     1     -17.075  -3.394  26.930  1.00  0.00     0.206 C 
BRANCH   6   7
HETATM    7  C5  UNL     1     -17.058  -4.711  27.589  1.00  0.00     0.122 A 
HETATM    8  N1  UNL     1     -17.872  -5.711  27.205  1.00  0.00    -0.325 N 
HETATM    9  C4  UNL     1     -17.637  -6.782  27.981  1.00  0.00     0.151 A 
ATOM     10  H1  UNL     1     -18.555  -5.665  26.449  1.00  0.00     0.169 HD
HETATM   11  O2  UNL     1     -16.703  -6.439  28.813  1.00  0.00    -0.222 OA
HETATM   12  N4  UNL     1     -16.333  -5.200  28.603  1.00  0.00    -0.245 N 
ATOM     13  H4  UNL     1     -15.616  -4.694  29.123  1.00  0.00     0.196 HD
BRANCH   9  14
HETATM   14  C2  UNL     1     -18.330  -8.076  27.870  1.00  0.00     0.055 C 
HETATM   15  C1  UNL     1     -19.743  -7.876  27.339  1.00  0.00     0.018 C 
HETATM   16  C3  UNL     1     -18.416  -8.789  29.209  1.00  0.00     0.018 C 
ENDBRANCH   9  14
ENDBRANCH   6   7
ENDBRANCH   1   6
BRANCH   1  17
HETATM   17  C12 UNL     1     -15.777  -3.001  24.841  1.00  0.00     0.026 C 
HETATM   18  C13 UNL     1     -15.630  -1.583  24.277  1.00  0.00     0.037 C 
HETATM   19  C14 UNL     1     -14.615  -3.860  24.390  1.00  0.00     0.037 C 
HETATM   20  C15 UNL     1     -17.029  -3.568  24.174  1.00  0.00     0.037 C 
ENDBRANCH   1  17
BRANCH   4  21
HETATM   21  C8  UNL     1     -13.614  -2.282  29.291  1.00  0.00     0.023 C 
HETATM   22  C9  UNL     1     -13.870  -2.703  30.723  1.00  0.00     0.037 C 
HETATM   23  C10 UNL     1     -13.345  -0.800  29.187  1.00  0.00     0.037 C 
HETATM   24  C11 UNL     1     -12.411  -3.005  28.745  1.00  0.00     0.037 C 
ENDBRANCH   4  21
TORSDOF 5
ENDMDL
MODEL 4
REMARK VINA RESULT: -6.212969298      2.111      4.660
REMARK  5 active torsions:
REMARK  status: ('A' for Active; 'I' for Inactive)
REMARK    1  A    between atoms: C2_2  and  C4_4 
REMARK    2  A    between atoms: C5_7  and  C6_8 
REMARK    3  A    between atoms: C6_8  and  N2_9 
REMARK       I    between atoms: N2_9  and  C7_10 
REMARK    4  A    between atoms: N2_9  and  C12_18 
REMARK       I    between atoms: C7_10  and  N3_12 
REMARK    5  A    between atoms: N3_12  and  C8_14 
ROOT
HETATM    1  N2  UNL     1     -15.062  -2.405  25.102  1.00  0.00    -0.319 N 
HETATM    2  C7  UNL     1     -15.618  -1.579  24.067  1.00  0.00     0.320 C 
HETATM    3  O1  UNL     1     -15.435  -0.340  24.140  1.00  0.00    -0.247 OA
HETATM    4  N3  UNL     1     -16.362  -2.082  22.969  1.00  0.00    -0.335 N 
ATOM      5  H3  UNL     1     -16.523  -3.086  22.890  1.00  0.00     0.165 HD
ENDROOT
BRANCH   1   6
HETATM    6  C6  UNL     1     -15.269  -3.806  24.995  1.00  0.00     0.206 C 
BRANCH   6   7
HETATM    7  C5  UNL     1     -16.137  -4.403  26.023  1.00  0.00     0.122 A 
HETATM    8  N1  UNL     1     -15.660  -5.237  26.965  1.00  0.00    -0.325 N 
HETATM    9  C4  UNL     1     -16.673  -5.621  27.757  1.00  0.00     0.151 A 
ATOM     10  H1  UNL     1     -14.687  -5.529  27.062  1.00  0.00     0.169 HD
HETATM   11  O2  UNL     1     -17.738  -5.034  27.308  1.00  0.00    -0.222 OA
HETATM   12  N4  UNL     1     -17.450  -4.293  26.266  1.00  0.00    -0.245 N 
ATOM     13  H4  UNL     1     -18.112  -3.730  25.732  1.00  0.00     0.196 HD
BRANCH   9  14
HETATM   14  C2  UNL     1     -16.551  -6.535  28.905  1.00  0.00     0.055 C 
HETATM   15  C1  UNL     1     -17.807  -7.386  29.040  1.00  0.00     0.018 C 
HETATM   16  C3  UNL     1     -16.338  -5.783  30.208  1.00  0.00     0.018 C 
ENDBRANCH   9  14
ENDBRANCH   6   7
ENDBRANCH   1   6
BRANCH   1  17
HETATM   17  C12 UNL     1     -14.326  -1.832  26.187  1.00  0.00     0.026 C 
HETATM   18  C13 UNL     1     -13.654  -0.506  25.813  1.00  0.00     0.037 C 
HETATM   19  C14 UNL     1     -15.235  -1.634  27.381  1.00  0.00     0.037 C 
HETATM   20  C15 UNL     1     -13.187  -2.740  26.646  1.00  0.00     0.037 C 
ENDBRANCH   1  17
BRANCH   4  21
HETATM   21  C8  UNL     1     -16.900  -1.189  21.950  1.00  0.00     0.023 C 
HETATM   22  C9  UNL     1     -15.726  -0.499  21.289  1.00  0.00     0.037 C 
HETATM   23  C10 UNL     1     -17.865  -0.193  22.548  1.00  0.00     0.037 C 
HETATM   24  C11 UNL     1     -17.657  -2.008  20.938  1.00  0.00     0.037 C 
ENDBRANCH   4  21
TORSDOF 5
ENDMDL
MODEL 5
REMARK VINA RESULT: -6.208221452      3.128      6.809
REMARK  5 active torsions:
REMARK  status: ('A' for Active; 'I' for Inactive)
REMARK    1  A    between atoms: C2_2  and  C4_4 
REMARK    2  A    between atoms: C5_7  and  C6_8 
REMARK    3  A    between atoms: C6_8  and  N2_9 
REMARK       I    between atoms: N2_9  and  C7_10 
REMARK    4  A    between atoms: N2_9  and  C12_18 
REMARK       I    between atoms: C7_10  and  N3_12 
REMARK    5  A    between atoms: N3_12  and  C8_14 
ROOT
HETATM    1  N2  UNL     1     -15.483  -3.254  24.927  1.00  0.00    -0.319 N 
HETATM    2  C7  UNL     1     -16.140  -2.495  23.900  1.00  0.00     0.320 C 
HETATM    3  O1  UNL     1     -17.344  -2.751  23.657  1.00  0.00    -0.247 OA
HETATM    4  N3  UNL     1     -15.508  -1.474  23.146  1.00  0.00    -0.335 N 
ATOM      5  H3  UNL     1     -14.530  -1.249  23.327  1.00  0.00     0.165 HD
ENDROOT
BRANCH   1   6
HETATM    6  C6  UNL     1     -14.124  -2.941  25.196  1.00  0.00     0.206 C 
BRANCH   6   7
HETATM    7  C5  UNL     1     -13.898  -1.896  26.208  1.00  0.00     0.122 A 
HETATM    8  N1  UNL     1     -13.379  -0.695  25.892  1.00  0.00    -0.325 N 
HETATM    9  C4  UNL     1     -13.288   0.044  27.009  1.00  0.00     0.151 A 
ATOM     10  H1  UNL     1     -13.102  -0.396  24.957  1.00  0.00     0.169 HD
HETATM   11  O2  UNL     1     -13.741  -0.689  27.977  1.00  0.00    -0.222 OA
HETATM   12  N4  UNL     1     -14.116  -1.861  27.529  1.00  0.00    -0.245 N 
ATOM     13  H4  UNL     1     -14.508  -2.618  28.090  1.00  0.00     0.196 HD
BRANCH   9  14
HETATM   14  C2  UNL     1     -12.768   1.420  27.073  1.00  0.00     0.055 C 
HETATM   15  C1  UNL     1     -11.978   1.746  25.812  1.00  0.00     0.018 C 
HETATM   16  C3  UNL     1     -11.863   1.629  28.274  1.00  0.00     0.018 C 
ENDBRANCH   9  14
ENDBRANCH   6   7
ENDBRANCH   1   6
BRANCH   1  17
HETATM   17  C12 UNL     1     -16.178  -4.277  25.647  1.00  0.00     0.026 C 
HETATM   18  C13 UNL     1     -17.242  -3.715  26.596  1.00  0.00     0.037 C 
HETATM   19  C14 UNL     1     -16.810  -5.253  24.678  1.00  0.00     0.037 C 
HETATM   20  C15 UNL     1     -15.237  -5.087  26.537  1.00  0.00     0.037 C 
ENDBRANCH   1  17
BRANCH   4  21
HETATM   21  C8  UNL     1     -16.232  -0.738  22.116  1.00  0.00     0.023 C 
HETATM   22  C9  UNL     1     -17.029   0.345  22.811  1.00  0.00     0.037 C 
HETATM   23  C10 UNL     1     -17.124  -1.655  21.313  1.00  0.00     0.037 C 
HETATM   24  C11 UNL     1     -15.237  -0.123  21.168  1.00  0.00     0.037 C 
ENDBRANCH   4  21
TORSDOF 5
ENDMDL
