MODEL 1
REMARK VINA RESULT: -8.321817905      0.000      0.000
REMARK  3 active torsions:
REMARK  status: ('A' for Active; 'I' for Inactive)
REMARK    1  A    between atoms: S1_2  and  O4_5 
REMARK    2  A    between atoms: O4_5  and  C1_6 
REMARK    3  A    between atoms: C5_10  and  C6_11 
ROOT
HETATM    1  C1  UNL     1     -15.887  -3.372  25.857  1.00  0.00     0.258 C 
HETATM    2  C2  UNL     1     -14.878  -3.656  26.959  1.00  0.00     0.056 C 
HETATM    3  C3  UNL     1     -15.542  -3.434  28.281  1.00  0.00     0.007 C 
HETATM    4  C4  UNL     1     -16.090  -4.705  28.882  1.00  0.00     0.031 C 
HETATM    5  C5  UNL     1     -16.632  -5.621  27.785  1.00  0.00     0.127 C 
HETATM    6  N1  UNL     1     -17.493  -4.831  26.979  1.00  0.00    -0.330 N 
ATOM      7  H1  UNL     1     -18.490  -5.035  27.047  1.00  0.00     0.180 HD
HETATM    8  N2  UNL     1     -17.172  -3.929  26.208  1.00  0.00    -0.310 N 
ATOM      9  H2  UNL     1     -17.960  -3.493  25.727  1.00  0.00     0.182 HD
ENDROOT
BRANCH   5  10
HETATM   10  C6  UNL     1     -17.382  -6.735  28.457  1.00  0.00    -0.060 C 
HETATM   11  C7  UNL     1     -18.288  -7.394  27.737  1.00  0.00    -0.022 C 
HETATM   12  C8  UNL     1     -19.174  -8.525  28.118  1.00  0.00     0.027 C 
HETATM   13  C9  UNL     1     -19.155  -8.787  29.608  1.00  0.00     0.004 C 
HETATM   14  C10 UNL     1     -19.436  -7.574  30.428  1.00  0.00     0.001 C 
HETATM   15  C11 UNL     1     -18.237  -6.745  30.749  1.00  0.00     0.004 C 
HETATM   16  C12 UNL     1     -17.049  -7.013  29.881  1.00  0.00     0.036 C 
ENDBRANCH   5  10
BRANCH   1  17
HETATM   17  O4  UNL     1     -16.040  -2.016  25.716  1.00  0.00    -0.230 OA
BRANCH  17  18
HETATM   18  S1  UNL     1     -14.803  -1.260  24.924  1.00  0.00     0.253 S 
HETATM   19  O1  UNL     1     -15.266  -0.286  23.880  1.00  0.00    -0.572 OA
HETATM   20  O2  UNL     1     -14.009  -2.327  24.183  1.00  0.00    -0.572 OA
HETATM   21  O3  UNL     1     -13.734  -0.471  25.929  1.00  0.00    -0.572 OA
ENDBRANCH  17  18
ENDBRANCH   1  17
TORSDOF 3
ENDMDL
MODEL 2
REMARK VINA RESULT: -8.300328489      0.127      1.021
REMARK  3 active torsions:
REMARK  status: ('A' for Active; 'I' for Inactive)
REMARK    1  A    between atoms: S1_2  and  O4_5 
REMARK    2  A    between atoms: O4_5  and  C1_6 
REMARK    3  A    between atoms: C5_10  and  C6_11 
ROOT
HETATM    1  C1  UNL     1     -15.886  -3.375  25.892  1.00  0.00     0.258 C 
HETATM    2  C2  UNL     1     -14.867  -3.669  26.982  1.00  0.00     0.056 C 
HETATM    3  C3  UNL     1     -15.516  -3.448  28.312  1.00  0.00     0.007 C 
HETATM    4  C4  UNL     1     -16.065  -4.717  28.914  1.00  0.00     0.031 C 
HETATM    5  C5  UNL     1     -16.623  -5.626  27.819  1.00  0.00     0.127 C 
HETATM    6  N1  UNL     1     -17.489  -4.828  27.025  1.00  0.00    -0.330 N 
ATOM      7  H1  UNL     1     -18.486  -5.026  27.103  1.00  0.00     0.180 HD
HETATM    8  N2  UNL     1     -17.171  -3.925  26.254  1.00  0.00    -0.310 N 
ATOM      9  H2  UNL     1     -17.961  -3.483  25.783  1.00  0.00     0.182 HD
ENDROOT
BRANCH   5  10
HETATM   10  C6  UNL     1     -17.373  -6.738  28.496  1.00  0.00    -0.060 C 
HETATM   11  C7  UNL     1     -18.266  -7.412  27.773  1.00  0.00    -0.022 C 
HETATM   12  C8  UNL     1     -19.148  -8.545  28.157  1.00  0.00     0.027 C 
HETATM   13  C9  UNL     1     -19.144  -8.790  29.649  1.00  0.00     0.004 C 
HETATM   14  C10 UNL     1     -19.444  -7.570  30.452  1.00  0.00     0.001 C 
HETATM   15  C11 UNL     1     -18.255  -6.729  30.777  1.00  0.00     0.004 C 
HETATM   16  C12 UNL     1     -17.055  -6.997  29.926  1.00  0.00     0.036 C 
ENDBRANCH   5  10
BRANCH   1  17
HETATM   17  O4  UNL     1     -16.032  -2.017  25.757  1.00  0.00    -0.230 OA
BRANCH  17  18
HETATM   18  S1  UNL     1     -14.900  -1.292  24.799  1.00  0.00     0.253 S 
HETATM   19  O1  UNL     1     -14.002  -2.263  24.089  1.00  0.00    -0.572 OA
HETATM   20  O2  UNL     1     -13.994  -0.463  25.701  1.00  0.00    -0.572 OA
HETATM   21  O3  UNL     1     -15.535  -0.251  23.664  1.00  0.00    -0.572 OA
ENDBRANCH  17  18
ENDBRANCH   1  17
TORSDOF 3
ENDMDL
MODEL 3
REMARK VINA RESULT: -8.293748240      0.899      1.209
REMARK  3 active torsions:
REMARK  status: ('A' for Active; 'I' for Inactive)
REMARK    1  A    between atoms: S1_2  and  O4_5 
REMARK    2  A    between atoms: O4_5  and  C1_6 
REMARK    3  A    between atoms: C5_10  and  C6_11 
ROOT
HETATM    1  C1  UNL     1     -15.862  -3.307  25.575  1.00  0.00     0.258 C 
HETATM    2  C2  UNL     1     -14.860  -3.529  26.697  1.00  0.00     0.056 C 
HETATM    3  C3  UNL     1     -15.547  -3.283  28.003  1.00  0.00     0.007 C 
HETATM    4  C4  UNL     1     -16.069  -4.547  28.638  1.00  0.00     0.031 C 
HETATM    5  C5  UNL     1     -16.573  -5.512  27.564  1.00  0.00     0.127 C 
HETATM    6  N1  UNL     1     -17.444  -4.771  26.723  1.00  0.00    -0.330 N 
ATOM      7  H1  UNL     1     -18.436  -4.998  26.785  1.00  0.00     0.180 HD
HETATM    8  N2  UNL     1     -17.137  -3.885  25.927  1.00  0.00    -0.310 N 
ATOM      9  H2  UNL     1     -17.929  -3.486  25.423  1.00  0.00     0.182 HD
ENDROOT
BRANCH   5  10
HETATM   10  C6  UNL     1     -17.303  -6.623  28.263  1.00  0.00    -0.060 C 
HETATM   11  C7  UNL     1     -18.270  -7.246  27.593  1.00  0.00    -0.022 C 
HETATM   12  C8  UNL     1     -19.155  -8.365  28.009  1.00  0.00     0.027 C 
HETATM   13  C9  UNL     1     -19.043  -8.659  29.489  1.00  0.00     0.004 C 
HETATM   14  C10 UNL     1     -19.241  -7.459  30.350  1.00  0.00     0.001 C 
HETATM   15  C11 UNL     1     -18.004  -6.663  30.606  1.00  0.00     0.004 C 
HETATM   16  C12 UNL     1     -16.883  -6.938  29.655  1.00  0.00     0.036 C 
ENDBRANCH   5  10
BRANCH   1  17
HETATM   17  O4  UNL     1     -16.047  -1.961  25.388  1.00  0.00    -0.230 OA
BRANCH  17  18
HETATM   18  S1  UNL     1     -16.000  -1.467  23.812  1.00  0.00     0.253 S 
HETATM   19  O1  UNL     1     -16.630  -2.441  22.860  1.00  0.00    -0.572 OA
HETATM   20  O2  UNL     1     -14.536  -1.366  23.404  1.00  0.00    -0.572 OA
HETATM   21  O3  UNL     1     -16.682   0.029  23.547  1.00  0.00    -0.572 OA
ENDBRANCH  17  18
ENDBRANCH   1  17
TORSDOF 3
ENDMDL
MODEL 4
REMARK VINA RESULT: -8.281141438      1.812      2.240
REMARK  3 active torsions:
REMARK  status: ('A' for Active; 'I' for Inactive)
REMARK    1  A    between atoms: S1_2  and  O4_5 
REMARK    2  A    between atoms: O4_5  and  C1_6 
REMARK    3  A    between atoms: C5_10  and  C6_11 
ROOT
HETATM    1  C1  UNL     1     -16.028  -3.123  24.678  1.00  0.00     0.258 C 
HETATM    2  C2  UNL     1     -15.089  -2.919  25.858  1.00  0.00     0.056 C 
HETATM    3  C3  UNL     1     -15.910  -2.626  27.073  1.00  0.00     0.007 C 
HETATM    4  C4  UNL     1     -16.186  -3.854  27.904  1.00  0.00     0.031 C 
HETATM    5  C5  UNL     1     -16.380  -5.074  27.001  1.00  0.00     0.127 C 
HETATM    6  N1  UNL     1     -17.328  -4.703  26.011  1.00  0.00    -0.330 N 
ATOM      7  H1  UNL     1     -18.247  -5.140  26.078  1.00  0.00     0.180 HD
HETATM    8  N2  UNL     1     -17.165  -3.914  25.082  1.00  0.00    -0.310 N 
ATOM      9  H2  UNL     1     -17.986  -3.798  24.487  1.00  0.00     0.182 HD
ENDROOT
BRANCH   5  10
HETATM   10  C6  UNL     1     -16.896  -6.192  27.860  1.00  0.00    -0.060 C 
HETATM   11  C7  UNL     1     -17.929  -6.898  27.403  1.00  0.00    -0.022 C 
HETATM   12  C8  UNL     1     -18.649  -8.046  28.014  1.00  0.00     0.027 C 
HETATM   13  C9  UNL     1     -18.248  -8.268  29.455  1.00  0.00     0.004 C 
HETATM   14  C10 UNL     1     -18.360  -7.044  30.298  1.00  0.00     0.001 C 
HETATM   15  C11 UNL     1     -17.150  -6.169  30.293  1.00  0.00     0.004 C 
HETATM   16  C12 UNL     1     -16.208  -6.422  29.159  1.00  0.00     0.036 C 
ENDBRANCH   5  10
BRANCH   1  17
HETATM   17  O4  UNL     1     -16.492  -1.906  24.249  1.00  0.00    -0.230 OA
BRANCH  17  18
HETATM   18  S1  UNL     1     -17.259  -1.935  22.786  1.00  0.00     0.253 S 
HETATM   19  O1  UNL     1     -17.618  -3.317  22.324  1.00  0.00    -0.572 OA
HETATM   20  O2  UNL     1     -16.291  -1.382  21.747  1.00  0.00    -0.572 OA
HETATM   21  O3  UNL     1     -18.631  -0.994  22.718  1.00  0.00    -0.572 OA
ENDBRANCH  17  18
ENDBRANCH   1  17
TORSDOF 3
ENDMDL
MODEL 5
REMARK VINA RESULT: -8.256787536      2.097      2.586
REMARK  3 active torsions:
REMARK  status: ('A' for Active; 'I' for Inactive)
REMARK    1  A    between atoms: S1_2  and  O4_5 
REMARK    2  A    between atoms: O4_5  and  C1_6 
REMARK    3  A    between atoms: C5_10  and  C6_11 
ROOT
HETATM    1  C1  UNL     1     -15.621  -2.247  27.414  1.00  0.00     0.258 C 
HETATM    2  C2  UNL     1     -15.979  -2.931  26.103  1.00  0.00     0.056 C 
HETATM    3  C3  UNL     1     -15.168  -4.183  25.983  1.00  0.00     0.007 C 
HETATM    4  C4  UNL     1     -15.905  -5.407  26.464  1.00  0.00     0.031 C 
HETATM    5  C5  UNL     1     -16.786  -5.059  27.665  1.00  0.00     0.127 C 
HETATM    6  N1  UNL     1     -15.963  -4.361  28.588  1.00  0.00    -0.330 N 
ATOM      7  H1  UNL     1     -15.727  -4.856  29.448  1.00  0.00     0.180 HD
HETATM    8  N2  UNL     1     -15.504  -3.227  28.467  1.00  0.00    -0.310 N 
ATOM      9  H2  UNL     1     -14.936  -2.922  29.258  1.00  0.00     0.182 HD
ENDROOT
BRANCH   5  10
HETATM   10  C6  UNL     1     -17.286  -6.351  28.246  1.00  0.00    -0.060 C 
HETATM   11  C7  UNL     1     -18.103  -7.090  27.499  1.00  0.00    -0.022 C 
HETATM   12  C8  UNL     1     -18.751  -8.395  27.794  1.00  0.00     0.027 C 
HETATM   13  C9  UNL     1     -18.598  -8.792  29.246  1.00  0.00     0.004 C 
HETATM   14  C10 UNL     1     -19.040  -7.735  30.200  1.00  0.00     0.001 C 
HETATM   15  C11 UNL     1     -17.990  -6.737  30.557  1.00  0.00     0.004 C 
HETATM   16  C12 UNL     1     -16.826  -6.699  29.618  1.00  0.00     0.036 C 
ENDBRANCH   5  10
BRANCH   1  17
HETATM   17  O4  UNL     1     -14.407  -1.621  27.285  1.00  0.00    -0.230 OA
BRANCH  17  18
HETATM   18  S1  UNL     1     -13.458  -1.666  28.636  1.00  0.00     0.253 S 
HETATM   19  O1  UNL     1     -12.557  -0.475  28.777  1.00  0.00    -0.572 OA
HETATM   20  O2  UNL     1     -12.541  -2.876  28.515  1.00  0.00    -0.572 OA
HETATM   21  O3  UNL     1     -14.307  -1.843  30.058  1.00  0.00    -0.572 OA
ENDBRANCH  17  18
ENDBRANCH   1  17
TORSDOF 3
ENDMDL
