MODEL 1
REMARK VINA RESULT: -6.203078696      0.000      0.000
REMARK  5 active torsions:
REMARK  status: ('A' for Active; 'I' for Inactive)
REMARK    1  A    between atoms: C2_2  and  O1_3 
REMARK    2  A    between atoms: O1_3  and  C3_4 
REMARK    3  A    between atoms: C3_4  and  C4_6 
REMARK    4  A    between atoms: C5_7  and  N1_8 
REMARK       I    between atoms: N1_8  and  C6_10 
REMARK    5  A    between atoms: C9_15  and  C10_16 
ROOT
HETATM    1  C4  UNL     1     -16.042  -4.454  28.290  1.00  0.00     0.115 C 
HETATM    2  C5  UNL     1     -16.500  -4.444  27.074  1.00  0.00     0.101 C 
HETATM    3  S1  UNL     1     -17.183  -5.999  26.515  1.00  0.00    -0.064 SA
HETATM    4  C8  UNL     1     -17.486  -6.813  28.108  1.00  0.00     0.045 C 
HETATM    5  C9  UNL     1     -18.407  -7.699  28.349  1.00  0.00     0.003 C 
HETATM    6  S2  UNL     1     -16.222  -6.058  29.112  1.00  0.00    -0.074 SA
ENDROOT
BRANCH   1   7
HETATM    7  C3  UNL     1     -15.421  -3.319  29.013  1.00  0.00     0.303 C 
HETATM    8  O2  UNL     1     -15.474  -3.275  30.293  1.00  0.00    -0.259 OA
BRANCH   7   9
HETATM    9  O1  UNL     1     -14.769  -2.264  28.434  1.00  0.00    -0.317 OA
BRANCH   9  10
HETATM   10  C2  UNL     1     -13.374  -2.069  28.560  1.00  0.00     0.174 C 
HETATM   11  C1  UNL     1     -13.030  -0.788  29.257  1.00  0.00     0.034 C 
ENDBRANCH   9  10
ENDBRANCH   7   9
ENDBRANCH   1   7
BRANCH   2  12
HETATM   12  N1  UNL     1     -16.495  -3.310  26.171  1.00  0.00    -0.320 N 
HETATM   13  C6  UNL     1     -15.455  -3.157  25.223  1.00  0.00     0.218 C 
HETATM   14  C7  UNL     1     -15.426  -1.998  24.280  1.00  0.00     0.117 C 
HETATM   15  O3  UNL     1     -14.546  -4.016  25.180  1.00  0.00    -0.274 OA
ATOM     16  H1  UNL     1     -17.244  -2.619  26.219  1.00  0.00     0.169 HD
ENDBRANCH   2  12
BRANCH   5  17
HETATM   17  C10 UNL     1     -18.653  -8.354  29.630  1.00  0.00     0.002 C 
HETATM   18  C11 UNL     1     -19.380  -9.653  29.593  1.00  0.00     0.013 C 
HETATM   19  C12 UNL     1     -19.453  -7.435  30.568  1.00  0.00     0.013 C 
ENDBRANCH   5  17
TORSDOF 5
ENDMDL
MODEL 2
REMARK VINA RESULT: -6.168732826      0.986      1.378
REMARK  5 active torsions:
REMARK  status: ('A' for Active; 'I' for Inactive)
REMARK    1  A    between atoms: C2_2  and  O1_3 
REMARK    2  A    between atoms: O1_3  and  C3_4 
REMARK    3  A    between atoms: C3_4  and  C4_6 
REMARK    4  A    between atoms: C5_7  and  N1_8 
REMARK       I    between atoms: N1_8  and  C6_10 
REMARK    5  A    between atoms: C9_15  and  C10_16 
ROOT
HETATM    1  C4  UNL     1     -16.396  -4.545  27.803  1.00  0.00     0.115 C 
HETATM    2  C5  UNL     1     -16.919  -4.671  26.620  1.00  0.00     0.101 C 
HETATM    3  S1  UNL     1     -17.526  -6.308  26.236  1.00  0.00    -0.064 SA
HETATM    4  C8  UNL     1     -17.685  -6.996  27.908  1.00  0.00     0.045 C 
HETATM    5  C9  UNL     1     -18.530  -7.913  28.278  1.00  0.00     0.003 C 
HETATM    6  S2  UNL     1     -16.422  -6.079  28.766  1.00  0.00    -0.074 SA
ENDROOT
BRANCH   1   7
HETATM    7  C3  UNL     1     -15.814  -3.314  28.388  1.00  0.00     0.303 C 
HETATM    8  O2  UNL     1     -15.495  -2.336  27.624  1.00  0.00    -0.259 OA
BRANCH   7   9
HETATM    9  O1  UNL     1     -15.569  -3.101  29.718  1.00  0.00    -0.317 OA
BRANCH   9  10
HETATM   10  C2  UNL     1     -14.272  -2.846  30.222  1.00  0.00     0.174 C 
HETATM   11  C1  UNL     1     -13.883  -3.790  31.319  1.00  0.00     0.034 C 
ENDBRANCH   9  10
ENDBRANCH   7   9
ENDBRANCH   1   7
BRANCH   2  12
HETATM   12  N1  UNL     1     -17.041  -3.622  25.627  1.00  0.00    -0.320 N 
HETATM   13  C6  UNL     1     -16.028  -3.438  24.656  1.00  0.00     0.218 C 
HETATM   14  C7  UNL     1     -16.127  -2.366  23.620  1.00  0.00     0.117 C 
HETATM   15  O3  UNL     1     -15.030  -4.194  24.672  1.00  0.00    -0.274 OA
ATOM     16  H1  UNL     1     -17.860  -3.014  25.627  1.00  0.00     0.169 HD
ENDBRANCH   2  12
BRANCH   5  17
HETATM   17  C10 UNL     1     -18.660  -8.468  29.621  1.00  0.00     0.002 C 
HETATM   18  C11 UNL     1     -19.358  -9.777  29.745  1.00  0.00     0.013 C 
HETATM   19  C12 UNL     1     -19.404  -7.490  30.545  1.00  0.00     0.013 C 
ENDBRANCH   5  17
TORSDOF 5
ENDMDL
MODEL 3
REMARK VINA RESULT: -5.704424502      2.627      6.512
REMARK  5 active torsions:
REMARK  status: ('A' for Active; 'I' for Inactive)
REMARK    1  A    between atoms: C2_2  and  O1_3 
REMARK    2  A    between atoms: O1_3  and  C3_4 
REMARK    3  A    between atoms: C3_4  and  C4_6 
REMARK    4  A    between atoms: C5_7  and  N1_8 
REMARK       I    between atoms: N1_8  and  C6_10 
REMARK    5  A    between atoms: C9_15  and  C10_16 
ROOT
HETATM    1  C4  UNL     1     -15.796  -3.973  26.232  1.00  0.00     0.115 C 
HETATM    2  C5  UNL     1     -15.331  -2.972  26.918  1.00  0.00     0.101 C 
HETATM    3  S1  UNL     1     -14.681  -1.625  25.937  1.00  0.00    -0.064 SA
HETATM    4  C8  UNL     1     -15.479  -1.970  24.344  1.00  0.00     0.045 C 
HETATM    5  C9  UNL     1     -15.790  -1.088  23.440  1.00  0.00     0.003 C 
HETATM    6  S2  UNL     1     -15.665  -3.739  24.441  1.00  0.00    -0.074 SA
ENDROOT
BRANCH   1   7
HETATM    7  C3  UNL     1     -16.389  -5.219  26.774  1.00  0.00     0.303 C 
HETATM    8  O2  UNL     1     -16.282  -6.313  26.115  1.00  0.00    -0.259 OA
BRANCH   7   9
HETATM    9  O1  UNL     1     -17.071  -5.331  27.955  1.00  0.00    -0.317 OA
BRANCH   9  10
HETATM   10  C2  UNL     1     -16.841  -6.384  28.871  1.00  0.00     0.174 C 
HETATM   11  C1  UNL     1     -16.232  -5.909  30.155  1.00  0.00     0.034 C 
ENDBRANCH   9  10
ENDBRANCH   7   9
ENDBRANCH   1   7
BRANCH   2  12
HETATM   12  N1  UNL     1     -15.301  -2.870  28.364  1.00  0.00    -0.320 N 
HETATM   13  C6  UNL     1     -14.063  -2.827  29.050  1.00  0.00     0.218 C 
HETATM   14  C7  UNL     1     -14.002  -2.722  30.539  1.00  0.00     0.117 C 
HETATM   15  O3  UNL     1     -13.003  -2.877  28.387  1.00  0.00    -0.274 OA
ATOM     16  H1  UNL     1     -16.174  -2.831  28.889  1.00  0.00     0.169 HD
ENDBRANCH   2  12
BRANCH   5  17
HETATM   17  C10 UNL     1     -16.431  -1.362  22.159  1.00  0.00     0.002 C 
HETATM   18  C11 UNL     1     -16.059  -0.482  21.017  1.00  0.00     0.013 C 
HETATM   19  C12 UNL     1     -17.962  -1.281  22.287  1.00  0.00     0.013 C 
ENDBRANCH   5  17
TORSDOF 5
ENDMDL
MODEL 4
REMARK VINA RESULT: -5.703120009      1.389      1.867
REMARK  5 active torsions:
REMARK  status: ('A' for Active; 'I' for Inactive)
REMARK    1  A    between atoms: C2_2  and  O1_3 
REMARK    2  A    between atoms: O1_3  and  C3_4 
REMARK    3  A    between atoms: C3_4  and  C4_6 
REMARK    4  A    between atoms: C5_7  and  N1_8 
REMARK       I    between atoms: N1_8  and  C6_10 
REMARK    5  A    between atoms: C9_15  and  C10_16 
ROOT
HETATM    1  C4  UNL     1     -15.781  -4.814  27.543  1.00  0.00     0.115 C 
HETATM    2  C5  UNL     1     -15.942  -5.085  26.282  1.00  0.00     0.101 C 
HETATM    3  S1  UNL     1     -16.743  -6.648  25.945  1.00  0.00    -0.064 SA
HETATM    4  C8  UNL     1     -17.537  -6.958  27.546  1.00  0.00     0.045 C 
HETATM    5  C9  UNL     1     -18.630  -7.638  27.737  1.00  0.00     0.003 C 
HETATM    6  S2  UNL     1     -16.422  -6.104  28.642  1.00  0.00    -0.074 SA
ENDROOT
BRANCH   1   7
HETATM    7  C3  UNL     1     -15.151  -3.601  28.115  1.00  0.00     0.303 C 
HETATM    8  O2  UNL     1     -14.275  -2.958  27.435  1.00  0.00    -0.259 OA
BRANCH   7   9
HETATM    9  O1  UNL     1     -15.416  -3.069  29.348  1.00  0.00    -0.317 OA
BRANCH   9  10
HETATM   10  C2  UNL     1     -14.395  -2.668  30.240  1.00  0.00     0.174 C 
HETATM   11  C1  UNL     1     -14.013  -3.749  31.205  1.00  0.00     0.034 C 
ENDBRANCH   9  10
ENDBRANCH   7   9
ENDBRANCH   1   7
BRANCH   2  12
HETATM   12  N1  UNL     1     -15.534  -4.247  25.171  1.00  0.00    -0.320 N 
HETATM   13  C6  UNL     1     -16.431  -3.298  24.627  1.00  0.00     0.218 C 
HETATM   14  C7  UNL     1     -16.036  -2.421  23.483  1.00  0.00     0.117 C 
HETATM   15  O3  UNL     1     -17.577  -3.197  25.120  1.00  0.00    -0.274 OA
ATOM     16  H1  UNL     1     -14.596  -4.342  24.781  1.00  0.00     0.169 HD
ENDBRANCH   2  12
BRANCH   5  17
HETATM   17  C10 UNL     1     -19.271  -7.888  29.024  1.00  0.00     0.002 C 
HETATM   18  C11 UNL     1     -18.679  -7.217  30.213  1.00  0.00     0.013 C 
HETATM   19  C12 UNL     1     -19.291  -9.393  29.338  1.00  0.00     0.013 C 
ENDBRANCH   5  17
TORSDOF 5
ENDMDL
MODEL 5
REMARK VINA RESULT: -5.691997421      2.499      5.384
REMARK  5 active torsions:
REMARK  status: ('A' for Active; 'I' for Inactive)
REMARK    1  A    between atoms: C2_2  and  O1_3 
REMARK    2  A    between atoms: O1_3  and  C3_4 
REMARK    3  A    between atoms: C3_4  and  C4_6 
REMARK    4  A    between atoms: C5_7  and  N1_8 
REMARK       I    between atoms: N1_8  and  C6_10 
REMARK    5  A    between atoms: C9_15  and  C10_16 
ROOT
HETATM    1  C4  UNL     1     -14.855  -3.500  28.409  1.00  0.00     0.115 C 
HETATM    2  C5  UNL     1     -13.853  -2.771  28.015  1.00  0.00     0.101 C 
HETATM    3  S1  UNL     1     -13.556  -2.791  26.252  1.00  0.00    -0.064 SA
HETATM    4  C8  UNL     1     -15.167  -3.379  25.657  1.00  0.00     0.045 C 
HETATM    5  C9  UNL     1     -15.699  -3.107  24.503  1.00  0.00     0.003 C 
HETATM    6  S2  UNL     1     -15.701  -4.351  27.052  1.00  0.00    -0.074 SA
ENDROOT
BRANCH   1   7
HETATM    7  C3  UNL     1     -15.330  -3.676  29.802  1.00  0.00     0.303 C 
HETATM    8  O2  UNL     1     -14.875  -2.916  30.729  1.00  0.00    -0.259 OA
BRANCH   7   9
HETATM    9  O1  UNL     1     -16.242  -4.604  30.223  1.00  0.00    -0.317 OA
BRANCH   9  10
HETATM   10  C2  UNL     1     -15.880  -5.928  30.564  1.00  0.00     0.174 C 
HETATM   11  C1  UNL     1     -16.823  -6.948  30.003  1.00  0.00     0.034 C 
ENDBRANCH   9  10
ENDBRANCH   7   9
ENDBRANCH   1   7
BRANCH   2  12
HETATM   12  N1  UNL     1     -12.991  -1.976  28.868  1.00  0.00    -0.320 N 
HETATM   13  C6  UNL     1     -13.011  -0.564  28.784  1.00  0.00     0.218 C 
HETATM   14  C7  UNL     1     -12.134   0.280  29.650  1.00  0.00     0.117 C 
HETATM   15  O3  UNL     1     -13.784  -0.018  27.964  1.00  0.00    -0.274 OA
ATOM     16  H1  UNL     1     -12.368  -2.437  29.530  1.00  0.00     0.169 HD
ENDBRANCH   2  12
BRANCH   5  17
HETATM   17  C10 UNL     1     -16.994  -3.578  24.022  1.00  0.00     0.002 C 
HETATM   18  C11 UNL     1     -17.094  -5.019  23.659  1.00  0.00     0.013 C 
HETATM   19  C12 UNL     1     -17.437  -2.785  22.781  1.00  0.00     0.013 C 
ENDBRANCH   5  17
TORSDOF 5
ENDMDL
