MODEL 1
REMARK VINA RESULT: -5.436656860      0.000      0.000
REMARK  3 active torsions:
REMARK  status: ('A' for Active; 'I' for Inactive)
REMARK    1  A    between atoms: C3_5  and  S1_6 
REMARK    2  A    between atoms: S1_6  and  C4_7 
REMARK    3  A    between atoms: C9_13  and  C11_16 
ROOT
HETATM    1  C1  UNL     1     -13.604   2.591  23.156  1.00  0.00     0.146 C 
HETATM    2  N1  UNL     1     -13.665   1.623  24.214  1.00  0.00    -0.395 N 
ATOM      3  H1  UNL     1     -14.278   0.815  24.103  1.00  0.00     0.159 HD
HETATM    4  C2  UNL     1     -12.992   1.730  25.278  1.00  0.00     0.043 C 
HETATM    5  C3  UNL     1     -12.996   0.780  26.414  1.00  0.00     0.043 C 
HETATM    6  C7  UNL     1     -12.480   1.372  27.440  1.00  0.00     0.066 C 
HETATM    7  C8  UNL     1     -12.278   0.822  28.779  1.00  0.00     0.098 C 
HETATM    8  N2  UNL     1     -12.090   0.411  29.842  1.00  0.00    -0.192 NA
HETATM    9  C9  UNL     1     -12.072   2.764  27.123  1.00  0.00     0.120 C 
HETATM   10  C10 UNL     1     -10.722   3.008  27.634  1.00  0.00     0.077 C 
HETATM   11  N3  UNL     1      -9.652   3.188  28.044  1.00  0.00    -0.196 NA
HETATM   12  C13 UNL     1     -12.056   2.816  25.631  1.00  0.00     0.172 C 
HETATM   13  C14 UNL     1     -10.756   2.499  25.052  1.00  0.00     0.072 C 
HETATM   14  N5  UNL     1      -9.717   2.228  24.600  1.00  0.00    -0.196 NA
ENDROOT
BRANCH   5  15
HETATM   15  S1  UNL     1     -13.609  -0.863  26.201  1.00  0.00    -0.123 SA
BRANCH  15  16
HETATM   16  C4  UNL     1     -14.526  -1.576  27.528  1.00  0.00     0.044 C 
HETATM   17  C5  UNL     1     -15.738  -2.357  27.004  1.00  0.00     0.021 C 
HETATM   18  C6  UNL     1     -13.651  -2.655  28.196  1.00  0.00     0.021 C 
ENDBRANCH  15  16
ENDBRANCH   5  15
BRANCH   9  19
HETATM   19  C11 UNL     1     -12.995   3.792  27.749  1.00  0.00     0.156 C 
HETATM   20  C12 UNL     1     -12.609   5.095  27.206  1.00  0.00     0.061 C 
HETATM   21  N4  UNL     1     -12.290   6.122  26.762  1.00  0.00    -0.197 NA
ENDBRANCH   9  19
TORSDOF 3
ENDMDL
MODEL 2
REMARK VINA RESULT: -5.086372695      3.557      5.633
REMARK  3 active torsions:
REMARK  status: ('A' for Active; 'I' for Inactive)
REMARK    1  A    between atoms: C3_5  and  S1_6 
REMARK    2  A    between atoms: S1_6  and  C4_7 
REMARK    3  A    between atoms: C9_13  and  C11_16 
ROOT
HETATM    1  C1  UNL     1      -8.093   6.243  26.931  1.00  0.00     0.146 C 
HETATM    2  N1  UNL     1      -9.444   5.759  26.980  1.00  0.00    -0.395 N 
ATOM      3  H1  UNL     1     -10.020   6.000  27.786  1.00  0.00     0.159 HD
HETATM    4  C2  UNL     1      -9.949   5.048  26.065  1.00  0.00     0.043 C 
HETATM    5  C3  UNL     1     -11.329   4.510  26.037  1.00  0.00     0.043 C 
HETATM    6  C7  UNL     1     -11.379   3.567  25.155  1.00  0.00     0.066 C 
HETATM    7  C8  UNL     1     -12.536   2.754  24.784  1.00  0.00     0.098 C 
HETATM    8  N2  UNL     1     -13.436   2.108  24.457  1.00  0.00    -0.192 NA
HETATM    9  C9  UNL     1     -10.066   3.362  24.496  1.00  0.00     0.120 C 
HETATM   10  C10 UNL     1     -10.253   3.278  23.046  1.00  0.00     0.077 C 
HETATM   11  N3  UNL     1     -10.414   3.214  21.899  1.00  0.00    -0.196 NA
HETATM   12  C13 UNL     1      -9.287   4.592  24.827  1.00  0.00     0.172 C 
HETATM   13  C14 UNL     1      -9.415   5.647  23.830  1.00  0.00     0.072 C 
HETATM   14  N5  UNL     1      -9.538   6.490  23.035  1.00  0.00    -0.196 NA
ENDROOT
BRANCH   5  15
HETATM   15  S1  UNL     1     -12.576   5.200  27.081  1.00  0.00    -0.123 SA
BRANCH  15  16
HETATM   16  C4  UNL     1     -12.885   4.406  28.625  1.00  0.00     0.044 C 
HETATM   17  C5  UNL     1     -11.674   3.575  29.070  1.00  0.00     0.021 C 
HETATM   18  C6  UNL     1     -13.009   5.491  29.713  1.00  0.00     0.021 C 
ENDBRANCH  15  16
ENDBRANCH   5  15
BRANCH   9  19
HETATM   19  C11 UNL     1      -9.386   2.082  24.948  1.00  0.00     0.156 C 
HETATM   20  C12 UNL     1      -7.994   2.163  24.507  1.00  0.00     0.061 C 
HETATM   21  N4  UNL     1      -6.889   2.245  24.151  1.00  0.00    -0.197 NA
ENDBRANCH   9  19
TORSDOF 3
ENDMDL
MODEL 3
REMARK VINA RESULT: -5.070710210      1.803      2.069
REMARK  3 active torsions:
REMARK  status: ('A' for Active; 'I' for Inactive)
REMARK    1  A    between atoms: C3_5  and  S1_6 
REMARK    2  A    between atoms: S1_6  and  C4_7 
REMARK    3  A    between atoms: C9_13  and  C11_16 
ROOT
HETATM    1  C1  UNL     1     -13.837   0.551  25.116  1.00  0.00     0.146 C 
HETATM    2  N1  UNL     1     -13.491   0.440  26.506  1.00  0.00    -0.395 N 
ATOM      3  H1  UNL     1     -13.802  -0.383  27.022  1.00  0.00     0.159 HD
HETATM    4  C2  UNL     1     -12.818   1.319  27.115  1.00  0.00     0.043 C 
HETATM    5  C3  UNL     1     -12.419   1.282  28.540  1.00  0.00     0.043 C 
HETATM    6  C7  UNL     1     -12.060   2.473  28.893  1.00  0.00     0.066 C 
HETATM    7  C8  UNL     1     -11.588   2.910  30.205  1.00  0.00     0.098 C 
HETATM    8  N2  UNL     1     -11.195   3.282  31.225  1.00  0.00    -0.192 NA
HETATM    9  C9  UNL     1     -12.169   3.434  27.767  1.00  0.00     0.120 C 
HETATM   10  C10 UNL     1     -10.947   4.237  27.688  1.00  0.00     0.077 C 
HETATM   11  N3  UNL     1      -9.974   4.866  27.635  1.00  0.00    -0.196 NA
HETATM   12  C13 UNL     1     -12.279   2.574  26.552  1.00  0.00     0.172 C 
HETATM   13  C14 UNL     1     -10.994   2.277  25.931  1.00  0.00     0.072 C 
HETATM   14  N5  UNL     1      -9.961   2.032  25.453  1.00  0.00    -0.196 NA
ENDROOT
BRANCH   5  15
HETATM   15  S1  UNL     1     -12.456  -0.239  29.437  1.00  0.00    -0.123 SA
BRANCH  15  16
HETATM   16  C4  UNL     1     -13.691  -1.420  28.999  1.00  0.00     0.044 C 
HETATM   17  C5  UNL     1     -13.098  -2.542  28.136  1.00  0.00     0.021 C 
HETATM   18  C6  UNL     1     -14.147  -2.143  30.281  1.00  0.00     0.021 C 
ENDBRANCH  15  16
ENDBRANCH   5  15
BRANCH   9  19
HETATM   19  C11 UNL     1     -13.337   4.388  27.935  1.00  0.00     0.156 C 
HETATM   20  C12 UNL     1     -13.462   5.130  26.681  1.00  0.00     0.061 C 
HETATM   21  N4  UNL     1     -13.548   5.709  25.675  1.00  0.00    -0.197 NA
ENDBRANCH   9  19
TORSDOF 3
ENDMDL
MODEL 4
REMARK VINA RESULT: -4.935755367      2.665      4.077
REMARK  3 active torsions:
REMARK  status: ('A' for Active; 'I' for Inactive)
REMARK    1  A    between atoms: C3_5  and  S1_6 
REMARK    2  A    between atoms: S1_6  and  C4_7 
REMARK    3  A    between atoms: C9_13  and  C11_16 
ROOT
HETATM    1  C1  UNL     1     -15.814   4.039  24.927  1.00  0.00     0.146 C 
HETATM    2  N1  UNL     1     -14.754   3.263  25.505  1.00  0.00    -0.395 N 
ATOM      3  H1  UNL     1     -14.930   2.770  26.380  1.00  0.00     0.159 HD
HETATM    4  C2  UNL     1     -13.611   3.165  24.974  1.00  0.00     0.043 C 
HETATM    5  C3  UNL     1     -12.466   2.389  25.501  1.00  0.00     0.043 C 
HETATM    6  C7  UNL     1     -11.392   2.793  24.907  1.00  0.00     0.066 C 
HETATM    7  C8  UNL     1     -10.027   2.312  25.106  1.00  0.00     0.098 C 
HETATM    8  N2  UNL     1      -8.940   1.940  25.228  1.00  0.00    -0.192 NA
HETATM    9  C9  UNL     1     -11.681   3.868  23.925  1.00  0.00     0.120 C 
HETATM   10  C10 UNL     1     -10.997   3.577  22.663  1.00  0.00     0.077 C 
HETATM   11  N3  UNL     1     -10.451   3.334  21.669  1.00  0.00    -0.196 NA
HETATM   12  C13 UNL     1     -13.158   3.796  23.718  1.00  0.00     0.172 C 
HETATM   13  C14 UNL     1     -13.549   2.933  22.611  1.00  0.00     0.072 C 
HETATM   14  N5  UNL     1     -13.852   2.228  21.734  1.00  0.00    -0.196 NA
ENDROOT
BRANCH   5  15
HETATM   15  S1  UNL     1     -12.725   1.129  26.712  1.00  0.00    -0.123 SA
BRANCH  15  16
HETATM   16  C4  UNL     1     -11.811   1.236  28.217  1.00  0.00     0.044 C 
HETATM   17  C5  UNL     1     -12.013   2.601  28.889  1.00  0.00     0.021 C 
HETATM   18  C6  UNL     1     -12.413   0.236  29.223  1.00  0.00     0.021 C 
ENDBRANCH  15  16
ENDBRANCH   5  15
BRANCH   9  19
HETATM   19  C11 UNL     1     -11.208   5.228  24.402  1.00  0.00     0.156 C 
HETATM   20  C12 UNL     1     -11.731   6.215  23.458  1.00  0.00     0.061 C 
HETATM   21  N4  UNL     1     -12.157   6.987  22.698  1.00  0.00    -0.197 NA
ENDBRANCH   9  19
TORSDOF 3
ENDMDL
MODEL 5
REMARK VINA RESULT: -4.898584505      2.740      5.699
REMARK  3 active torsions:
REMARK  status: ('A' for Active; 'I' for Inactive)
REMARK    1  A    between atoms: C3_5  and  S1_6 
REMARK    2  A    between atoms: S1_6  and  C4_7 
REMARK    3  A    between atoms: C9_13  and  C11_16 
ROOT
HETATM    1  C1  UNL     1     -11.488   2.684  28.765  1.00  0.00     0.146 C 
HETATM    2  N1  UNL     1     -10.637   2.692  27.609  1.00  0.00    -0.395 N 
ATOM      3  H1  UNL     1      -9.626   2.677  27.746  1.00  0.00     0.159 HD
HETATM    4  C2  UNL     1     -11.088   2.716  26.429  1.00  0.00     0.043 C 
HETATM    5  C3  UNL     1     -10.284   2.725  25.185  1.00  0.00     0.043 C 
HETATM    6  C7  UNL     1     -11.046   3.099  24.211  1.00  0.00     0.066 C 
HETATM    7  C8  UNL     1     -10.684   3.252  22.803  1.00  0.00     0.098 C 
HETATM    8  N2  UNL     1     -10.432   3.365  21.682  1.00  0.00    -0.192 NA
HETATM    9  C9  UNL     1     -12.429   3.379  24.672  1.00  0.00     0.120 C 
HETATM   10  C10 UNL     1     -13.386   2.734  23.772  1.00  0.00     0.077 C 
HETATM   11  N3  UNL     1     -14.134   2.219  23.051  1.00  0.00    -0.196 NA
HETATM   12  C13 UNL     1     -12.507   2.742  26.020  1.00  0.00     0.172 C 
HETATM   13  C14 UNL     1     -12.993   1.368  25.987  1.00  0.00     0.072 C 
HETATM   14  N5  UNL     1     -13.367   0.265  25.947  1.00  0.00    -0.196 NA
ENDROOT
BRANCH   5  15
HETATM   15  S1  UNL     1      -8.587   2.235  25.218  1.00  0.00    -0.123 SA
BRANCH  15  16
HETATM   16  C4  UNL     1      -7.389   3.453  25.655  1.00  0.00     0.044 C 
HETATM   17  C5  UNL     1      -8.036   4.837  25.797  1.00  0.00     0.021 C 
HETATM   18  C6  UNL     1      -6.873   3.140  27.073  1.00  0.00     0.021 C 
ENDBRANCH  15  16
ENDBRANCH   5  15
BRANCH   9  19
HETATM   19  C11 UNL     1     -12.741   4.864  24.692  1.00  0.00     0.156 C 
HETATM   20  C12 UNL     1     -14.042   5.015  25.342  1.00  0.00     0.061 C 
HETATM   21  N4  UNL     1     -15.077   5.116  25.865  1.00  0.00    -0.197 NA
ENDBRANCH   9  19
TORSDOF 3
ENDMDL
