MODEL 1
REMARK VINA RESULT: -4.889321742      0.000      0.000
REMARK  3 active torsions:
REMARK  status: ('A' for Active; 'I' for Inactive)
REMARK    1  A    between atoms: C2_2  and  C3_3 
REMARK    2  A    between atoms: C3_3  and  N1_4 
REMARK       I    between atoms: N1_4  and  C4_6 
REMARK    3  A    between atoms: C4_6  and  C5_8 
ROOT
HETATM    1  C5  UNL     1      -0.315 124.318 -11.292  1.00  0.00     0.042 C 
HETATM    2  C6  UNL     1      -1.154 124.075 -12.503  1.00  0.00     0.024 C 
HETATM    3  C7  UNL     1      -0.636 122.702 -12.951  1.00  0.00    -0.009 C 
HETATM    4  C8  UNL     1      -1.258 121.648 -12.029  1.00  0.00     0.010 C 
HETATM    5  C9  UNL     1      -0.120 121.989 -11.055  1.00  0.00    -0.009 C 
HETATM    6  C10 UNL     1      -0.541 123.226 -10.255  1.00  0.00     0.024 C 
HETATM    7  C11 UNL     1       0.657 122.474 -12.231  1.00  0.00    -0.005 C 
HETATM    8  C12 UNL     1       1.066 123.887 -11.813  1.00  0.00     0.024 C 
ENDROOT
BRANCH   1   9
HETATM    9  C4  UNL     1      -0.345 125.667 -10.769  1.00  0.00     0.226 C 
HETATM   10  N1  UNL     1      -1.497 126.455 -10.616  1.00  0.00    -0.357 N 
ATOM     11  H1  UNL     1      -2.398 126.065 -10.891  1.00  0.00     0.162 HD
HETATM   12  O1  UNL     1       0.766 126.186 -10.414  1.00  0.00    -0.273 OA
BRANCH  10  13
HETATM   13  C3  UNL     1      -1.454 127.800 -10.083  1.00  0.00     0.149 C 
BRANCH  13  14
HETATM   14  C2  UNL     1      -1.870 128.780 -11.092  1.00  0.00    -0.018 C 
HETATM   15  C1  UNL     1      -2.304 128.406 -12.266  1.00  0.00     0.008 C 
ENDBRANCH  13  14
ENDBRANCH  10  13
ENDBRANCH   1   9
TORSDOF 3
ENDMDL
MODEL 2
REMARK VINA RESULT: -4.880546564      0.349      1.345
REMARK  3 active torsions:
REMARK  status: ('A' for Active; 'I' for Inactive)
REMARK    1  A    between atoms: C2_2  and  C3_3 
REMARK    2  A    between atoms: C3_3  and  N1_4 
REMARK       I    between atoms: N1_4  and  C4_6 
REMARK    3  A    between atoms: C4_6  and  C5_8 
ROOT
HETATM    1  C5  UNL     1      -0.334 124.266 -11.292  1.00  0.00     0.042 C 
HETATM    2  C6  UNL     1      -1.090 123.263 -10.486  1.00  0.00     0.024 C 
HETATM    3  C7  UNL     1      -1.132 122.075 -11.455  1.00  0.00    -0.009 C 
HETATM    4  C8  UNL     1       0.245 121.401 -11.423  1.00  0.00     0.010 C 
HETATM    5  C9  UNL     1       0.672 122.476 -12.434  1.00  0.00    -0.009 C 
HETATM    6  C10 UNL     1       1.048 123.737 -11.649  1.00  0.00     0.024 C 
HETATM    7  C11 UNL     1      -0.766 122.608 -12.806  1.00  0.00    -0.005 C 
HETATM    8  C12 UNL     1      -1.023 124.109 -12.659  1.00  0.00     0.024 C 
ENDROOT
BRANCH   1   9
HETATM    9  C4  UNL     1      -0.352 125.621 -10.785  1.00  0.00     0.226 C 
HETATM   10  N1  UNL     1      -1.502 126.408 -10.608  1.00  0.00    -0.357 N 
ATOM     11  H1  UNL     1      -2.410 126.013 -10.852  1.00  0.00     0.162 HD
HETATM   12  O1  UNL     1       0.767 126.148 -10.470  1.00  0.00    -0.273 OA
BRANCH  10  13
HETATM   13  C3  UNL     1      -1.447 127.760 -10.094  1.00  0.00     0.149 C 
BRANCH  13  14
HETATM   14  C2  UNL     1      -1.867 128.729 -11.112  1.00  0.00    -0.018 C 
HETATM   15  C1  UNL     1      -2.279 128.342 -12.290  1.00  0.00     0.008 C 
ENDBRANCH  13  14
ENDBRANCH  10  13
ENDBRANCH   1   9
TORSDOF 3
ENDMDL
MODEL 3
REMARK VINA RESULT: -4.677396982      0.775      1.240
REMARK  3 active torsions:
REMARK  status: ('A' for Active; 'I' for Inactive)
REMARK    1  A    between atoms: C2_2  and  C3_3 
REMARK    2  A    between atoms: C3_3  and  N1_4 
REMARK       I    between atoms: N1_4  and  C4_6 
REMARK    3  A    between atoms: C4_6  and  C5_8 
ROOT
HETATM    1  C5  UNL     1      -0.323 124.340 -11.300  1.00  0.00     0.042 C 
HETATM    2  C6  UNL     1      -1.166 124.139 -12.515  1.00  0.00     0.024 C 
HETATM    3  C7  UNL     1      -0.696 122.754 -12.976  1.00  0.00    -0.009 C 
HETATM    4  C8  UNL     1      -1.357 121.712 -12.066  1.00  0.00     0.010 C 
HETATM    5  C9  UNL     1      -0.211 122.003 -11.086  1.00  0.00    -0.009 C 
HETATM    6  C10 UNL     1      -0.590 123.247 -10.274  1.00  0.00     0.024 C 
HETATM    7  C11 UNL     1       0.586 122.473 -12.255  1.00  0.00    -0.005 C 
HETATM    8  C12 UNL     1       1.044 123.866 -11.822  1.00  0.00     0.024 C 
ENDROOT
BRANCH   1   9
HETATM    9  C4  UNL     1      -0.306 125.684 -10.763  1.00  0.00     0.226 C 
HETATM   10  N1  UNL     1      -1.430 126.510 -10.604  1.00  0.00    -0.357 N 
ATOM     11  H1  UNL     1      -2.344 126.155 -10.884  1.00  0.00     0.162 HD
HETATM   12  O1  UNL     1       0.822 126.161 -10.401  1.00  0.00    -0.273 OA
BRANCH  10  13
HETATM   13  C3  UNL     1      -1.341 127.848 -10.057  1.00  0.00     0.149 C 
BRANCH  13  14
HETATM   14  C2  UNL     1      -2.522 128.165  -9.246  1.00  0.00    -0.018 C 
HETATM   15  C1  UNL     1      -2.423 128.853  -8.140  1.00  0.00     0.008 C 
ENDBRANCH  13  14
ENDBRANCH  10  13
ENDBRANCH   1   9
TORSDOF 3
ENDMDL
MODEL 4
REMARK VINA RESULT: -4.586046159      1.497      1.917
REMARK  3 active torsions:
REMARK  status: ('A' for Active; 'I' for Inactive)
REMARK    1  A    between atoms: C2_2  and  C3_3 
REMARK    2  A    between atoms: C3_3  and  N1_4 
REMARK       I    between atoms: N1_4  and  C4_6 
REMARK    3  A    between atoms: C4_6  and  C5_8 
ROOT
HETATM    1  C5  UNL     1      -0.685 125.167 -11.337  1.00  0.00     0.042 C 
HETATM    2  C6  UNL     1      -1.340 124.482 -12.490  1.00  0.00     0.024 C 
HETATM    3  C7  UNL     1      -0.423 123.266 -12.672  1.00  0.00    -0.009 C 
HETATM    4  C8  UNL     1      -0.774 122.252 -11.577  1.00  0.00     0.010 C 
HETATM    5  C9  UNL     1       0.154 123.075 -10.671  1.00  0.00    -0.009 C 
HETATM    6  C10 UNL     1      -0.654 124.254 -10.118  1.00  0.00     0.024 C 
HETATM    7  C11 UNL     1       0.833 123.556 -11.909  1.00  0.00    -0.005 C 
HETATM    8  C12 UNL     1       0.793 125.077 -11.755  1.00  0.00     0.024 C 
ENDROOT
BRANCH   1   9
HETATM    9  C4  UNL     1      -1.133 126.517 -11.072  1.00  0.00     0.226 C 
HETATM   10  N1  UNL     1      -1.539 127.008  -9.820  1.00  0.00    -0.357 N 
ATOM     11  H1  UNL     1      -1.526 126.378  -9.018  1.00  0.00     0.162 HD
HETATM   12  O1  UNL     1      -1.161 127.333 -12.054  1.00  0.00    -0.273 OA
BRANCH  10  13
HETATM   13  C3  UNL     1      -1.975 128.374  -9.625  1.00  0.00     0.149 C 
BRANCH  13  14
HETATM   14  C2  UNL     1      -2.746 128.509  -8.385  1.00  0.00    -0.018 C 
HETATM   15  C1  UNL     1      -2.251 129.114  -7.338  1.00  0.00     0.008 C 
ENDBRANCH  13  14
ENDBRANCH  10  13
ENDBRANCH   1   9
TORSDOF 3
ENDMDL
MODEL 5
REMARK VINA RESULT: -4.563092162      0.563      1.617
REMARK  3 active torsions:
REMARK  status: ('A' for Active; 'I' for Inactive)
REMARK    1  A    between atoms: C2_2  and  C3_3 
REMARK    2  A    between atoms: C3_3  and  N1_4 
REMARK       I    between atoms: N1_4  and  C4_6 
REMARK    3  A    between atoms: C4_6  and  C5_8 
ROOT
HETATM    1  C5  UNL     1      -0.355 124.232 -11.168  1.00  0.00     0.042 C 
HETATM    2  C6  UNL     1       0.907 123.444 -11.035  1.00  0.00     0.024 C 
HETATM    3  C7  UNL     1       0.400 122.025 -11.318  1.00  0.00    -0.009 C 
HETATM    4  C8  UNL     1       0.208 121.894 -12.834  1.00  0.00     0.010 C 
HETATM    5  C9  UNL     1      -1.158 122.558 -12.607  1.00  0.00    -0.009 C 
HETATM    6  C10 UNL     1      -0.942 124.075 -12.564  1.00  0.00     0.024 C 
HETATM    7  C11 UNL     1      -1.093 122.069 -11.201  1.00  0.00    -0.005 C 
HETATM    8  C12 UNL     1      -1.331 123.339 -10.383  1.00  0.00     0.024 C 
ENDROOT
BRANCH   1   9
HETATM    9  C4  UNL     1      -0.297 125.595 -10.685  1.00  0.00     0.226 C 
HETATM   10  N1  UNL     1      -1.409 126.395 -10.375  1.00  0.00    -0.357 N 
ATOM     11  H1  UNL     1      -2.343 126.005 -10.494  1.00  0.00     0.162 HD
HETATM   12  O1  UNL     1       0.857 126.116 -10.524  1.00  0.00    -0.273 OA
BRANCH  10  13
HETATM   13  C3  UNL     1      -1.279 127.755  -9.894  1.00  0.00     0.149 C 
BRANCH  13  14
HETATM   14  C2  UNL     1      -1.950 128.699 -10.794  1.00  0.00    -0.018 C 
HETATM   15  C1  UNL     1      -2.199 128.392 -12.039  1.00  0.00     0.008 C 
ENDBRANCH  13  14
ENDBRANCH  10  13
ENDBRANCH   1   9
TORSDOF 3
ENDMDL
