MODEL 1
REMARK VINA RESULT: -4.743994320      0.000      0.000
REMARK  4 active torsions:
REMARK  status: ('A' for Active; 'I' for Inactive)
REMARK    1  A    between atoms: C2_2  and  C3_3 
REMARK    2  A    between atoms: C4_4  and  C5_5 
REMARK    3  A    between atoms: C10_11  and  C11_12 
REMARK    4  A    between atoms: N1_13  and  N2_15 
ROOT
HETATM    1  C1  UNL     1      -2.079 123.879 -13.203  1.00  0.00     0.048 C 
HETATM    2  C2  UNL     1      -0.869 123.128 -12.872  1.00  0.00    -0.061 C 
HETATM    3  C10 UNL     1       0.094 123.586 -12.113  1.00  0.00     0.025 C 
ENDROOT
BRANCH   2   4
HETATM    4  C3  UNL     1      -0.712 121.776 -13.418  1.00  0.00     0.005 C 
HETATM    5  C4  UNL     1       0.365 121.062 -13.294  1.00  0.00     0.005 C 
BRANCH   5   6
HETATM    6  C5  UNL     1       0.354 119.688 -13.921  1.00  0.00     0.144 C 
HETATM    7  C6  UNL     1      -0.987 119.031 -13.692  1.00  0.00     0.036 C 
HETATM    8  C7  UNL     1      -0.969 117.720 -14.468  1.00  0.00     0.005 C 
HETATM    9  C8  UNL     1      -0.912 118.095 -15.936  1.00  0.00     0.026 C 
HETATM   10  C9  UNL     1      -0.314 119.471 -16.130  1.00  0.00     0.168 C 
HETATM   11  O1  UNL     1       0.703 119.746 -15.247  1.00  0.00    -0.382 OA
ENDBRANCH   5   6
ENDBRANCH   2   4
BRANCH   3  12
HETATM   12  C11 UNL     1       0.241 124.833 -11.446  1.00  0.00     0.107 C 
HETATM   13  N1  UNL     1       0.557 125.143 -10.265  1.00  0.00    -0.318 N 
ATOM     14  H1  UNL     1       0.765 124.409  -9.588  1.00  0.00     0.185 HD
BRANCH  13  15
HETATM   15  N2  UNL     1       0.626 126.509  -9.869  1.00  0.00    -0.345 N 
ATOM     16  H22 UNL     1       1.516 127.000  -9.955  1.00  0.00     0.176 HD
ATOM     17  H21 UNL     1      -0.199 126.987  -9.506  1.00  0.00     0.176 HD
ENDBRANCH  13  15
ENDBRANCH   3  12
TORSDOF 4
ENDMDL
MODEL 2
REMARK VINA RESULT: -4.598923400      4.069      7.092
REMARK  4 active torsions:
REMARK  status: ('A' for Active; 'I' for Inactive)
REMARK    1  A    between atoms: C2_2  and  C3_3 
REMARK    2  A    between atoms: C4_4  and  C5_5 
REMARK    3  A    between atoms: C10_11  and  C11_12 
REMARK    4  A    between atoms: N1_13  and  N2_15 
ROOT
HETATM    1  C1  UNL     1      -2.558 122.308 -13.737  1.00  0.00     0.048 C 
HETATM    2  C2  UNL     1      -1.388 122.953 -13.139  1.00  0.00    -0.061 C 
HETATM    3  C10 UNL     1      -0.292 122.320 -12.808  1.00  0.00     0.025 C 
ENDROOT
BRANCH   2   4
HETATM    4  C3  UNL     1      -1.437 124.396 -12.889  1.00  0.00     0.005 C 
HETATM    5  C4  UNL     1      -0.582 125.036 -12.150  1.00  0.00     0.005 C 
BRANCH   5   6
HETATM    6  C5  UNL     1      -0.783 126.525 -12.000  1.00  0.00     0.144 C 
HETATM    7  C6  UNL     1      -2.125 126.922 -12.568  1.00  0.00     0.036 C 
HETATM    8  C7  UNL     1      -2.312 128.401 -12.254  1.00  0.00     0.005 C 
HETATM    9  C8  UNL     1      -2.428 128.505 -10.745  1.00  0.00     0.026 C 
HETATM   10  C9  UNL     1      -1.759 127.333 -10.060  1.00  0.00     0.168 C 
HETATM   11  O1  UNL     1      -0.614 126.919 -10.696  1.00  0.00    -0.382 OA
ENDBRANCH   5   6
ENDBRANCH   2   4
BRANCH   3  12
HETATM   12  C11 UNL     1       0.061 120.947 -12.918  1.00  0.00     0.107 C 
HETATM   13  N1  UNL     1       0.881 120.328 -13.650  1.00  0.00    -0.318 N 
ATOM     14  H1  UNL     1       1.444 120.843 -14.327  1.00  0.00     0.185 HD
BRANCH  13  15
HETATM   15  N2  UNL     1       1.028 118.916 -13.539  1.00  0.00    -0.345 N 
ATOM     16  H22 UNL     1       1.268 118.518 -12.631  1.00  0.00     0.176 HD
ATOM     17  H21 UNL     1       0.895 118.315 -14.351  1.00  0.00     0.176 HD
ENDBRANCH  13  15
ENDBRANCH   3  12
TORSDOF 4
ENDMDL
MODEL 3
REMARK VINA RESULT: -4.512885603      3.988      6.817
REMARK  4 active torsions:
REMARK  status: ('A' for Active; 'I' for Inactive)
REMARK    1  A    between atoms: C2_2  and  C3_3 
REMARK    2  A    between atoms: C4_4  and  C5_5 
REMARK    3  A    between atoms: C10_11  and  C11_12 
REMARK    4  A    between atoms: N1_13  and  N2_15 
ROOT
HETATM    1  C1  UNL     1       0.115 120.698 -11.112  1.00  0.00     0.048 C 
HETATM    2  C2  UNL     1       0.083 121.379 -12.406  1.00  0.00    -0.061 C 
HETATM    3  C10 UNL     1       0.225 120.773 -13.556  1.00  0.00     0.025 C 
ENDROOT
BRANCH   2   4
HETATM    4  C3  UNL     1      -0.119 122.830 -12.428  1.00  0.00     0.005 C 
HETATM    5  C4  UNL     1       0.705 123.688 -11.907  1.00  0.00     0.005 C 
BRANCH   5   6
HETATM    6  C5  UNL     1       0.339 125.148 -12.020  1.00  0.00     0.144 C 
HETATM    7  C6  UNL     1      -1.121 125.285 -12.382  1.00  0.00     0.036 C 
HETATM    8  C7  UNL     1      -1.444 126.773 -12.338  1.00  0.00     0.005 C 
HETATM    9  C8  UNL     1      -1.313 127.196 -10.888  1.00  0.00     0.026 C 
HETATM   10  C9  UNL     1      -0.388 126.270 -10.127  1.00  0.00     0.168 C 
HETATM   11  O1  UNL     1       0.675 125.833 -10.879  1.00  0.00    -0.382 OA
ENDBRANCH   5   6
ENDBRANCH   2   4
BRANCH   3  12
HETATM   12  C11 UNL     1       0.434 119.401 -13.868  1.00  0.00     0.107 C 
HETATM   13  N1  UNL     1       1.466 118.732 -14.148  1.00  0.00    -0.318 N 
ATOM     14  H1  UNL     1       2.376 119.193 -14.177  1.00  0.00     0.185 HD
BRANCH  13  15
HETATM   15  N2  UNL     1       1.372 117.338 -14.422  1.00  0.00    -0.345 N 
ATOM     16  H22 UNL     1       1.215 116.695 -13.646  1.00  0.00     0.176 HD
ATOM     17  H21 UNL     1       1.461 116.990 -15.376  1.00  0.00     0.176 HD
ENDBRANCH  13  15
ENDBRANCH   3  12
TORSDOF 4
ENDMDL
MODEL 4
REMARK VINA RESULT: -4.511701832      1.272      1.797
REMARK  4 active torsions:
REMARK  status: ('A' for Active; 'I' for Inactive)
REMARK    1  A    between atoms: C2_2  and  C3_3 
REMARK    2  A    between atoms: C4_4  and  C5_5 
REMARK    3  A    between atoms: C10_11  and  C11_12 
REMARK    4  A    between atoms: N1_13  and  N2_15 
ROOT
HETATM    1  C1  UNL     1      -1.770 123.690 -13.154  1.00  0.00     0.048 C 
HETATM    2  C2  UNL     1      -0.535 123.025 -12.740  1.00  0.00    -0.061 C 
HETATM    3  C10 UNL     1       0.373 123.575 -11.977  1.00  0.00     0.025 C 
ENDROOT
BRANCH   2   4
HETATM    4  C3  UNL     1      -0.288 121.656 -13.204  1.00  0.00     0.005 C 
HETATM    5  C4  UNL     1      -1.112 120.979 -13.945  1.00  0.00     0.005 C 
BRANCH   5   6
HETATM    6  C5  UNL     1      -0.696 119.580 -14.331  1.00  0.00     0.144 C 
HETATM    7  C6  UNL     1       0.810 119.493 -14.408  1.00  0.00     0.036 C 
HETATM    8  C7  UNL     1       1.151 118.030 -14.660  1.00  0.00     0.005 C 
HETATM    9  C8  UNL     1       0.734 117.274 -13.413  1.00  0.00     0.026 C 
HETATM   10  C9  UNL     1      -0.348 118.014 -12.658  1.00  0.00     0.168 C 
HETATM   11  O1  UNL     1      -1.244 118.649 -13.483  1.00  0.00    -0.382 OA
ENDBRANCH   5   6
ENDBRANCH   2   4
BRANCH   3  12
HETATM   12  C11 UNL     1       0.430 124.863 -11.376  1.00  0.00     0.107 C 
HETATM   13  N1  UNL     1       0.562 125.249 -10.183  1.00  0.00    -0.318 N 
ATOM     14  H1  UNL     1       0.653 124.560  -9.436  1.00  0.00     0.185 HD
BRANCH  13  15
HETATM   15  N2  UNL     1       0.586 126.638  -9.869  1.00  0.00    -0.345 N 
ATOM     16  H22 UNL     1       0.089 126.961  -9.039  1.00  0.00     0.176 HD
ATOM     17  H21 UNL     1       1.090 127.295 -10.463  1.00  0.00     0.176 HD
ENDBRANCH  13  15
ENDBRANCH   3  12
TORSDOF 4
ENDMDL
MODEL 5
REMARK VINA RESULT: -4.495547735      3.839      6.563
REMARK  4 active torsions:
REMARK  status: ('A' for Active; 'I' for Inactive)
REMARK    1  A    between atoms: C2_2  and  C3_3 
REMARK    2  A    between atoms: C4_4  and  C5_5 
REMARK    3  A    between atoms: C10_11  and  C11_12 
REMARK    4  A    between atoms: N1_13  and  N2_15 
ROOT
HETATM    1  C1  UNL     1       0.451 120.619 -13.454  1.00  0.00     0.048 C 
HETATM    2  C2  UNL     1       0.152 121.347 -12.220  1.00  0.00    -0.061 C 
HETATM    3  C10 UNL     1       0.066 120.786 -11.042  1.00  0.00     0.025 C 
ENDROOT
BRANCH   2   4
HETATM    4  C3  UNL     1      -0.067 122.794 -12.297  1.00  0.00     0.005 C 
HETATM    5  C4  UNL     1       0.752 123.680 -11.818  1.00  0.00     0.005 C 
BRANCH   5   6
HETATM    6  C5  UNL     1       0.368 125.131 -11.986  1.00  0.00     0.144 C 
HETATM    7  C6  UNL     1      -1.092 125.236 -12.358  1.00  0.00     0.036 C 
HETATM    8  C7  UNL     1      -1.435 126.721 -12.369  1.00  0.00     0.005 C 
HETATM    9  C8  UNL     1      -1.315 127.196 -10.934  1.00  0.00     0.026 C 
HETATM   10  C9  UNL     1      -0.383 126.311 -10.137  1.00  0.00     0.168 C 
HETATM   11  O1  UNL     1       0.690 125.861 -10.868  1.00  0.00    -0.382 OA
ENDBRANCH   5   6
ENDBRANCH   2   4
BRANCH   3  12
HETATM   12  C11 UNL     1       0.222 119.431 -10.641  1.00  0.00     0.107 C 
HETATM   13  N1  UNL     1       1.190 118.784 -10.155  1.00  0.00    -0.318 N 
ATOM     14  H1  UNL     1       2.079 119.257  -9.985  1.00  0.00     0.185 HD
BRANCH  13  15
HETATM   15  N2  UNL     1       1.054 117.402  -9.843  1.00  0.00    -0.345 N 
ATOM     16  H22 UNL     1       0.467 117.133  -9.053  1.00  0.00     0.176 HD
ATOM     17  H21 UNL     1       1.535 116.695 -10.398  1.00  0.00     0.176 HD
ENDBRANCH  13  15
ENDBRANCH   3  12
TORSDOF 4
ENDMDL
