MODEL 1
REMARK VINA RESULT: -6.688824175      0.000      0.000
REMARK  9 active torsions:
REMARK  status: ('A' for Active; 'I' for Inactive)
REMARK    1  A    between atoms: C2_2  and  C4_4 
REMARK    2  A    between atoms: C4_4  and  C5_5 
REMARK    3  A    between atoms: C6_6  and  C7_7 
REMARK    4  A    between atoms: C7_7  and  C8_8 
REMARK    5  A    between atoms: C10_13  and  C11_14 
REMARK       I    between atoms: C11_14  and  N2_16 
REMARK    6  A    between atoms: N2_16  and  C12_18 
REMARK    7  A    between atoms: C12_18  and  C13_19 
REMARK    8  A    between atoms: C14_20  and  C15_21 
REMARK    9  A    between atoms: N3_23  and  N4_25 
ROOT
HETATM    1  C11 UNL     1       1.852  36.299  10.152  1.00  0.00     0.241 C 
HETATM    2  O2  UNL     1       1.279  37.025  10.972  1.00  0.00    -0.271 OA
HETATM    3  N2  UNL     1       2.150  36.731   8.872  1.00  0.00    -0.356 N 
ATOM      4  H2  UNL     1       2.608  36.010   8.312  1.00  0.00     0.162 HD
ENDROOT
BRANCH   1   5
HETATM    5  C10 UNL     1       2.255  34.887  10.455  1.00  0.00     0.190 C 
HETATM    6  C8  UNL     1       1.646  34.058  11.423  1.00  0.00     0.113 C 
HETATM    7  C9  UNL     1       0.399  34.204  10.588  1.00  0.00     0.225 C 
HETATM    8  O1  UNL     1      -0.830  34.323  10.677  1.00  0.00    -0.273 OA
HETATM    9  N1  UNL     1       1.288  34.155   9.514  1.00  0.00    -0.347 N 
ATOM     10  H1  UNL     1       1.293  33.801   8.557  1.00  0.00     0.163 HD
BRANCH   6  11
HETATM   11  C7  UNL     1       1.441  34.063  12.862  1.00  0.00     0.043 C 
BRANCH  11  12
HETATM   12  C6  UNL     1       1.820  32.665  13.354  1.00  0.00    -0.029 C 
HETATM   13  C5  UNL     1       1.214  31.572  13.319  1.00  0.00    -0.026 C 
BRANCH  13  14
HETATM   14  C4  UNL     1      -0.136  31.207  12.765  1.00  0.00     0.059 C 
BRANCH  14  15
HETATM   15  C2  UNL     1       0.047  30.246  11.615  1.00  0.00    -0.090 C 
HETATM   16  C1  UNL     1      -0.637  29.092  11.681  1.00  0.00     0.014 C 
HETATM   17  C3  UNL     1       0.906  30.549  10.469  1.00  0.00     0.043 C 
ENDBRANCH  14  15
ENDBRANCH  13  14
ENDBRANCH  11  12
ENDBRANCH   6  11
ENDBRANCH   1   5
BRANCH   3  18
HETATM   18  C12 UNL     1       1.964  37.958   8.147  1.00  0.00     0.150 C 
BRANCH  18  19
HETATM   19  C13 UNL     1       1.516  37.733   6.776  1.00  0.00    -0.005 C 
HETATM   20  C14 UNL     1       1.748  38.403   5.677  1.00  0.00     0.024 C 
BRANCH  20  21
HETATM   21  C15 UNL     1       2.535  39.561   5.456  1.00  0.00     0.023 C 
HETATM   22  C16 UNL     1       3.814  39.872   6.163  1.00  0.00     0.070 C 
HETATM   23  N3  UNL     1       2.241  40.441   4.515  1.00  0.00    -0.291 N 
ATOM     24  H3  UNL     1       2.859  41.246   4.416  1.00  0.00     0.188 HD
BRANCH  23  25
HETATM   25  N4  UNL     1       1.176  40.358   3.665  1.00  0.00    -0.249 N 
HETATM   26  N5  UNL     1       0.097  41.036   3.824  1.00  0.00    -0.331 N 
ATOM     27  H52 UNL     1       0.050  41.662   4.628  1.00  0.00     0.178 HD
ATOM     28  H51 UNL     1      -0.698  40.974   3.189  1.00  0.00     0.178 HD
ATOM     29  H4  UNL     1       1.239  39.727   2.866  1.00  0.00     0.207 HD
ENDBRANCH  23  25
ENDBRANCH  20  21
ENDBRANCH  18  19
ENDBRANCH   3  18
TORSDOF 9
ENDMDL
MODEL 2
REMARK VINA RESULT: -6.518739825      8.721      9.995
REMARK  9 active torsions:
REMARK  status: ('A' for Active; 'I' for Inactive)
REMARK    1  A    between atoms: C2_2  and  C4_4 
REMARK    2  A    between atoms: C4_4  and  C5_5 
REMARK    3  A    between atoms: C6_6  and  C7_7 
REMARK    4  A    between atoms: C7_7  and  C8_8 
REMARK    5  A    between atoms: C10_13  and  C11_14 
REMARK       I    between atoms: C11_14  and  N2_16 
REMARK    6  A    between atoms: N2_16  and  C12_18 
REMARK    7  A    between atoms: C12_18  and  C13_19 
REMARK    8  A    between atoms: C14_20  and  C15_21 
REMARK    9  A    between atoms: N3_23  and  N4_25 
ROOT
HETATM    1  C11 UNL     1       4.499  26.551   5.994  1.00  0.00     0.241 C 
HETATM    2  O2  UNL     1       4.491  27.349   6.938  1.00  0.00    -0.271 OA
HETATM    3  N2  UNL     1       5.524  26.525   5.065  1.00  0.00    -0.356 N 
ATOM      4  H2  UNL     1       5.376  25.823   4.339  1.00  0.00     0.162 HD
ENDROOT
BRANCH   1   5
HETATM    5  C10 UNL     1       3.398  25.562   5.753  1.00  0.00     0.190 C 
HETATM    6  C8  UNL     1       2.019  25.864   5.760  1.00  0.00     0.113 C 
HETATM    7  C9  UNL     1       2.334  26.768   4.595  1.00  0.00     0.225 C 
HETATM    8  O1  UNL     1       2.037  27.863   4.097  1.00  0.00    -0.273 OA
HETATM    9  N1  UNL     1       3.228  25.758   4.240  1.00  0.00    -0.347 N 
ATOM     10  H1  UNL     1       3.594  25.345   3.382  1.00  0.00     0.163 HD
BRANCH   6  11
HETATM   11  C7  UNL     1       1.038  26.374   6.703  1.00  0.00     0.043 C 
BRANCH  11  12
HETATM   12  C6  UNL     1      -0.308  25.775   6.289  1.00  0.00    -0.029 C 
HETATM   13  C5  UNL     1      -1.406  25.695   6.882  1.00  0.00    -0.026 C 
BRANCH  13  14
HETATM   14  C4  UNL     1      -1.832  26.171   8.244  1.00  0.00     0.059 C 
BRANCH  14  15
HETATM   15  C2  UNL     1      -3.253  25.730   8.496  1.00  0.00    -0.090 C 
HETATM   16  C1  UNL     1      -4.061  25.665   7.425  1.00  0.00     0.014 C 
HETATM   17  C3  UNL     1      -3.738  25.369   9.829  1.00  0.00     0.043 C 
ENDBRANCH  14  15
ENDBRANCH  13  14
ENDBRANCH  11  12
ENDBRANCH   6  11
ENDBRANCH   1   5
BRANCH   3  18
HETATM   18  C12 UNL     1       6.747  27.257   4.884  1.00  0.00     0.150 C 
BRANCH  18  19
HETATM   19  C13 UNL     1       6.777  27.992   3.624  1.00  0.00    -0.005 C 
HETATM   20  C14 UNL     1       6.059  29.000   3.201  1.00  0.00     0.024 C 
BRANCH  20  21
HETATM   21  C15 UNL     1       5.027  29.726   3.847  1.00  0.00     0.023 C 
HETATM   22  C16 UNL     1       5.147  30.370   5.190  1.00  0.00     0.070 C 
HETATM   23  N3  UNL     1       3.872  29.979   3.257  1.00  0.00    -0.291 N 
ATOM     24  H3  UNL     1       3.182  30.512   3.787  1.00  0.00     0.188 HD
BRANCH  23  25
HETATM   25  N4  UNL     1       3.528  29.583   1.997  1.00  0.00    -0.249 N 
HETATM   26  N5  UNL     1       3.684  30.325   0.961  1.00  0.00    -0.331 N 
ATOM     27  H52 UNL     1       4.085  31.252   1.104  1.00  0.00     0.178 HD
ATOM     28  H51 UNL     1       3.427  30.030   0.020  1.00  0.00     0.178 HD
ATOM     29  H4  UNL     1       3.127  28.654   1.872  1.00  0.00     0.207 HD
ENDBRANCH  23  25
ENDBRANCH  20  21
ENDBRANCH  18  19
ENDBRANCH   3  18
TORSDOF 9
ENDMDL
MODEL 3
REMARK VINA RESULT: -6.486550408      1.416      1.835
REMARK  9 active torsions:
REMARK  status: ('A' for Active; 'I' for Inactive)
REMARK    1  A    between atoms: C2_2  and  C4_4 
REMARK    2  A    between atoms: C4_4  and  C5_5 
REMARK    3  A    between atoms: C6_6  and  C7_7 
REMARK    4  A    between atoms: C7_7  and  C8_8 
REMARK    5  A    between atoms: C10_13  and  C11_14 
REMARK       I    between atoms: C11_14  and  N2_16 
REMARK    6  A    between atoms: N2_16  and  C12_18 
REMARK    7  A    between atoms: C12_18  and  C13_19 
REMARK    8  A    between atoms: C14_20  and  C15_21 
REMARK    9  A    between atoms: N3_23  and  N4_25 
ROOT
HETATM    1  C11 UNL     1       2.980  36.106   8.939  1.00  0.00     0.241 C 
HETATM    2  O2  UNL     1       3.856  36.854   9.389  1.00  0.00    -0.271 OA
HETATM    3  N2  UNL     1       2.387  36.328   7.709  1.00  0.00    -0.356 N 
ATOM      4  H2  UNL     1       1.673  35.633   7.488  1.00  0.00     0.162 HD
ENDROOT
BRANCH   1   5
HETATM    5  C10 UNL     1       2.465  34.913   9.686  1.00  0.00     0.190 C 
HETATM    6  C8  UNL     1       2.487  34.760  11.090  1.00  0.00     0.113 C 
HETATM    7  C9  UNL     1       1.586  35.970  11.114  1.00  0.00     0.225 C 
HETATM    8  O1  UNL     1       1.353  37.004  11.753  1.00  0.00    -0.273 OA
HETATM    9  N1  UNL     1       1.037  35.403   9.964  1.00  0.00    -0.347 N 
ATOM     10  H1  UNL     1       0.121  35.342   9.519  1.00  0.00     0.163 HD
BRANCH   6  11
HETATM   11  C7  UNL     1       3.483  34.700  12.146  1.00  0.00     0.043 C 
BRANCH  11  12
HETATM   12  C6  UNL     1       2.805  34.023  13.338  1.00  0.00    -0.029 C 
HETATM   13  C5  UNL     1       2.061  33.022  13.420  1.00  0.00    -0.026 C 
BRANCH  13  14
HETATM   14  C4  UNL     1       1.547  32.082  12.363  1.00  0.00     0.059 C 
BRANCH  14  15
HETATM   15  C2  UNL     1       0.039  32.055  12.420  1.00  0.00    -0.090 C 
HETATM   16  C1  UNL     1      -0.530  30.881  12.741  1.00  0.00     0.014 C 
HETATM   17  C3  UNL     1      -0.778  33.242  12.163  1.00  0.00     0.043 C 
ENDBRANCH  14  15
ENDBRANCH  13  14
ENDBRANCH  11  12
ENDBRANCH   6  11
ENDBRANCH   1   5
BRANCH   3  18
HETATM   18  C12 UNL     1       2.543  37.310   6.671  1.00  0.00     0.150 C 
BRANCH  18  19
HETATM   19  C13 UNL     1       1.596  38.413   6.800  1.00  0.00    -0.005 C 
HETATM   20  C14 UNL     1       1.618  39.624   6.307  1.00  0.00     0.024 C 
BRANCH  20  21
HETATM   21  C15 UNL     1       2.565  40.255   5.462  1.00  0.00     0.023 C 
HETATM   22  C16 UNL     1       3.989  40.521   5.824  1.00  0.00     0.070 C 
HETATM   23  N3  UNL     1       2.281  40.586   4.214  1.00  0.00    -0.291 N 
ATOM     24  H3  UNL     1       3.018  41.033   3.669  1.00  0.00     0.188 HD
BRANCH  23  25
HETATM   25  N4  UNL     1       1.080  40.379   3.598  1.00  0.00    -0.249 N 
HETATM   26  N5  UNL     1       0.078  41.170   3.730  1.00  0.00    -0.331 N 
ATOM     27  H52 UNL     1       0.201  41.988   4.326  1.00  0.00     0.178 HD
ATOM     28  H51 UNL     1      -0.818  41.015   3.269  1.00  0.00     0.178 HD
ATOM     29  H4  UNL     1       0.974  39.556   3.005  1.00  0.00     0.207 HD
ENDBRANCH  23  25
ENDBRANCH  20  21
ENDBRANCH  18  19
ENDBRANCH   3  18
TORSDOF 9
ENDMDL
MODEL 4
REMARK VINA RESULT: -6.441833470      5.088      6.381
REMARK  9 active torsions:
REMARK  status: ('A' for Active; 'I' for Inactive)
REMARK    1  A    between atoms: C2_2  and  C4_4 
REMARK    2  A    between atoms: C4_4  and  C5_5 
REMARK    3  A    between atoms: C6_6  and  C7_7 
REMARK    4  A    between atoms: C7_7  and  C8_8 
REMARK    5  A    between atoms: C10_13  and  C11_14 
REMARK       I    between atoms: C11_14  and  N2_16 
REMARK    6  A    between atoms: N2_16  and  C12_18 
REMARK    7  A    between atoms: C12_18  and  C13_19 
REMARK    8  A    between atoms: C14_20  and  C15_21 
REMARK    9  A    between atoms: N3_23  and  N4_25 
ROOT
HETATM    1  C11 UNL     1       3.493  32.311   7.772  1.00  0.00     0.241 C 
HETATM    2  O2  UNL     1       3.430  33.277   7.004  1.00  0.00    -0.271 OA
HETATM    3  N2  UNL     1       3.568  31.010   7.310  1.00  0.00    -0.356 N 
ATOM      4  H2  UNL     1       3.596  30.326   8.067  1.00  0.00     0.162 HD
ENDROOT
BRANCH   1   5
HETATM    5  C10 UNL     1       3.469  32.454   9.265  1.00  0.00     0.190 C 
HETATM    6  C8  UNL     1       2.466  33.122  10.001  1.00  0.00     0.113 C 
HETATM    7  C9  UNL     1       1.530  32.080   9.442  1.00  0.00     0.225 C 
HETATM    8  O1  UNL     1       0.379  31.928   9.012  1.00  0.00    -0.273 OA
HETATM    9  N1  UNL     1       2.618  31.223   9.609  1.00  0.00    -0.347 N 
ATOM     10  H1  UNL     1       2.775  30.244   9.848  1.00  0.00     0.163 HD
BRANCH   6  11
HETATM   11  C7  UNL     1       1.922  34.467  10.097  1.00  0.00     0.043 C 
BRANCH  11  12
HETATM   12  C6  UNL     1       1.743  34.753  11.589  1.00  0.00    -0.029 C 
HETATM   13  C5  UNL     1       0.848  34.433  12.401  1.00  0.00    -0.026 C 
BRANCH  13  14
HETATM   14  C4  UNL     1      -0.409  33.627  12.220  1.00  0.00     0.059 C 
BRANCH  14  15
HETATM   15  C2  UNL     1      -0.127  32.188  12.576  1.00  0.00    -0.090 C 
HETATM   16  C1  UNL     1      -1.057  31.286  12.218  1.00  0.00     0.014 C 
HETATM   17  C3  UNL     1       1.102  31.774  13.256  1.00  0.00     0.043 C 
ENDBRANCH  14  15
ENDBRANCH  13  14
ENDBRANCH  11  12
ENDBRANCH   6  11
ENDBRANCH   1   5
BRANCH   3  18
HETATM   18  C12 UNL     1       3.615  30.397   6.011  1.00  0.00     0.150 C 
BRANCH  18  19
HETATM   19  C13 UNL     1       4.963  29.975   5.642  1.00  0.00    -0.005 C 
HETATM   20  C14 UNL     1       5.511  29.781   4.471  1.00  0.00     0.024 C 
BRANCH  20  21
HETATM   21  C15 UNL     1       4.976  29.944   3.168  1.00  0.00     0.023 C 
HETATM   22  C16 UNL     1       4.064  28.972   2.493  1.00  0.00     0.070 C 
HETATM   23  N3  UNL     1       5.172  31.042   2.461  1.00  0.00    -0.291 N 
ATOM     24  H3  UNL     1       4.749  31.084   1.533  1.00  0.00     0.188 HD
BRANCH  23  25
HETATM   25  N4  UNL     1       5.894  32.126   2.872  1.00  0.00    -0.249 N 
HETATM   26  N5  UNL     1       5.801  33.281   2.322  1.00  0.00    -0.331 N 
ATOM     27  H52 UNL     1       5.151  33.378   1.541  1.00  0.00     0.178 HD
ATOM     28  H51 UNL     1       6.340  34.090   2.629  1.00  0.00     0.178 HD
ATOM     29  H4  UNL     1       6.539  32.011   3.654  1.00  0.00     0.207 HD
ENDBRANCH  23  25
ENDBRANCH  20  21
ENDBRANCH  18  19
ENDBRANCH   3  18
TORSDOF 9
ENDMDL
MODEL 5
REMARK VINA RESULT: -6.414118254      1.035      1.357
REMARK  9 active torsions:
REMARK  status: ('A' for Active; 'I' for Inactive)
REMARK    1  A    between atoms: C2_2  and  C4_4 
REMARK    2  A    between atoms: C4_4  and  C5_5 
REMARK    3  A    between atoms: C6_6  and  C7_7 
REMARK    4  A    between atoms: C7_7  and  C8_8 
REMARK    5  A    between atoms: C10_13  and  C11_14 
REMARK       I    between atoms: C11_14  and  N2_16 
REMARK    6  A    between atoms: N2_16  and  C12_18 
REMARK    7  A    between atoms: C12_18  and  C13_19 
REMARK    8  A    between atoms: C14_20  and  C15_21 
REMARK    9  A    between atoms: N3_23  and  N4_25 
ROOT
HETATM    1  C11 UNL     1       2.050  36.180   9.930  1.00  0.00     0.241 C 
HETATM    2  O2  UNL     1       1.625  37.029  10.722  1.00  0.00    -0.271 OA
HETATM    3  N2  UNL     1       2.221  36.451   8.585  1.00  0.00    -0.356 N 
ATOM      4  H2  UNL     1       2.562  35.644   8.063  1.00  0.00     0.162 HD
ENDROOT
BRANCH   1   5
HETATM    5  C10 UNL     1       2.395  34.781  10.344  1.00  0.00     0.190 C 
HETATM    6  C8  UNL     1       1.783  34.071  11.400  1.00  0.00     0.113 C 
HETATM    7  C9  UNL     1       0.515  34.207  10.595  1.00  0.00     0.225 C 
HETATM    8  O1  UNL     1      -0.703  34.395  10.713  1.00  0.00    -0.273 OA
HETATM    9  N1  UNL     1       1.361  34.020   9.502  1.00  0.00    -0.347 N 
ATOM     10  H1  UNL     1       1.315  33.585   8.581  1.00  0.00     0.163 HD
BRANCH   6  11
HETATM   11  C7  UNL     1       1.631  34.210  12.839  1.00  0.00     0.043 C 
BRANCH  11  12
HETATM   12  C6  UNL     1       2.261  32.962  13.460  1.00  0.00    -0.029 C 
HETATM   13  C5  UNL     1       1.842  31.792  13.597  1.00  0.00    -0.026 C 
BRANCH  13  14
HETATM   14  C4  UNL     1       0.541  31.154  13.192  1.00  0.00     0.059 C 
BRANCH  14  15
HETATM   15  C2  UNL     1       0.517  29.729  13.689  1.00  0.00    -0.090 C 
HETATM   16  C1  UNL     1       1.465  29.386  14.577  1.00  0.00     0.014 C 
HETATM   17  C3  UNL     1      -0.493  28.763  13.253  1.00  0.00     0.043 C 
ENDBRANCH  14  15
ENDBRANCH  13  14
ENDBRANCH  11  12
ENDBRANCH   6  11
ENDBRANCH   1   5
BRANCH   3  18
HETATM   18  C12 UNL     1       2.028  37.607   7.752  1.00  0.00     0.150 C 
BRANCH  18  19
HETATM   19  C13 UNL     1       2.751  37.509   6.487  1.00  0.00    -0.005 C 
HETATM   20  C14 UNL     1       3.017  38.412   5.580  1.00  0.00     0.024 C 
BRANCH  20  21
HETATM   21  C15 UNL     1       2.708  39.795   5.541  1.00  0.00     0.023 C 
HETATM   22  C16 UNL     1       3.473  40.861   6.255  1.00  0.00     0.070 C 
HETATM   23  N3  UNL     1       1.745  40.278   4.775  1.00  0.00    -0.291 N 
ATOM     24  H3  UNL     1       1.587  41.286   4.801  1.00  0.00     0.188 HD
BRANCH  23  25
HETATM   25  N4  UNL     1       0.945  39.537   3.954  1.00  0.00    -0.249 N 
HETATM   26  N5  UNL     1      -0.244  39.174   4.274  1.00  0.00    -0.331 N 
ATOM     27  H52 UNL     1      -0.593  39.462   5.188  1.00  0.00     0.178 HD
ATOM     28  H51 UNL     1      -0.841  38.621   3.660  1.00  0.00     0.178 HD
ATOM     29  H4  UNL     1       1.310  39.257   3.044  1.00  0.00     0.207 HD
ENDBRANCH  23  25
ENDBRANCH  20  21
ENDBRANCH  18  19
ENDBRANCH   3  18
TORSDOF 9
ENDMDL
