MODEL 1
REMARK VINA RESULT: -5.308835280      0.000      0.000
REMARK  12 active torsions:
REMARK  status: ('A' for Active; 'I' for Inactive)
REMARK    1  A    between atoms: C2_2  and  C3_3 
REMARK    2  A    between atoms: C3_3  and  O1_4 
REMARK    3  A    between atoms: O1_4  and  C4_5 
REMARK    4  A    between atoms: C4_5  and  C5_6 
REMARK    5  A    between atoms: C5_6  and  N1_7 
REMARK    6  A    between atoms: N1_7  and  C7_9 
REMARK    7  A    between atoms: C7_9  and  C8_10 
REMARK    8  A    between atoms: C8_10  and  N2_11 
REMARK       I    between atoms: N2_11  and  C9_13 
REMARK       I    between atoms: C9_13  and  N3_15 
REMARK    9  A    between atoms: N3_15  and  C10_17 
REMARK   10  A    between atoms: C10_17  and  C11_18 
REMARK   11  A    between atoms: C12_19  and  C13_20 
REMARK   12  A    between atoms: C14_21  and  C15_22 
ROOT
HETATM    1  N2  UNL     1       3.339  29.282   4.560  1.00  0.00    -0.341 N 
ATOM      2  H2  UNL     1       2.728  29.853   3.975  1.00  0.00     0.164 HD
HETATM    3  C9  UNL     1       3.045  27.900   4.651  1.00  0.00     0.316 C 
HETATM    4  O2  UNL     1       3.741  27.120   5.359  1.00  0.00    -0.247 OA
HETATM    5  N3  UNL     1       1.949  27.338   3.943  1.00  0.00    -0.333 N 
ATOM      6  H3  UNL     1       1.364  27.930   3.354  1.00  0.00     0.165 HD
ENDROOT
BRANCH   1   7
HETATM    7  C8  UNL     1       4.423  29.944   5.220  1.00  0.00     0.154 C 
BRANCH   7   8
HETATM    8  C7  UNL     1       4.073  30.222   6.676  1.00  0.00     0.291 C 
BRANCH   8   9
HETATM    9  N1  UNL     1       3.130  31.280   6.809  1.00  0.00     0.087 N 
HETATM   10  C6  UNL     1       3.772  32.498   7.162  1.00  0.00     0.310 C 
BRANCH   9  11
HETATM   11  C5  UNL     1       1.983  30.932   7.617  1.00  0.00     0.298 C 
BRANCH  11  12
HETATM   12  C4  UNL     1       1.705  31.935   8.688  1.00  0.00     0.198 C 
BRANCH  12  13
HETATM   13  O1  UNL     1       0.385  31.960   9.048  1.00  0.00    -0.386 OA
BRANCH  13  14
HETATM   14  C3  UNL     1       0.051  32.709  10.151  1.00  0.00     0.194 C 
BRANCH  14  15
HETATM   15  C2  UNL     1      -0.574  31.826  11.160  1.00  0.00    -0.011 C 
HETATM   16  C1  UNL     1      -0.259  31.890  12.430  1.00  0.00     0.009 C 
ENDBRANCH  14  15
ENDBRANCH  13  14
ENDBRANCH  12  13
ENDBRANCH  11  12
ENDBRANCH   9  11
ENDBRANCH   8   9
ENDBRANCH   7   8
ENDBRANCH   1   7
BRANCH   5  17
HETATM   17  C10 UNL     1       1.669  25.940   4.060  1.00  0.00     0.219 C 
BRANCH  17  18
HETATM   18  C11 UNL     1       0.455  25.704   4.884  1.00  0.00    -0.073 C 
HETATM   19  C12 UNL     1      -0.517  25.504   5.572  1.00  0.00    -0.013 C 
BRANCH  19  20
HETATM   20  C13 UNL     1      -1.640  25.262   6.400  1.00  0.00    -0.015 C 
HETATM   21  C14 UNL     1      -2.587  25.057   7.128  1.00  0.00    -0.088 C 
BRANCH  21  22
HETATM   22  C15 UNL     1      -3.718  24.816   8.029  1.00  0.00     0.066 A 
HETATM   23  C16 UNL     1      -4.835  25.804   7.857  1.00  0.00     0.018 A 
HETATM   24  C17 UNL     1      -3.954  25.780   9.104  1.00  0.00     0.018 A 
ENDBRANCH  21  22
ENDBRANCH  19  20
ENDBRANCH  17  18
ENDBRANCH   5  17
TORSDOF 12
ENDMDL
MODEL 2
REMARK VINA RESULT: -5.128263683      2.704      3.052
REMARK  12 active torsions:
REMARK  status: ('A' for Active; 'I' for Inactive)
REMARK    1  A    between atoms: C2_2  and  C3_3 
REMARK    2  A    between atoms: C3_3  and  O1_4 
REMARK    3  A    between atoms: O1_4  and  C4_5 
REMARK    4  A    between atoms: C4_5  and  C5_6 
REMARK    5  A    between atoms: C5_6  and  N1_7 
REMARK    6  A    between atoms: N1_7  and  C7_9 
REMARK    7  A    between atoms: C7_9  and  C8_10 
REMARK    8  A    between atoms: C8_10  and  N2_11 
REMARK       I    between atoms: N2_11  and  C9_13 
REMARK       I    between atoms: C9_13  and  N3_15 
REMARK    9  A    between atoms: N3_15  and  C10_17 
REMARK   10  A    between atoms: C10_17  and  C11_18 
REMARK   11  A    between atoms: C12_19  and  C13_20 
REMARK   12  A    between atoms: C14_21  and  C15_22 
ROOT
HETATM    1  N2  UNL     1       3.766  26.964   4.367  1.00  0.00    -0.341 N 
ATOM      2  H2  UNL     1       3.637  27.774   3.760  1.00  0.00     0.164 HD
HETATM    3  C9  UNL     1       2.833  25.906   4.247  1.00  0.00     0.316 C 
HETATM    4  O2  UNL     1       2.910  24.870   4.964  1.00  0.00    -0.247 OA
HETATM    5  N3  UNL     1       1.769  25.975   3.307  1.00  0.00    -0.333 N 
ATOM      6  H3  UNL     1       1.672  26.790   2.703  1.00  0.00     0.165 HD
ENDROOT
BRANCH   1   7
HETATM    7  C8  UNL     1       4.877  26.990   5.269  1.00  0.00     0.154 C 
BRANCH   7   8
HETATM    8  C7  UNL     1       5.483  28.386   5.332  1.00  0.00     0.291 C 
BRANCH   8   9
HETATM    9  N1  UNL     1       4.486  29.401   5.397  1.00  0.00     0.087 N 
HETATM   10  C6  UNL     1       4.907  30.577   4.717  1.00  0.00     0.310 C 
BRANCH   9  11
HETATM   11  C5  UNL     1       3.966  29.613   6.728  1.00  0.00     0.298 C 
BRANCH  11  12
HETATM   12  C4  UNL     1       2.501  29.905   6.737  1.00  0.00     0.198 C 
BRANCH  12  13
HETATM   13  O1  UNL     1       1.829  29.171   7.677  1.00  0.00    -0.386 OA
BRANCH  13  14
HETATM   14  C3  UNL     1       2.211  27.860   7.837  1.00  0.00     0.194 C 
BRANCH  14  15
HETATM   15  C2  UNL     1       1.038  26.988   7.611  1.00  0.00    -0.011 C 
HETATM   16  C1  UNL     1       0.221  26.658   8.581  1.00  0.00     0.009 C 
ENDBRANCH  14  15
ENDBRANCH  13  14
ENDBRANCH  12  13
ENDBRANCH  11  12
ENDBRANCH   9  11
ENDBRANCH   8   9
ENDBRANCH   7   8
ENDBRANCH   1   7
BRANCH   5  17
HETATM   17  C10 UNL     1       0.834  24.896   3.213  1.00  0.00     0.219 C 
BRANCH  17  18
HETATM   18  C11 UNL     1      -0.232  25.019   4.240  1.00  0.00    -0.073 C 
HETATM   19  C12 UNL     1      -1.086  25.139   5.085  1.00  0.00    -0.013 C 
BRANCH  19  20
HETATM   20  C13 UNL     1      -2.076  25.301   6.085  1.00  0.00    -0.015 C 
HETATM   21  C14 UNL     1      -2.921  25.464   6.939  1.00  0.00    -0.088 C 
BRANCH  21  22
HETATM   22  C15 UNL     1      -3.945  25.686   7.964  1.00  0.00     0.066 A 
HETATM   23  C16 UNL     1      -3.383  26.169   9.268  1.00  0.00     0.018 A 
HETATM   24  C17 UNL     1      -3.979  24.772   9.106  1.00  0.00     0.018 A 
ENDBRANCH  21  22
ENDBRANCH  19  20
ENDBRANCH  17  18
ENDBRANCH   5  17
TORSDOF 12
ENDMDL
MODEL 3
REMARK VINA RESULT: -5.045798710      1.222      1.376
REMARK  12 active torsions:
REMARK  status: ('A' for Active; 'I' for Inactive)
REMARK    1  A    between atoms: C2_2  and  C3_3 
REMARK    2  A    between atoms: C3_3  and  O1_4 
REMARK    3  A    between atoms: O1_4  and  C4_5 
REMARK    4  A    between atoms: C4_5  and  C5_6 
REMARK    5  A    between atoms: C5_6  and  N1_7 
REMARK    6  A    between atoms: N1_7  and  C7_9 
REMARK    7  A    between atoms: C7_9  and  C8_10 
REMARK    8  A    between atoms: C8_10  and  N2_11 
REMARK       I    between atoms: N2_11  and  C9_13 
REMARK       I    between atoms: C9_13  and  N3_15 
REMARK    9  A    between atoms: N3_15  and  C10_17 
REMARK   10  A    between atoms: C10_17  and  C11_18 
REMARK   11  A    between atoms: C12_19  and  C13_20 
REMARK   12  A    between atoms: C14_21  and  C15_22 
ROOT
HETATM    1  N2  UNL     1       4.246  27.235   5.062  1.00  0.00    -0.341 N 
ATOM      2  H2  UNL     1       4.750  26.428   5.431  1.00  0.00     0.164 HD
HETATM    3  C9  UNL     1       3.031  26.986   4.380  1.00  0.00     0.316 C 
HETATM    4  O2  UNL     1       2.347  27.923   3.882  1.00  0.00    -0.247 OA
HETATM    5  N3  UNL     1       2.535  25.663   4.232  1.00  0.00    -0.333 N 
ATOM      6  H3  UNL     1       3.051  24.876   4.624  1.00  0.00     0.165 HD
ENDROOT
BRANCH   1   7
HETATM    7  C8  UNL     1       4.827  28.526   5.277  1.00  0.00     0.154 C 
BRANCH   7   8
HETATM    8  C7  UNL     1       4.321  29.130   6.581  1.00  0.00     0.291 C 
BRANCH   8   9
HETATM    9  N1  UNL     1       3.511  30.280   6.360  1.00  0.00     0.087 N 
HETATM   10  C6  UNL     1       4.302  31.460   6.299  1.00  0.00     0.310 C 
BRANCH   9  11
HETATM   11  C5  UNL     1       2.364  30.354   7.237  1.00  0.00     0.298 C 
BRANCH  11  12
HETATM   12  C4  UNL     1       2.041  31.752   7.649  1.00  0.00     0.198 C 
BRANCH  12  13
HETATM   13  O1  UNL     1       0.886  31.825   8.381  1.00  0.00    -0.386 OA
BRANCH  13  14
HETATM   14  C3  UNL     1       1.017  31.944   9.745  1.00  0.00     0.194 C 
BRANCH  14  15
HETATM   15  C2  UNL     1      -0.176  32.635  10.282  1.00  0.00    -0.011 C 
HETATM   16  C1  UNL     1      -0.171  33.916  10.558  1.00  0.00     0.009 C 
ENDBRANCH  14  15
ENDBRANCH  13  14
ENDBRANCH  12  13
ENDBRANCH  11  12
ENDBRANCH   9  11
ENDBRANCH   8   9
ENDBRANCH   7   8
ENDBRANCH   1   7
BRANCH   5  17
HETATM   17  C10 UNL     1       1.309  25.439   3.530  1.00  0.00     0.219 C 
BRANCH  17  18
HETATM   18  C11 UNL     1       0.155  25.400   4.466  1.00  0.00    -0.073 C 
HETATM   19  C12 UNL     1      -0.774  25.390   5.238  1.00  0.00    -0.013 C 
BRANCH  19  20
HETATM   20  C13 UNL     1      -1.853  25.400   6.154  1.00  0.00    -0.015 C 
HETATM   21  C14 UNL     1      -2.762  25.406   6.957  1.00  0.00    -0.088 C 
BRANCH  21  22
HETATM   22  C15 UNL     1      -3.843  25.417   7.947  1.00  0.00     0.066 A 
HETATM   23  C16 UNL     1      -3.477  26.128   9.216  1.00  0.00     0.018 A 
HETATM   24  C17 UNL     1      -3.670  24.614   9.157  1.00  0.00     0.018 A 
ENDBRANCH  21  22
ENDBRANCH  19  20
ENDBRANCH  17  18
ENDBRANCH   5  17
TORSDOF 12
ENDMDL
MODEL 4
REMARK VINA RESULT: -5.042329100      3.683      5.166
REMARK  12 active torsions:
REMARK  status: ('A' for Active; 'I' for Inactive)
REMARK    1  A    between atoms: C2_2  and  C3_3 
REMARK    2  A    between atoms: C3_3  and  O1_4 
REMARK    3  A    between atoms: O1_4  and  C4_5 
REMARK    4  A    between atoms: C4_5  and  C5_6 
REMARK    5  A    between atoms: C5_6  and  N1_7 
REMARK    6  A    between atoms: N1_7  and  C7_9 
REMARK    7  A    between atoms: C7_9  and  C8_10 
REMARK    8  A    between atoms: C8_10  and  N2_11 
REMARK       I    between atoms: N2_11  and  C9_13 
REMARK       I    between atoms: C9_13  and  N3_15 
REMARK    9  A    between atoms: N3_15  and  C10_17 
REMARK   10  A    between atoms: C10_17  and  C11_18 
REMARK   11  A    between atoms: C12_19  and  C13_20 
REMARK   12  A    between atoms: C14_21  and  C15_22 
ROOT
HETATM    1  N2  UNL     1       2.776  27.976   3.131  1.00  0.00    -0.341 N 
ATOM      2  H2  UNL     1       2.482  28.150   2.169  1.00  0.00     0.164 HD
HETATM    3  C9  UNL     1       2.366  26.758   3.725  1.00  0.00     0.316 C 
HETATM    4  O2  UNL     1       2.675  26.464   4.914  1.00  0.00    -0.247 OA
HETATM    5  N3  UNL     1       1.589  25.816   2.999  1.00  0.00    -0.333 N 
ATOM      6  H3  UNL     1       1.323  26.009   2.034  1.00  0.00     0.165 HD
ENDROOT
BRANCH   1   7
HETATM    7  C8  UNL     1       3.568  28.984   3.768  1.00  0.00     0.154 C 
BRANCH   7   8
HETATM    8  C7  UNL     1       4.640  29.502   2.818  1.00  0.00     0.291 C 
BRANCH   8   9
HETATM    9  N1  UNL     1       5.721  30.114   3.512  1.00  0.00     0.087 N 
HETATM   10  C6  UNL     1       6.897  29.317   3.434  1.00  0.00     0.310 C 
BRANCH   9  11
HETATM   11  C5  UNL     1       5.372  30.566   4.839  1.00  0.00     0.298 C 
BRANCH  11  12
HETATM   12  C4  UNL     1       5.382  32.054   4.965  1.00  0.00     0.198 C 
BRANCH  12  13
HETATM   13  O1  UNL     1       5.723  32.673   3.792  1.00  0.00    -0.386 OA
BRANCH  13  14
HETATM   14  C3  UNL     1       6.767  33.566   3.836  1.00  0.00     0.194 C 
BRANCH  14  15
HETATM   15  C2  UNL     1       7.875  33.048   3.004  1.00  0.00    -0.011 C 
HETATM   16  C1  UNL     1       8.961  32.539   3.531  1.00  0.00     0.009 C 
ENDBRANCH  14  15
ENDBRANCH  13  14
ENDBRANCH  12  13
ENDBRANCH  11  12
ENDBRANCH   9  11
ENDBRANCH   8   9
ENDBRANCH   7   8
ENDBRANCH   1   7
BRANCH   5  17
HETATM   17  C10 UNL     1       1.181  24.597   3.626  1.00  0.00     0.219 C 
BRANCH  17  18
HETATM   18  C11 UNL     1       0.037  24.824   4.546  1.00  0.00    -0.073 C 
HETATM   19  C12 UNL     1      -0.879  25.023   5.308  1.00  0.00    -0.013 C 
BRANCH  19  20
HETATM   20  C13 UNL     1      -1.937  25.274   6.215  1.00  0.00    -0.015 C 
HETATM   21  C14 UNL     1      -2.839  25.466   7.001  1.00  0.00    -0.088 C 
BRANCH  21  22
HETATM   22  C15 UNL     1      -3.923  25.678   7.965  1.00  0.00     0.066 A 
HETATM   23  C16 UNL     1      -3.448  26.209   9.285  1.00  0.00     0.018 A 
HETATM   24  C17 UNL     1      -3.989  24.790   9.126  1.00  0.00     0.018 A 
ENDBRANCH  21  22
ENDBRANCH  19  20
ENDBRANCH  17  18
ENDBRANCH   5  17
TORSDOF 12
ENDMDL
MODEL 5
REMARK VINA RESULT: -5.041506454      3.660      6.784
REMARK  12 active torsions:
REMARK  status: ('A' for Active; 'I' for Inactive)
REMARK    1  A    between atoms: C2_2  and  C3_3 
REMARK    2  A    between atoms: C3_3  and  O1_4 
REMARK    3  A    between atoms: O1_4  and  C4_5 
REMARK    4  A    between atoms: C4_5  and  C5_6 
REMARK    5  A    between atoms: C5_6  and  N1_7 
REMARK    6  A    between atoms: N1_7  and  C7_9 
REMARK    7  A    between atoms: C7_9  and  C8_10 
REMARK    8  A    between atoms: C8_10  and  N2_11 
REMARK       I    between atoms: N2_11  and  C9_13 
REMARK       I    between atoms: C9_13  and  N3_15 
REMARK    9  A    between atoms: N3_15  and  C10_17 
REMARK   10  A    between atoms: C10_17  and  C11_18 
REMARK   11  A    between atoms: C12_19  and  C13_20 
REMARK   12  A    between atoms: C14_21  and  C15_22 
ROOT
HETATM    1  N2  UNL     1       3.166  29.049   3.899  1.00  0.00    -0.341 N 
ATOM      2  H2  UNL     1       2.625  29.458   3.137  1.00  0.00     0.164 HD
HETATM    3  C9  UNL     1       2.903  27.698   4.231  1.00  0.00     0.316 C 
HETATM    4  O2  UNL     1       3.519  27.113   5.165  1.00  0.00    -0.247 OA
HETATM    5  N3  UNL     1       1.931  26.947   3.516  1.00  0.00    -0.333 N 
ATOM      6  H3  UNL     1       1.415  27.377   2.749  1.00  0.00     0.165 HD
ENDROOT
BRANCH   1   7
HETATM    7  C8  UNL     1       4.130  29.888   4.544  1.00  0.00     0.154 C 
BRANCH   7   8
HETATM    8  C7  UNL     1       5.223  30.298   3.566  1.00  0.00     0.291 C 
BRANCH   8   9
HETATM    9  N1  UNL     1       6.506  29.829   3.966  1.00  0.00     0.087 N 
HETATM   10  C6  UNL     1       7.487  30.851   3.843  1.00  0.00     0.310 C 
BRANCH   9  11
HETATM   11  C5  UNL     1       6.864  28.558   3.378  1.00  0.00     0.298 C 
BRANCH  11  12
HETATM   12  C4  UNL     1       8.334  28.420   3.151  1.00  0.00     0.198 C 
BRANCH  12  13
HETATM   13  O1  UNL     1       8.804  27.189   3.522  1.00  0.00    -0.386 OA
BRANCH  13  14
HETATM   14  C3  UNL     1      10.112  26.900   3.212  1.00  0.00     0.194 C 
BRANCH  14  15
HETATM   15  C2  UNL     1      10.379  27.325   1.821  1.00  0.00    -0.011 C 
HETATM   16  C1  UNL     1      10.600  26.462   0.861  1.00  0.00     0.009 C 
ENDBRANCH  14  15
ENDBRANCH  13  14
ENDBRANCH  12  13
ENDBRANCH  11  12
ENDBRANCH   9  11
ENDBRANCH   8   9
ENDBRANCH   7   8
ENDBRANCH   1   7
BRANCH   5  17
HETATM   17  C10 UNL     1       1.679  25.586   3.878  1.00  0.00     0.219 C 
BRANCH  17  18
HETATM   18  C11 UNL     1       0.470  25.475   4.735  1.00  0.00    -0.073 C 
HETATM   19  C12 UNL     1      -0.501  25.364   5.444  1.00  0.00    -0.013 C 
BRANCH  19  20
HETATM   20  C13 UNL     1      -1.628  25.216   6.288  1.00  0.00    -0.015 C 
HETATM   21  C14 UNL     1      -2.585  25.066   7.018  1.00  0.00    -0.088 C 
BRANCH  21  22
HETATM   22  C15 UNL     1      -3.729  24.865   7.911  1.00  0.00     0.066 A 
HETATM   23  C16 UNL     1      -4.800  25.904   7.747  1.00  0.00     0.018 A 
HETATM   24  C17 UNL     1      -3.926  25.826   8.997  1.00  0.00     0.018 A 
ENDBRANCH  21  22
ENDBRANCH  19  20
ENDBRANCH  17  18
ENDBRANCH   5  17
TORSDOF 12
ENDMDL
