MODEL 1
REMARK VINA RESULT: -5.396990484      0.000      0.000
REMARK  11 active torsions:
REMARK  status: ('A' for Active; 'I' for Inactive)
REMARK    1  A    between atoms: C2_2  and  C3_3 
REMARK    2  A    between atoms: C3_3  and  N1_4 
REMARK    3  A    between atoms: C3_3  and  C13_17 
REMARK       I    between atoms: N1_4  and  C4_6 
REMARK    4  A    between atoms: C4_6  and  C5_8 
REMARK    5  A    between atoms: N2_10  and  C7_11 
REMARK    6  A    between atoms: C7_11  and  C8_12 
REMARK    7  A    between atoms: C8_12  and  C9_13 
REMARK       I    between atoms: C13_17  and  N3_19 
REMARK    8  A    between atoms: N3_19  and  C14_21 
REMARK    9  A    between atoms: C14_21  and  C15_22 
REMARK   10  A    between atoms: C15_22  and  N4_23 
REMARK   11  A    between atoms: N4_23  and  N5_24 
ROOT
HETATM    1  C3  UNL     1       4.123  28.637   4.117  1.00  0.00     0.176 C 
ENDROOT
BRANCH   1   2
HETATM    2  C2  UNL     1       4.577  29.067   2.749  1.00  0.00     0.030 C 
HETATM    3  C1  UNL     1       3.475  29.361   1.780  1.00  0.00     0.007 C 
ENDBRANCH   1   2
BRANCH   1   4
HETATM    4  N1  UNL     1       2.779  28.021   3.987  1.00  0.00    -0.346 N 
HETATM    5  C4  UNL     1       2.557  26.709   4.459  1.00  0.00     0.253 C 
HETATM    6  O1  UNL     1       3.502  26.081   4.983  1.00  0.00    -0.271 OA
ATOM      7  H1  UNL     1       2.017  28.546   3.557  1.00  0.00     0.163 HD
BRANCH   5   8
HETATM    8  C5  UNL     1       1.237  26.098   4.333  1.00  0.00     0.342 A 
HETATM    9  C6  UNL     1       1.185  24.987   3.280  1.00  0.00     0.319 A 
HETATM   10  N2  UNL     1       1.044  24.703   4.673  1.00  0.00     0.106 N 
BRANCH  10  11
HETATM   11  C7  UNL     1      -0.235  24.360   5.242  1.00  0.00     0.277 C 
BRANCH  11  12
HETATM   12  C8  UNL     1      -0.765  25.513   6.067  1.00  0.00     0.057 C 
BRANCH  12  13
HETATM   13  C9  UNL     1      -2.228  25.397   6.267  1.00  0.00    -0.023 C 
HETATM   14  C10 UNL     1      -2.761  25.691   7.429  1.00  0.00    -0.091 C 
HETATM   15  C11 UNL     1      -1.911  26.139   8.549  1.00  0.00     0.042 C 
HETATM   16  C12 UNL     1      -4.221  25.575   7.626  1.00  0.00     0.042 C 
ENDBRANCH  12  13
ENDBRANCH  11  12
ENDBRANCH  10  11
ENDBRANCH   5   8
ENDBRANCH   1   4
BRANCH   1  17
HETATM   17  C13 UNL     1       3.996  29.729   5.091  1.00  0.00     0.240 C 
HETATM   18  O2  UNL     1       4.597  30.841   4.883  1.00  0.00    -0.271 OA
HETATM   19  N3  UNL     1       3.240  29.668   6.283  1.00  0.00    -0.353 N 
ATOM     20  H3  UNL     1       2.730  28.812   6.504  1.00  0.00     0.162 HD
BRANCH  19  21
HETATM   21  C14 UNL     1       3.167  30.795   7.206  1.00  0.00     0.184 C 
BRANCH  21  22
HETATM   22  C15 UNL     1       1.809  31.364   7.257  1.00  0.00     0.200 C 
BRANCH  22  23
HETATM   23  N4  UNL     1       1.295  31.770   8.321  1.00  0.00    -0.348 NA
BRANCH  23  24
HETATM   24  N5  UNL     1       0.969  32.435   9.323  1.00  0.00    -0.281 N 
ATOM     25  H52 UNL     1       1.874  32.902   9.379  1.00  0.00     0.191 HD
ATOM     26  H51 UNL     1       0.473  32.848  10.112  1.00  0.00     0.191 HD
ENDBRANCH  23  24
ENDBRANCH  22  23
ENDBRANCH  21  22
ENDBRANCH  19  21
ENDBRANCH   1  17
TORSDOF 11
ENDMDL
MODEL 2
REMARK VINA RESULT: -5.347805212      2.410      3.103
REMARK  11 active torsions:
REMARK  status: ('A' for Active; 'I' for Inactive)
REMARK    1  A    between atoms: C2_2  and  C3_3 
REMARK    2  A    between atoms: C3_3  and  N1_4 
REMARK    3  A    between atoms: C3_3  and  C13_17 
REMARK       I    between atoms: N1_4  and  C4_6 
REMARK    4  A    between atoms: C4_6  and  C5_8 
REMARK    5  A    between atoms: N2_10  and  C7_11 
REMARK    6  A    between atoms: C7_11  and  C8_12 
REMARK    7  A    between atoms: C8_12  and  C9_13 
REMARK       I    between atoms: C13_17  and  N3_19 
REMARK    8  A    between atoms: N3_19  and  C14_21 
REMARK    9  A    between atoms: C14_21  and  C15_22 
REMARK   10  A    between atoms: C15_22  and  N4_23 
REMARK   11  A    between atoms: N4_23  and  N5_24 
ROOT
HETATM    1  C3  UNL     1       5.189  28.326   4.194  1.00  0.00     0.176 C 
ENDROOT
BRANCH   1   2
HETATM    2  C2  UNL     1       6.277  27.908   3.242  1.00  0.00     0.030 C 
HETATM    3  C1  UNL     1       7.629  28.475   3.537  1.00  0.00     0.007 C 
ENDBRANCH   1   2
BRANCH   1   4
HETATM    4  N1  UNL     1       3.919  27.701   3.749  1.00  0.00    -0.346 N 
HETATM    5  C4  UNL     1       3.031  27.156   4.702  1.00  0.00     0.253 C 
HETATM    6  O1  UNL     1       3.329  27.209   5.914  1.00  0.00    -0.271 OA
ATOM      7  H1  UNL     1       3.689  27.665   2.756  1.00  0.00     0.163 HD
BRANCH   5   8
HETATM    8  C5  UNL     1       1.780  26.539   4.270  1.00  0.00     0.342 A 
HETATM    9  C6  UNL     1       1.930  25.059   3.910  1.00  0.00     0.319 A 
HETATM   10  N2  UNL     1       1.181  25.477   5.053  1.00  0.00     0.106 N 
BRANCH  10  11
HETATM   11  C7  UNL     1      -0.259  25.431   5.064  1.00  0.00     0.277 C 
BRANCH  11  12
HETATM   12  C8  UNL     1      -0.779  25.681   6.463  1.00  0.00     0.057 C 
BRANCH  12  13
HETATM   13  C9  UNL     1      -2.242  25.463   6.535  1.00  0.00    -0.023 C 
HETATM   14  C10 UNL     1      -2.889  25.687   7.654  1.00  0.00    -0.091 C 
HETATM   15  C11 UNL     1      -2.167  26.158   8.852  1.00  0.00     0.042 C 
HETATM   16  C12 UNL     1      -4.348  25.469   7.723  1.00  0.00     0.042 C 
ENDBRANCH  12  13
ENDBRANCH  11  12
ENDBRANCH  10  11
ENDBRANCH   5   8
ENDBRANCH   1   4
BRANCH   1  17
HETATM   17  C13 UNL     1       4.952  29.774   4.254  1.00  0.00     0.240 C 
HETATM   18  O2  UNL     1       4.186  30.330   3.390  1.00  0.00    -0.271 OA
HETATM   19  N3  UNL     1       5.508  30.647   5.216  1.00  0.00    -0.353 N 
ATOM     20  H3  UNL     1       6.121  30.265   5.937  1.00  0.00     0.162 HD
BRANCH  19  21
HETATM   21  C14 UNL     1       5.228  32.079   5.207  1.00  0.00     0.184 C 
BRANCH  21  22
HETATM   22  C15 UNL     1       6.256  32.824   4.460  1.00  0.00     0.200 C 
BRANCH  22  23
HETATM   23  N4  UNL     1       6.088  33.190   3.278  1.00  0.00    -0.348 NA
BRANCH  23  24
HETATM   24  N5  UNL     1       5.703  33.311   2.098  1.00  0.00    -0.281 N 
ATOM     25  H52 UNL     1       4.809  32.856   2.282  1.00  0.00     0.191 HD
ATOM     26  H51 UNL     1       5.628  33.526   1.104  1.00  0.00     0.191 HD
ENDBRANCH  23  24
ENDBRANCH  22  23
ENDBRANCH  21  22
ENDBRANCH  19  21
ENDBRANCH   1  17
TORSDOF 11
ENDMDL
MODEL 3
REMARK VINA RESULT: -5.322654038      8.066      9.713
REMARK  11 active torsions:
REMARK  status: ('A' for Active; 'I' for Inactive)
REMARK    1  A    between atoms: C2_2  and  C3_3 
REMARK    2  A    between atoms: C3_3  and  N1_4 
REMARK    3  A    between atoms: C3_3  and  C13_17 
REMARK       I    between atoms: N1_4  and  C4_6 
REMARK    4  A    between atoms: C4_6  and  C5_8 
REMARK    5  A    between atoms: N2_10  and  C7_11 
REMARK    6  A    between atoms: C7_11  and  C8_12 
REMARK    7  A    between atoms: C8_12  and  C9_13 
REMARK       I    between atoms: C13_17  and  N3_19 
REMARK    8  A    between atoms: N3_19  and  C14_21 
REMARK    9  A    between atoms: C14_21  and  C15_22 
REMARK   10  A    between atoms: C15_22  and  N4_23 
REMARK   11  A    between atoms: N4_23  and  N5_24 
ROOT
HETATM    1  C3  UNL     1       3.437  37.055   8.006  1.00  0.00     0.176 C 
ENDROOT
BRANCH   1   2
HETATM    2  C2  UNL     1       4.029  36.261   6.873  1.00  0.00     0.030 C 
HETATM    3  C1  UNL     1       5.524  36.234   6.831  1.00  0.00     0.007 C 
ENDBRANCH   1   2
BRANCH   1   4
HETATM    4  N1  UNL     1       2.486  36.182   8.736  1.00  0.00    -0.346 N 
HETATM    5  C4  UNL     1       2.912  35.482   9.886  1.00  0.00     0.253 C 
HETATM    6  O1  UNL     1       4.093  35.609  10.275  1.00  0.00    -0.271 OA
ATOM      7  H1  UNL     1       1.525  36.087   8.408  1.00  0.00     0.163 HD
BRANCH   5   8
HETATM    8  C5  UNL     1       1.980  34.621  10.609  1.00  0.00     0.342 A 
HETATM    9  C6  UNL     1       1.317  35.315  11.801  1.00  0.00     0.319 A 
HETATM   10  N2  UNL     1       0.568  34.942  10.644  1.00  0.00     0.106 N 
BRANCH  10  11
HETATM   11  C7  UNL     1      -0.337  33.821  10.666  1.00  0.00     0.277 C 
BRANCH  11  12
HETATM   12  C8  UNL     1      -0.664  33.442  12.095  1.00  0.00     0.057 C 
BRANCH  12  13
HETATM   13  C9  UNL     1      -1.047  32.015  12.195  1.00  0.00    -0.023 C 
HETATM   14  C10 UNL     1      -0.237  31.152  12.760  1.00  0.00    -0.091 C 
HETATM   15  C11 UNL     1       1.063  31.591  13.301  1.00  0.00     0.042 C 
HETATM   16  C12 UNL     1      -0.622  29.729  12.858  1.00  0.00     0.042 C 
ENDBRANCH  12  13
ENDBRANCH  11  12
ENDBRANCH  10  11
ENDBRANCH   5   8
ENDBRANCH   1   4
BRANCH   1  17
HETATM   17  C13 UNL     1       2.686  38.247   7.591  1.00  0.00     0.240 C 
HETATM   18  O2  UNL     1       2.675  39.285   8.341  1.00  0.00    -0.271 OA
HETATM   19  N3  UNL     1       1.948  38.362   6.391  1.00  0.00    -0.353 N 
ATOM     20  H3  UNL     1       1.923  37.572   5.746  1.00  0.00     0.162 HD
BRANCH  19  21
HETATM   21  C14 UNL     1       1.221  39.580   6.050  1.00  0.00     0.184 C 
BRANCH  21  22
HETATM   22  C15 UNL     1       0.896  39.630   4.615  1.00  0.00     0.200 C 
BRANCH  22  23
HETATM   23  N4  UNL     1       0.109  40.475   4.137  1.00  0.00    -0.348 NA
BRANCH  23  24
HETATM   24  N5  UNL     1      -0.430  41.522   3.729  1.00  0.00    -0.281 N 
ATOM     25  H52 UNL     1      -0.091  41.395   2.776  1.00  0.00     0.191 HD
ATOM     26  H51 UNL     1      -0.951  42.395   3.651  1.00  0.00     0.191 HD
ENDBRANCH  23  24
ENDBRANCH  22  23
ENDBRANCH  21  22
ENDBRANCH  19  21
ENDBRANCH   1  17
TORSDOF 11
ENDMDL
MODEL 4
REMARK VINA RESULT: -5.213305608      7.032      8.964
REMARK  11 active torsions:
REMARK  status: ('A' for Active; 'I' for Inactive)
REMARK    1  A    between atoms: C2_2  and  C3_3 
REMARK    2  A    between atoms: C3_3  and  N1_4 
REMARK    3  A    between atoms: C3_3  and  C13_17 
REMARK       I    between atoms: N1_4  and  C4_6 
REMARK    4  A    between atoms: C4_6  and  C5_8 
REMARK    5  A    between atoms: N2_10  and  C7_11 
REMARK    6  A    between atoms: C7_11  and  C8_12 
REMARK    7  A    between atoms: C8_12  and  C9_13 
REMARK       I    between atoms: C13_17  and  N3_19 
REMARK    8  A    between atoms: N3_19  and  C14_21 
REMARK    9  A    between atoms: C14_21  and  C15_22 
REMARK   10  A    between atoms: C15_22  and  N4_23 
REMARK   11  A    between atoms: N4_23  and  N5_24 
ROOT
HETATM    1  C3  UNL     1       3.879  35.356   7.628  1.00  0.00     0.176 C 
ENDROOT
BRANCH   1   2
HETATM    2  C2  UNL     1       3.974  34.352   6.511  1.00  0.00     0.030 C 
HETATM    3  C1  UNL     1       4.722  33.101   6.848  1.00  0.00     0.007 C 
ENDBRANCH   1   2
BRANCH   1   4
HETATM    4  N1  UNL     1       2.730  34.984   8.489  1.00  0.00    -0.346 N 
HETATM    5  C4  UNL     1       2.955  34.528   9.806  1.00  0.00     0.253 C 
HETATM    6  O1  UNL     1       4.128  34.444  10.231  1.00  0.00    -0.271 OA
ATOM      7  H1  UNL     1       1.778  35.058   8.130  1.00  0.00     0.163 HD
BRANCH   5   8
HETATM    8  C5  UNL     1       1.828  34.160  10.658  1.00  0.00     0.342 A 
HETATM    9  C6  UNL     1       1.379  35.291  11.587  1.00  0.00     0.319 A 
HETATM   10  N2  UNL     1       0.554  34.835  10.514  1.00  0.00     0.106 N 
BRANCH  10  11
HETATM   11  C7  UNL     1      -0.619  34.035  10.759  1.00  0.00     0.277 C 
BRANCH  11  12
HETATM   12  C8  UNL     1      -0.609  33.513  12.180  1.00  0.00     0.057 C 
BRANCH  12  13
HETATM   13  C9  UNL     1      -0.996  32.085  12.227  1.00  0.00    -0.023 C 
HETATM   14  C10 UNL     1      -0.194  31.200  12.769  1.00  0.00    -0.091 C 
HETATM   15  C11 UNL     1       1.102  31.617  13.336  1.00  0.00     0.042 C 
HETATM   16  C12 UNL     1      -0.583  29.775  12.814  1.00  0.00     0.042 C 
ENDBRANCH  12  13
ENDBRANCH  11  12
ENDBRANCH  10  11
ENDBRANCH   5   8
ENDBRANCH   1   4
BRANCH   1  17
HETATM   17  C13 UNL     1       3.650  36.739   7.189  1.00  0.00     0.240 C 
HETATM   18  O2  UNL     1       4.251  37.703   7.781  1.00  0.00    -0.271 OA
HETATM   19  N3  UNL     1       2.798  37.121   6.128  1.00  0.00    -0.353 N 
ATOM     20  H3  UNL     1       2.295  36.400   5.611  1.00  0.00     0.162 HD
BRANCH  19  21
HETATM   21  C14 UNL     1       2.616  38.519   5.754  1.00  0.00     0.184 C 
BRANCH  21  22
HETATM   22  C15 UNL     1       1.221  38.800   5.373  1.00  0.00     0.200 C 
BRANCH  22  23
HETATM   23  N4  UNL     1       0.926  39.607   4.467  1.00  0.00    -0.348 NA
BRANCH  23  24
HETATM   24  N5  UNL     1       0.950  40.391   3.499  1.00  0.00    -0.281 N 
ATOM     25  H52 UNL     1       1.959  40.302   3.377  1.00  0.00     0.191 HD
ATOM     26  H51 UNL     1       0.707  41.044   2.753  1.00  0.00     0.191 HD
ENDBRANCH  23  24
ENDBRANCH  22  23
ENDBRANCH  21  22
ENDBRANCH  19  21
ENDBRANCH   1  17
TORSDOF 11
ENDMDL
MODEL 5
REMARK VINA RESULT: -5.181612847      8.144      9.588
REMARK  11 active torsions:
REMARK  status: ('A' for Active; 'I' for Inactive)
REMARK    1  A    between atoms: C2_2  and  C3_3 
REMARK    2  A    between atoms: C3_3  and  N1_4 
REMARK    3  A    between atoms: C3_3  and  C13_17 
REMARK       I    between atoms: N1_4  and  C4_6 
REMARK    4  A    between atoms: C4_6  and  C5_8 
REMARK    5  A    between atoms: N2_10  and  C7_11 
REMARK    6  A    between atoms: C7_11  and  C8_12 
REMARK    7  A    between atoms: C8_12  and  C9_13 
REMARK       I    between atoms: C13_17  and  N3_19 
REMARK    8  A    between atoms: N3_19  and  C14_21 
REMARK    9  A    between atoms: C14_21  and  C15_22 
REMARK   10  A    between atoms: C15_22  and  N4_23 
REMARK   11  A    between atoms: N4_23  and  N5_24 
ROOT
HETATM    1  C3  UNL     1       2.631  36.843   9.373  1.00  0.00     0.176 C 
ENDROOT
BRANCH   1   2
HETATM    2  C2  UNL     1       3.976  36.361   9.846  1.00  0.00     0.030 C 
HETATM    3  C1  UNL     1       4.502  37.050  11.065  1.00  0.00     0.007 C 
ENDBRANCH   1   2
BRANCH   1   4
HETATM    4  N1  UNL     1       1.692  35.694   9.398  1.00  0.00    -0.346 N 
HETATM    5  C4  UNL     1       0.903  35.455  10.544  1.00  0.00     0.253 C 
HETATM    6  O1  UNL     1       1.006  36.219  11.527  1.00  0.00    -0.271 OA
ATOM      7  H1  UNL     1       1.618  35.078   8.588  1.00  0.00     0.163 HD
BRANCH   5   8
HETATM    8  C5  UNL     1      -0.022  34.326  10.575  1.00  0.00     0.342 A 
HETATM    9  C6  UNL     1       0.635  32.997  10.192  1.00  0.00     0.319 A 
HETATM   10  N2  UNL     1       0.175  33.246  11.521  1.00  0.00     0.106 N 
BRANCH  10  11
HETATM   11  C7  UNL     1      -1.020  32.623  12.030  1.00  0.00     0.277 C 
BRANCH  11  12
HETATM   12  C8  UNL     1      -0.752  31.170  12.358  1.00  0.00     0.057 C 
BRANCH  12  13
HETATM   13  C9  UNL     1       0.483  31.022  13.161  1.00  0.00    -0.023 C 
HETATM   14  C10 UNL     1       0.739  29.893  13.778  1.00  0.00    -0.091 C 
HETATM   15  C11 UNL     1      -0.200  28.760  13.681  1.00  0.00     0.042 C 
HETATM   16  C12 UNL     1       1.973  29.749  14.578  1.00  0.00     0.042 C 
ENDBRANCH  12  13
ENDBRANCH  11  12
ENDBRANCH  10  11
ENDBRANCH   5   8
ENDBRANCH   1   4
BRANCH   1  17
HETATM   17  C13 UNL     1       2.618  37.371   8.003  1.00  0.00     0.240 C 
HETATM   18  O2  UNL     1       3.707  37.784   7.469  1.00  0.00    -0.271 OA
HETATM   19  N3  UNL     1       1.472  37.467   7.182  1.00  0.00    -0.353 N 
ATOM     20  H3  UNL     1       0.574  37.148   7.545  1.00  0.00     0.162 HD
BRANCH  19  21
HETATM   21  C14 UNL     1       1.538  38.010   5.830  1.00  0.00     0.184 C 
BRANCH  21  22
HETATM   22  C15 UNL     1       1.124  39.423   5.795  1.00  0.00     0.200 C 
BRANCH  22  23
HETATM   23  N4  UNL     1       1.011  40.060   4.726  1.00  0.00    -0.348 NA
BRANCH  23  24
HETATM   24  N5  UNL     1       1.078  40.448   3.544  1.00  0.00    -0.281 N 
ATOM     25  H52 UNL     1       1.079  39.499   3.171  1.00  0.00     0.191 HD
ATOM     26  H51 UNL     1       1.131  41.007   2.692  1.00  0.00     0.191 HD
ENDBRANCH  23  24
ENDBRANCH  22  23
ENDBRANCH  21  22
ENDBRANCH  19  21
ENDBRANCH   1  17
TORSDOF 11
ENDMDL
