MODEL 1
REMARK VINA RESULT: -4.322927690      0.000      0.000
REMARK  12 active torsions:
REMARK  status: ('A' for Active; 'I' for Inactive)
REMARK    1  A    between atoms: C2_2  and  C3_3 
REMARK       I    between atoms: C3_3  and  N1_5 
REMARK    2  A    between atoms: N1_5  and  C4_7 
REMARK    3  A    between atoms: C4_7  and  C5_8 
REMARK    4  A    between atoms: C5_8  and  N2_9 
REMARK    5  A    between atoms: N2_9  and  C6_10 
REMARK    6  A    between atoms: C6_10  and  C7_11 
REMARK    7  A    between atoms: C7_11  and  N3_12 
REMARK    8  A    between atoms: N3_12  and  C8_14 
REMARK    9  A    between atoms: C8_14  and  O2_15 
REMARK   10  A    between atoms: C8_14  and  C9_17 
REMARK   11  A    between atoms: C9_17  and  C10_18 
REMARK   12  A    between atoms: C15_23  and  C16_24 
ROOT
HETATM    1  N2  UNL     1       0.342  29.292  12.337  1.00  0.00    -0.054 N 
HETATM    2  C12 UNL     1       0.191  27.900  11.947  1.00  0.00     0.238 C 
HETATM    3  C13 UNL     1      -0.331  27.132  13.124  1.00  0.00     0.030 C 
HETATM    4  C14 UNL     1      -0.835  28.203  14.064  1.00  0.00     0.042 C 
HETATM    5  C15 UNL     1       0.131  29.339  13.749  1.00  0.00     0.251 C 
ENDROOT
BRANCH   1   6
HETATM    6  C5  UNL     1       1.595  29.883  11.935  1.00  0.00     0.258 C 
BRANCH   6   7
HETATM    7  C4  UNL     1       1.858  29.955  10.480  1.00  0.00     0.151 C 
BRANCH   7   8
HETATM    8  N1  UNL     1       2.537  31.214  10.125  1.00  0.00    -0.356 N 
HETATM    9  C3  UNL     1       1.929  32.123   9.236  1.00  0.00     0.240 C 
HETATM   10  O1  UNL     1       0.814  31.849   8.752  1.00  0.00    -0.269 OA
ATOM     11  H1  UNL     1       3.451  31.428  10.525  1.00  0.00     0.162 HD
BRANCH   9  12
HETATM   12  C2  UNL     1       2.584  33.356   8.885  1.00  0.00     0.064 C 
HETATM   13  C1  UNL     1       3.702  33.816   9.415  1.00  0.00     0.017 C 
ENDBRANCH   9  12
ENDBRANCH   7   8
ENDBRANCH   6   7
ENDBRANCH   1   6
BRANCH   1  14
HETATM   14  C6  UNL     1      -0.691  30.033  11.656  1.00  0.00     0.258 C 
BRANCH  14  15
HETATM   15  C7  UNL     1      -1.077  31.341  12.259  1.00  0.00     0.150 C 
BRANCH  15  16
HETATM   16  N3  UNL     1      -1.049  32.354  11.167  1.00  0.00    -0.369 N 
ATOM     17  H3  UNL     1      -1.382  32.099  10.237  1.00  0.00     0.161 HD
BRANCH  16  18
HETATM   18  C8  UNL     1      -0.579  33.635  11.393  1.00  0.00     0.135 C 
BRANCH  18  19
HETATM   19  O2  UNL     1      -1.005  34.530  10.543  1.00  0.00    -0.346 OA
ATOM     20  H2  UNL     1      -1.209  35.376  10.925  1.00  0.00     0.219 HD
ENDBRANCH  18  19
BRANCH  18  21
HETATM   21  C9  UNL     1       0.297  34.093  12.416  1.00  0.00     0.051 C 
BRANCH  21  22
HETATM   22  C10 UNL     1       1.594  34.021  12.515  1.00  0.00    -0.027 C 
HETATM   23  C11 UNL     1       2.382  33.096  13.290  1.00  0.00     0.036 C 
ENDBRANCH  21  22
ENDBRANCH  18  21
ENDBRANCH  16  18
ENDBRANCH  15  16
ENDBRANCH  14  15
ENDBRANCH   1  14
BRANCH   5  24
HETATM   24  C16 UNL     1       1.358  29.038  14.551  1.00  0.00     0.264 C 
HETATM   25  O3  UNL     1       1.235  28.896  15.753  1.00  0.00    -0.305 OA
ENDBRANCH   5  24
TORSDOF 12
ENDMDL
MODEL 2
REMARK VINA RESULT: -4.308683005      4.602      7.298
REMARK  12 active torsions:
REMARK  status: ('A' for Active; 'I' for Inactive)
REMARK    1  A    between atoms: C2_2  and  C3_3 
REMARK       I    between atoms: C3_3  and  N1_5 
REMARK    2  A    between atoms: N1_5  and  C4_7 
REMARK    3  A    between atoms: C4_7  and  C5_8 
REMARK    4  A    between atoms: C5_8  and  N2_9 
REMARK    5  A    between atoms: N2_9  and  C6_10 
REMARK    6  A    between atoms: C6_10  and  C7_11 
REMARK    7  A    between atoms: C7_11  and  N3_12 
REMARK    8  A    between atoms: N3_12  and  C8_14 
REMARK    9  A    between atoms: C8_14  and  O2_15 
REMARK   10  A    between atoms: C8_14  and  C9_17 
REMARK   11  A    between atoms: C9_17  and  C10_18 
REMARK   12  A    between atoms: C15_23  and  C16_24 
ROOT
HETATM    1  N2  UNL     1       2.587  37.129  10.666  1.00  0.00    -0.054 N 
HETATM    2  C12 UNL     1       3.663  36.388  11.304  1.00  0.00     0.238 C 
HETATM    3  C13 UNL     1       3.340  36.241  12.760  1.00  0.00     0.030 C 
HETATM    4  C14 UNL     1       1.870  36.582  12.844  1.00  0.00     0.042 C 
HETATM    5  C15 UNL     1       1.747  37.603  11.720  1.00  0.00     0.251 C 
ENDROOT
BRANCH   1   6
HETATM    6  C5  UNL     1       3.036  38.179   9.787  1.00  0.00     0.258 C 
BRANCH   6   7
HETATM    7  C4  UNL     1       2.974  37.900   8.334  1.00  0.00     0.151 C 
BRANCH   7   8
HETATM    8  N1  UNL     1       2.552  39.095   7.582  1.00  0.00    -0.356 N 
HETATM    9  C3  UNL     1       1.585  38.988   6.563  1.00  0.00     0.240 C 
HETATM   10  O1  UNL     1       1.094  37.872   6.304  1.00  0.00    -0.269 OA
ATOM     11  H1  UNL     1       2.961  40.004   7.800  1.00  0.00     0.162 HD
BRANCH   9  12
HETATM   12  C2  UNL     1       1.164  40.149   5.824  1.00  0.00     0.064 C 
HETATM   13  C1  UNL     1       0.449  40.143   4.715  1.00  0.00     0.017 C 
ENDBRANCH   9  12
ENDBRANCH   7   8
ENDBRANCH   6   7
ENDBRANCH   1   6
BRANCH   1  14
HETATM   14  C6  UNL     1       1.865  36.192   9.841  1.00  0.00     0.258 C 
BRANCH  14  15
HETATM   15  C7  UNL     1       2.294  34.766   9.923  1.00  0.00     0.150 C 
BRANCH  15  16
HETATM   16  N3  UNL     1       1.068  33.929   9.801  1.00  0.00    -0.369 N 
ATOM     17  H3  UNL     1       1.003  33.241   9.051  1.00  0.00     0.161 HD
BRANCH  16  18
HETATM   18  C8  UNL     1       0.015  34.071  10.687  1.00  0.00     0.135 C 
BRANCH  18  19
HETATM   19  O2  UNL     1      -1.034  34.673  10.195  1.00  0.00    -0.346 OA
ATOM     20  H2  UNL     1      -1.437  34.228   9.457  1.00  0.00     0.219 HD
ENDBRANCH  18  19
BRANCH  18  21
HETATM   21  C9  UNL     1      -0.067  33.651  12.044  1.00  0.00     0.051 C 
BRANCH  21  22
HETATM   22  C10 UNL     1       0.660  32.803  12.713  1.00  0.00    -0.027 C 
HETATM   23  C11 UNL     1       0.403  31.407  12.964  1.00  0.00     0.036 C 
ENDBRANCH  21  22
ENDBRANCH  18  21
ENDBRANCH  16  18
ENDBRANCH  15  16
ENDBRANCH  14  15
ENDBRANCH   1  14
BRANCH   5  24
HETATM   24  C16 UNL     1       2.207  38.896  12.319  1.00  0.00     0.264 C 
HETATM   25  O3  UNL     1       1.371  39.752  12.541  1.00  0.00    -0.305 OA
ENDBRANCH   5  24
TORSDOF 12
ENDMDL
MODEL 3
REMARK VINA RESULT: -4.297336165      3.794      6.026
REMARK  12 active torsions:
REMARK  status: ('A' for Active; 'I' for Inactive)
REMARK    1  A    between atoms: C2_2  and  C3_3 
REMARK       I    between atoms: C3_3  and  N1_5 
REMARK    2  A    between atoms: N1_5  and  C4_7 
REMARK    3  A    between atoms: C4_7  and  C5_8 
REMARK    4  A    between atoms: C5_8  and  N2_9 
REMARK    5  A    between atoms: N2_9  and  C6_10 
REMARK    6  A    between atoms: C6_10  and  C7_11 
REMARK    7  A    between atoms: C7_11  and  N3_12 
REMARK    8  A    between atoms: N3_12  and  C8_14 
REMARK    9  A    between atoms: C8_14  and  O2_15 
REMARK   10  A    between atoms: C8_14  and  C9_17 
REMARK   11  A    between atoms: C9_17  and  C10_18 
REMARK   12  A    between atoms: C15_23  and  C16_24 
ROOT
HETATM    1  N2  UNL     1       1.988  35.192  10.880  1.00  0.00    -0.054 N 
HETATM    2  C12 UNL     1       3.393  34.833  10.787  1.00  0.00     0.238 C 
HETATM    3  C13 UNL     1       3.890  34.500  12.161  1.00  0.00     0.030 C 
HETATM    4  C14 UNL     1       2.627  34.306  12.969  1.00  0.00     0.042 C 
HETATM    5  C15 UNL     1       1.689  35.286  12.274  1.00  0.00     0.251 C 
ENDROOT
BRANCH   1   6
HETATM    6  C5  UNL     1       1.634  36.382  10.146  1.00  0.00     0.258 C 
BRANCH   6   7
HETATM    7  C4  UNL     1       2.594  36.836   9.116  1.00  0.00     0.151 C 
BRANCH   7   8
HETATM    8  N1  UNL     1       1.908  37.140   7.848  1.00  0.00    -0.356 N 
HETATM    9  C3  UNL     1       1.922  38.450   7.328  1.00  0.00     0.240 C 
HETATM   10  O1  UNL     1       2.518  39.347   7.954  1.00  0.00    -0.269 OA
ATOM     11  H1  UNL     1       1.420  36.399   7.344  1.00  0.00     0.162 HD
BRANCH   9  12
HETATM   12  C2  UNL     1       1.256  38.756   6.090  1.00  0.00     0.064 C 
HETATM   13  C1  UNL     1       0.994  39.966   5.631  1.00  0.00     0.017 C 
ENDBRANCH   9  12
ENDBRANCH   7   8
ENDBRANCH   6   7
ENDBRANCH   1   6
BRANCH   1  14
HETATM   14  C6  UNL     1       1.239  34.112  10.285  1.00  0.00     0.258 C 
BRANCH  14  15
HETATM   15  C7  UNL     1      -0.236  34.126  10.505  1.00  0.00     0.150 C 
BRANCH  15  16
HETATM   16  N3  UNL     1      -0.692  32.708  10.520  1.00  0.00    -0.369 N 
ATOM     17  H3  UNL     1      -0.813  32.211   9.638  1.00  0.00     0.161 HD
BRANCH  16  18
HETATM   18  C8  UNL     1      -0.955  32.054  11.710  1.00  0.00     0.135 C 
BRANCH  18  19
HETATM   19  O2  UNL     1      -2.170  31.590  11.819  1.00  0.00    -0.346 OA
ATOM     20  H2  UNL     1      -2.224  30.662  12.018  1.00  0.00     0.219 HD
ENDBRANCH  18  19
BRANCH  18  21
HETATM   21  C9  UNL     1      -0.084  31.830  12.812  1.00  0.00     0.051 C 
BRANCH  21  22
HETATM   22  C10 UNL     1       0.540  30.752  13.192  1.00  0.00    -0.027 C 
HETATM   23  C11 UNL     1       1.814  30.643  13.857  1.00  0.00     0.036 C 
ENDBRANCH  21  22
ENDBRANCH  18  21
ENDBRANCH  16  18
ENDBRANCH  15  16
ENDBRANCH  14  15
ENDBRANCH   1  14
BRANCH   5  24
HETATM   24  C16 UNL     1       2.012  36.621  12.869  1.00  0.00     0.264 C 
HETATM   25  O3  UNL     1       2.037  36.715  14.082  1.00  0.00    -0.305 OA
ENDBRANCH   5  24
TORSDOF 12
ENDMDL
MODEL 4
REMARK VINA RESULT: -4.259669165      3.211      6.795
REMARK  12 active torsions:
REMARK  status: ('A' for Active; 'I' for Inactive)
REMARK    1  A    between atoms: C2_2  and  C3_3 
REMARK       I    between atoms: C3_3  and  N1_5 
REMARK    2  A    between atoms: N1_5  and  C4_7 
REMARK    3  A    between atoms: C4_7  and  C5_8 
REMARK    4  A    between atoms: C5_8  and  N2_9 
REMARK    5  A    between atoms: N2_9  and  C6_10 
REMARK    6  A    between atoms: C6_10  and  C7_11 
REMARK    7  A    between atoms: C7_11  and  N3_12 
REMARK    8  A    between atoms: N3_12  and  C8_14 
REMARK    9  A    between atoms: C8_14  and  O2_15 
REMARK   10  A    between atoms: C8_14  and  C9_17 
REMARK   11  A    between atoms: C9_17  and  C10_18 
REMARK   12  A    between atoms: C15_23  and  C16_24 
ROOT
HETATM    1  N2  UNL     1       0.253  29.264  12.186  1.00  0.00    -0.054 N 
HETATM    2  C12 UNL     1       1.622  29.575  11.809  1.00  0.00     0.238 C 
HETATM    3  C13 UNL     1       1.963  30.935  12.340  1.00  0.00     0.030 C 
HETATM    4  C14 UNL     1       0.878  31.213  13.355  1.00  0.00     0.042 C 
HETATM    5  C15 UNL     1      -0.295  30.464  12.734  1.00  0.00     0.251 C 
ENDROOT
BRANCH   1   6
HETATM    6  C5  UNL     1      -0.543  28.719  11.114  1.00  0.00     0.258 C 
BRANCH   6   7
HETATM    7  C4  UNL     1      -0.271  27.315  10.733  1.00  0.00     0.151 C 
BRANCH   7   8
HETATM    8  N1  UNL     1      -1.522  26.592  10.444  1.00  0.00    -0.356 N 
HETATM    9  C3  UNL     1      -1.873  26.283   9.114  1.00  0.00     0.240 C 
HETATM   10  O1  UNL     1      -1.116  26.630   8.188  1.00  0.00    -0.269 OA
ATOM     11  H1  UNL     1      -2.137  26.315  11.209  1.00  0.00     0.162 HD
BRANCH   9  12
HETATM   12  C2  UNL     1      -3.093  25.575   8.822  1.00  0.00     0.064 C 
HETATM   13  C1  UNL     1      -4.271  25.806   9.370  1.00  0.00     0.017 C 
ENDBRANCH   9  12
ENDBRANCH   7   8
ENDBRANCH   6   7
ENDBRANCH   1   6
BRANCH   1  14
HETATM   14  C6  UNL     1       0.319  28.241  13.200  1.00  0.00     0.258 C 
BRANCH  14  15
HETATM   15  C7  UNL     1      -0.834  28.165  14.143  1.00  0.00     0.150 C 
BRANCH  15  16
HETATM   16  N3  UNL     1      -1.457  26.823  13.970  1.00  0.00    -0.369 N 
ATOM     17  H3  UNL     1      -1.746  26.521  13.040  1.00  0.00     0.161 HD
BRANCH  16  18
HETATM   18  C8  UNL     1      -1.650  25.980  15.049  1.00  0.00     0.135 C 
BRANCH  18  19
HETATM   19  O2  UNL     1      -0.681  25.984  15.924  1.00  0.00    -0.346 OA
ATOM     20  H2  UNL     1      -0.514  25.143  16.335  1.00  0.00     0.219 HD
ENDBRANCH  18  19
BRANCH  18  21
HETATM   21  C9  UNL     1      -2.752  25.122  15.320  1.00  0.00     0.051 C 
BRANCH  21  22
HETATM   22  C10 UNL     1      -3.922  25.041  14.753  1.00  0.00    -0.027 C 
HETATM   23  C11 UNL     1      -4.262  24.448  13.484  1.00  0.00     0.036 C 
ENDBRANCH  21  22
ENDBRANCH  18  21
ENDBRANCH  16  18
ENDBRANCH  15  16
ENDBRANCH  14  15
ENDBRANCH   1  14
BRANCH   5  24
HETATM   24  C16 UNL     1      -0.849  31.398  11.703  1.00  0.00     0.264 C 
HETATM   25  O3  UNL     1      -1.693  32.201  12.054  1.00  0.00    -0.305 OA
ENDBRANCH   5  24
TORSDOF 12
ENDMDL
MODEL 5
REMARK VINA RESULT: -4.184616113      4.678      7.945
REMARK  12 active torsions:
REMARK  status: ('A' for Active; 'I' for Inactive)
REMARK    1  A    between atoms: C2_2  and  C3_3 
REMARK       I    between atoms: C3_3  and  N1_5 
REMARK    2  A    between atoms: N1_5  and  C4_7 
REMARK    3  A    between atoms: C4_7  and  C5_8 
REMARK    4  A    between atoms: C5_8  and  N2_9 
REMARK    5  A    between atoms: N2_9  and  C6_10 
REMARK    6  A    between atoms: C6_10  and  C7_11 
REMARK    7  A    between atoms: C7_11  and  N3_12 
REMARK    8  A    between atoms: N3_12  and  C8_14 
REMARK    9  A    between atoms: C8_14  and  O2_15 
REMARK   10  A    between atoms: C8_14  and  C9_17 
REMARK   11  A    between atoms: C9_17  and  C10_18 
REMARK   12  A    between atoms: C15_23  and  C16_24 
ROOT
HETATM    1  N2  UNL     1       3.479  36.965   9.260  1.00  0.00    -0.054 N 
HETATM    2  C12 UNL     1       4.302  36.629  10.410  1.00  0.00     0.238 C 
HETATM    3  C13 UNL     1       4.245  37.768  11.383  1.00  0.00     0.030 C 
HETATM    4  C14 UNL     1       3.060  38.584  10.922  1.00  0.00     0.042 C 
HETATM    5  C15 UNL     1       3.108  38.336   9.419  1.00  0.00     0.251 C 
ENDROOT
BRANCH   1   6
HETATM    6  C5  UNL     1       4.105  36.695   7.990  1.00  0.00     0.258 C 
BRANCH   6   7
HETATM    7  C4  UNL     1       3.205  36.337   6.870  1.00  0.00     0.151 C 
BRANCH   7   8
HETATM    8  N1  UNL     1       2.996  37.485   5.970  1.00  0.00    -0.356 N 
HETATM    9  C3  UNL     1       1.761  38.163   5.959  1.00  0.00     0.240 C 
HETATM   10  O1  UNL     1       0.848  37.780   6.717  1.00  0.00    -0.269 OA
ATOM     11  H1  UNL     1       3.748  37.789   5.352  1.00  0.00     0.162 HD
BRANCH   9  12
HETATM   12  C2  UNL     1       1.547  39.287   5.085  1.00  0.00     0.064 C 
HETATM   13  C1  UNL     1       0.777  40.328   5.338  1.00  0.00     0.017 C 
ENDBRANCH   9  12
ENDBRANCH   7   8
ENDBRANCH   6   7
ENDBRANCH   1   6
BRANCH   1  14
HETATM   14  C6  UNL     1       2.308  36.125   9.322  1.00  0.00     0.258 C 
BRANCH  14  15
HETATM   15  C7  UNL     1       2.428  34.878  10.130  1.00  0.00     0.150 C 
BRANCH  15  16
HETATM   16  N3  UNL     1       1.202  34.071   9.877  1.00  0.00    -0.369 N 
ATOM     17  H3  UNL     1       1.187  33.413   9.097  1.00  0.00     0.161 HD
BRANCH  16  18
HETATM   18  C8  UNL     1       0.083  34.198  10.681  1.00  0.00     0.135 C 
BRANCH  18  19
HETATM   19  O2  UNL     1      -0.904  34.858  10.140  1.00  0.00    -0.346 OA
ATOM     20  H2  UNL     1      -1.733  34.777  10.598  1.00  0.00     0.219 HD
ENDBRANCH  18  19
BRANCH  18  21
HETATM   21  C9  UNL     1      -0.121  33.709  12.002  1.00  0.00     0.051 C 
BRANCH  21  22
HETATM   22  C10 UNL     1      -0.220  32.489  12.448  1.00  0.00    -0.027 C 
HETATM   23  C11 UNL     1      -1.171  31.474  12.072  1.00  0.00     0.036 C 
ENDBRANCH  21  22
ENDBRANCH  18  21
ENDBRANCH  16  18
ENDBRANCH  15  16
ENDBRANCH  14  15
ENDBRANCH   1  14
BRANCH   5  24
HETATM   24  C16 UNL     1       4.130  39.300   8.900  1.00  0.00     0.264 C 
HETATM   25  O3  UNL     1       3.809  40.036   7.986  1.00  0.00    -0.305 OA
ENDBRANCH   5  24
TORSDOF 12
ENDMDL
