MODEL 1
REMARK VINA RESULT: -6.747017881      0.000      0.000
REMARK  3 active torsions:
REMARK  status: ('A' for Active; 'I' for Inactive)
REMARK       I    between atoms: C1_4  and  N3_6 
REMARK    1  A    between atoms: N3_6  and  C2_8 
REMARK    2  A    between atoms: C2_8  and  N4_9 
REMARK       I    between atoms: N4_9  and  C3_11 
REMARK    3  A    between atoms: C3_11  and  C4_13 
ROOT
HETATM    1  N4  UNL     1      21.443  -3.472  12.233  1.00  0.00    -0.339 N 
ATOM      2  H4  UNL     1      21.516  -4.448  12.521  1.00  0.00     0.164 HD
HETATM    3  C3  UNL     1      22.263  -2.962  11.197  1.00  0.00     0.276 C 
HETATM    4  O1  UNL     1      22.189  -1.770  10.831  1.00  0.00    -0.265 OA
ENDROOT
BRANCH   1   5
HETATM    5  C2  UNL     1      20.501  -2.585  12.876  1.00  0.00     0.249 C 
BRANCH   5   6
HETATM    6  N3  UNL     1      19.310  -2.519  12.073  1.00  0.00    -0.349 N 
HETATM    7  C1  UNL     1      18.084  -2.180  12.690  1.00  0.00     0.183 C 
HETATM    8  N1  UNL     1      17.780  -2.766  13.799  1.00  0.00    -0.374 N 
HETATM    9  N2  UNL     1      17.179  -1.236  12.147  1.00  0.00    -0.064 NA
ATOM     10  H12 UNL     1      16.895  -2.522  14.244  1.00  0.00     0.158 HD
ATOM     11  H11 UNL     1      18.432  -3.446  14.190  1.00  0.00     0.158 HD
ATOM     12  H3  UNL     1      19.350  -2.713  11.073  1.00  0.00     0.163 HD
ENDBRANCH   5   6
ENDBRANCH   1   5
BRANCH   3  13
HETATM   13  C4  UNL     1      23.213  -3.871  10.552  1.00  0.00     0.142 A 
HETATM   14  C5  UNL     1      23.253  -5.259  10.734  1.00  0.00     0.045 A 
HETATM   15  C6  UNL     1      24.297  -5.671   9.935  1.00  0.00     0.027 A 
HETATM   16  C7  UNL     1      24.847  -4.574   9.311  1.00  0.00     0.143 A 
HETATM   17  O2  UNL     1      24.164  -3.542   9.714  1.00  0.00    -0.317 OA
ENDBRANCH   3  13
TORSDOF 3
ENDMDL
MODEL 2
REMARK VINA RESULT: -6.671497836      2.287      3.625
REMARK  3 active torsions:
REMARK  status: ('A' for Active; 'I' for Inactive)
REMARK       I    between atoms: C1_4  and  N3_6 
REMARK    1  A    between atoms: N3_6  and  C2_8 
REMARK    2  A    between atoms: C2_8  and  N4_9 
REMARK       I    between atoms: N4_9  and  C3_11 
REMARK    3  A    between atoms: C3_11  and  C4_13 
ROOT
HETATM    1  N4  UNL     1      23.411  -4.486  11.199  1.00  0.00    -0.339 N 
ATOM      2  H4  UNL     1      22.904  -4.868  11.997  1.00  0.00     0.164 HD
HETATM    3  C3  UNL     1      24.090  -5.344  10.297  1.00  0.00     0.276 C 
HETATM    4  O1  UNL     1      24.717  -4.895   9.314  1.00  0.00    -0.265 OA
ENDROOT
BRANCH   1   5
HETATM    5  C2  UNL     1      23.452  -3.061  10.967  1.00  0.00     0.249 C 
BRANCH   5   6
HETATM    6  N3  UNL     1      22.400  -2.441  11.726  1.00  0.00    -0.349 N 
HETATM    7  C1  UNL     1      21.058  -2.648  11.335  1.00  0.00     0.183 C 
HETATM    8  N1  UNL     1      20.764  -2.531  10.084  1.00  0.00    -0.374 N 
HETATM    9  N2  UNL     1      20.027  -2.976  12.249  1.00  0.00    -0.064 NA
ATOM     10  H12 UNL     1      19.795  -2.680   9.802  1.00  0.00     0.158 HD
ATOM     11  H11 UNL     1      21.507  -2.296   9.425  1.00  0.00     0.158 HD
ATOM     12  H3  UNL     1      22.620  -1.861  12.535  1.00  0.00     0.163 HD
ENDBRANCH   5   6
ENDBRANCH   1   5
BRANCH   3  13
HETATM   13  C4  UNL     1      24.041  -6.787  10.542  1.00  0.00     0.142 A 
HETATM   14  C5  UNL     1      25.084  -7.550  11.082  1.00  0.00     0.045 A 
HETATM   15  C6  UNL     1      24.577  -8.830  11.120  1.00  0.00     0.027 A 
HETATM   16  C7  UNL     1      23.292  -8.821  10.626  1.00  0.00     0.143 A 
HETATM   17  O2  UNL     1      23.033  -7.587  10.301  1.00  0.00    -0.317 OA
ENDBRANCH   3  13
TORSDOF 3
ENDMDL
MODEL 3
REMARK VINA RESULT: -6.658053966      2.637      5.790
REMARK  3 active torsions:
REMARK  status: ('A' for Active; 'I' for Inactive)
REMARK       I    between atoms: C1_4  and  N3_6 
REMARK    1  A    between atoms: N3_6  and  C2_8 
REMARK    2  A    between atoms: C2_8  and  N4_9 
REMARK       I    between atoms: N4_9  and  C3_11 
REMARK    3  A    between atoms: C3_11  and  C4_13 
ROOT
HETATM    1  N4  UNL     1      21.815  -4.710  11.966  1.00  0.00    -0.339 N 
ATOM      2  H4  UNL     1      21.123  -5.452  12.076  1.00  0.00     0.164 HD
HETATM    3  C3  UNL     1      21.457  -3.354  12.169  1.00  0.00     0.276 C 
HETATM    4  O1  UNL     1      22.289  -2.431  12.038  1.00  0.00    -0.265 OA
ENDROOT
BRANCH   1   5
HETATM    5  C2  UNL     1      23.176  -5.023  11.599  1.00  0.00     0.249 C 
BRANCH   5   6
HETATM    6  N3  UNL     1      23.297  -4.943  10.169  1.00  0.00    -0.349 N 
HETATM    7  C1  UNL     1      24.297  -4.116   9.609  1.00  0.00     0.183 C 
HETATM    8  N1  UNL     1      24.436  -2.924  10.084  1.00  0.00    -0.374 N 
HETATM    9  N2  UNL     1      25.146  -4.533   8.555  1.00  0.00    -0.064 NA
ATOM     10  H12 UNL     1      25.157  -2.327   9.680  1.00  0.00     0.158 HD
ATOM     11  H11 UNL     1      23.824  -2.624  10.843  1.00  0.00     0.158 HD
ATOM     12  H3  UNL     1      22.669  -5.476   9.566  1.00  0.00     0.163 HD
ENDBRANCH   5   6
ENDBRANCH   1   5
BRANCH   3  13
HETATM   13  C4  UNL     1      20.074  -3.049  12.541  1.00  0.00     0.142 A 
HETATM   14  C5  UNL     1      19.562  -3.083  13.845  1.00  0.00     0.045 A 
HETATM   15  C6  UNL     1      18.240  -2.728  13.694  1.00  0.00     0.027 A 
HETATM   16  C7  UNL     1      17.985  -2.494  12.362  1.00  0.00     0.143 A 
HETATM   17  O2  UNL     1      19.106  -2.699  11.732  1.00  0.00    -0.317 OA
ENDBRANCH   3  13
TORSDOF 3
ENDMDL
MODEL 4
REMARK VINA RESULT: -6.537263108      1.462      2.097
REMARK  3 active torsions:
REMARK  status: ('A' for Active; 'I' for Inactive)
REMARK       I    between atoms: C1_4  and  N3_6 
REMARK    1  A    between atoms: N3_6  and  C2_8 
REMARK    2  A    between atoms: C2_8  and  N4_9 
REMARK       I    between atoms: N4_9  and  C3_11 
REMARK    3  A    between atoms: C3_11  and  C4_13 
ROOT
HETATM    1  N4  UNL     1      21.895  -3.850  11.543  1.00  0.00    -0.339 N 
ATOM      2  H4  UNL     1      21.393  -4.568  12.065  1.00  0.00     0.164 HD
HETATM    3  C3  UNL     1      23.103  -4.160  10.869  1.00  0.00     0.276 C 
HETATM    4  O1  UNL     1      23.733  -3.294  10.225  1.00  0.00    -0.265 OA
ENDROOT
BRANCH   1   5
HETATM    5  C2  UNL     1      21.389  -2.499  11.479  1.00  0.00     0.249 C 
BRANCH   5   6
HETATM    6  N3  UNL     1      20.608  -2.243  12.658  1.00  0.00    -0.349 N 
HETATM    7  C1  UNL     1      19.249  -2.629  12.679  1.00  0.00     0.183 C 
HETATM    8  N1  UNL     1      18.520  -2.342  11.653  1.00  0.00    -0.374 N 
HETATM    9  N2  UNL     1      18.653  -3.311  13.768  1.00  0.00    -0.064 NA
ATOM     10  H12 UNL     1      17.539  -2.620  11.668  1.00  0.00     0.158 HD
ATOM     11  H11 UNL     1      18.949  -1.851  10.868  1.00  0.00     0.158 HD
ATOM     12  H3  UNL     1      21.030  -1.790  13.469  1.00  0.00     0.163 HD
ENDBRANCH   5   6
ENDBRANCH   1   5
BRANCH   3  13
HETATM   13  C4  UNL     1      23.606  -5.533  10.941  1.00  0.00     0.142 A 
HETATM   14  C5  UNL     1      23.266  -6.467  11.928  1.00  0.00     0.045 A 
HETATM   15  C6  UNL     1      23.975  -7.595  11.580  1.00  0.00     0.027 A 
HETATM   16  C7  UNL     1      24.701  -7.337  10.439  1.00  0.00     0.143 A 
HETATM   17  O2  UNL     1      24.441  -6.104  10.110  1.00  0.00    -0.317 OA
ENDBRANCH   3  13
TORSDOF 3
ENDMDL
MODEL 5
REMARK VINA RESULT: -6.496866650      1.622      2.293
REMARK  3 active torsions:
REMARK  status: ('A' for Active; 'I' for Inactive)
REMARK       I    between atoms: C1_4  and  N3_6 
REMARK    1  A    between atoms: N3_6  and  C2_8 
REMARK    2  A    between atoms: C2_8  and  N4_9 
REMARK       I    between atoms: N4_9  and  C3_11 
REMARK    3  A    between atoms: C3_11  and  C4_13 
ROOT
HETATM    1  N4  UNL     1      19.620  -2.796  11.642  1.00  0.00    -0.339 N 
ATOM      2  H4  UNL     1      19.364  -3.238  10.760  1.00  0.00     0.164 HD
HETATM    3  C3  UNL     1      20.978  -2.713  12.040  1.00  0.00     0.276 C 
HETATM    4  O1  UNL     1      21.312  -2.175  13.117  1.00  0.00    -0.265 OA
ENDROOT
BRANCH   1   5
HETATM    5  C2  UNL     1      18.606  -2.242  12.509  1.00  0.00     0.249 C 
BRANCH   5   6
HETATM    6  N3  UNL     1      18.196  -3.256  13.442  1.00  0.00    -0.349 N 
HETATM    7  C1  UNL     1      18.238  -2.973  14.826  1.00  0.00     0.183 C 
HETATM    8  N1  UNL     1      19.298  -2.406  15.298  1.00  0.00    -0.374 N 
HETATM    9  N2  UNL     1      17.178  -3.282  15.713  1.00  0.00    -0.064 NA
ATOM     10  H12 UNL     1      19.328  -2.202  16.297  1.00  0.00     0.158 HD
ATOM     11  H11 UNL     1      20.061  -2.183  14.660  1.00  0.00     0.158 HD
ATOM     12  H3  UNL     1      17.879  -4.166  13.110  1.00  0.00     0.163 HD
ENDBRANCH   5   6
ENDBRANCH   1   5
BRANCH   3  13
HETATM   13  C4  UNL     1      21.997  -3.277  11.153  1.00  0.00     0.142 A 
HETATM   14  C5  UNL     1      23.372  -3.018  11.235  1.00  0.00     0.045 A 
HETATM   15  C6  UNL     1      23.913  -3.760  10.209  1.00  0.00     0.027 A 
HETATM   16  C7  UNL     1      22.903  -4.427   9.553  1.00  0.00     0.143 A 
HETATM   17  O2  UNL     1      21.797  -4.102  10.157  1.00  0.00    -0.317 OA
ENDBRANCH   3  13
TORSDOF 3
ENDMDL
