MODEL 1
REMARK VINA RESULT: -6.687409646      0.000      0.000
REMARK  4 active torsions:
REMARK  status: ('A' for Active; 'I' for Inactive)
REMARK    1  A    between atoms: N1_1  and  S1_4 
REMARK    2  A    between atoms: S1_4  and  N2_7 
REMARK    3  A    between atoms: N2_7  and  N3_9 
REMARK    4  A    between atoms: N3_9  and  C1_11 
ROOT
HETATM    1  N2  UNL     1      22.122  -4.732  11.669  1.00  0.00    -0.209 N 
ATOM      2  H2  UNL     1      21.239  -5.208  11.855  1.00  0.00     0.201 HD
ENDROOT
BRANCH   1   3
HETATM    3  S1  UNL     1      22.354  -3.049  11.262  1.00  0.00     0.330 S 
HETATM    4  O1  UNL     1      22.293  -2.185  12.490  1.00  0.00    -0.181 OA
HETATM    5  O2  UNL     1      23.667  -2.939  10.548  1.00  0.00    -0.181 OA
BRANCH   3   6
HETATM    6  N1  UNL     1      21.047  -2.627  10.181  1.00  0.00    -0.310 N 
ATOM      7  H12 UNL     1      20.079  -2.493  10.472  1.00  0.00     0.170 HD
ATOM      8  H11 UNL     1      21.405  -2.540   9.229  1.00  0.00     0.170 HD
ENDBRANCH   3   6
ENDBRANCH   1   3
BRANCH   1   9
HETATM    9  N3  UNL     1      23.414  -5.290  11.686  1.00  0.00    -0.275 N 
ATOM     10  H3  UNL     1      24.211  -4.746  12.020  1.00  0.00     0.189 HD
BRANCH   9  11
HETATM   11  C1  UNL     1      23.591  -6.630  11.228  1.00  0.00     0.120 A 
HETATM   12  C2  UNL     1      24.815  -7.296  11.214  1.00  0.00     0.051 A 
HETATM   13  C3  UNL     1      24.553  -8.550  10.719  1.00  0.00     0.021 A 
HETATM   14  C4  UNL     1      23.203  -8.610  10.449  1.00  0.00     0.090 A 
HETATM   15  N4  UNL     1      22.619  -7.439  10.762  1.00  0.00    -0.351 N 
ATOM     16  H4  UNL     1      21.631  -7.207  10.664  1.00  0.00     0.166 HD
ENDBRANCH   9  11
ENDBRANCH   1   9
TORSDOF 4
ENDMDL
MODEL 2
REMARK VINA RESULT: -6.511452092      0.841      1.060
REMARK  4 active torsions:
REMARK  status: ('A' for Active; 'I' for Inactive)
REMARK    1  A    between atoms: N1_1  and  S1_4 
REMARK    2  A    between atoms: S1_4  and  N2_7 
REMARK    3  A    between atoms: N2_7  and  N3_9 
REMARK    4  A    between atoms: N3_9  and  C1_11 
ROOT
HETATM    1  N2  UNL     1      23.126  -4.250  10.755  1.00  0.00    -0.209 N 
ATOM      2  H2  UNL     1      23.493  -4.124   9.812  1.00  0.00     0.201 HD
ENDROOT
BRANCH   1   3
HETATM    3  S1  UNL     1      21.934  -3.267  11.569  1.00  0.00     0.330 S 
HETATM    4  O1  UNL     1      21.059  -4.107  12.455  1.00  0.00    -0.181 OA
HETATM    5  O2  UNL     1      22.672  -2.207  12.330  1.00  0.00    -0.181 OA
BRANCH   3   6
HETATM    6  N1  UNL     1      20.968  -2.535  10.310  1.00  0.00    -0.310 N 
ATOM      7  H12 UNL     1      20.245  -3.023   9.782  1.00  0.00     0.170 HD
ATOM      8  H11 UNL     1      21.241  -1.559  10.191  1.00  0.00     0.170 HD
ENDBRANCH   3   6
ENDBRANCH   1   3
BRANCH   1   9
HETATM    9  N3  UNL     1      23.472  -5.254  11.680  1.00  0.00    -0.275 N 
ATOM     10  H3  UNL     1      23.619  -5.026  12.663  1.00  0.00     0.189 HD
BRANCH   9  11
HETATM   11  C1  UNL     1      23.612  -6.597  11.217  1.00  0.00     0.120 A 
HETATM   12  C2  UNL     1      24.817  -7.297  11.204  1.00  0.00     0.051 A 
HETATM   13  C3  UNL     1      24.522  -8.541  10.703  1.00  0.00     0.021 A 
HETATM   14  C4  UNL     1      23.171  -8.562  10.429  1.00  0.00     0.090 A 
HETATM   15  N4  UNL     1      22.620  -7.376  10.744  1.00  0.00    -0.351 N 
ATOM     16  H4  UNL     1      21.638  -7.116  10.644  1.00  0.00     0.166 HD
ENDBRANCH   9  11
ENDBRANCH   1   9
TORSDOF 4
ENDMDL
MODEL 3
REMARK VINA RESULT: -6.375916204      1.154      1.426
REMARK  4 active torsions:
REMARK  status: ('A' for Active; 'I' for Inactive)
REMARK    1  A    between atoms: N1_1  and  S1_4 
REMARK    2  A    between atoms: S1_4  and  N2_7 
REMARK    3  A    between atoms: N2_7  and  N3_9 
REMARK    4  A    between atoms: N3_9  and  C1_11 
ROOT
HETATM    1  N2  UNL     1      22.166  -4.833  12.025  1.00  0.00    -0.209 N 
ATOM      2  H2  UNL     1      21.417  -5.336  12.500  1.00  0.00     0.201 HD
ENDROOT
BRANCH   1   3
HETATM    3  S1  UNL     1      22.119  -3.200  11.406  1.00  0.00     0.330 S 
HETATM    4  O1  UNL     1      21.084  -3.063  10.326  1.00  0.00    -0.181 OA
HETATM    5  O2  UNL     1      21.860  -2.289  12.568  1.00  0.00    -0.181 OA
BRANCH   3   6
HETATM    6  N1  UNL     1      23.706  -2.887  10.744  1.00  0.00    -0.310 N 
ATOM      7  H12 UNL     1      24.093  -3.361   9.928  1.00  0.00     0.170 HD
ATOM      8  H11 UNL     1      24.173  -2.168  11.297  1.00  0.00     0.170 HD
ENDBRANCH   3   6
ENDBRANCH   1   3
BRANCH   1   9
HETATM    9  N3  UNL     1      23.458  -5.304  11.726  1.00  0.00    -0.275 N 
ATOM     10  H3  UNL     1      24.273  -4.703  11.853  1.00  0.00     0.189 HD
BRANCH   9  11
HETATM   11  C1  UNL     1      23.609  -6.638  11.243  1.00  0.00     0.120 A 
HETATM   12  C2  UNL     1      24.817  -7.334  11.232  1.00  0.00     0.051 A 
HETATM   13  C3  UNL     1      24.532  -8.570  10.707  1.00  0.00     0.021 A 
HETATM   14  C4  UNL     1      23.184  -8.592  10.417  1.00  0.00     0.090 A 
HETATM   15  N4  UNL     1      22.625  -7.414  10.746  1.00  0.00    -0.351 N 
ATOM     16  H4  UNL     1      21.643  -7.155  10.640  1.00  0.00     0.166 HD
ENDBRANCH   9  11
ENDBRANCH   1   9
TORSDOF 4
ENDMDL
MODEL 4
REMARK VINA RESULT: -6.252098261      2.600      3.093
REMARK  4 active torsions:
REMARK  status: ('A' for Active; 'I' for Inactive)
REMARK    1  A    between atoms: N1_1  and  S1_4 
REMARK    2  A    between atoms: S1_4  and  N2_7 
REMARK    3  A    between atoms: N2_7  and  N3_9 
REMARK    4  A    between atoms: N3_9  and  C1_11 
ROOT
HETATM    1  N2  UNL     1      21.516  -2.717  10.508  1.00  0.00    -0.209 N 
ATOM      2  H2  UNL     1      20.973  -2.685   9.646  1.00  0.00     0.201 HD
ENDROOT
BRANCH   1   3
HETATM    3  S1  UNL     1      20.907  -2.857  12.139  1.00  0.00     0.330 S 
HETATM    4  O1  UNL     1      20.981  -4.278  12.621  1.00  0.00    -0.181 OA
HETATM    5  O2  UNL     1      21.703  -1.919  12.996  1.00  0.00    -0.181 OA
BRANCH   3   6
HETATM    6  N1  UNL     1      19.238  -2.341  12.080  1.00  0.00    -0.310 N 
ATOM      7  H12 UNL     1      18.658  -2.172  12.902  1.00  0.00     0.170 HD
ATOM      8  H11 UNL     1      18.945  -2.240  11.108  1.00  0.00     0.170 HD
ENDBRANCH   3   6
ENDBRANCH   1   3
BRANCH   1   9
HETATM    9  N3  UNL     1      22.916  -2.660  10.640  1.00  0.00    -0.275 N 
ATOM     10  H3  UNL     1      23.366  -1.851  11.068  1.00  0.00     0.189 HD
BRANCH   9  11
HETATM   11  C1  UNL     1      23.697  -3.755  10.163  1.00  0.00     0.120 A 
HETATM   12  C2  UNL     1      23.551  -5.070  10.603  1.00  0.00     0.051 A 
HETATM   13  C3  UNL     1      24.470  -5.805   9.897  1.00  0.00     0.021 A 
HETATM   14  C4  UNL     1      25.138  -4.935   9.062  1.00  0.00     0.090 A 
HETATM   15  N4  UNL     1      24.664  -3.687   9.226  1.00  0.00    -0.351 N 
ATOM     16  H4  UNL     1      24.976  -2.848   8.736  1.00  0.00     0.166 HD
ENDBRANCH   9  11
ENDBRANCH   1   9
TORSDOF 4
ENDMDL
MODEL 5
REMARK VINA RESULT: -6.232971588      0.950      1.230
REMARK  4 active torsions:
REMARK  status: ('A' for Active; 'I' for Inactive)
REMARK    1  A    between atoms: N1_1  and  S1_4 
REMARK    2  A    between atoms: S1_4  and  N2_7 
REMARK    3  A    between atoms: N2_7  and  N3_9 
REMARK    4  A    between atoms: N3_9  and  C1_11 
ROOT
HETATM    1  N2  UNL     1      22.331  -4.726  11.844  1.00  0.00    -0.209 N 
ATOM      2  H2  UNL     1      21.536  -4.810  12.477  1.00  0.00     0.201 HD
ENDROOT
BRANCH   1   3
HETATM    3  S1  UNL     1      22.455  -3.715  10.426  1.00  0.00     0.330 S 
HETATM    4  O1  UNL     1      23.834  -3.131  10.300  1.00  0.00    -0.181 OA
HETATM    5  O2  UNL     1      22.078  -4.555   9.243  1.00  0.00    -0.181 OA
BRANCH   3   6
HETATM    6  N1  UNL     1      21.290  -2.431  10.642  1.00  0.00    -0.310 N 
ATOM      7  H12 UNL     1      20.446  -2.509  11.211  1.00  0.00     0.170 HD
ATOM      8  H11 UNL     1      21.585  -1.607  10.118  1.00  0.00     0.170 HD
ENDBRANCH   3   6
ENDBRANCH   1   3
BRANCH   1   9
HETATM    9  N3  UNL     1      23.564  -5.401  11.926  1.00  0.00    -0.275 N 
ATOM     10  H3  UNL     1      24.363  -4.969  12.391  1.00  0.00     0.189 HD
BRANCH   9  11
HETATM   11  C1  UNL     1      23.677  -6.700  11.348  1.00  0.00     0.120 A 
HETATM   12  C2  UNL     1      24.848  -7.456  11.345  1.00  0.00     0.051 A 
HETATM   13  C3  UNL     1      24.534  -8.632  10.710  1.00  0.00     0.021 A 
HETATM   14  C4  UNL     1      23.205  -8.561  10.349  1.00  0.00     0.090 A 
HETATM   15  N4  UNL     1      22.686  -7.383  10.741  1.00  0.00    -0.351 N 
ATOM     16  H4  UNL     1      21.726  -7.066  10.604  1.00  0.00     0.166 HD
ENDBRANCH   9  11
ENDBRANCH   1   9
TORSDOF 4
ENDMDL
