MODEL 1
REMARK VINA RESULT: -7.582990423      0.000      0.000
REMARK  4 active torsions:
REMARK  status: ('A' for Active; 'I' for Inactive)
REMARK    1  A    between atoms: C2_2  and  C3_3 
REMARK    2  A    between atoms: C3_3  and  N1_4 
REMARK       I    between atoms: N1_4  and  C4_6 
REMARK       I    between atoms: C4_6  and  N3_10 
REMARK    3  A    between atoms: N3_10  and  N4_12 
REMARK    4  A    between atoms: C5_14  and  C6_15 
ROOT
HETATM    1  N1  UNL     1      23.792  -5.564  10.621  1.00  0.00    -0.222 N 
ATOM      2  H1  UNL     1      23.138  -5.768  11.377  1.00  0.00     0.178 HD
HETATM    3  C4  UNL     1      23.769  -4.262  10.003  1.00  0.00     0.686 C 
HETATM    4  N2  UNL     1      24.669  -3.910   9.169  1.00  0.00    -0.234 N 
ATOM      5  H21 UNL     1      24.652  -2.988   8.731  1.00  0.00     0.174 HD
ATOM      6  H22 UNL     1      25.412  -4.572   8.945  1.00  0.00     0.174 HD
HETATM    7  N3  UNL     1      22.733  -3.339  10.314  1.00  0.00    -0.133 N 
ATOM      8  H3  UNL     1      22.530  -2.577   9.667  1.00  0.00     0.205 HD
ENDROOT
BRANCH   7   9
HETATM    9  N4  UNL     1      21.981  -3.456  11.499  1.00  0.00    -0.295 N 
HETATM   10  C5  UNL     1      20.996  -2.695  11.774  1.00  0.00     0.138 C 
ATOM     11  H4  UNL     1      22.237  -4.183  12.168  1.00  0.00     0.186 HD
BRANCH  10  12
HETATM   12  C6  UNL     1      20.260  -2.863  13.007  1.00  0.00     0.066 A 
HETATM   13  C7  UNL     1      20.109  -4.033  13.735  1.00  0.00     0.051 A 
HETATM   14  C8  UNL     1      19.328  -3.706  14.835  1.00  0.00     0.109 A 
HETATM   15  N5  UNL     1      19.035  -2.413  14.760  1.00  0.00    -0.311 N 
HETATM   16  N6  UNL     1      19.589  -1.907  13.672  1.00  0.00    -0.300 N 
ATOM     17  H5  UNL     1      18.473  -1.894  15.434  1.00  0.00     0.186 HD
ATOM     18  H6  UNL     1      19.516  -0.932  13.380  1.00  0.00     0.187 HD
ENDBRANCH  10  12
ENDBRANCH   7   9
BRANCH   1  19
HETATM   19  C3  UNL     1      24.707  -6.574  10.203  1.00  0.00     0.164 C 
BRANCH  19  20
HETATM   20  C2  UNL     1      24.859  -7.711  11.137  1.00  0.00    -0.017 C 
HETATM   21  C1  UNL     1      24.125  -8.807  11.086  1.00  0.00     0.008 C 
ENDBRANCH  19  20
ENDBRANCH   1  19
TORSDOF 4
ENDMDL
MODEL 2
REMARK VINA RESULT: -7.153218980      0.995      1.080
REMARK  4 active torsions:
REMARK  status: ('A' for Active; 'I' for Inactive)
REMARK    1  A    between atoms: C2_2  and  C3_3 
REMARK    2  A    between atoms: C3_3  and  N1_4 
REMARK       I    between atoms: N1_4  and  C4_6 
REMARK       I    between atoms: C4_6  and  N3_10 
REMARK    3  A    between atoms: N3_10  and  N4_12 
REMARK    4  A    between atoms: C5_14  and  C6_15 
ROOT
HETATM    1  N1  UNL     1      23.583  -5.396  10.499  1.00  0.00    -0.222 N 
ATOM      2  H1  UNL     1      22.783  -5.742  11.029  1.00  0.00     0.178 HD
HETATM    3  C4  UNL     1      23.641  -3.999  10.146  1.00  0.00     0.686 C 
HETATM    4  N2  UNL     1      24.691  -3.491   9.629  1.00  0.00    -0.234 N 
ATOM      5  H21 UNL     1      24.733  -2.503   9.379  1.00  0.00     0.174 HD
ATOM      6  H22 UNL     1      25.496  -4.097   9.467  1.00  0.00     0.174 HD
HETATM    7  N3  UNL     1      22.519  -3.155  10.371  1.00  0.00    -0.133 N 
ATOM      8  H3  UNL     1      22.435  -2.283   9.848  1.00  0.00     0.205 HD
ENDROOT
BRANCH   7   9
HETATM    9  N4  UNL     1      21.521  -3.500  11.303  1.00  0.00    -0.295 N 
HETATM   10  C5  UNL     1      20.958  -2.645  12.064  1.00  0.00     0.138 C 
ATOM     11  H4  UNL     1      21.236  -4.476  11.374  1.00  0.00     0.186 HD
BRANCH  10  12
HETATM   12  C6  UNL     1      19.938  -3.057  13.002  1.00  0.00     0.066 A 
HETATM   13  C7  UNL     1      18.676  -2.503  13.160  1.00  0.00     0.051 A 
HETATM   14  C8  UNL     1      18.060  -3.226  14.172  1.00  0.00     0.109 A 
HETATM   15  N5  UNL     1      18.911  -4.155  14.589  1.00  0.00    -0.311 N 
HETATM   16  N6  UNL     1      20.032  -4.058  13.895  1.00  0.00    -0.300 N 
ATOM     17  H5  UNL     1      18.730  -4.835  15.327  1.00  0.00     0.186 HD
ATOM     18  H6  UNL     1      20.849  -4.655  14.018  1.00  0.00     0.187 HD
ENDBRANCH  10  12
ENDBRANCH   7   9
BRANCH   1  19
HETATM   19  C3  UNL     1      24.616  -6.305  10.128  1.00  0.00     0.164 C 
BRANCH  19  20
HETATM   20  C2  UNL     1      24.810  -7.447  11.047  1.00  0.00    -0.017 C 
HETATM   21  C1  UNL     1      24.189  -8.605  10.921  1.00  0.00     0.008 C 
ENDBRANCH  19  20
ENDBRANCH   1  19
TORSDOF 4
ENDMDL
MODEL 3
REMARK VINA RESULT: -7.024390059      1.670      5.854
REMARK  4 active torsions:
REMARK  status: ('A' for Active; 'I' for Inactive)
REMARK    1  A    between atoms: C2_2  and  C3_3 
REMARK    2  A    between atoms: C3_3  and  N1_4 
REMARK       I    between atoms: N1_4  and  C4_6 
REMARK       I    between atoms: C4_6  and  N3_10 
REMARK    3  A    between atoms: N3_10  and  N4_12 
REMARK    4  A    between atoms: C5_14  and  C6_15 
ROOT
HETATM    1  N1  UNL     1      20.178  -4.028  13.707  1.00  0.00    -0.222 N 
ATOM      2  H1  UNL     1      20.905  -4.612  13.294  1.00  0.00     0.178 HD
HETATM    3  C4  UNL     1      19.922  -2.724  13.147  1.00  0.00     0.686 C 
HETATM    4  N2  UNL     1      18.921  -2.027  13.525  1.00  0.00    -0.234 N 
ATOM      5  H21 UNL     1      18.740  -1.104  13.129  1.00  0.00     0.174 HD
ATOM      6  H22 UNL     1      18.301  -2.413  14.236  1.00  0.00     0.174 HD
HETATM    7  N3  UNL     1      20.788  -2.186  12.155  1.00  0.00    -0.133 N 
ATOM      8  H3  UNL     1      20.805  -1.179  11.999  1.00  0.00     0.205 HD
ENDROOT
BRANCH   7   9
HETATM    9  N4  UNL     1      21.622  -3.019  11.384  1.00  0.00    -0.295 N 
HETATM   10  C5  UNL     1      22.887  -2.868  11.323  1.00  0.00     0.138 C 
ATOM     11  H4  UNL     1      21.196  -3.777  10.851  1.00  0.00     0.186 HD
BRANCH  10  12
HETATM   12  C6  UNL     1      23.693  -3.755  10.515  1.00  0.00     0.066 A 
HETATM   13  C7  UNL     1      23.650  -5.141  10.501  1.00  0.00     0.051 A 
HETATM   14  C8  UNL     1      24.599  -5.548   9.573  1.00  0.00     0.109 A 
HETATM   15  N5  UNL     1      25.171  -4.462   9.068  1.00  0.00    -0.311 N 
HETATM   16  N6  UNL     1      24.634  -3.391   9.627  1.00  0.00    -0.300 N 
ATOM     17  H5  UNL     1      25.907  -4.454   8.362  1.00  0.00     0.186 HD
ATOM     18  H6  UNL     1      24.896  -2.428   9.414  1.00  0.00     0.187 HD
ENDBRANCH  10  12
ENDBRANCH   7   9
BRANCH   1  19
HETATM   19  C3  UNL     1      19.440  -4.521  14.822  1.00  0.00     0.164 C 
BRANCH  19  20
HETATM   20  C2  UNL     1      20.243  -5.224  15.846  1.00  0.00    -0.017 C 
HETATM   21  C1  UNL     1      20.988  -6.285  15.594  1.00  0.00     0.008 C 
ENDBRANCH  19  20
ENDBRANCH   1  19
TORSDOF 4
ENDMDL
MODEL 4
REMARK VINA RESULT: -6.584763420      1.431      1.739
REMARK  4 active torsions:
REMARK  status: ('A' for Active; 'I' for Inactive)
REMARK    1  A    between atoms: C2_2  and  C3_3 
REMARK    2  A    between atoms: C3_3  and  N1_4 
REMARK       I    between atoms: N1_4  and  C4_6 
REMARK       I    between atoms: C4_6  and  N3_10 
REMARK    3  A    between atoms: N3_10  and  N4_12 
REMARK    4  A    between atoms: C5_14  and  C6_15 
ROOT
HETATM    1  N1  UNL     1      22.653  -4.533  11.642  1.00  0.00    -0.222 N 
ATOM      2  H1  UNL     1      22.004  -4.724  12.406  1.00  0.00     0.178 HD
HETATM    3  C4  UNL     1      22.695  -3.212  11.069  1.00  0.00     0.686 C 
HETATM    4  N2  UNL     1      23.597  -2.885  10.227  1.00  0.00    -0.234 N 
ATOM      5  H21 UNL     1      23.627  -1.949   9.821  1.00  0.00     0.174 HD
ATOM      6  H22 UNL     1      24.294  -3.582   9.964  1.00  0.00     0.174 HD
HETATM    7  N3  UNL     1      21.723  -2.239  11.434  1.00  0.00    -0.133 N 
ATOM      8  H3  UNL     1      21.554  -1.445  10.818  1.00  0.00     0.205 HD
ENDROOT
BRANCH   7   9
HETATM    9  N4  UNL     1      20.991  -2.353  12.632  1.00  0.00    -0.295 N 
HETATM   10  C5  UNL     1      19.766  -2.704  12.665  1.00  0.00     0.138 C 
ATOM     11  H4  UNL     1      21.462  -2.146  13.513  1.00  0.00     0.186 HD
BRANCH  10  12
HETATM   12  C6  UNL     1      19.064  -2.804  13.925  1.00  0.00     0.066 A 
HETATM   13  C7  UNL     1      17.899  -3.513  14.177  1.00  0.00     0.051 A 
HETATM   14  C8  UNL     1      17.609  -3.314  15.519  1.00  0.00     0.109 A 
HETATM   15  N5  UNL     1      18.551  -2.531  16.032  1.00  0.00    -0.311 N 
HETATM   16  N6  UNL     1      19.420  -2.225  15.085  1.00  0.00    -0.300 N 
ATOM     17  H5  UNL     1      18.596  -2.216  17.001  1.00  0.00     0.186 HD
ATOM     18  H6  UNL     1      20.241  -1.634  15.215  1.00  0.00     0.187 HD
ENDBRANCH  10  12
ENDBRANCH   7   9
BRANCH   1  19
HETATM   19  C3  UNL     1      23.496  -5.581  11.170  1.00  0.00     0.164 C 
BRANCH  19  20
HETATM   20  C2  UNL     1      23.313  -6.887  11.840  1.00  0.00    -0.017 C 
HETATM   21  C1  UNL     1      23.795  -8.025  11.375  1.00  0.00     0.008 C 
ENDBRANCH  19  20
ENDBRANCH   1  19
TORSDOF 4
ENDMDL
MODEL 5
REMARK VINA RESULT: -6.487706066      2.235      5.864
REMARK  4 active torsions:
REMARK  status: ('A' for Active; 'I' for Inactive)
REMARK    1  A    between atoms: C2_2  and  C3_3 
REMARK    2  A    between atoms: C3_3  and  N1_4 
REMARK       I    between atoms: N1_4  and  C4_6 
REMARK       I    between atoms: C4_6  and  N3_10 
REMARK    3  A    between atoms: N3_10  and  N4_12 
REMARK    4  A    between atoms: C5_14  and  C6_15 
ROOT
HETATM    1  N1  UNL     1      19.845  -3.986  14.678  1.00  0.00    -0.222 N 
ATOM      2  H1  UNL     1      20.805  -4.123  14.359  1.00  0.00     0.178 HD
HETATM    3  C4  UNL     1      19.063  -2.916  14.113  1.00  0.00     0.686 C 
HETATM    4  N2  UNL     1      17.816  -2.807  14.361  1.00  0.00    -0.234 N 
ATOM      5  H21 UNL     1      17.261  -2.049  13.961  1.00  0.00     0.174 HD
ATOM      6  H22 UNL     1      17.378  -3.496  14.972  1.00  0.00     0.174 HD
HETATM    7  N3  UNL     1      19.672  -1.954  13.261  1.00  0.00    -0.133 N 
ATOM      8  H3  UNL     1      19.223  -1.048  13.127  1.00  0.00     0.205 HD
ENDROOT
BRANCH   7   9
HETATM    9  N4  UNL     1      20.884  -2.229  12.598  1.00  0.00    -0.295 N 
HETATM   10  C5  UNL     1      20.962  -3.008  11.591  1.00  0.00     0.138 C 
ATOM     11  H4  UNL     1      21.737  -1.786  12.938  1.00  0.00     0.186 HD
BRANCH  10  12
HETATM   12  C6  UNL     1      22.234  -3.253  10.950  1.00  0.00     0.066 A 
HETATM   13  C7  UNL     1      22.517  -4.226  10.003  1.00  0.00     0.051 A 
HETATM   14  C8  UNL     1      23.859  -4.075   9.684  1.00  0.00     0.109 A 
HETATM   15  N5  UNL     1      24.342  -3.069  10.402  1.00  0.00    -0.311 N 
HETATM   16  N6  UNL     1      23.376  -2.576  11.158  1.00  0.00    -0.300 N 
ATOM     17  H5  UNL     1      25.304  -2.730  10.375  1.00  0.00     0.186 HD
ATOM     18  H6  UNL     1      23.483  -1.795  11.805  1.00  0.00     0.187 HD
ENDBRANCH  10  12
ENDBRANCH   7   9
BRANCH   1  19
HETATM   19  C3  UNL     1      19.313  -4.859  15.670  1.00  0.00     0.164 C 
BRANCH  19  20
HETATM   20  C2  UNL     1      20.287  -5.341  16.674  1.00  0.00    -0.017 C 
HETATM   21  C1  UNL     1      21.163  -6.302  16.444  1.00  0.00     0.008 C 
ENDBRANCH  19  20
ENDBRANCH   1  19
TORSDOF 4
ENDMDL
