MODEL 1
REMARK VINA RESULT: -6.739302053      0.000      0.000
REMARK  4 active torsions:
REMARK  status: ('A' for Active; 'I' for Inactive)
REMARK       I    between atoms: N1_2  and  C2_4 
REMARK    1  A    between atoms: C2_4  and  C3_6 
REMARK    2  A    between atoms: C7_10  and  N2_11 
REMARK    3  A    between atoms: N2_11  and  C8_13 
REMARK    4  A    between atoms: C8_13  and  C9_14 
ROOT
HETATM    1  C3  UNL     1      22.125  -6.786  12.563  1.00  0.00     0.034 A 
HETATM    2  C4  UNL     1      22.937  -7.832  12.203  1.00  0.00     0.017 A 
HETATM    3  C5  UNL     1      23.744  -7.791  11.056  1.00  0.00     0.003 A 
HETATM    4  C6  UNL     1      23.732  -6.672  10.255  1.00  0.00     0.029 A 
HETATM    5  C7  UNL     1      22.918  -5.621  10.615  1.00  0.00     0.029 A 
HETATM    6  C10 UNL     1      22.120  -5.662  11.749  1.00  0.00     0.046 A 
ENDROOT
BRANCH   5   7
HETATM    7  N2  UNL     1      22.904  -4.464   9.789  1.00  0.00    -0.382 N 
ATOM      8  H2  UNL     1      22.871  -4.568   8.775  1.00  0.00     0.160 HD
BRANCH   7   9
HETATM    9  C8  UNL     1      22.935  -3.153  10.365  1.00  0.00     0.219 C 
BRANCH   9  10
HETATM   10  C9  UNL     1      21.598  -2.757  10.858  1.00  0.00     0.248 C 
HETATM   11  N3  UNL     1      21.423  -2.177  12.147  1.00  0.00    -0.061 NA
HETATM   12  O2  UNL     1      20.604  -2.953  10.083  1.00  0.00    -0.275 OA
ENDBRANCH   9  10
ENDBRANCH   7   9
ENDBRANCH   5   7
BRANCH   1  13
HETATM   13  C2  UNL     1      21.283  -6.814  13.750  1.00  0.00     0.251 C 
HETATM   14  N1  UNL     1      20.404  -5.763  14.083  1.00  0.00    -0.361 N 
HETATM   15  C1  UNL     1      19.567  -5.800  15.269  1.00  0.00     0.149 C 
ATOM     16  H1  UNL     1      20.355  -4.949  13.471  1.00  0.00     0.162 HD
HETATM   17  O1  UNL     1      21.310  -7.813  14.547  1.00  0.00    -0.268 OA
ENDBRANCH   1  13
TORSDOF 4
ENDMDL
MODEL 2
REMARK VINA RESULT: -6.693038934      3.206      4.859
REMARK  4 active torsions:
REMARK  status: ('A' for Active; 'I' for Inactive)
REMARK       I    between atoms: N1_2  and  C2_4 
REMARK    1  A    between atoms: C2_4  and  C3_6 
REMARK    2  A    between atoms: C7_10  and  N2_11 
REMARK    3  A    between atoms: N2_11  and  C8_13 
REMARK    4  A    between atoms: C8_13  and  C9_14 
ROOT
HETATM    1  C3  UNL     1      18.776  -2.737  13.567  1.00  0.00     0.034 A 
HETATM    2  C4  UNL     1      17.527  -2.622  13.010  1.00  0.00     0.017 A 
HETATM    3  C5  UNL     1      17.335  -2.482  11.627  1.00  0.00     0.003 A 
HETATM    4  C6  UNL     1      18.426  -2.458  10.788  1.00  0.00     0.029 A 
HETATM    5  C7  UNL     1      19.680  -2.574  11.346  1.00  0.00     0.029 A 
HETATM    6  C10 UNL     1      19.869  -2.711  12.714  1.00  0.00     0.046 A 
ENDROOT
BRANCH   5   7
HETATM    7  N2  UNL     1      20.809  -2.549  10.481  1.00  0.00    -0.382 N 
ATOM      8  H2  UNL     1      20.696  -2.250   9.513  1.00  0.00     0.160 HD
BRANCH   7   9
HETATM    9  C8  UNL     1      22.103  -2.937  10.956  1.00  0.00     0.219 C 
BRANCH   9  10
HETATM   10  C9  UNL     1      22.751  -3.882  10.021  1.00  0.00     0.248 C 
HETATM   11  N3  UNL     1      24.020  -3.599   9.440  1.00  0.00    -0.061 NA
HETATM   12  O2  UNL     1      22.131  -4.964   9.755  1.00  0.00    -0.275 OA
ENDBRANCH   9  10
ENDBRANCH   7   9
ENDBRANCH   5   7
BRANCH   1  13
HETATM   13  C2  UNL     1      18.989  -2.883  15.000  1.00  0.00     0.251 C 
HETATM   14  N1  UNL     1      18.832  -1.812  15.904  1.00  0.00    -0.361 N 
HETATM   15  C1  UNL     1      19.047  -1.966  17.332  1.00  0.00     0.149 C 
ATOM     16  H1  UNL     1      18.559  -0.899  15.543  1.00  0.00     0.162 HD
HETATM   17  O1  UNL     1      19.333  -4.009  15.498  1.00  0.00    -0.268 OA
ENDBRANCH   1  13
TORSDOF 4
ENDMDL
MODEL 3
REMARK VINA RESULT: -6.579489599      1.003      1.003
REMARK  4 active torsions:
REMARK  status: ('A' for Active; 'I' for Inactive)
REMARK       I    between atoms: N1_2  and  C2_4 
REMARK    1  A    between atoms: C2_4  and  C3_6 
REMARK    2  A    between atoms: C7_10  and  N2_11 
REMARK    3  A    between atoms: N2_11  and  C8_13 
REMARK    4  A    between atoms: C8_13  and  C9_14 
ROOT
HETATM    1  C3  UNL     1      22.089  -6.713  12.582  1.00  0.00     0.034 A 
HETATM    2  C4  UNL     1      22.865  -7.796  12.252  1.00  0.00     0.017 A 
HETATM    3  C5  UNL     1      23.680  -7.810  11.110  1.00  0.00     0.003 A 
HETATM    4  C6  UNL     1      23.714  -6.710  10.283  1.00  0.00     0.029 A 
HETATM    5  C7  UNL     1      22.935  -5.623  10.614  1.00  0.00     0.029 A 
HETATM    6  C10 UNL     1      22.129  -5.610  11.744  1.00  0.00     0.046 A 
ENDROOT
BRANCH   5   7
HETATM    7  N2  UNL     1      22.968  -4.485   9.762  1.00  0.00    -0.382 N 
ATOM      8  H2  UNL     1      22.976  -4.612   8.750  1.00  0.00     0.160 HD
BRANCH   7   9
HETATM    9  C8  UNL     1      22.989  -3.161  10.309  1.00  0.00     0.219 C 
BRANCH   9  10
HETATM   10  C9  UNL     1      21.650  -2.766  10.798  1.00  0.00     0.248 C 
HETATM   11  N3  UNL     1      21.472  -2.176  12.081  1.00  0.00    -0.061 NA
HETATM   12  O2  UNL     1      20.658  -2.973  10.023  1.00  0.00    -0.275 OA
ENDBRANCH   9  10
ENDBRANCH   7   9
ENDBRANCH   5   7
BRANCH   1  13
HETATM   13  C2  UNL     1      21.238  -6.684  13.764  1.00  0.00     0.251 C 
HETATM   14  N1  UNL     1      21.132  -7.776  14.650  1.00  0.00    -0.361 N 
HETATM   15  C1  UNL     1      20.281  -7.738  15.826  1.00  0.00     0.149 C 
ATOM     16  H1  UNL     1      21.670  -8.620  14.458  1.00  0.00     0.162 HD
HETATM   17  O1  UNL     1      20.545  -5.647  14.044  1.00  0.00    -0.268 OA
ENDBRANCH   1  13
TORSDOF 4
ENDMDL
MODEL 4
REMARK VINA RESULT: -6.462980270      2.857      4.526
REMARK  4 active torsions:
REMARK  status: ('A' for Active; 'I' for Inactive)
REMARK       I    between atoms: N1_2  and  C2_4 
REMARK    1  A    between atoms: C2_4  and  C3_6 
REMARK    2  A    between atoms: C7_10  and  N2_11 
REMARK    3  A    between atoms: N2_11  and  C8_13 
REMARK    4  A    between atoms: C8_13  and  C9_14 
ROOT
HETATM    1  C3  UNL     1      19.041  -3.691  14.296  1.00  0.00     0.034 A 
HETATM    2  C4  UNL     1      17.761  -3.207  14.190  1.00  0.00     0.017 A 
HETATM    3  C5  UNL     1      17.323  -2.490  13.068  1.00  0.00     0.003 A 
HETATM    4  C6  UNL     1      18.194  -2.255  12.028  1.00  0.00     0.029 A 
HETATM    5  C7  UNL     1      19.479  -2.739  12.132  1.00  0.00     0.029 A 
HETATM    6  C10 UNL     1      19.911  -3.449  13.244  1.00  0.00     0.046 A 
ENDROOT
BRANCH   5   7
HETATM    7  N2  UNL     1      20.381  -2.498  11.060  1.00  0.00    -0.382 N 
ATOM      8  H2  UNL     1      20.016  -2.297  10.129  1.00  0.00     0.160 HD
BRANCH   7   9
HETATM    9  C8  UNL     1      21.797  -2.533  11.273  1.00  0.00     0.219 C 
BRANCH   9  10
HETATM   10  C9  UNL     1      22.436  -3.570  10.434  1.00  0.00     0.248 C 
HETATM   11  N3  UNL     1      23.687  -3.341   9.795  1.00  0.00    -0.061 NA
HETATM   12  O2  UNL     1      21.822  -4.680  10.304  1.00  0.00    -0.275 OA
ENDBRANCH   9  10
ENDBRANCH   7   9
ENDBRANCH   5   7
BRANCH   1  13
HETATM   13  C2  UNL     1      19.509  -4.437  15.455  1.00  0.00     0.251 C 
HETATM   14  N1  UNL     1      20.271  -5.617  15.343  1.00  0.00    -0.361 N 
HETATM   15  C1  UNL     1      20.734  -6.355  16.505  1.00  0.00     0.149 C 
ATOM     16  H1  UNL     1      20.505  -5.965  14.413  1.00  0.00     0.162 HD
HETATM   17  O1  UNL     1      19.240  -4.039  16.640  1.00  0.00    -0.268 OA
ENDBRANCH   1  13
TORSDOF 4
ENDMDL
MODEL 5
REMARK VINA RESULT: -6.246851602      3.733      6.467
REMARK  4 active torsions:
REMARK  status: ('A' for Active; 'I' for Inactive)
REMARK       I    between atoms: N1_2  and  C2_4 
REMARK    1  A    between atoms: C2_4  and  C3_6 
REMARK    2  A    between atoms: C7_10  and  N2_11 
REMARK    3  A    between atoms: N2_11  and  C8_13 
REMARK    4  A    between atoms: C8_13  and  C9_14 
ROOT
HETATM    1  C3  UNL     1      20.022  -2.729  11.389  1.00  0.00     0.034 A 
HETATM    2  C4  UNL     1      19.086  -2.565  10.398  1.00  0.00     0.017 A 
HETATM    3  C5  UNL     1      17.725  -2.382  10.680  1.00  0.00     0.003 A 
HETATM    4  C6  UNL     1      17.296  -2.363  11.988  1.00  0.00     0.029 A 
HETATM    5  C7  UNL     1      18.235  -2.527  12.983  1.00  0.00     0.029 A 
HETATM    6  C10 UNL     1      19.582  -2.709  12.703  1.00  0.00     0.046 A 
ENDROOT
BRANCH   5   7
HETATM    7  N2  UNL     1      17.796  -2.508  14.336  1.00  0.00    -0.382 N 
ATOM      8  H2  UNL     1      16.799  -2.436  14.541  1.00  0.00     0.160 HD
BRANCH   7   9
HETATM    9  C8  UNL     1      18.737  -2.590  15.412  1.00  0.00     0.219 C 
BRANCH   9  10
HETATM   10  C9  UNL     1      18.127  -2.155  16.687  1.00  0.00     0.248 C 
HETATM   11  N3  UNL     1      16.717  -2.180  16.882  1.00  0.00    -0.061 NA
HETATM   12  O2  UNL     1      18.913  -1.758  17.609  1.00  0.00    -0.275 OA
ENDBRANCH   9  10
ENDBRANCH   7   9
ENDBRANCH   5   7
BRANCH   1  13
HETATM   13  C2  UNL     1      21.439  -2.920  11.111  1.00  0.00     0.251 C 
HETATM   14  N1  UNL     1      21.903  -3.641   9.991  1.00  0.00    -0.361 N 
HETATM   15  C1  UNL     1      23.318  -3.827   9.722  1.00  0.00     0.149 C 
ATOM     16  H1  UNL     1      21.222  -4.045   9.349  1.00  0.00     0.162 HD
HETATM   17  O1  UNL     1      22.329  -2.432  11.888  1.00  0.00    -0.268 OA
ENDBRANCH   1  13
TORSDOF 4
ENDMDL
