MODEL 1
REMARK VINA RESULT: -6.113393005      0.000      0.000
REMARK  6 active torsions:
REMARK  status: ('A' for Active; 'I' for Inactive)
REMARK    1  A    between atoms: C2_2  and  C4_4 
REMARK    2  A    between atoms: C4_4  and  N1_5 
REMARK    3  A    between atoms: C4_4  and  C5_9 
REMARK    4  A    between atoms: N1_5  and  N2_6 
REMARK    5  A    between atoms: C6_12  and  C7_13 
REMARK    6  A    between atoms: N4_14  and  N5_16 
ROOT
HETATM    1  C5  UNL     1      23.105  -5.680  11.100  1.00  0.00     0.073 A 
HETATM    2  N3  UNL     1      22.400  -4.625  11.330  1.00  0.00    -0.351 N 
ATOM      3  H3  UNL     1      21.713  -4.641  12.085  1.00  0.00     0.166 HD
HETATM    4  C6  UNL     1      22.542  -3.531  10.619  1.00  0.00     0.056 A 
HETATM    5  C8  UNL     1      23.472  -3.565   9.621  1.00  0.00     0.082 A 
HETATM    6  S1  UNL     1      24.076  -5.190   9.793  1.00  0.00    -0.085 SA
ENDROOT
BRANCH   1   7
HETATM    7  C4  UNL     1      23.173  -7.033  11.715  1.00  0.00     0.159 C 
BRANCH   7   8
HETATM    8  C2  UNL     1      23.587  -8.030  10.653  1.00  0.00     0.005 C 
HETATM    9  C1  UNL     1      24.315  -9.211  11.264  1.00  0.00     0.011 C 
HETATM   10  C3  UNL     1      22.340  -8.502   9.936  1.00  0.00     0.011 C 
ENDBRANCH   7   8
BRANCH   7  11
HETATM   11  N1  UNL     1      21.890  -7.471  12.219  1.00  0.00    -0.136 NA
BRANCH  11  12
HETATM   12  N2  UNL     1      21.624  -7.020  13.495  1.00  0.00    -0.348 N 
ATOM     13  H22 UNL     1      22.249  -7.199  14.281  1.00  0.00     0.172 HD
ATOM     14  H21 UNL     1      20.751  -6.496  13.563  1.00  0.00     0.172 HD
ENDBRANCH  11  12
ENDBRANCH   7  11
ENDBRANCH   1   7
BRANCH   4  15
HETATM   15  C7  UNL     1      21.717  -2.342  10.910  1.00  0.00     0.136 C 
HETATM   16  N4  UNL     1      20.636  -2.017  10.333  1.00  0.00    -0.316 N 
ATOM     17  H4  UNL     1      20.209  -1.156  10.674  1.00  0.00     0.185 HD
BRANCH  16  18
HETATM   18  N5  UNL     1      19.948  -2.643   9.319  1.00  0.00    -0.345 N 
ATOM     19  H52 UNL     1      20.456  -3.420   8.898  1.00  0.00     0.176 HD
ATOM     20  H51 UNL     1      19.023  -2.450   8.933  1.00  0.00     0.176 HD
ENDBRANCH  16  18
ENDBRANCH   4  15
TORSDOF 6
ENDMDL
MODEL 2
REMARK VINA RESULT: -5.447356046      1.364      1.531
REMARK  6 active torsions:
REMARK  status: ('A' for Active; 'I' for Inactive)
REMARK    1  A    between atoms: C2_2  and  C4_4 
REMARK    2  A    between atoms: C4_4  and  N1_5 
REMARK    3  A    between atoms: C4_4  and  C5_9 
REMARK    4  A    between atoms: N1_5  and  N2_6 
REMARK    5  A    between atoms: C6_12  and  C7_13 
REMARK    6  A    between atoms: N4_14  and  N5_16 
ROOT
HETATM    1  C5  UNL     1      22.232  -5.106  11.686  1.00  0.00     0.073 A 
HETATM    2  N3  UNL     1      21.235  -4.419  12.133  1.00  0.00    -0.351 N 
ATOM      3  H3  UNL     1      20.656  -4.811  12.876  1.00  0.00     0.166 HD
HETATM    4  C6  UNL     1      20.947  -3.231  11.656  1.00  0.00     0.056 A 
HETATM    5  C8  UNL     1      21.754  -2.756  10.663  1.00  0.00     0.082 A 
HETATM    6  S1  UNL     1      22.877  -4.077  10.496  1.00  0.00    -0.085 SA
ENDROOT
BRANCH   1   7
HETATM    7  C4  UNL     1      22.797  -6.443  12.014  1.00  0.00     0.159 C 
BRANCH   7   8
HETATM    8  C2  UNL     1      23.258  -7.104  10.731  1.00  0.00     0.005 C 
HETATM    9  C1  UNL     1      24.363  -8.106  10.998  1.00  0.00     0.011 C 
HETATM   10  C3  UNL     1      22.068  -7.796  10.102  1.00  0.00     0.011 C 
ENDBRANCH   7   8
BRANCH   7  11
HETATM   11  N1  UNL     1      21.813  -7.323  12.605  1.00  0.00    -0.136 NA
BRANCH  11  12
HETATM   12  N2  UNL     1      21.526  -7.013  13.917  1.00  0.00    -0.348 N 
ATOM     13  H22 UNL     1      21.053  -6.150  14.187  1.00  0.00     0.172 HD
ATOM     14  H21 UNL     1      21.832  -7.730  14.576  1.00  0.00     0.172 HD
ENDBRANCH  11  12
ENDBRANCH   7  11
ENDBRANCH   1   7
BRANCH   4  15
HETATM   15  C7  UNL     1      19.798  -2.474  12.191  1.00  0.00     0.136 C 
HETATM   16  N4  UNL     1      18.736  -2.179  11.565  1.00  0.00    -0.316 N 
ATOM     17  H4  UNL     1      18.052  -1.648  12.105  1.00  0.00     0.185 HD
BRANCH  16  18
HETATM   18  N5  UNL     1      18.358  -2.463  10.273  1.00  0.00    -0.345 N 
ATOM     19  H52 UNL     1      19.093  -2.902   9.719  1.00  0.00     0.176 HD
ATOM     20  H51 UNL     1      17.471  -2.303   9.795  1.00  0.00     0.176 HD
ENDBRANCH  16  18
ENDBRANCH   4  15
TORSDOF 6
ENDMDL
MODEL 3
REMARK VINA RESULT: -5.330230015      2.420      3.266
REMARK  6 active torsions:
REMARK  status: ('A' for Active; 'I' for Inactive)
REMARK    1  A    between atoms: C2_2  and  C4_4 
REMARK    2  A    between atoms: C4_4  and  N1_5 
REMARK    3  A    between atoms: C4_4  and  C5_9 
REMARK    4  A    between atoms: N1_5  and  N2_6 
REMARK    5  A    between atoms: C6_12  and  C7_13 
REMARK    6  A    between atoms: N4_14  and  N5_16 
ROOT
HETATM    1  C5  UNL     1      22.448  -4.273   9.811  1.00  0.00     0.073 A 
HETATM    2  N3  UNL     1      21.281  -3.861   9.446  1.00  0.00    -0.351 N 
ATOM      3  H3  UNL     1      20.820  -4.314   8.656  1.00  0.00     0.166 HD
HETATM    4  C6  UNL     1      20.672  -2.875  10.062  1.00  0.00     0.056 A 
HETATM    5  C8  UNL     1      21.334  -2.305  11.110  1.00  0.00     0.082 A 
HETATM    6  S1  UNL     1      22.799  -3.249  11.123  1.00  0.00    -0.085 SA
ENDROOT
BRANCH   1   7
HETATM    7  C4  UNL     1      23.368  -5.336   9.326  1.00  0.00     0.159 C 
BRANCH   7   8
HETATM    8  C2  UNL     1      23.519  -6.382  10.412  1.00  0.00     0.005 C 
HETATM    9  C1  UNL     1      22.191  -6.673  11.080  1.00  0.00     0.011 C 
HETATM   10  C3  UNL     1      24.071  -7.642   9.780  1.00  0.00     0.011 C 
ENDBRANCH   7   8
BRANCH   7  11
HETATM   11  N1  UNL     1      24.695  -4.828   9.051  1.00  0.00    -0.136 NA
BRANCH  11  12
HETATM   12  N2  UNL     1      24.796  -4.212   7.821  1.00  0.00    -0.348 N 
ATOM     13  H22 UNL     1      24.793  -3.198   7.714  1.00  0.00     0.172 HD
ATOM     14  H21 UNL     1      24.872  -4.871   7.046  1.00  0.00     0.172 HD
ENDBRANCH  11  12
ENDBRANCH   7  11
ENDBRANCH   1   7
BRANCH   4  15
HETATM   15  C7  UNL     1      19.338  -2.430   9.616  1.00  0.00     0.136 C 
HETATM   16  N4  UNL     1      18.840  -2.588   8.461  1.00  0.00    -0.316 N 
ATOM     17  H4  UNL     1      17.900  -2.210   8.342  1.00  0.00     0.185 HD
BRANCH  16  18
HETATM   18  N5  UNL     1      19.368  -3.189   7.341  1.00  0.00    -0.345 N 
ATOM     19  H52 UNL     1      20.162  -3.798   7.539  1.00  0.00     0.176 HD
ATOM     20  H51 UNL     1      19.089  -3.119   6.362  1.00  0.00     0.176 HD
ENDBRANCH  16  18
ENDBRANCH   4  15
TORSDOF 6
ENDMDL
MODEL 4
REMARK VINA RESULT: -5.274506932      5.588      7.469
REMARK  6 active torsions:
REMARK  status: ('A' for Active; 'I' for Inactive)
REMARK    1  A    between atoms: C2_2  and  C4_4 
REMARK    2  A    between atoms: C4_4  and  N1_5 
REMARK    3  A    between atoms: C4_4  and  C5_9 
REMARK    4  A    between atoms: N1_5  and  N2_6 
REMARK    5  A    between atoms: C6_12  and  C7_13 
REMARK    6  A    between atoms: N4_14  and  N5_16 
ROOT
HETATM    1  C5  UNL     1      18.550  -2.848  13.788  1.00  0.00     0.073 A 
HETATM    2  N3  UNL     1      17.849  -2.500  14.814  1.00  0.00    -0.351 N 
ATOM      3  H3  UNL     1      17.282  -1.653  14.764  1.00  0.00     0.166 HD
HETATM    4  C6  UNL     1      17.846  -3.207  15.919  1.00  0.00     0.056 A 
HETATM    5  C8  UNL     1      18.623  -4.329  15.932  1.00  0.00     0.082 A 
HETATM    6  S1  UNL     1      19.302  -4.274  14.329  1.00  0.00    -0.085 SA
ENDROOT
BRANCH   1   7
HETATM    7  C4  UNL     1      18.756  -2.271  12.432  1.00  0.00     0.159 C 
BRANCH   7   8
HETATM    8  C2  UNL     1      17.453  -2.357  11.664  1.00  0.00     0.005 C 
HETATM    9  C1  UNL     1      16.642  -1.086  11.817  1.00  0.00     0.011 C 
HETATM   10  C3  UNL     1      17.780  -2.593  10.205  1.00  0.00     0.011 C 
ENDBRANCH   7   8
BRANCH   7  11
HETATM   11  N1  UNL     1      19.739  -3.007  11.667  1.00  0.00    -0.136 NA
BRANCH  11  12
HETATM   12  N2  UNL     1      20.886  -2.283  11.419  1.00  0.00    -0.348 N 
ATOM     13  H22 UNL     1      21.042  -1.352  11.804  1.00  0.00     0.172 HD
ATOM     14  H21 UNL     1      21.549  -2.775  10.819  1.00  0.00     0.172 HD
ENDBRANCH  11  12
ENDBRANCH   7  11
ENDBRANCH   1   7
BRANCH   4  15
HETATM   15  C7  UNL     1      17.032  -2.779  17.074  1.00  0.00     0.136 C 
HETATM   16  N4  UNL     1      17.169  -1.705  17.733  1.00  0.00    -0.316 N 
ATOM     17  H4  UNL     1      16.508  -1.585  18.501  1.00  0.00     0.185 HD
BRANCH  16  18
HETATM   18  N5  UNL     1      18.068  -0.676  17.577  1.00  0.00    -0.345 N 
ATOM     19  H52 UNL     1      18.548  -0.417  18.440  1.00  0.00     0.176 HD
ATOM     20  H51 UNL     1      18.323  -0.143  16.745  1.00  0.00     0.176 HD
ENDBRANCH  16  18
ENDBRANCH   4  15
TORSDOF 6
ENDMDL
MODEL 5
REMARK VINA RESULT: -5.030165830      4.260      4.921
REMARK  6 active torsions:
REMARK  status: ('A' for Active; 'I' for Inactive)
REMARK    1  A    between atoms: C2_2  and  C4_4 
REMARK    2  A    between atoms: C4_4  and  N1_5 
REMARK    3  A    between atoms: C4_4  and  C5_9 
REMARK    4  A    between atoms: N1_5  and  N2_6 
REMARK    5  A    between atoms: C6_12  and  C7_13 
REMARK    6  A    between atoms: N4_14  and  N5_16 
ROOT
HETATM    1  C5  UNL     1      19.177  -4.185  14.170  1.00  0.00     0.073 A 
HETATM    2  N3  UNL     1      20.071  -3.874  13.293  1.00  0.00    -0.351 N 
ATOM      3  H3  UNL     1      20.952  -4.388  13.278  1.00  0.00     0.166 HD
HETATM    4  C6  UNL     1      19.877  -2.914  12.419  1.00  0.00     0.056 A 
HETATM    5  C8  UNL     1      18.682  -2.258  12.484  1.00  0.00     0.082 A 
HETATM    6  S1  UNL     1      17.925  -3.089  13.815  1.00  0.00    -0.085 SA
ENDROOT
BRANCH   1   7
HETATM    7  C4  UNL     1      19.104  -5.194  15.260  1.00  0.00     0.159 C 
BRANCH   7   8
HETATM    8  C2  UNL     1      20.392  -5.991  15.272  1.00  0.00     0.005 C 
HETATM    9  C1  UNL     1      20.859  -6.256  16.690  1.00  0.00     0.011 C 
HETATM   10  C3  UNL     1      20.145  -7.299  14.552  1.00  0.00     0.011 C 
ENDBRANCH   7   8
BRANCH   7  11
HETATM   11  N1  UNL     1      18.030  -6.142  15.058  1.00  0.00    -0.136 NA
BRANCH  11  12
HETATM   12  N2  UNL     1      17.051  -6.067  16.026  1.00  0.00    -0.348 N 
ATOM     13  H22 UNL     1      16.245  -5.447  15.944  1.00  0.00     0.172 HD
ATOM     14  H21 UNL     1      17.219  -6.689  16.817  1.00  0.00     0.172 HD
ENDBRANCH  11  12
ENDBRANCH   7  11
ENDBRANCH   1   7
BRANCH   4  15
HETATM   15  C7  UNL     1      20.923  -2.586  11.431  1.00  0.00     0.136 C 
HETATM   16  N4  UNL     1      20.753  -2.416  10.186  1.00  0.00    -0.316 N 
ATOM     17  H4  UNL     1      21.601  -2.195   9.663  1.00  0.00     0.185 HD
BRANCH  16  18
HETATM   18  N5  UNL     1      19.606  -2.483   9.428  1.00  0.00    -0.345 N 
ATOM     19  H52 UNL     1      18.764  -2.660   9.976  1.00  0.00     0.176 HD
ATOM     20  H51 UNL     1      19.475  -2.383   8.422  1.00  0.00     0.176 HD
ENDBRANCH  16  18
ENDBRANCH   4  15
TORSDOF 6
ENDMDL
