MODEL 1
REMARK VINA RESULT: -5.847670322      0.000      0.000
REMARK  3 active torsions:
REMARK  status: ('A' for Active; 'I' for Inactive)
REMARK    1  A    between atoms: C2_2  and  N1_3 
REMARK       I    between atoms: N1_3  and  C3_5 
REMARK       I    between atoms: C3_5  and  N3_9 
REMARK    2  A    between atoms: N3_9  and  C4_11 
REMARK    3  A    between atoms: C7_14  and  C8_15 
ROOT
HETATM    1  N1  UNL     1      22.052  -3.300  10.036  1.00  0.00    -0.227 N 
ATOM      2  H1  UNL     1      22.846  -2.740   9.727  1.00  0.00     0.177 HD
HETATM    3  C3  UNL     1      20.831  -2.686  10.409  1.00  0.00     0.672 C 
HETATM    4  N2  UNL     1      19.845  -2.576   9.598  1.00  0.00    -0.235 N 
ATOM      5  H21 UNL     1      18.966  -2.134   9.866  1.00  0.00     0.174 HD
ATOM      6  H22 UNL     1      19.936  -2.946   8.653  1.00  0.00     0.174 HD
HETATM    7  N3  UNL     1      20.705  -2.175  11.715  1.00  0.00    -0.193 N 
ATOM      8  H3  UNL     1      21.271  -1.377  12.004  1.00  0.00     0.184 HD
ENDROOT
BRANCH   7   9
HETATM    9  C4  UNL     1      19.796  -2.762  12.632  1.00  0.00     0.049 A 
HETATM   10  C5  UNL     1      20.219  -3.904  13.322  1.00  0.00     0.031 A 
HETATM   11  C6  UNL     1      19.371  -4.492  14.212  1.00  0.00     0.019 A 
HETATM   12  C7  UNL     1      18.101  -4.003  14.463  1.00  0.00     0.029 A 
HETATM   13  C9  UNL     1      17.712  -2.880  13.771  1.00  0.00     0.019 A 
HETATM   14  C10 UNL     1      18.542  -2.247  12.853  1.00  0.00     0.031 A 
BRANCH  12  15
HETATM   15  C8  UNL     1      17.211  -4.641  15.417  1.00  0.00     0.264 C 
HETATM   16  N4  UNL     1      16.267  -3.908  16.160  1.00  0.00    -0.057 NA
HETATM   17  O1  UNL     1      17.303  -5.883  15.568  1.00  0.00    -0.271 OA
ENDBRANCH  12  15
ENDBRANCH   7   9
BRANCH   1  18
HETATM   18  C2  UNL     1      22.143  -4.745  10.106  1.00  0.00     0.133 C 
HETATM   19  C1  UNL     1      22.972  -5.088  11.328  1.00  0.00     0.027 C 
ENDBRANCH   1  18
TORSDOF 3
ENDMDL
MODEL 2
REMARK VINA RESULT: -5.770264262      0.489      1.357
REMARK  3 active torsions:
REMARK  status: ('A' for Active; 'I' for Inactive)
REMARK    1  A    between atoms: C2_2  and  N1_3 
REMARK       I    between atoms: N1_3  and  C3_5 
REMARK       I    between atoms: C3_5  and  N3_9 
REMARK    2  A    between atoms: N3_9  and  C4_11 
REMARK    3  A    between atoms: C7_14  and  C8_15 
ROOT
HETATM    1  N1  UNL     1      22.151  -3.007  10.254  1.00  0.00    -0.227 N 
ATOM      2  H1  UNL     1      22.853  -2.332   9.947  1.00  0.00     0.177 HD
HETATM    3  C3  UNL     1      20.842  -2.587  10.597  1.00  0.00     0.672 C 
HETATM    4  N2  UNL     1      19.866  -2.646   9.770  1.00  0.00    -0.235 N 
ATOM      5  H21 UNL     1      18.924  -2.344  10.017  1.00  0.00     0.174 HD
ATOM      6  H22 UNL     1      20.031  -3.010   8.832  1.00  0.00     0.174 HD
HETATM    7  N3  UNL     1      20.614  -2.084  11.893  1.00  0.00    -0.193 N 
ATOM      8  H3  UNL     1      21.043  -1.203  12.177  1.00  0.00     0.184 HD
ENDROOT
BRANCH   7   9
HETATM    9  C4  UNL     1      19.793  -2.796  12.806  1.00  0.00     0.049 A 
HETATM   10  C5  UNL     1      18.551  -2.238  13.129  1.00  0.00     0.031 A 
HETATM   11  C6  UNL     1      17.737  -2.897  14.000  1.00  0.00     0.019 A 
HETATM   12  C7  UNL     1      18.090  -4.102  14.583  1.00  0.00     0.029 A 
HETATM   13  C9  UNL     1      19.317  -4.626  14.247  1.00  0.00     0.019 A 
HETATM   14  C10 UNL     1      20.181  -3.989  13.363  1.00  0.00     0.031 A 
BRANCH  12  15
HETATM   15  C8  UNL     1      17.209  -4.791  15.509  1.00  0.00     0.264 C 
HETATM   16  N4  UNL     1      16.218  -4.109  16.241  1.00  0.00    -0.057 NA
HETATM   17  O1  UNL     1      17.350  -6.029  15.645  1.00  0.00    -0.271 OA
ENDBRANCH  12  15
ENDBRANCH   7   9
BRANCH   1  18
HETATM   18  C2  UNL     1      22.467  -4.417  10.349  1.00  0.00     0.133 C 
HETATM   19  C1  UNL     1      23.646  -4.680   9.432  1.00  0.00     0.027 C 
ENDBRANCH   1  18
TORSDOF 3
ENDMDL
MODEL 3
REMARK VINA RESULT: -5.689546979      2.565      5.756
REMARK  3 active torsions:
REMARK  status: ('A' for Active; 'I' for Inactive)
REMARK    1  A    between atoms: C2_2  and  N1_3 
REMARK       I    between atoms: N1_3  and  C3_5 
REMARK       I    between atoms: C3_5  and  N3_9 
REMARK    2  A    between atoms: N3_9  and  C4_11 
REMARK    3  A    between atoms: C7_14  and  C8_15 
ROOT
HETATM    1  N1  UNL     1      18.022  -3.652  17.670  1.00  0.00    -0.227 N 
ATOM      2  H1  UNL     1      17.318  -4.058  18.286  1.00  0.00     0.177 HD
HETATM    3  C3  UNL     1      17.659  -2.723  16.664  1.00  0.00     0.672 C 
HETATM    4  N2  UNL     1      17.748  -1.457  16.836  1.00  0.00    -0.235 N 
ATOM      5  H21 UNL     1      17.486  -0.789  16.112  1.00  0.00     0.174 HD
ATOM      6  H22 UNL     1      18.096  -1.100  17.725  1.00  0.00     0.174 HD
HETATM    7  N3  UNL     1      17.178  -3.216  15.436  1.00  0.00    -0.193 N 
ATOM      8  H3  UNL     1      16.283  -3.705  15.401  1.00  0.00     0.184 HD
ENDROOT
BRANCH   7   9
HETATM    9  C4  UNL     1      17.930  -3.037  14.245  1.00  0.00     0.049 A 
HETATM   10  C5  UNL     1      19.258  -3.479  14.246  1.00  0.00     0.031 A 
HETATM   11  C6  UNL     1      20.006  -3.324  13.118  1.00  0.00     0.019 A 
HETATM   12  C7  UNL     1      19.506  -2.745  11.966  1.00  0.00     0.029 A 
HETATM   13  C9  UNL     1      18.197  -2.319  11.994  1.00  0.00     0.019 A 
HETATM   14  C10 UNL     1      17.395  -2.456  13.122  1.00  0.00     0.031 A 
BRANCH  12  15
HETATM   15  C8  UNL     1      20.318  -2.590  10.772  1.00  0.00     0.264 C 
HETATM   16  N4  UNL     1      21.671  -2.205  10.837  1.00  0.00    -0.057 NA
HETATM   17  O1  UNL     1      19.780  -2.810   9.661  1.00  0.00    -0.271 OA
ENDBRANCH  12  15
ENDBRANCH   7   9
BRANCH   1  18
HETATM   18  C2  UNL     1      19.420  -4.009  17.802  1.00  0.00     0.133 C 
HETATM   19  C1  UNL     1      19.562  -5.453  17.362  1.00  0.00     0.027 C 
ENDBRANCH   1  18
TORSDOF 3
ENDMDL
MODEL 4
REMARK VINA RESULT: -5.679124127      2.585      5.886
REMARK  3 active torsions:
REMARK  status: ('A' for Active; 'I' for Inactive)
REMARK    1  A    between atoms: C2_2  and  N1_3 
REMARK       I    between atoms: N1_3  and  C3_5 
REMARK       I    between atoms: C3_5  and  N3_9 
REMARK    2  A    between atoms: N3_9  and  C4_11 
REMARK    3  A    between atoms: C7_14  and  C8_15 
ROOT
HETATM    1  N1  UNL     1      18.044  -3.632  17.706  1.00  0.00    -0.227 N 
ATOM      2  H1  UNL     1      17.320  -4.015  18.313  1.00  0.00     0.177 HD
HETATM    3  C3  UNL     1      17.717  -2.727  16.665  1.00  0.00     0.672 C 
HETATM    4  N2  UNL     1      17.814  -1.458  16.807  1.00  0.00    -0.235 N 
ATOM      5  H21 UNL     1      17.578  -0.807  16.058  1.00  0.00     0.174 HD
ATOM      6  H22 UNL     1      18.141  -1.081  17.695  1.00  0.00     0.174 HD
HETATM    7  N3  UNL     1      17.265  -3.249  15.438  1.00  0.00    -0.193 N 
ATOM      8  H3  UNL     1      16.367  -3.731  15.392  1.00  0.00     0.184 HD
ENDROOT
BRANCH   7   9
HETATM    9  C4  UNL     1      18.051  -3.109  14.265  1.00  0.00     0.049 A 
HETATM   10  C5  UNL     1      17.470  -2.456  13.171  1.00  0.00     0.031 A 
HETATM   11  C6  UNL     1      18.199  -2.303  12.030  1.00  0.00     0.019 A 
HETATM   12  C7  UNL     1      19.496  -2.768  11.907  1.00  0.00     0.029 A 
HETATM   13  C9  UNL     1      20.041  -3.406  12.998  1.00  0.00     0.019 A 
HETATM   14  C10 UNL     1      19.336  -3.586  14.183  1.00  0.00     0.031 A 
BRANCH  12  15
HETATM   15  C8  UNL     1      20.258  -2.594  10.683  1.00  0.00     0.264 C 
HETATM   16  N4  UNL     1      21.609  -2.198  10.697  1.00  0.00    -0.057 NA
HETATM   17  O1  UNL     1      19.678  -2.809   9.592  1.00  0.00    -0.271 OA
ENDBRANCH  12  15
ENDBRANCH   7   9
BRANCH   1  18
HETATM   18  C2  UNL     1      19.435  -3.998  17.886  1.00  0.00     0.133 C 
HETATM   19  C1  UNL     1      19.595  -5.423  17.394  1.00  0.00     0.027 C 
ENDBRANCH   1  18
TORSDOF 3
ENDMDL
MODEL 5
REMARK VINA RESULT: -5.469374516      3.238      6.075
REMARK  3 active torsions:
REMARK  status: ('A' for Active; 'I' for Inactive)
REMARK    1  A    between atoms: C2_2  and  N1_3 
REMARK       I    between atoms: N1_3  and  C3_5 
REMARK       I    between atoms: C3_5  and  N3_9 
REMARK    2  A    between atoms: N3_9  and  C4_11 
REMARK    3  A    between atoms: C7_14  and  C8_15 
ROOT
HETATM    1  N1  UNL     1      19.730  -2.306  11.413  1.00  0.00    -0.227 N 
ATOM      2  H1  UNL     1      19.068  -1.720  10.903  1.00  0.00     0.177 HD
HETATM    3  C3  UNL     1      21.073  -2.432  10.979  1.00  0.00     0.672 C 
HETATM    4  N2  UNL     1      22.021  -1.730  11.476  1.00  0.00    -0.235 N 
ATOM      5  H21 UNL     1      22.988  -1.821  11.163  1.00  0.00     0.174 HD
ATOM      6  H22 UNL     1      21.809  -1.059  12.213  1.00  0.00     0.174 HD
HETATM    7  N3  UNL     1      21.366  -3.359   9.960  1.00  0.00    -0.193 N 
ATOM      8  H3  UNL     1      21.005  -3.208   9.018  1.00  0.00     0.184 HD
ENDROOT
BRANCH   7   9
HETATM    9  C4  UNL     1      22.160  -4.502  10.237  1.00  0.00     0.049 A 
HETATM   10  C5  UNL     1      21.917  -5.186  11.434  1.00  0.00     0.031 A 
HETATM   11  C6  UNL     1      22.661  -6.289  11.728  1.00  0.00     0.019 A 
HETATM   12  C7  UNL     1      23.652  -6.765  10.887  1.00  0.00     0.029 A 
HETATM   13  C9  UNL     1      23.869  -6.073   9.717  1.00  0.00     0.019 A 
HETATM   14  C10 UNL     1      23.135  -4.942   9.375  1.00  0.00     0.031 A 
BRANCH  12  15
HETATM   15  C8  UNL     1      24.433  -7.944  11.216  1.00  0.00     0.264 C 
HETATM   16  N4  UNL     1      23.867  -9.232  11.228  1.00  0.00    -0.057 NA
HETATM   17  O1  UNL     1      25.646  -7.787  11.495  1.00  0.00    -0.271 OA
ENDBRANCH  12  15
ENDBRANCH   7   9
BRANCH   1  18
HETATM   18  C2  UNL     1      19.322  -3.029  12.601  1.00  0.00     0.133 C 
HETATM   19  C1  UNL     1      17.856  -2.720  12.837  1.00  0.00     0.027 C 
ENDBRANCH   1  18
TORSDOF 3
ENDMDL
