MODEL 1
REMARK VINA RESULT: -7.681967712      0.000      0.000
REMARK  4 active torsions:
REMARK  status: ('A' for Active; 'I' for Inactive)
REMARK    1  A    between atoms: C1_2  and  C2_4 
REMARK    2  A    between atoms: C2_4  and  C3_5 
REMARK    3  A    between atoms: C7_9  and  N2_10 
REMARK    4  A    between atoms: N2_10  and  N3_12 
ROOT
HETATM    1  C3  UNL     1      23.304  -5.975  11.062  1.00  0.00    -0.048 A 
HETATM    2  C4  UNL     1      24.107  -5.847   9.931  1.00  0.00     0.007 A 
HETATM    3  C5  UNL     1      24.206  -4.667   9.226  1.00  0.00     0.003 A 
HETATM    4  C6  UNL     1      23.505  -3.550   9.619  1.00  0.00     0.031 A 
HETATM    5  C7  UNL     1      22.709  -3.655  10.730  1.00  0.00     0.048 A 
HETATM    6  C9  UNL     1      22.606  -4.844  11.444  1.00  0.00     0.038 A 
ENDROOT
BRANCH   5   7
HETATM    7  N2  UNL     1      21.937  -2.518  11.143  1.00  0.00    -0.299 N 
ATOM      8  H2  UNL     1      22.449  -1.692  11.452  1.00  0.00     0.187 HD
BRANCH   7   9
HETATM    9  N3  UNL     1      20.596  -2.452  11.155  1.00  0.00    -0.276 N 
HETATM   10  C8  UNL     1      19.686  -2.632  11.987  1.00  0.00     0.215 C 
HETATM   11  N4  UNL     1      18.292  -2.464  11.625  1.00  0.00    -0.065 NA
HETATM   12  N5  UNL     1      19.938  -3.014  13.328  1.00  0.00    -0.065 NA
ATOM     13  H3  UNL     1      20.224  -2.184  10.244  1.00  0.00     0.189 HD
ENDBRANCH   7   9
ENDBRANCH   5   7
BRANCH   1  14
HETATM   14  C2  UNL     1      23.219  -7.276  11.774  1.00  0.00     0.138 C 
BRANCH  14  15
HETATM   15  C1  UNL     1      23.474  -8.435  10.901  1.00  0.00     0.235 C 
HETATM   16  N1  UNL     1      22.522  -8.699   9.868  1.00  0.00    -0.062 NA
HETATM   17  O1  UNL     1      24.492  -9.110  11.106  1.00  0.00    -0.277 OA
ENDBRANCH  14  15
ENDBRANCH   1  14
TORSDOF 4
ENDMDL
MODEL 2
REMARK VINA RESULT: -7.227101471      3.172      4.658
REMARK  4 active torsions:
REMARK  status: ('A' for Active; 'I' for Inactive)
REMARK    1  A    between atoms: C1_2  and  C2_4 
REMARK    2  A    between atoms: C2_4  and  C3_5 
REMARK    3  A    between atoms: C7_9  and  N2_10 
REMARK    4  A    between atoms: N2_10  and  N3_12 
ROOT
HETATM    1  C3  UNL     1      22.759  -5.034  10.743  1.00  0.00    -0.048 A 
HETATM    2  C4  UNL     1      23.612  -5.954  10.137  1.00  0.00     0.007 A 
HETATM    3  C5  UNL     1      23.796  -7.227  10.632  1.00  0.00     0.003 A 
HETATM    4  C6  UNL     1      23.133  -7.647  11.762  1.00  0.00     0.031 A 
HETATM    5  C7  UNL     1      22.289  -6.756  12.373  1.00  0.00     0.048 A 
HETATM    6  C9  UNL     1      22.100  -5.471  11.877  1.00  0.00     0.038 A 
ENDROOT
BRANCH   5   7
HETATM    7  N2  UNL     1      21.612  -7.152  13.576  1.00  0.00    -0.299 N 
ATOM      8  H2  UNL     1      21.826  -8.076  13.951  1.00  0.00     0.187 HD
BRANCH   7   9
HETATM    9  N3  UNL     1      20.720  -6.406  14.247  1.00  0.00    -0.276 N 
HETATM   10  C8  UNL     1      20.536  -6.056  15.428  1.00  0.00     0.215 C 
HETATM   11  N4  UNL     1      19.414  -5.212  15.796  1.00  0.00    -0.065 NA
HETATM   12  N5  UNL     1      21.389  -6.452  16.487  1.00  0.00    -0.065 NA
ATOM     13  H3  UNL     1      20.004  -6.027  13.626  1.00  0.00     0.189 HD
ENDBRANCH   7   9
ENDBRANCH   5   7
BRANCH   1  14
HETATM   14  C2  UNL     1      22.612  -3.668  10.178  1.00  0.00     0.138 C 
BRANCH  14  15
HETATM   15  C1  UNL     1      21.481  -2.919  10.755  1.00  0.00     0.235 C 
HETATM   16  N1  UNL     1      21.705  -2.253  12.000  1.00  0.00    -0.062 NA
HETATM   17  O1  UNL     1      20.410  -2.904  10.134  1.00  0.00    -0.277 OA
ENDBRANCH  14  15
ENDBRANCH   1  14
TORSDOF 4
ENDMDL
MODEL 3
REMARK VINA RESULT: -6.979180233      2.891      4.383
REMARK  4 active torsions:
REMARK  status: ('A' for Active; 'I' for Inactive)
REMARK    1  A    between atoms: C1_2  and  C2_4 
REMARK    2  A    between atoms: C2_4  and  C3_5 
REMARK    3  A    between atoms: C7_9  and  N2_10 
REMARK    4  A    between atoms: N2_10  and  N3_12 
ROOT
HETATM    1  C3  UNL     1      22.728  -5.800  10.311  1.00  0.00    -0.048 A 
HETATM    2  C4  UNL     1      23.638  -6.785   9.934  1.00  0.00     0.007 A 
HETATM    3  C5  UNL     1      23.920  -7.873  10.731  1.00  0.00     0.003 A 
HETATM    4  C6  UNL     1      23.302  -8.034  11.950  1.00  0.00     0.031 A 
HETATM    5  C7  UNL     1      22.403  -7.075  12.339  1.00  0.00     0.048 A 
HETATM    6  C9  UNL     1      22.115  -5.975  11.538  1.00  0.00     0.038 A 
ENDROOT
BRANCH   5   7
HETATM    7  N2  UNL     1      21.769  -7.195  13.622  1.00  0.00    -0.299 N 
ATOM      8  H2  UNL     1      22.124  -7.913  14.254  1.00  0.00     0.187 HD
BRANCH   7   9
HETATM    9  N3  UNL     1      20.749  -6.440  14.058  1.00  0.00    -0.276 N 
HETATM   10  C8  UNL     1      20.369  -5.970  15.148  1.00  0.00     0.215 C 
HETATM   11  N4  UNL     1      19.163  -5.169  15.241  1.00  0.00    -0.065 NA
HETATM   12  N5  UNL     1      21.069  -6.183  16.361  1.00  0.00    -0.065 NA
ATOM     13  H3  UNL     1      20.118  -6.184  13.299  1.00  0.00     0.189 HD
ENDBRANCH   7   9
ENDBRANCH   5   7
BRANCH   1  14
HETATM   14  C2  UNL     1      22.476  -4.637   9.423  1.00  0.00     0.138 C 
BRANCH  14  15
HETATM   15  C1  UNL     1      23.028  -3.375   9.945  1.00  0.00     0.235 C 
HETATM   16  N1  UNL     1      22.127  -2.500  10.628  1.00  0.00    -0.062 NA
HETATM   17  O1  UNL     1      24.231  -3.144   9.766  1.00  0.00    -0.277 OA
ENDBRANCH  14  15
ENDBRANCH   1  14
TORSDOF 4
ENDMDL
MODEL 4
REMARK VINA RESULT: -6.950878146      1.263      1.324
REMARK  4 active torsions:
REMARK  status: ('A' for Active; 'I' for Inactive)
REMARK    1  A    between atoms: C1_2  and  C2_4 
REMARK    2  A    between atoms: C2_4  and  C3_5 
REMARK    3  A    between atoms: C7_9  and  N2_10 
REMARK    4  A    between atoms: N2_10  and  N3_12 
ROOT
HETATM    1  C3  UNL     1      22.623  -5.770  11.326  1.00  0.00    -0.048 A 
HETATM    2  C4  UNL     1      23.463  -5.384  10.285  1.00  0.00     0.007 A 
HETATM    3  C5  UNL     1      23.462  -4.105   9.771  1.00  0.00     0.003 A 
HETATM    4  C6  UNL     1      22.618  -3.143  10.277  1.00  0.00     0.031 A 
HETATM    5  C7  UNL     1      21.783  -3.504  11.303  1.00  0.00     0.048 A 
HETATM    6  C9  UNL     1      21.781  -4.793  11.824  1.00  0.00     0.038 A 
ENDROOT
BRANCH   5   7
HETATM    7  N2  UNL     1      20.864  -2.533  11.827  1.00  0.00    -0.299 N 
ATOM      8  H2  UNL     1      21.209  -1.908  12.556  1.00  0.00     0.187 HD
BRANCH   7   9
HETATM    9  N3  UNL     1      19.590  -2.379  11.436  1.00  0.00    -0.276 N 
HETATM   10  C8  UNL     1      18.461  -2.505  11.949  1.00  0.00     0.215 C 
HETATM   11  N4  UNL     1      17.255  -2.244  11.187  1.00  0.00    -0.065 NA
HETATM   12  N5  UNL     1      18.272  -2.914  13.292  1.00  0.00    -0.065 NA
ATOM     13  H3  UNL     1      19.528  -2.080  10.462  1.00  0.00     0.189 HD
ENDBRANCH   7   9
ENDBRANCH   5   7
BRANCH   1  14
HETATM   14  C2  UNL     1      22.652  -7.168  11.829  1.00  0.00     0.138 C 
BRANCH  14  15
HETATM   15  C1  UNL     1      23.068  -8.146  10.809  1.00  0.00     0.235 C 
HETATM   16  N1  UNL     1      24.372  -8.716  10.942  1.00  0.00    -0.062 NA
HETATM   17  O1  UNL     1      22.272  -8.419   9.901  1.00  0.00    -0.277 OA
ENDBRANCH  14  15
ENDBRANCH   1  14
TORSDOF 4
ENDMDL
MODEL 5
REMARK VINA RESULT: -6.905825628      3.166      4.206
REMARK  4 active torsions:
REMARK  status: ('A' for Active; 'I' for Inactive)
REMARK    1  A    between atoms: C1_2  and  C2_4 
REMARK    2  A    between atoms: C2_4  and  C3_5 
REMARK    3  A    between atoms: C7_9  and  N2_10 
REMARK    4  A    between atoms: N2_10  and  N3_12 
ROOT
HETATM    1  C3  UNL     1      22.888  -6.009  10.197  1.00  0.00    -0.048 A 
HETATM    2  C4  UNL     1      23.735  -7.078   9.916  1.00  0.00     0.007 A 
HETATM    3  C5  UNL     1      23.919  -8.124  10.794  1.00  0.00     0.003 A 
HETATM    4  C6  UNL     1      23.262  -8.155  12.002  1.00  0.00     0.031 A 
HETATM    5  C7  UNL     1      22.423  -7.112  12.298  1.00  0.00     0.048 A 
HETATM    6  C9  UNL     1      22.234  -6.054  11.415  1.00  0.00     0.038 A 
ENDROOT
BRANCH   5   7
HETATM    7  N2  UNL     1      21.751  -7.097  13.566  1.00  0.00    -0.299 N 
ATOM      8  H2  UNL     1      22.076  -7.754  14.276  1.00  0.00     0.187 HD
BRANCH   7   9
HETATM    9  N3  UNL     1      20.731  -6.289  13.896  1.00  0.00    -0.276 N 
HETATM   10  C8  UNL     1      20.277  -5.779  14.938  1.00  0.00     0.215 C 
HETATM   11  N4  UNL     1      19.106  -4.925  14.909  1.00  0.00    -0.065 NA
HETATM   12  N5  UNL     1      20.857  -5.995  16.213  1.00  0.00    -0.065 NA
ATOM     13  H3  UNL     1      20.183  -6.023  13.078  1.00  0.00     0.189 HD
ENDBRANCH   7   9
ENDBRANCH   5   7
BRANCH   1  14
HETATM   14  C2  UNL     1      22.741  -4.897   9.223  1.00  0.00     0.138 C 
BRANCH  14  15
HETATM   15  C1  UNL     1      23.898  -3.985   9.201  1.00  0.00     0.235 C 
HETATM   16  N1  UNL     1      24.901  -4.225   8.211  1.00  0.00    -0.062 NA
HETATM   17  O1  UNL     1      23.937  -3.068  10.032  1.00  0.00    -0.277 OA
ENDBRANCH  14  15
ENDBRANCH   1  14
TORSDOF 4
ENDMDL
