MODEL 1
REMARK VINA RESULT: -7.181894792      0.000      0.000
REMARK  6 active torsions:
REMARK  status: ('A' for Active; 'I' for Inactive)
REMARK    1  A    between atoms: C1_2  and  C2_3 
REMARK       I    between atoms: C1_2  and  N3_14 
REMARK    2  A    between atoms: C2_3  and  N1_4 
REMARK    3  A    between atoms: N1_4  and  C3_6 
REMARK    4  A    between atoms: C3_6  and  C4_7 
REMARK    5  A    between atoms: C4_7  and  C5_8 
REMARK    6  A    between atoms: N3_14  and  C9_16 
ROOT
HETATM    1  N1  UNL     1      23.732  -3.165  10.627  1.00  0.00    -0.413 N 
ATOM      2  H1  UNL     1      24.318  -2.386  10.326  1.00  0.00     0.153 HD
ENDROOT
BRANCH   1   3
HETATM    3  C2  UNL     1      22.340  -3.182  10.376  1.00  0.00     0.217 C 
BRANCH   3   4
HETATM    4  C1  UNL     1      21.468  -2.693  11.456  1.00  0.00     0.235 C 
HETATM    5  O1  UNL     1      22.002  -2.011  12.366  1.00  0.00    -0.272 OA
HETATM    6  N3  UNL     1      20.091  -2.956  11.516  1.00  0.00    -0.355 N 
ATOM      7  H3  UNL     1      19.673  -3.516  10.772  1.00  0.00     0.162 HD
BRANCH   6   8
HETATM    8  C9  UNL     1      19.231  -2.473  12.580  1.00  0.00     0.084 A 
HETATM    9  C10 UNL     1      18.427  -3.612  13.262  1.00  0.00     0.027 A 
HETATM   10  C11 UNL     1      17.769  -2.514  12.501  1.00  0.00     0.027 A 
ENDBRANCH   6   8
ENDBRANCH   3   4
ENDBRANCH   1   3
BRANCH   1  11
HETATM   11  C3  UNL     1      24.286  -4.290  11.323  1.00  0.00     0.120 C 
BRANCH  11  12
HETATM   12  C4  UNL     1      24.880  -5.308  10.347  1.00  0.00     0.076 C 
BRANCH  12  13
HETATM   13  C5  UNL     1      24.070  -6.574  10.418  1.00  0.00     0.010 A 
HETATM   14  C6  UNL     1      24.581  -7.847  10.661  1.00  0.00     0.026 A 
HETATM   15  C7  UNL     1      23.545  -8.766  10.652  1.00  0.00     0.019 A 
HETATM   16  C8  UNL     1      22.401  -8.004  10.396  1.00  0.00     0.088 A 
HETATM   17  N2  UNL     1      22.747  -6.731  10.265  1.00  0.00    -0.369 N 
ATOM     18  H2  UNL     1      22.093  -5.973  10.074  1.00  0.00     0.165 HD
ENDBRANCH  12  13
ENDBRANCH  11  12
ENDBRANCH   1  11
TORSDOF 6
ENDMDL
MODEL 2
REMARK VINA RESULT: -6.889897831      0.985      1.032
REMARK  6 active torsions:
REMARK  status: ('A' for Active; 'I' for Inactive)
REMARK    1  A    between atoms: C1_2  and  C2_3 
REMARK       I    between atoms: C1_2  and  N3_14 
REMARK    2  A    between atoms: C2_3  and  N1_4 
REMARK    3  A    between atoms: N1_4  and  C3_6 
REMARK    4  A    between atoms: C3_6  and  C4_7 
REMARK    5  A    between atoms: C4_7  and  C5_8 
REMARK    6  A    between atoms: N3_14  and  C9_16 
ROOT
HETATM    1  N1  UNL     1      24.322  -3.625  10.916  1.00  0.00    -0.413 N 
ATOM      2  H1  UNL     1      24.755  -2.728  11.136  1.00  0.00     0.153 HD
ENDROOT
BRANCH   1   3
HETATM    3  C2  UNL     1      23.053  -3.699  10.296  1.00  0.00     0.217 C 
BRANCH   3   4
HETATM    4  C1  UNL     1      21.971  -2.912  10.909  1.00  0.00     0.235 C 
HETATM    5  O1  UNL     1      21.856  -1.712  10.554  1.00  0.00    -0.272 OA
HETATM    6  N3  UNL     1      21.082  -3.432  11.863  1.00  0.00    -0.355 N 
ATOM      7  H3  UNL     1      21.192  -4.407  12.145  1.00  0.00     0.162 HD
BRANCH   6   8
HETATM    8  C9  UNL     1      20.016  -2.657  12.468  1.00  0.00     0.084 A 
HETATM    9  C10 UNL     1      19.053  -3.526  13.319  1.00  0.00     0.027 A 
HETATM   10  C11 UNL     1      18.609  -2.810  12.091  1.00  0.00     0.027 A 
ENDBRANCH   6   8
ENDBRANCH   3   4
ENDBRANCH   1   3
BRANCH   1  11
HETATM   11  C3  UNL     1      24.974  -4.864  11.223  1.00  0.00     0.120 C 
BRANCH  11  12
HETATM   12  C4  UNL     1      24.093  -5.751  12.105  1.00  0.00     0.076 C 
BRANCH  12  13
HETATM   13  C5  UNL     1      23.626  -6.928  11.292  1.00  0.00     0.010 A 
HETATM   14  C6  UNL     1      24.447  -7.916  10.754  1.00  0.00     0.026 A 
HETATM   15  C7  UNL     1      23.670  -8.835  10.068  1.00  0.00     0.019 A 
HETATM   16  C8  UNL     1      22.361  -8.365  10.212  1.00  0.00     0.088 A 
HETATM   17  N2  UNL     1      22.375  -7.252  10.931  1.00  0.00    -0.369 N 
ATOM     18  H2  UNL     1      21.545  -6.714  11.177  1.00  0.00     0.165 HD
ENDBRANCH  12  13
ENDBRANCH  11  12
ENDBRANCH   1  11
TORSDOF 6
ENDMDL
MODEL 3
REMARK VINA RESULT: -6.768179156      1.521      2.102
REMARK  6 active torsions:
REMARK  status: ('A' for Active; 'I' for Inactive)
REMARK    1  A    between atoms: C1_2  and  C2_3 
REMARK       I    between atoms: C1_2  and  N3_14 
REMARK    2  A    between atoms: C2_3  and  N1_4 
REMARK    3  A    between atoms: N1_4  and  C3_6 
REMARK    4  A    between atoms: C3_6  and  C4_7 
REMARK    5  A    between atoms: C4_7  and  C5_8 
REMARK    6  A    between atoms: N3_14  and  C9_16 
ROOT
HETATM    1  N1  UNL     1      22.901  -3.386  10.184  1.00  0.00    -0.413 N 
ATOM      2  H1  UNL     1      23.593  -2.964  10.803  1.00  0.00     0.153 HD
ENDROOT
BRANCH   1   3
HETATM    3  C2  UNL     1      21.545  -2.984  10.210  1.00  0.00     0.217 C 
BRANCH   3   4
HETATM    4  C1  UNL     1      20.982  -2.648  11.528  1.00  0.00     0.235 C 
HETATM    5  O1  UNL     1      21.758  -2.144  12.378  1.00  0.00    -0.272 OA
HETATM    6  N3  UNL     1      19.639  -2.868  11.873  1.00  0.00    -0.355 N 
ATOM      7  H3  UNL     1      19.022  -3.282  11.174  1.00  0.00     0.162 HD
BRANCH   6   8
HETATM    8  C9  UNL     1      19.083  -2.536  13.171  1.00  0.00     0.084 A 
HETATM    9  C10 UNL     1      18.761  -3.793  14.022  1.00  0.00     0.027 A 
HETATM   10  C11 UNL     1      17.705  -2.855  13.552  1.00  0.00     0.027 A 
ENDBRANCH   6   8
ENDBRANCH   3   4
ENDBRANCH   1   3
BRANCH   1  11
HETATM   11  C3  UNL     1      23.261  -4.411   9.249  1.00  0.00     0.120 C 
BRANCH  11  12
HETATM   12  C4  UNL     1      23.333  -5.781   9.928  1.00  0.00     0.076 C 
BRANCH  12  13
HETATM   13  C5  UNL     1      24.657  -5.904  10.631  1.00  0.00     0.010 A 
HETATM   14  C6  UNL     1      24.996  -6.895  11.549  1.00  0.00     0.026 A 
HETATM   15  C7  UNL     1      26.292  -6.689  11.989  1.00  0.00     0.019 A 
HETATM   16  C8  UNL     1      26.717  -5.545  11.308  1.00  0.00     0.088 A 
HETATM   17  N2  UNL     1      25.737  -5.115  10.526  1.00  0.00    -0.369 N 
ATOM     18  H2  UNL     1      25.797  -4.295   9.924  1.00  0.00     0.165 HD
ENDBRANCH  12  13
ENDBRANCH  11  12
ENDBRANCH   1  11
TORSDOF 6
ENDMDL
MODEL 4
REMARK VINA RESULT: -6.758153633      1.549      6.107
REMARK  6 active torsions:
REMARK  status: ('A' for Active; 'I' for Inactive)
REMARK    1  A    between atoms: C1_2  and  C2_3 
REMARK       I    between atoms: C1_2  and  N3_14 
REMARK    2  A    between atoms: C2_3  and  N1_4 
REMARK    3  A    between atoms: N1_4  and  C3_6 
REMARK    4  A    between atoms: C3_6  and  C4_7 
REMARK    5  A    between atoms: C4_7  and  C5_8 
REMARK    6  A    between atoms: N3_14  and  C9_16 
ROOT
HETATM    1  N1  UNL     1      23.195  -2.868  10.526  1.00  0.00    -0.413 N 
ATOM      2  H1  UNL     1      23.690  -2.140  10.010  1.00  0.00     0.153 HD
ENDROOT
BRANCH   1   3
HETATM    3  C2  UNL     1      23.891  -3.906  11.188  1.00  0.00     0.217 C 
BRANCH   3   4
HETATM    4  C1  UNL     1      24.177  -5.116  10.400  1.00  0.00     0.235 C 
HETATM    5  O1  UNL     1      24.780  -4.966   9.308  1.00  0.00    -0.272 OA
HETATM    6  N3  UNL     1      23.807  -6.408  10.807  1.00  0.00    -0.355 N 
ATOM      7  H3  UNL     1      23.313  -6.512  11.694  1.00  0.00     0.162 HD
BRANCH   6   8
HETATM    8  C9  UNL     1      24.089  -7.601  10.032  1.00  0.00     0.084 A 
HETATM    9  C10 UNL     1      22.906  -8.606  10.029  1.00  0.00     0.027 A 
HETATM   10  C11 UNL     1      24.227  -8.928  10.635  1.00  0.00     0.027 A 
ENDBRANCH   6   8
ENDBRANCH   3   4
ENDBRANCH   1   3
BRANCH   1  11
HETATM   11  C3  UNL     1      21.764  -2.881  10.611  1.00  0.00     0.120 C 
BRANCH  11  12
HETATM   12  C4  UNL     1      21.295  -2.831  12.067  1.00  0.00     0.076 C 
BRANCH  12  13
HETATM   13  C5  UNL     1      19.792  -2.750  12.088  1.00  0.00     0.010 A 
HETATM   14  C6  UNL     1      18.998  -2.763  13.232  1.00  0.00     0.026 A 
HETATM   15  C7  UNL     1      17.666  -2.674  12.866  1.00  0.00     0.019 A 
HETATM   16  C8  UNL     1      17.688  -2.607  11.470  1.00  0.00     0.088 A 
HETATM   17  N2  UNL     1      18.945  -2.654  11.053  1.00  0.00    -0.369 N 
ATOM     18  H2  UNL     1      19.229  -2.621  10.074  1.00  0.00     0.165 HD
ENDBRANCH  12  13
ENDBRANCH  11  12
ENDBRANCH   1  11
TORSDOF 6
ENDMDL
MODEL 5
REMARK VINA RESULT: -6.729251370      1.690      2.203
REMARK  6 active torsions:
REMARK  status: ('A' for Active; 'I' for Inactive)
REMARK    1  A    between atoms: C1_2  and  C2_3 
REMARK       I    between atoms: C1_2  and  N3_14 
REMARK    2  A    between atoms: C2_3  and  N1_4 
REMARK    3  A    between atoms: N1_4  and  C3_6 
REMARK    4  A    between atoms: C3_6  and  C4_7 
REMARK    5  A    between atoms: C4_7  and  C5_8 
REMARK    6  A    between atoms: N3_14  and  C9_16 
ROOT
HETATM    1  N1  UNL     1      22.422  -3.036   9.946  1.00  0.00    -0.413 N 
ATOM      2  H1  UNL     1      22.523  -2.234   9.323  1.00  0.00     0.153 HD
ENDROOT
BRANCH   1   3
HETATM    3  C2  UNL     1      22.190  -2.869  11.331  1.00  0.00     0.217 C 
BRANCH   3   4
HETATM    4  C1  UNL     1      20.845  -3.211  11.822  1.00  0.00     0.235 C 
HETATM    5  O1  UNL     1      20.723  -4.272  12.483  1.00  0.00    -0.272 OA
HETATM    6  N3  UNL     1      19.711  -2.420  11.580  1.00  0.00    -0.355 N 
ATOM      7  H3  UNL     1      19.825  -1.564  11.036  1.00  0.00     0.162 HD
BRANCH   6   8
HETATM    8  C9  UNL     1      18.385  -2.756  12.063  1.00  0.00     0.084 A 
HETATM    9  C10 UNL     1      17.298  -2.635  10.961  1.00  0.00     0.027 A 
HETATM   10  C11 UNL     1      17.305  -1.773  12.175  1.00  0.00     0.027 A 
ENDBRANCH   6   8
ENDBRANCH   3   4
ENDBRANCH   1   3
BRANCH   1  11
HETATM   11  C3  UNL     1      22.508  -4.379   9.454  1.00  0.00     0.120 C 
BRANCH  11  12
HETATM   12  C4  UNL     1      23.912  -4.690   8.931  1.00  0.00     0.076 C 
BRANCH  12  13
HETATM   13  C5  UNL     1      24.683  -5.402  10.010  1.00  0.00     0.010 A 
HETATM   14  C6  UNL     1      24.478  -6.719  10.414  1.00  0.00     0.026 A 
HETATM   15  C7  UNL     1      25.368  -7.031  11.427  1.00  0.00     0.019 A 
HETATM   16  C8  UNL     1      26.109  -5.861  11.617  1.00  0.00     0.088 A 
HETATM   17  N2  UNL     1      25.681  -4.933  10.773  1.00  0.00    -0.369 N 
ATOM     18  H2  UNL     1      26.061  -3.989  10.712  1.00  0.00     0.165 HD
ENDBRANCH  12  13
ENDBRANCH  11  12
ENDBRANCH   1  11
TORSDOF 6
ENDMDL
