MODEL 1
REMARK VINA RESULT: -6.497992394      0.000      0.000
REMARK  7 active torsions:
REMARK  status: ('A' for Active; 'I' for Inactive)
REMARK       I    between atoms: C1_4  and  N3_6 
REMARK    1  A    between atoms: N3_6  and  C2_8 
REMARK    2  A    between atoms: C2_8  and  C3_9 
REMARK    3  A    between atoms: C3_9  and  N4_10 
REMARK    4  A    between atoms: N4_10  and  C4_12 
REMARK    5  A    between atoms: C4_12  and  C5_13 
REMARK    6  A    between atoms: C8_16  and  O1_17 
REMARK    7  A    between atoms: O1_17  and  O2_18 
ROOT
HETATM    1  N4  UNL     1      22.387  -3.041  10.238  1.00  0.00    -0.377 N 
ATOM      2  H4  UNL     1      22.304  -3.402   9.287  1.00  0.00     0.164 HD
ENDROOT
BRANCH   1   3
HETATM    3  C3  UNL     1      21.293  -2.390  10.804  1.00  0.00     0.080 C 
BRANCH   3   4
HETATM    4  C2  UNL     1      20.611  -3.093  11.911  1.00  0.00     0.166 C 
BRANCH   4   5
HETATM    5  N3  UNL     1      19.577  -2.335  12.577  1.00  0.00    -0.360 N 
HETATM    6  C1  UNL     1      18.228  -2.386  12.070  1.00  0.00     0.182 C 
HETATM    7  N1  UNL     1      17.365  -1.628  12.641  1.00  0.00    -0.374 N 
HETATM    8  N2  UNL     1      17.890  -3.235  10.996  1.00  0.00    -0.064 NA
ATOM      9  H12 UNL     1      16.411  -1.664  12.282  1.00  0.00     0.158 HD
ATOM     10  H11 UNL     1      17.610  -1.014  13.418  1.00  0.00     0.158 HD
ATOM     11  H3  UNL     1      19.798  -1.770  13.397  1.00  0.00     0.162 HD
ENDBRANCH   4   5
ENDBRANCH   3   4
ENDBRANCH   1   3
BRANCH   1  12
HETATM   12  C4  UNL     1      23.599  -3.220  10.924  1.00  0.00     0.098 C 
BRANCH  12  13
HETATM   13  C5  UNL     1      23.933  -4.706  10.910  1.00  0.00    -0.021 A 
HETATM   14  C6  UNL     1      25.199  -5.132  11.251  1.00  0.00     0.015 A 
HETATM   15  C7  UNL     1      25.464  -6.493  11.233  1.00  0.00     0.041 A 
HETATM   16  C8  UNL     1      24.498  -7.426  10.885  1.00  0.00     0.106 A 
HETATM   17  C9  UNL     1      23.232  -6.992  10.545  1.00  0.00     0.041 A 
HETATM   18  C10 UNL     1      22.966  -5.625  10.562  1.00  0.00     0.015 A 
BRANCH  16  19
HETATM   19  O1  UNL     1      24.731  -8.789  10.857  1.00  0.00    -0.200 OA
BRANCH  19  20
HETATM   20  O2  UNL     1      23.690  -9.605  10.589  1.00  0.00    -0.245 OA
ATOM     21  H2  UNL     1      23.773 -10.210   9.860  1.00  0.00     0.254 HD
ENDBRANCH  19  20
ENDBRANCH  16  19
ENDBRANCH  12  13
ENDBRANCH   1  12
TORSDOF 7
ENDMDL
MODEL 2
REMARK VINA RESULT: -6.424868048      0.696      1.079
REMARK  7 active torsions:
REMARK  status: ('A' for Active; 'I' for Inactive)
REMARK       I    between atoms: C1_4  and  N3_6 
REMARK    1  A    between atoms: N3_6  and  C2_8 
REMARK    2  A    between atoms: C2_8  and  C3_9 
REMARK    3  A    between atoms: C3_9  and  N4_10 
REMARK    4  A    between atoms: N4_10  and  C4_12 
REMARK    5  A    between atoms: C4_12  and  C5_13 
REMARK    6  A    between atoms: C8_16  and  O1_17 
REMARK    7  A    between atoms: O1_17  and  O2_18 
ROOT
HETATM    1  N4  UNL     1      22.809  -2.909  10.250  1.00  0.00    -0.377 N 
ATOM      2  H4  UNL     1      23.136  -3.010   9.289  1.00  0.00     0.164 HD
ENDROOT
BRANCH   1   3
HETATM    3  C3  UNL     1      21.518  -2.435  10.470  1.00  0.00     0.080 C 
BRANCH   3   4
HETATM    4  C2  UNL     1      20.900  -2.792  11.765  1.00  0.00     0.166 C 
BRANCH   4   5
HETATM    5  N3  UNL     1      19.484  -2.522  11.866  1.00  0.00    -0.360 N 
HETATM    6  C1  UNL     1      18.867  -2.469  13.169  1.00  0.00     0.182 C 
HETATM    7  N1  UNL     1      17.594  -2.314  13.201  1.00  0.00    -0.374 N 
HETATM    8  N2  UNL     1      19.642  -2.582  14.342  1.00  0.00    -0.064 NA
ATOM      9  H12 UNL     1      17.158  -2.276  14.122  1.00  0.00     0.158 HD
ATOM     10  H11 UNL     1      17.034  -2.232  12.353  1.00  0.00     0.158 HD
ATOM     11  H3  UNL     1      18.927  -2.371  11.026  1.00  0.00     0.162 HD
ENDBRANCH   4   5
ENDBRANCH   3   4
ENDBRANCH   1   3
BRANCH   1  12
HETATM   12  C4  UNL     1      23.679  -3.254  11.298  1.00  0.00     0.098 C 
BRANCH  12  13
HETATM   13  C5  UNL     1      24.007  -4.736  11.169  1.00  0.00    -0.021 A 
HETATM   14  C6  UNL     1      25.290  -5.181  11.405  1.00  0.00     0.015 A 
HETATM   15  C7  UNL     1      25.550  -6.538  11.284  1.00  0.00     0.041 A 
HETATM   16  C8  UNL     1      24.562  -7.448  10.936  1.00  0.00     0.106 A 
HETATM   17  C9  UNL     1      23.279  -6.994  10.700  1.00  0.00     0.041 A 
HETATM   18  C10 UNL     1      23.018  -5.632  10.821  1.00  0.00     0.015 A 
BRANCH  16  19
HETATM   19  O1  UNL     1      24.790  -8.806  10.807  1.00  0.00    -0.200 OA
BRANCH  19  20
HETATM   20  O2  UNL     1      23.721  -9.617  10.656  1.00  0.00    -0.245 OA
ATOM     21  H2  UNL     1      23.459  -9.851   9.773  1.00  0.00     0.254 HD
ENDBRANCH  19  20
ENDBRANCH  16  19
ENDBRANCH  12  13
ENDBRANCH   1  12
TORSDOF 7
ENDMDL
MODEL 3
REMARK VINA RESULT: -6.415203449      2.407      3.211
REMARK  7 active torsions:
REMARK  status: ('A' for Active; 'I' for Inactive)
REMARK       I    between atoms: C1_4  and  N3_6 
REMARK    1  A    between atoms: N3_6  and  C2_8 
REMARK    2  A    between atoms: C2_8  and  C3_9 
REMARK    3  A    between atoms: C3_9  and  N4_10 
REMARK    4  A    between atoms: N4_10  and  C4_12 
REMARK    5  A    between atoms: C4_12  and  C5_13 
REMARK    6  A    between atoms: C8_16  and  O1_17 
REMARK    7  A    between atoms: O1_17  and  O2_18 
ROOT
HETATM    1  N4  UNL     1      20.800  -2.496  11.769  1.00  0.00    -0.377 N 
ATOM      2  H4  UNL     1      21.439  -2.122  12.471  1.00  0.00     0.164 HD
ENDROOT
BRANCH   1   3
HETATM    3  C3  UNL     1      19.494  -2.797  12.146  1.00  0.00     0.080 C 
BRANCH   3   4
HETATM    4  C2  UNL     1      19.305  -3.278  13.531  1.00  0.00     0.166 C 
BRANCH   4   5
HETATM    5  N3  UNL     1      19.194  -2.242  14.532  1.00  0.00    -0.360 N 
HETATM    6  C1  UNL     1      19.144  -2.609  15.926  1.00  0.00     0.182 C 
HETATM    7  N1  UNL     1      18.957  -1.661  16.769  1.00  0.00    -0.374 N 
HETATM    8  N2  UNL     1      19.294  -3.953  16.326  1.00  0.00    -0.064 NA
ATOM      9  H12 UNL     1      18.921  -1.921  17.755  1.00  0.00     0.158 HD
ATOM     10  H11 UNL     1      18.848  -0.689  16.480  1.00  0.00     0.158 HD
ATOM     11  H3  UNL     1      19.152  -1.260  14.257  1.00  0.00     0.162 HD
ENDBRANCH   4   5
ENDBRANCH   3   4
ENDBRANCH   1   3
BRANCH   1  12
HETATM   12  C4  UNL     1      21.274  -2.688  10.460  1.00  0.00     0.098 C 
BRANCH  12  13
HETATM   13  C5  UNL     1      22.465  -3.635  10.525  1.00  0.00    -0.021 A 
HETATM   14  C6  UNL     1      22.610  -4.628   9.580  1.00  0.00     0.015 A 
HETATM   15  C7  UNL     1      23.711  -5.467   9.667  1.00  0.00     0.041 A 
HETATM   16  C8  UNL     1      24.659  -5.334  10.671  1.00  0.00     0.106 A 
HETATM   17  C9  UNL     1      24.508  -4.337  11.615  1.00  0.00     0.041 A 
HETATM   18  C10 UNL     1      23.402  -3.495  11.527  1.00  0.00     0.015 A 
BRANCH  16  19
HETATM   19  O1  UNL     1      25.767  -6.154  10.785  1.00  0.00    -0.200 OA
BRANCH  19  20
HETATM   20  O2  UNL     1      26.879  -5.643  11.354  1.00  0.00    -0.245 OA
ATOM     21  H2  UNL     1      26.793  -5.220  12.201  1.00  0.00     0.254 HD
ENDBRANCH  19  20
ENDBRANCH  16  19
ENDBRANCH  12  13
ENDBRANCH   1  12
TORSDOF 7
ENDMDL
MODEL 4
REMARK VINA RESULT: -6.384713802      2.484      3.189
REMARK  7 active torsions:
REMARK  status: ('A' for Active; 'I' for Inactive)
REMARK       I    between atoms: C1_4  and  N3_6 
REMARK    1  A    between atoms: N3_6  and  C2_8 
REMARK    2  A    between atoms: C2_8  and  C3_9 
REMARK    3  A    between atoms: C3_9  and  N4_10 
REMARK    4  A    between atoms: N4_10  and  C4_12 
REMARK    5  A    between atoms: C4_12  and  C5_13 
REMARK    6  A    between atoms: C8_16  and  O1_17 
REMARK    7  A    between atoms: O1_17  and  O2_18 
ROOT
HETATM    1  N4  UNL     1      20.665  -2.483  11.747  1.00  0.00    -0.377 N 
ATOM      2  H4  UNL     1      21.346  -2.050  12.372  1.00  0.00     0.164 HD
ENDROOT
BRANCH   1   3
HETATM    3  C3  UNL     1      19.388  -2.751  12.232  1.00  0.00     0.080 C 
BRANCH   3   4
HETATM    4  C2  UNL     1      19.304  -3.239  13.626  1.00  0.00     0.166 C 
BRANCH   4   5
HETATM    5  N3  UNL     1      19.189  -2.208  14.632  1.00  0.00    -0.360 N 
HETATM    6  C1  UNL     1      19.132  -2.584  16.023  1.00  0.00     0.182 C 
HETATM    7  N1  UNL     1      18.941  -1.640  16.871  1.00  0.00    -0.374 N 
HETATM    8  N2  UNL     1      19.279  -3.930  16.416  1.00  0.00    -0.064 NA
ATOM      9  H12 UNL     1      18.901  -1.906  17.855  1.00  0.00     0.158 HD
ATOM     10  H11 UNL     1      18.834  -0.666  16.587  1.00  0.00     0.158 HD
ATOM     11  H3  UNL     1      19.150  -1.225  14.362  1.00  0.00     0.162 HD
ENDBRANCH   4   5
ENDBRANCH   3   4
ENDBRANCH   1   3
BRANCH   1  12
HETATM   12  C4  UNL     1      21.055  -2.786  10.432  1.00  0.00     0.098 C 
BRANCH  12  13
HETATM   13  C5  UNL     1      22.351  -3.583  10.495  1.00  0.00    -0.021 A 
HETATM   14  C6  UNL     1      23.260  -3.343  11.503  1.00  0.00     0.015 A 
HETATM   15  C7  UNL     1      24.426  -4.093  11.532  1.00  0.00     0.041 A 
HETATM   16  C8  UNL     1      24.697  -5.069  10.583  1.00  0.00     0.106 A 
HETATM   17  C9  UNL     1      23.781  -5.304   9.577  1.00  0.00     0.041 A 
HETATM   18  C10 UNL     1      22.611  -4.550   9.547  1.00  0.00     0.015 A 
BRANCH  16  19
HETATM   19  O1  UNL     1      25.850  -5.833  10.585  1.00  0.00    -0.200 OA
BRANCH  19  20
HETATM   20  O2  UNL     1      26.778  -5.576  11.531  1.00  0.00    -0.245 OA
ATOM     21  H2  UNL     1      27.579  -5.139  11.263  1.00  0.00     0.254 HD
ENDBRANCH  19  20
ENDBRANCH  16  19
ENDBRANCH  12  13
ENDBRANCH   1  12
TORSDOF 7
ENDMDL
MODEL 5
REMARK VINA RESULT: -6.333424936      2.411      3.037
REMARK  7 active torsions:
REMARK  status: ('A' for Active; 'I' for Inactive)
REMARK       I    between atoms: C1_4  and  N3_6 
REMARK    1  A    between atoms: N3_6  and  C2_8 
REMARK    2  A    between atoms: C2_8  and  C3_9 
REMARK    3  A    between atoms: C3_9  and  N4_10 
REMARK    4  A    between atoms: N4_10  and  C4_12 
REMARK    5  A    between atoms: C4_12  and  C5_13 
REMARK    6  A    between atoms: C8_16  and  O1_17 
REMARK    7  A    between atoms: O1_17  and  O2_18 
ROOT
HETATM    1  N4  UNL     1      20.770  -2.461  11.950  1.00  0.00    -0.377 N 
ATOM      2  H4  UNL     1      21.315  -1.896  12.602  1.00  0.00     0.164 HD
ENDROOT
BRANCH   1   3
HETATM    3  C3  UNL     1      19.461  -2.795  12.289  1.00  0.00     0.080 C 
BRANCH   3   4
HETATM    4  C2  UNL     1      19.239  -3.262  13.674  1.00  0.00     0.166 C 
BRANCH   4   5
HETATM    5  N3  UNL     1      19.121  -2.217  14.664  1.00  0.00    -0.360 N 
HETATM    6  C1  UNL     1      19.103  -2.569  16.063  1.00  0.00     0.182 C 
HETATM    7  N1  UNL     1      18.908  -1.616  16.898  1.00  0.00    -0.374 N 
HETATM    8  N2  UNL     1      19.293  -3.904  16.476  1.00  0.00    -0.064 NA
ATOM      9  H12 UNL     1      18.896  -1.865  17.888  1.00  0.00     0.158 HD
ATOM     10  H11 UNL     1      18.771  -0.650  16.600  1.00  0.00     0.158 HD
ATOM     11  H3  UNL     1      19.051  -1.241  14.378  1.00  0.00     0.162 HD
ENDBRANCH   4   5
ENDBRANCH   3   4
ENDBRANCH   1   3
BRANCH   1  12
HETATM   12  C4  UNL     1      21.370  -2.871  10.748  1.00  0.00     0.098 C 
BRANCH  12  13
HETATM   13  C5  UNL     1      22.503  -3.830  11.090  1.00  0.00    -0.021 A 
HETATM   14  C6  UNL     1      23.813  -3.429  10.945  1.00  0.00     0.015 A 
HETATM   15  C7  UNL     1      24.818  -4.327  11.273  1.00  0.00     0.041 A 
HETATM   16  C8  UNL     1      24.540  -5.605  11.737  1.00  0.00     0.106 A 
HETATM   17  C9  UNL     1      23.225  -5.999  11.880  1.00  0.00     0.041 A 
HETATM   18  C10 UNL     1      22.216  -5.098  11.551  1.00  0.00     0.015 A 
BRANCH  16  19
HETATM   19  O1  UNL     1      25.520  -6.522  12.072  1.00  0.00    -0.200 OA
BRANCH  19  20
HETATM   20  O2  UNL     1      26.805  -6.196  11.823  1.00  0.00    -0.245 OA
ATOM     21  H2  UNL     1      27.425  -6.902  11.679  1.00  0.00     0.254 HD
ENDBRANCH  19  20
ENDBRANCH  16  19
ENDBRANCH  12  13
ENDBRANCH   1  12
TORSDOF 7
ENDMDL
