MODEL 1
REMARK VINA RESULT: -7.300328338      0.000      0.000
REMARK  6 active torsions:
REMARK  status: ('A' for Active; 'I' for Inactive)
REMARK    1  A    between atoms: C2_2  and  C3_3 
REMARK    2  A    between atoms: C3_3  and  N1_4 
REMARK    3  A    between atoms: N1_4  and  C4_7 
REMARK    4  A    between atoms: C4_7  and  C5_8 
REMARK    5  A    between atoms: C5_8  and  N2_9 
REMARK       I    between atoms: N2_9  and  C6_11 
REMARK    6  A    between atoms: C6_11  and  C7_13 
ROOT
HETATM    1  N2  UNL     1      22.725  -4.231  11.360  1.00  0.00    -0.355 N 
ATOM      2  H2  UNL     1      22.836  -4.599  12.305  1.00  0.00     0.162 HD
HETATM    3  C6  UNL     1      22.950  -5.044  10.234  1.00  0.00     0.253 C 
HETATM    4  O1  UNL     1      22.801  -4.551   9.072  1.00  0.00    -0.268 OA
ENDROOT
BRANCH   1   5
HETATM    5  C5  UNL     1      22.326  -2.845  11.133  1.00  0.00     0.150 C 
BRANCH   5   6
HETATM    6  C4  UNL     1      20.836  -2.753  11.114  1.00  0.00     0.252 C 
BRANCH   6   7
HETATM    7  N1  UNL     1      20.285  -2.255  12.330  1.00  0.00    -0.071 N 
ATOM      8  H12 UNL     1      20.007  -1.278  12.239  1.00  0.00     0.277 HD
ATOM      9  H11 UNL     1      21.002  -2.151  13.048  1.00  0.00     0.277 HD
BRANCH   7  10
HETATM   10  C3  UNL     1      19.202  -3.061  12.789  1.00  0.00     0.259 C 
BRANCH  10  11
HETATM   11  C2  UNL     1      17.903  -2.414  12.414  1.00  0.00    -0.010 C 
HETATM   12  C1  UNL     1      17.386  -2.547  11.203  1.00  0.00     0.008 C 
ENDBRANCH  10  11
ENDBRANCH   7  10
ENDBRANCH   6   7
ENDBRANCH   5   6
ENDBRANCH   1   5
BRANCH   3  13
HETATM   13  C7  UNL     1      23.359  -6.459  10.367  1.00  0.00     0.056 A 
HETATM   14  C8  UNL     1      22.501  -7.482  10.068  1.00  0.00     0.019 A 
HETATM   15  C9  UNL     1      22.909  -8.809  10.201  1.00  0.00     0.001 A 
HETATM   16  C10 UNL     1      24.189  -9.043  10.637  1.00  0.00     0.002 A 
HETATM   17  C11 UNL     1      25.079  -8.052  10.946  1.00  0.00     0.027 A 
HETATM   18  C12 UNL     1      24.655  -6.751  10.808  1.00  0.00     0.062 A 
HETATM   19  N3  UNL     1      25.528  -5.658  11.110  1.00  0.00    -0.101 NA
ENDBRANCH   3  13
TORSDOF 6
ENDMDL
MODEL 2
REMARK VINA RESULT: -7.061420122      0.851      1.139
REMARK  6 active torsions:
REMARK  status: ('A' for Active; 'I' for Inactive)
REMARK    1  A    between atoms: C2_2  and  C3_3 
REMARK    2  A    between atoms: C3_3  and  N1_4 
REMARK    3  A    between atoms: N1_4  and  C4_7 
REMARK    4  A    between atoms: C4_7  and  C5_8 
REMARK    5  A    between atoms: C5_8  and  N2_9 
REMARK       I    between atoms: N2_9  and  C6_11 
REMARK    6  A    between atoms: C6_11  and  C7_13 
ROOT
HETATM    1  N2  UNL     1      22.205  -4.312  11.454  1.00  0.00    -0.355 N 
ATOM      2  H2  UNL     1      22.332  -4.683  12.396  1.00  0.00     0.162 HD
HETATM    3  C6  UNL     1      22.581  -5.059  10.324  1.00  0.00     0.253 C 
HETATM    4  O1  UNL     1      22.407  -4.564   9.165  1.00  0.00    -0.268 OA
ENDROOT
BRANCH   1   5
HETATM    5  C5  UNL     1      21.628  -2.989  11.237  1.00  0.00     0.150 C 
BRANCH   5   6
HETATM    6  C4  UNL     1      20.457  -2.802  12.145  1.00  0.00     0.252 C 
BRANCH   6   7
HETATM    7  N1  UNL     1      19.263  -2.432  11.461  1.00  0.00    -0.071 N 
ATOM      8  H12 UNL     1      19.241  -2.818  10.517  1.00  0.00     0.277 HD
ATOM      9  H11 UNL     1      19.262  -1.439  11.227  1.00  0.00     0.277 HD
BRANCH   7  10
HETATM   10  C3  UNL     1      18.097  -2.794  12.197  1.00  0.00     0.259 C 
BRANCH  10  11
HETATM   11  C2  UNL     1      18.499  -3.308  13.548  1.00  0.00    -0.010 C 
HETATM   12  C1  UNL     1      17.652  -3.319  14.565  1.00  0.00     0.008 C 
ENDBRANCH  10  11
ENDBRANCH   7  10
ENDBRANCH   6   7
ENDBRANCH   5   6
ENDBRANCH   1   5
BRANCH   3  13
HETATM   13  C7  UNL     1      23.176  -6.408  10.446  1.00  0.00     0.056 A 
HETATM   14  C8  UNL     1      22.475  -7.532  10.107  1.00  0.00     0.019 A 
HETATM   15  C9  UNL     1      23.057  -8.793  10.231  1.00  0.00     0.001 A 
HETATM   16  C10 UNL     1      24.345  -8.858  10.700  1.00  0.00     0.002 A 
HETATM   17  C11 UNL     1      25.083  -7.762  11.049  1.00  0.00     0.027 A 
HETATM   18  C12 UNL     1      24.487  -6.528  10.919  1.00  0.00     0.062 A 
HETATM   19  N3  UNL     1      25.195  -5.332  11.264  1.00  0.00    -0.101 NA
ENDBRANCH   3  13
TORSDOF 6
ENDMDL
MODEL 3
REMARK VINA RESULT: -7.030438648      1.578      2.422
REMARK  6 active torsions:
REMARK  status: ('A' for Active; 'I' for Inactive)
REMARK    1  A    between atoms: C2_2  and  C3_3 
REMARK    2  A    between atoms: C3_3  and  N1_4 
REMARK    3  A    between atoms: N1_4  and  C4_7 
REMARK    4  A    between atoms: C4_7  and  C5_8 
REMARK    5  A    between atoms: C5_8  and  N2_9 
REMARK       I    between atoms: N2_9  and  C6_11 
REMARK    6  A    between atoms: C6_11  and  C7_13 
ROOT
HETATM    1  N2  UNL     1      22.056  -3.930  11.505  1.00  0.00    -0.355 N 
ATOM      2  H2  UNL     1      21.810  -4.631  12.204  1.00  0.00     0.162 HD
HETATM    3  C6  UNL     1      23.267  -4.009  10.793  1.00  0.00     0.253 C 
HETATM    4  O1  UNL     1      23.540  -3.117   9.929  1.00  0.00    -0.268 OA
ENDROOT
BRANCH   1   5
HETATM    5  C5  UNL     1      21.163  -2.813  11.211  1.00  0.00     0.150 C 
BRANCH   5   6
HETATM    6  C4  UNL     1      20.034  -2.809  12.188  1.00  0.00     0.252 C 
BRANCH   6   7
HETATM    7  N1  UNL     1      18.772  -2.517  11.594  1.00  0.00    -0.071 N 
ATOM      8  H12 UNL     1      18.574  -3.146  10.816  1.00  0.00     0.277 HD
ATOM      9  H11 UNL     1      18.798  -1.635  11.083  1.00  0.00     0.277 HD
BRANCH   7  10
HETATM   10  C3  UNL     1      17.719  -2.532  12.555  1.00  0.00     0.259 C 
BRANCH  10  11
HETATM   11  C2  UNL     1      18.154  -3.308  13.762  1.00  0.00    -0.010 C 
HETATM   12  C1  UNL     1      17.444  -3.311  14.878  1.00  0.00     0.008 C 
ENDBRANCH  10  11
ENDBRANCH   7  10
ENDBRANCH   6   7
ENDBRANCH   5   6
ENDBRANCH   1   5
BRANCH   3  13
HETATM   13  C7  UNL     1      24.235  -5.103  11.025  1.00  0.00     0.056 A 
HETATM   14  C8  UNL     1      25.517  -4.850  11.429  1.00  0.00     0.019 A 
HETATM   15  C9  UNL     1      26.412  -5.899  11.640  1.00  0.00     0.001 A 
HETATM   16  C10 UNL     1      25.959  -7.177  11.430  1.00  0.00     0.002 A 
HETATM   17  C11 UNL     1      24.687  -7.476  11.027  1.00  0.00     0.027 A 
HETATM   18  C12 UNL     1      23.822  -6.425  10.824  1.00  0.00     0.062 A 
HETATM   19  N3  UNL     1      22.474  -6.656  10.402  1.00  0.00    -0.101 NA
ENDBRANCH   3  13
TORSDOF 6
ENDMDL
MODEL 4
REMARK VINA RESULT: -6.863260010      1.482      2.174
REMARK  6 active torsions:
REMARK  status: ('A' for Active; 'I' for Inactive)
REMARK    1  A    between atoms: C2_2  and  C3_3 
REMARK    2  A    between atoms: C3_3  and  N1_4 
REMARK    3  A    between atoms: N1_4  and  C4_7 
REMARK    4  A    between atoms: C4_7  and  C5_8 
REMARK    5  A    between atoms: C5_8  and  N2_9 
REMARK       I    between atoms: N2_9  and  C6_11 
REMARK    6  A    between atoms: C6_11  and  C7_13 
ROOT
HETATM    1  N2  UNL     1      22.044  -3.922  11.549  1.00  0.00    -0.355 N 
ATOM      2  H2  UNL     1      21.794  -4.632  12.237  1.00  0.00     0.162 HD
HETATM    3  C6  UNL     1      23.249  -4.001  10.830  1.00  0.00     0.253 C 
HETATM    4  O1  UNL     1      23.527  -3.099   9.978  1.00  0.00    -0.268 OA
ENDROOT
BRANCH   1   5
HETATM    5  C5  UNL     1      21.160  -2.792  11.278  1.00  0.00     0.150 C 
BRANCH   5   6
HETATM    6  C4  UNL     1      20.346  -2.494  12.494  1.00  0.00     0.252 C 
BRANCH   6   7
HETATM    7  N1  UNL     1      19.507  -3.575  12.891  1.00  0.00    -0.071 N 
ATOM      8  H12 UNL     1      19.935  -4.123  13.636  1.00  0.00     0.277 HD
ATOM      9  H11 UNL     1      19.461  -4.294  12.169  1.00  0.00     0.277 HD
BRANCH   7  10
HETATM   10  C3  UNL     1      18.205  -3.125  13.260  1.00  0.00     0.259 C 
BRANCH  10  11
HETATM   11  C2  UNL     1      17.676  -2.202  12.204  1.00  0.00    -0.010 C 
HETATM   12  C1  UNL     1      17.308  -2.647  11.014  1.00  0.00     0.008 C 
ENDBRANCH  10  11
ENDBRANCH   7  10
ENDBRANCH   6   7
ENDBRANCH   5   6
ENDBRANCH   1   5
BRANCH   3  13
HETATM   13  C7  UNL     1      24.208  -5.109  11.038  1.00  0.00     0.056 A 
HETATM   14  C8  UNL     1      25.492  -4.876  11.448  1.00  0.00     0.019 A 
HETATM   15  C9  UNL     1      26.377  -5.936  11.638  1.00  0.00     0.001 A 
HETATM   16  C10 UNL     1      25.913  -7.205  11.399  1.00  0.00     0.002 A 
HETATM   17  C11 UNL     1      24.639  -7.484  10.989  1.00  0.00     0.027 A 
HETATM   18  C12 UNL     1      23.784  -6.422  10.809  1.00  0.00     0.062 A 
HETATM   19  N3  UNL     1      22.433  -6.632  10.381  1.00  0.00    -0.101 NA
ENDBRANCH   3  13
TORSDOF 6
ENDMDL
MODEL 5
REMARK VINA RESULT: -6.630969449      1.549      6.565
REMARK  6 active torsions:
REMARK  status: ('A' for Active; 'I' for Inactive)
REMARK    1  A    between atoms: C2_2  and  C3_3 
REMARK    2  A    between atoms: C3_3  and  N1_4 
REMARK    3  A    between atoms: N1_4  and  C4_7 
REMARK    4  A    between atoms: C4_7  and  C5_8 
REMARK    5  A    between atoms: C5_8  and  N2_9 
REMARK       I    between atoms: N2_9  and  C6_11 
REMARK    6  A    between atoms: C6_11  and  C7_13 
ROOT
HETATM    1  N2  UNL     1      21.887  -3.736  10.489  1.00  0.00    -0.355 N 
ATOM      2  H2  UNL     1      21.245  -4.373  10.017  1.00  0.00     0.162 HD
HETATM    3  C6  UNL     1      21.436  -2.865  11.497  1.00  0.00     0.253 C 
HETATM    4  O1  UNL     1      22.265  -2.087  12.064  1.00  0.00    -0.268 OA
ENDROOT
BRANCH   1   5
HETATM    5  C5  UNL     1      23.304  -3.701  10.141  1.00  0.00     0.150 C 
BRANCH   5   6
HETATM    6  C4  UNL     1      23.755  -5.070   9.750  1.00  0.00     0.252 C 
BRANCH   6   7
HETATM    7  N1  UNL     1      25.061  -5.391  10.220  1.00  0.00    -0.071 N 
ATOM      8  H12 UNL     1      25.452  -4.634  10.779  1.00  0.00     0.277 HD
ATOM      9  H11 UNL     1      25.740  -5.393   9.458  1.00  0.00     0.277 HD
BRANCH   7  10
HETATM   10  C3  UNL     1      25.078  -6.626  10.934  1.00  0.00     0.259 C 
BRANCH  10  11
HETATM   11  C2  UNL     1      24.069  -7.561  10.338  1.00  0.00    -0.010 C 
HETATM   12  C1  UNL     1      24.150  -8.870  10.511  1.00  0.00     0.008 C 
ENDBRANCH  10  11
ENDBRANCH   7  10
ENDBRANCH   6   7
ENDBRANCH   5   6
ENDBRANCH   1   5
BRANCH   3  13
HETATM   13  C7  UNL     1      20.017  -2.829  11.916  1.00  0.00     0.056 A 
HETATM   14  C8  UNL     1      19.661  -2.813  13.236  1.00  0.00     0.019 A 
HETATM   15  C9  UNL     1      18.317  -2.779  13.606  1.00  0.00     0.001 A 
HETATM   16  C10 UNL     1      17.380  -2.763  12.605  1.00  0.00     0.002 A 
HETATM   17  C11 UNL     1      17.690  -2.778  11.273  1.00  0.00     0.027 A 
HETATM   18  C12 UNL     1      19.022  -2.812  10.932  1.00  0.00     0.062 A 
HETATM   19  N3  UNL     1      19.428  -2.829   9.559  1.00  0.00    -0.101 NA
ENDBRANCH   3  13
TORSDOF 6
ENDMDL
