MODEL 1
REMARK VINA RESULT: -6.013264615      0.000      0.000
REMARK  5 active torsions:
REMARK  status: ('A' for Active; 'I' for Inactive)
REMARK    1  A    between atoms: C2_2  and  C3_3 
REMARK    2  A    between atoms: C3_3  and  N1_4 
REMARK    3  A    between atoms: N1_4  and  C4_7 
REMARK    4  A    between atoms: C6_9  and  C7_10 
REMARK    5  A    between atoms: C10_15  and  N3_16 
ROOT
HETATM    1  C4  UNL     1      22.441  -4.428  10.567  1.00  0.00     0.217 C 
HETATM    2  C5  UNL     1      22.218  -5.875  10.382  1.00  0.00     0.048 C 
HETATM    3  C6  UNL     1      23.407  -6.658   9.921  1.00  0.00     0.077 C 
HETATM    4  C8  UNL     1      24.671  -6.383  10.662  1.00  0.00     0.016 C 
HETATM    5  C9  UNL     1      24.483  -5.243  11.614  1.00  0.00     0.036 C 
HETATM    6  C10 UNL     1      23.912  -4.107  10.773  1.00  0.00     0.214 C 
ENDROOT
BRANCH   1   7
HETATM    7  N1  UNL     1      21.880  -3.556   9.566  1.00  0.00    -0.066 N 
ATOM      8  H12 UNL     1      21.570  -4.095   8.758  1.00  0.00     0.278 HD
ATOM      9  H11 UNL     1      22.614  -2.996   9.131  1.00  0.00     0.278 HD
BRANCH   7  10
HETATM   10  C3  UNL     1      20.833  -2.719  10.034  1.00  0.00     0.259 C 
BRANCH  10  11
HETATM   11  C2  UNL     1      20.657  -2.691  11.506  1.00  0.00    -0.010 C 
HETATM   12  C1  UNL     1      19.442  -2.660  12.056  1.00  0.00     0.008 C 
ENDBRANCH  10  11
ENDBRANCH   7  10
ENDBRANCH   1   7
BRANCH   6  13
HETATM   13  N3  UNL     1      24.153  -2.882  11.451  1.00  0.00    -0.073 N 
ATOM     14  H33 UNL     1      23.398  -2.220  11.269  1.00  0.00     0.274 HD
ATOM     15  H32 UNL     1      24.039  -3.003  12.457  1.00  0.00     0.274 HD
ATOM     16  H31 UNL     1      25.057  -2.458  11.242  1.00  0.00     0.274 HD
ENDBRANCH   6  13
BRANCH   3  17
HETATM   17  C7  UNL     1      23.115  -8.105  10.155  1.00  0.00     0.235 C 
HETATM   18  N2  UNL     1      23.996  -8.990  10.830  1.00  0.00    -0.062 NA
HETATM   19  O1  UNL     1      22.018  -8.565   9.714  1.00  0.00    -0.277 OA
ENDBRANCH   3  17
TORSDOF 5
ENDMDL
MODEL 2
REMARK VINA RESULT: -5.442053905      2.536      4.813
REMARK  5 active torsions:
REMARK  status: ('A' for Active; 'I' for Inactive)
REMARK    1  A    between atoms: C2_2  and  C3_3 
REMARK    2  A    between atoms: C3_3  and  N1_4 
REMARK    3  A    between atoms: N1_4  and  C4_7 
REMARK    4  A    between atoms: C6_9  and  C7_10 
REMARK    5  A    between atoms: C10_15  and  N3_16 
ROOT
HETATM    1  C4  UNL     1      23.439  -5.132   9.407  1.00  0.00     0.217 C 
HETATM    2  C5  UNL     1      22.237  -4.288   9.546  1.00  0.00     0.048 C 
HETATM    3  C6  UNL     1      21.946  -3.799  10.930  1.00  0.00     0.077 C 
HETATM    4  C8  UNL     1      23.113  -3.222  11.655  1.00  0.00     0.016 C 
HETATM    5  C9  UNL     1      24.369  -3.416  10.864  1.00  0.00     0.036 C 
HETATM    6  C10 UNL     1      24.419  -4.906  10.548  1.00  0.00     0.214 C 
ENDROOT
BRANCH   1   7
HETATM    7  N1  UNL     1      23.218  -6.543   9.218  1.00  0.00    -0.066 N 
ATOM      8  H12 UNL     1      24.103  -7.024   9.061  1.00  0.00     0.278 HD
ATOM      9  H11 UNL     1      22.764  -6.715   8.321  1.00  0.00     0.278 HD
BRANCH   7  10
HETATM   10  C3  UNL     1      22.494  -7.171  10.266  1.00  0.00     0.259 C 
BRANCH  10  11
HETATM   11  C2  UNL     1      22.934  -8.547  10.601  1.00  0.00    -0.010 C 
HETATM   12  C1  UNL     1      24.227  -8.872  10.625  1.00  0.00     0.008 C 
ENDBRANCH  10  11
ENDBRANCH   7  10
ENDBRANCH   1   7
BRANCH   6  13
HETATM   13  N3  UNL     1      25.761  -5.256  10.241  1.00  0.00    -0.073 N 
ATOM     14  H33 UNL     1      26.317  -4.419  10.068  1.00  0.00     0.274 HD
ATOM     15  H32 UNL     1      26.236  -5.610  11.072  1.00  0.00     0.274 HD
ATOM     16  H31 UNL     1      25.856  -5.914   9.468  1.00  0.00     0.274 HD
ENDBRANCH   6  13
BRANCH   3  17
HETATM   17  C7  UNL     1      20.956  -2.684  10.819  1.00  0.00     0.235 C 
HETATM   18  N2  UNL     1      19.627  -2.755  11.311  1.00  0.00    -0.062 NA
HETATM   19  O1  UNL     1      21.329  -1.619  10.239  1.00  0.00    -0.277 OA
ENDBRANCH   3  17
TORSDOF 5
ENDMDL
MODEL 3
REMARK VINA RESULT: -5.300692326      2.489      5.135
REMARK  5 active torsions:
REMARK  status: ('A' for Active; 'I' for Inactive)
REMARK    1  A    between atoms: C2_2  and  C3_3 
REMARK    2  A    between atoms: C3_3  and  N1_4 
REMARK    3  A    between atoms: N1_4  and  C4_7 
REMARK    4  A    between atoms: C6_9  and  C7_10 
REMARK    5  A    between atoms: C10_15  and  N3_16 
ROOT
HETATM    1  C4  UNL     1      22.597  -4.959  10.880  1.00  0.00     0.217 C 
HETATM    2  C5  UNL     1      21.385  -4.500  11.586  1.00  0.00     0.048 C 
HETATM    3  C6  UNL     1      21.098  -3.033  11.493  1.00  0.00     0.077 C 
HETATM    4  C8  UNL     1      21.191  -2.458  10.121  1.00  0.00     0.016 C 
HETATM    5  C9  UNL     1      21.716  -3.478   9.159  1.00  0.00     0.036 C 
HETATM    6  C10 UNL     1      23.009  -3.990   9.783  1.00  0.00     0.214 C 
ENDROOT
BRANCH   1   7
HETATM    7  N1  UNL     1      23.734  -5.289  11.700  1.00  0.00    -0.066 N 
ATOM      8  H12 UNL     1      23.489  -5.233  12.688  1.00  0.00     0.278 HD
ATOM      9  H11 UNL     1      24.435  -4.548  11.652  1.00  0.00     0.278 HD
BRANCH   7  10
HETATM   10  C3  UNL     1      24.325  -6.547  11.408  1.00  0.00     0.259 C 
BRANCH  10  11
HETATM   11  C2  UNL     1      23.401  -7.562  10.845  1.00  0.00    -0.010 C 
HETATM   12  C1  UNL     1      23.822  -8.796  10.561  1.00  0.00     0.008 C 
ENDBRANCH  10  11
ENDBRANCH   7  10
ENDBRANCH   1   7
BRANCH   6  13
HETATM   13  N3  UNL     1      23.802  -4.573   8.758  1.00  0.00    -0.073 N 
ATOM     14  H33 UNL     1      24.252  -5.424   9.096  1.00  0.00     0.274 HD
ATOM     15  H32 UNL     1      23.208  -4.969   8.029  1.00  0.00     0.274 HD
ATOM     16  H31 UNL     1      24.492  -3.941   8.352  1.00  0.00     0.274 HD
ENDBRANCH   6  13
BRANCH   3  17
HETATM   17  C7  UNL     1      19.681  -2.821  11.919  1.00  0.00     0.235 C 
HETATM   18  N2  UNL     1      19.285  -2.603  13.264  1.00  0.00    -0.062 NA
HETATM   19  O1  UNL     1      18.785  -2.847  11.021  1.00  0.00    -0.277 OA
ENDBRANCH   3  17
TORSDOF 5
ENDMDL
MODEL 4
REMARK VINA RESULT: -5.118428852      2.980      4.500
REMARK  5 active torsions:
REMARK  status: ('A' for Active; 'I' for Inactive)
REMARK    1  A    between atoms: C2_2  and  C3_3 
REMARK    2  A    between atoms: C3_3  and  N1_4 
REMARK    3  A    between atoms: N1_4  and  C4_7 
REMARK    4  A    between atoms: C6_9  and  C7_10 
REMARK    5  A    between atoms: C10_15  and  N3_16 
ROOT
HETATM    1  C4  UNL     1      22.107  -6.796  11.400  1.00  0.00     0.217 C 
HETATM    2  C5  UNL     1      22.022  -5.348  11.129  1.00  0.00     0.048 C 
HETATM    3  C6  UNL     1      23.326  -4.612  11.130  1.00  0.00     0.077 C 
HETATM    4  C8  UNL     1      24.416  -5.259  10.346  1.00  0.00     0.016 C 
HETATM    5  C9  UNL     1      23.983  -6.607   9.859  1.00  0.00     0.036 C 
HETATM    6  C10 UNL     1      23.493  -7.344  11.100  1.00  0.00     0.214 C 
ENDROOT
BRANCH   1   7
HETATM    7  N1  UNL     1      21.673  -7.235  12.702  1.00  0.00    -0.066 N 
ATOM      8  H12 UNL     1      22.459  -7.254  13.351  1.00  0.00     0.278 HD
ATOM      9  H11 UNL     1      21.438  -8.228  12.682  1.00  0.00     0.278 HD
BRANCH   7  10
HETATM   10  C3  UNL     1      20.598  -6.484  13.248  1.00  0.00     0.259 C 
BRANCH  10  11
HETATM   11  C2  UNL     1      19.718  -7.228  14.182  1.00  0.00    -0.010 C 
HETATM   12  C1  UNL     1      20.155  -7.613  15.382  1.00  0.00     0.008 C 
ENDBRANCH  10  11
ENDBRANCH   7  10
ENDBRANCH   1   7
BRANCH   6  13
HETATM   13  N3  UNL     1      23.524  -8.739  10.835  1.00  0.00    -0.073 N 
ATOM     14  H33 UNL     1      24.477  -9.094  10.905  1.00  0.00     0.274 HD
ATOM     15  H32 UNL     1      23.089  -9.257  11.599  1.00  0.00     0.274 HD
ATOM     16  H31 UNL     1      23.108  -9.005   9.942  1.00  0.00     0.274 HD
ENDBRANCH   6  13
BRANCH   3  17
HETATM   17  C7  UNL     1      23.099  -3.287  10.478  1.00  0.00     0.235 C 
HETATM   18  N2  UNL     1      22.113  -2.357  10.900  1.00  0.00    -0.062 NA
HETATM   19  O1  UNL     1      23.826  -2.986   9.483  1.00  0.00    -0.277 OA
ENDBRANCH   3  17
TORSDOF 5
ENDMDL
MODEL 5
REMARK VINA RESULT: -4.989407283      2.238      3.381
REMARK  5 active torsions:
REMARK  status: ('A' for Active; 'I' for Inactive)
REMARK    1  A    between atoms: C2_2  and  C3_3 
REMARK    2  A    between atoms: C3_3  and  N1_4 
REMARK    3  A    between atoms: N1_4  and  C4_7 
REMARK    4  A    between atoms: C6_9  and  C7_10 
REMARK    5  A    between atoms: C10_15  and  N3_16 
ROOT
HETATM    1  C4  UNL     1      21.370  -2.456  10.818  1.00  0.00     0.217 C 
HETATM    2  C5  UNL     1      22.578  -3.179  11.261  1.00  0.00     0.048 C 
HETATM    3  C6  UNL     1      22.564  -4.660  11.039  1.00  0.00     0.077 C 
HETATM    4  C8  UNL     1      22.130  -5.089   9.679  1.00  0.00     0.016 C 
HETATM    5  C9  UNL     1      21.647  -3.914   8.887  1.00  0.00     0.036 C 
HETATM    6  C10 UNL     1      20.601  -3.239   9.766  1.00  0.00     0.214 C 
ENDROOT
BRANCH   1   7
HETATM    7  N1  UNL     1      20.474  -2.004  11.851  1.00  0.00    -0.066 N 
ATOM      8  H12 UNL     1      20.035  -1.124  11.581  1.00  0.00     0.278 HD
ATOM      9  H11 UNL     1      21.001  -1.693  12.668  1.00  0.00     0.278 HD
BRANCH   7  10
HETATM   10  C3  UNL     1      19.487  -2.952  12.231  1.00  0.00     0.259 C 
BRANCH  10  11
HETATM   11  C2  UNL     1      18.118  -2.407  12.396  1.00  0.00    -0.010 C 
HETATM   12  C1  UNL     1      17.253  -2.394  11.380  1.00  0.00     0.008 C 
ENDBRANCH  10  11
ENDBRANCH   7  10
ENDBRANCH   1   7
BRANCH   6  13
HETATM   13  N3  UNL     1      19.766  -2.441   8.939  1.00  0.00    -0.073 N 
ATOM     14  H33 UNL     1      19.137  -3.029   8.394  1.00  0.00     0.274 HD
ATOM     15  H32 UNL     1      19.084  -1.934   9.504  1.00  0.00     0.274 HD
ATOM     16  H31 UNL     1      20.273  -1.798   8.330  1.00  0.00     0.274 HD
ENDBRANCH   6  13
BRANCH   3  17
HETATM   17  C7  UNL     1      23.968  -5.153  11.183  1.00  0.00     0.235 C 
HETATM   18  N2  UNL     1      25.009  -4.851  10.267  1.00  0.00    -0.062 NA
HETATM   19  O1  UNL     1      24.234  -5.892  12.179  1.00  0.00    -0.277 OA
ENDBRANCH   3  17
TORSDOF 5
ENDMDL
