MODEL 1
REMARK VINA RESULT: -5.794698583      0.000      0.000
REMARK  4 active torsions:
REMARK  status: ('A' for Active; 'I' for Inactive)
REMARK    1  A    between atoms: C1_4  and  C2_6 
REMARK    2  A    between atoms: C5_9  and  N3_10 
REMARK    3  A    between atoms: N3_10  and  N4_11 
REMARK    4  A    between atoms: N3_10  and  C6_14 
ROOT
HETATM    1  C2  UNL     1      22.025  -3.903  10.756  1.00  0.00     0.005 A 
HETATM    2  C3  UNL     1      21.683  -4.955  11.586  1.00  0.00     0.017 A 
HETATM    3  C4  UNL     1      22.520  -6.049  11.599  1.00  0.00     0.032 A 
HETATM    4  C5  UNL     1      23.657  -6.120  10.829  1.00  0.00     0.058 A 
HETATM    5  C7  UNL     1      23.983  -5.063  10.009  1.00  0.00     0.032 A 
HETATM    6  C8  UNL     1      23.158  -3.933   9.966  1.00  0.00     0.017 A 
ENDROOT
BRANCH   4   7
HETATM    7  N3  UNL     1      24.448  -7.293  10.908  1.00  0.00    -0.238 N 
BRANCH   7   8
HETATM    8  N4  UNL     1      25.756  -7.174  11.357  1.00  0.00    -0.336 N 
ATOM      9  H42 UNL     1      26.240  -6.279  11.435  1.00  0.00     0.177 HD
ATOM     10  H41 UNL     1      26.255  -8.024  11.621  1.00  0.00     0.177 HD
ENDBRANCH   7   8
BRANCH   7  11
HETATM   11  C6  UNL     1      23.871  -8.525  10.528  1.00  0.00     0.376 C 
HETATM   12  O1  UNL     1      23.325  -8.582   9.376  1.00  0.00    -0.281 OA
ENDBRANCH   7  11
ENDBRANCH   4   7
BRANCH   1  13
HETATM   13  C1  UNL     1      21.130  -2.743  10.726  1.00  0.00     0.120 C 
HETATM   14  N1  UNL     1      20.503  -2.360   9.668  1.00  0.00    -0.387 N 
ATOM     15  H12 UNL     1      19.880  -1.552   9.648  1.00  0.00     0.157 HD
ATOM     16  H11 UNL     1      20.660  -2.901   8.818  1.00  0.00     0.157 HD
HETATM   17  N2  UNL     1      20.913  -1.993  11.906  1.00  0.00    -0.082 NA
ENDBRANCH   1  13
TORSDOF 4
ENDMDL
MODEL 2
REMARK VINA RESULT: -5.763654779      0.123      1.333
REMARK  4 active torsions:
REMARK  status: ('A' for Active; 'I' for Inactive)
REMARK    1  A    between atoms: C1_4  and  C2_6 
REMARK    2  A    between atoms: C5_9  and  N3_10 
REMARK    3  A    between atoms: N3_10  and  N4_11 
REMARK    4  A    between atoms: N3_10  and  C6_14 
ROOT
HETATM    1  C2  UNL     1      21.973  -3.953  10.852  1.00  0.00     0.005 A 
HETATM    2  C3  UNL     1      23.153  -3.959  10.131  1.00  0.00     0.017 A 
HETATM    3  C4  UNL     1      23.929  -5.097  10.195  1.00  0.00     0.032 A 
HETATM    4  C5  UNL     1      23.569  -6.196  10.938  1.00  0.00     0.058 A 
HETATM    5  C7  UNL     1      22.391  -6.174  11.650  1.00  0.00     0.032 A 
HETATM    6  C8  UNL     1      21.575  -5.037  11.612  1.00  0.00     0.017 A 
ENDROOT
BRANCH   4   7
HETATM    7  N3  UNL     1      24.440  -7.314  10.945  1.00  0.00    -0.238 N 
BRANCH   7   8
HETATM    8  N4  UNL     1      25.753  -7.119  11.353  1.00  0.00    -0.336 N 
ATOM      9  H42 UNL     1      26.003  -6.708  12.253  1.00  0.00     0.177 HD
ATOM     10  H41 UNL     1      26.502  -7.402  10.719  1.00  0.00     0.177 HD
ENDBRANCH   7   8
BRANCH   7  11
HETATM   11  C6  UNL     1      23.936  -8.568  10.539  1.00  0.00     0.376 C 
HETATM   12  O1  UNL     1      23.336  -8.619   9.414  1.00  0.00    -0.281 OA
ENDBRANCH   7  11
ENDBRANCH   4   7
BRANCH   1  13
HETATM   13  C1  UNL     1      21.152  -2.742  10.800  1.00  0.00     0.120 C 
HETATM   14  N1  UNL     1      20.576  -2.322   9.726  1.00  0.00    -0.387 N 
ATOM     15  H12 UNL     1      20.004  -1.478   9.690  1.00  0.00     0.157 HD
ATOM     16  H11 UNL     1      20.722  -2.872   8.880  1.00  0.00     0.157 HD
HETATM   17  N2  UNL     1      20.949  -1.979  11.974  1.00  0.00    -0.082 NA
ENDBRANCH   1  13
TORSDOF 4
ENDMDL
MODEL 3
REMARK VINA RESULT: -5.526063122      2.682      5.219
REMARK  4 active torsions:
REMARK  status: ('A' for Active; 'I' for Inactive)
REMARK    1  A    between atoms: C1_4  and  C2_6 
REMARK    2  A    between atoms: C5_9  and  N3_10 
REMARK    3  A    between atoms: N3_10  and  N4_11 
REMARK    4  A    between atoms: N3_10  and  C6_14 
ROOT
HETATM    1  C2  UNL     1      23.322  -7.176  10.623  1.00  0.00     0.005 A 
HETATM    2  C3  UNL     1      24.378  -6.387  10.205  1.00  0.00     0.017 A 
HETATM    3  C4  UNL     1      24.277  -5.029  10.415  1.00  0.00     0.032 A 
HETATM    4  C5  UNL     1      23.180  -4.454  11.013  1.00  0.00     0.058 A 
HETATM    5  C7  UNL     1      22.138  -5.253  11.423  1.00  0.00     0.032 A 
HETATM    6  C8  UNL     1      22.202  -6.638  11.228  1.00  0.00     0.017 A 
ENDROOT
BRANCH   4   7
HETATM    7  N3  UNL     1      23.168  -3.046  11.175  1.00  0.00    -0.238 N 
BRANCH   7   8
HETATM    8  N4  UNL     1      24.360  -2.413  11.503  1.00  0.00    -0.336 N 
ATOM      9  H42 UNL     1      24.526  -1.418  11.345  1.00  0.00     0.177 HD
ATOM     10  H41 UNL     1      25.104  -2.972  11.921  1.00  0.00     0.177 HD
ENDBRANCH   7   8
BRANCH   7  11
HETATM   11  C6  UNL     1      21.950  -2.354  10.997  1.00  0.00     0.376 C 
HETATM   12  O1  UNL     1      21.335  -1.977  12.049  1.00  0.00    -0.281 OA
ENDBRANCH   7  11
ENDBRANCH   4   7
BRANCH   1  13
HETATM   13  C1  UNL     1      23.418  -8.619  10.389  1.00  0.00     0.120 C 
HETATM   14  N1  UNL     1      24.391  -9.344  10.825  1.00  0.00    -0.387 N 
ATOM     15  H12 UNL     1      24.457 -10.348  10.662  1.00  0.00     0.157 HD
ATOM     16  H11 UNL     1      25.124  -8.865  11.348  1.00  0.00     0.157 HD
HETATM   17  N2  UNL     1      22.401  -9.283   9.664  1.00  0.00    -0.082 NA
ENDBRANCH   1  13
TORSDOF 4
ENDMDL
MODEL 4
REMARK VINA RESULT: -5.503160926      2.650      5.062
REMARK  4 active torsions:
REMARK  status: ('A' for Active; 'I' for Inactive)
REMARK    1  A    between atoms: C1_4  and  C2_6 
REMARK    2  A    between atoms: C5_9  and  N3_10 
REMARK    3  A    between atoms: N3_10  and  N4_11 
REMARK    4  A    between atoms: N3_10  and  C6_14 
ROOT
HETATM    1  C2  UNL     1      23.340  -7.122  10.580  1.00  0.00     0.005 A 
HETATM    2  C3  UNL     1      22.201  -6.611  11.173  1.00  0.00     0.017 A 
HETATM    3  C4  UNL     1      22.160  -5.252  11.402  1.00  0.00     0.032 A 
HETATM    4  C5  UNL     1      23.197  -4.415  11.064  1.00  0.00     0.058 A 
HETATM    5  C7  UNL     1      24.324  -4.940  10.473  1.00  0.00     0.032 A 
HETATM    6  C8  UNL     1      24.404  -6.315  10.224  1.00  0.00     0.017 A 
ENDROOT
BRANCH   4   7
HETATM    7  N3  UNL     1      23.062  -3.033  11.349  1.00  0.00    -0.238 N 
BRANCH   7   8
HETATM    8  N4  UNL     1      24.133  -2.377  11.942  1.00  0.00    -0.336 N 
ATOM      9  H42 UNL     1      24.060  -1.883  12.831  1.00  0.00     0.177 HD
ATOM     10  H41 UNL     1      25.033  -2.393  11.463  1.00  0.00     0.177 HD
ENDBRANCH   7   8
BRANCH   7  11
HETATM   11  C6  UNL     1      21.850  -2.389  11.017  1.00  0.00     0.376 C 
HETATM   12  O1  UNL     1      21.118  -1.993  11.984  1.00  0.00    -0.281 OA
ENDBRANCH   7  11
ENDBRANCH   4   7
BRANCH   1  13
HETATM   13  C1  UNL     1      23.395  -8.567  10.348  1.00  0.00     0.120 C 
HETATM   14  N1  UNL     1      24.354  -9.316  10.771  1.00  0.00    -0.387 N 
ATOM     15  H12 UNL     1      24.392 -10.323  10.609  1.00  0.00     0.157 HD
ATOM     16  H11 UNL     1      25.107  -8.856  11.282  1.00  0.00     0.157 HD
HETATM   17  N2  UNL     1      22.350  -9.206   9.639  1.00  0.00    -0.082 NA
ENDBRANCH   1  13
TORSDOF 4
ENDMDL
MODEL 5
REMARK VINA RESULT: -5.292070320      2.305      5.235
REMARK  4 active torsions:
REMARK  status: ('A' for Active; 'I' for Inactive)
REMARK    1  A    between atoms: C1_4  and  C2_6 
REMARK    2  A    between atoms: C5_9  and  N3_10 
REMARK    3  A    between atoms: N3_10  and  N4_11 
REMARK    4  A    between atoms: N3_10  and  C6_14 
ROOT
HETATM    1  C2  UNL     1      23.414  -6.070  10.709  1.00  0.00     0.005 A 
HETATM    2  C3  UNL     1      22.380  -6.003  11.623  1.00  0.00     0.017 A 
HETATM    3  C4  UNL     1      21.582  -4.879  11.595  1.00  0.00     0.032 A 
HETATM    4  C5  UNL     1      21.784  -3.851  10.705  1.00  0.00     0.058 A 
HETATM    5  C7  UNL     1      22.818  -3.935   9.801  1.00  0.00     0.032 A 
HETATM    6  C8  UNL     1      23.652  -5.059   9.797  1.00  0.00     0.017 A 
ENDROOT
BRANCH   4   7
HETATM    7  N3  UNL     1      20.913  -2.735  10.763  1.00  0.00    -0.238 N 
BRANCH   7   8
HETATM    8  N4  UNL     1      21.051  -1.744   9.800  1.00  0.00    -0.336 N 
ATOM      9  H42 UNL     1      20.438  -0.930   9.745  1.00  0.00     0.177 HD
ATOM     10  H41 UNL     1      21.802  -1.838   9.116  1.00  0.00     0.177 HD
ENDBRANCH   7   8
BRANCH   7  11
HETATM   11  C6  UNL     1      19.948  -2.681  11.793  1.00  0.00     0.376 C 
HETATM   12  O1  UNL     1      18.722  -2.726  11.446  1.00  0.00    -0.281 OA
ENDBRANCH   7  11
ENDBRANCH   4   7
BRANCH   1  13
HETATM   13  C1  UNL     1      24.275  -7.255  10.743  1.00  0.00     0.120 C 
HETATM   14  N1  UNL     1      25.450  -7.262  11.273  1.00  0.00    -0.387 N 
ATOM     15  H12 UNL     1      26.049  -8.087  11.296  1.00  0.00     0.157 HD
ATOM     16  H11 UNL     1      25.780  -6.383  11.673  1.00  0.00     0.157 HD
HETATM   17  N2  UNL     1      23.818  -8.473  10.187  1.00  0.00    -0.082 NA
ENDBRANCH   1  13
TORSDOF 4
ENDMDL
