MODEL 1
REMARK VINA RESULT: -5.987032862      0.000      0.000
REMARK  5 active torsions:
REMARK  status: ('A' for Active; 'I' for Inactive)
REMARK    1  A    between atoms: C2_2  and  C3_3 
REMARK    2  A    between atoms: C5_5  and  N1_6 
REMARK    3  A    between atoms: N1_6  and  C6_8 
REMARK    4  A    between atoms: C8_11  and  C9_12 
REMARK    5  A    between atoms: C9_12  and  N2_13 
ROOT
HETATM    1  C3  UNL     1      23.924  -6.422  10.840  1.00  0.00     0.210 C 
HETATM    2  C4  UNL     1      23.648  -5.305  11.787  1.00  0.00     0.062 C 
HETATM    3  C5  UNL     1      23.064  -4.079  11.187  1.00  0.00     0.088 C 
HETATM    4  C7  UNL     1      23.487  -3.786   9.788  1.00  0.00     0.059 C 
HETATM    5  C8  UNL     1      24.148  -4.924   9.084  1.00  0.00     0.213 C 
HETATM    6  N3  UNL     1      23.512  -6.155   9.478  1.00  0.00    -0.062 N 
ATOM      7  H31 UNL     1      22.499  -6.138   9.362  1.00  0.00     0.278 HD
ATOM      8  H32 UNL     1      23.703  -6.928   8.842  1.00  0.00     0.278 HD
ENDROOT
BRANCH   5   9
HETATM    9  C9  UNL     1      24.087  -4.825   7.588  1.00  0.00     0.262 C 
BRANCH   9  10
HETATM   10  N2  UNL     1      25.274  -4.135   7.132  1.00  0.00    -0.077 N 
ATOM     11  H23 UNL     1      26.130  -4.523   7.528  1.00  0.00     0.274 HD
ATOM     12  H22 UNL     1      25.481  -4.316   6.150  1.00  0.00     0.274 HD
ATOM     13  H21 UNL     1      25.162  -3.142   7.334  1.00  0.00     0.274 HD
ENDBRANCH   9  10
ENDBRANCH   5   9
BRANCH   3  14
HETATM   14  N1  UNL     1      21.604  -4.112  11.322  1.00  0.00    -0.363 N 
ATOM     15  H1  UNL     1      21.148  -5.020  11.406  1.00  0.00     0.162 HD
BRANCH  14  16
HETATM   16  C6  UNL     1      20.804  -2.965  11.342  1.00  0.00     0.348 C 
HETATM   17  O1  UNL     1      21.036  -1.976  12.079  1.00  0.00    -0.284 OA
ENDBRANCH  14  16
ENDBRANCH   3  14
BRANCH   1  18
HETATM   18  C2  UNL     1      23.327  -7.710  11.242  1.00  0.00    -0.005 C 
HETATM   19  C1  UNL     1      23.638  -8.800  10.574  1.00  0.00     0.009 C 
ENDBRANCH   1  18
TORSDOF 5
ENDMDL
MODEL 2
REMARK VINA RESULT: -5.507936849      1.778      1.939
REMARK  5 active torsions:
REMARK  status: ('A' for Active; 'I' for Inactive)
REMARK    1  A    between atoms: C2_2  and  C3_3 
REMARK    2  A    between atoms: C5_5  and  N1_6 
REMARK    3  A    between atoms: N1_6  and  C6_8 
REMARK    4  A    between atoms: C8_11  and  C9_12 
REMARK    5  A    between atoms: C9_12  and  N2_13 
ROOT
HETATM    1  C3  UNL     1      24.480  -6.895  10.647  1.00  0.00     0.210 C 
HETATM    2  C4  UNL     1      24.072  -6.165  11.880  1.00  0.00     0.062 C 
HETATM    3  C5  UNL     1      23.137  -5.028  11.679  1.00  0.00     0.088 C 
HETATM    4  C7  UNL     1      23.290  -4.294  10.391  1.00  0.00     0.059 C 
HETATM    5  C8  UNL     1      24.106  -5.002   9.361  1.00  0.00     0.213 C 
HETATM    6  N3  UNL     1      23.840  -6.416   9.440  1.00  0.00    -0.062 N 
ATOM      7  H31 UNL     1      22.846  -6.641   9.396  1.00  0.00     0.278 HD
ATOM      8  H32 UNL     1      24.125  -6.926   8.605  1.00  0.00     0.278 HD
ENDROOT
BRANCH   5   9
HETATM    9  C9  UNL     1      23.826  -4.553   7.956  1.00  0.00     0.262 C 
BRANCH   9  10
HETATM   10  N2  UNL     1      25.084  -4.200   7.336  1.00  0.00    -0.077 N 
ATOM     11  H23 UNL     1      25.141  -3.210   7.098  1.00  0.00     0.274 HD
ATOM     12  H22 UNL     1      25.867  -4.230   7.990  1.00  0.00     0.274 HD
ATOM     13  H21 UNL     1      25.223  -4.808   6.529  1.00  0.00     0.274 HD
ENDBRANCH   9  10
ENDBRANCH   5   9
BRANCH   3  14
HETATM   14  N1  UNL     1      21.759  -5.480  11.891  1.00  0.00    -0.363 N 
ATOM     15  H1  UNL     1      20.999  -4.882  11.566  1.00  0.00     0.162 HD
BRANCH  14  16
HETATM   16  C6  UNL     1      21.428  -6.687  12.515  1.00  0.00     0.348 C 
HETATM   17  O1  UNL     1      20.510  -6.794  13.365  1.00  0.00    -0.284 OA
ENDBRANCH  14  16
ENDBRANCH   3  14
BRANCH   1  18
HETATM   18  C2  UNL     1      24.266  -8.353  10.716  1.00  0.00    -0.005 C 
HETATM   19  C1  UNL     1      23.193  -8.873  10.161  1.00  0.00     0.009 C 
ENDBRANCH   1  18
TORSDOF 5
ENDMDL
MODEL 3
REMARK VINA RESULT: -5.212765834      7.242      8.853
REMARK  5 active torsions:
REMARK  status: ('A' for Active; 'I' for Inactive)
REMARK    1  A    between atoms: C2_2  and  C3_3 
REMARK    2  A    between atoms: C5_5  and  N1_6 
REMARK    3  A    between atoms: N1_6  and  C6_8 
REMARK    4  A    between atoms: C8_11  and  C9_12 
REMARK    5  A    between atoms: C9_12  and  N2_13 
ROOT
HETATM    1  C3  UNL     1      18.252  -3.162  14.328  1.00  0.00     0.210 C 
HETATM    2  C4  UNL     1      17.940  -4.562  14.730  1.00  0.00     0.062 C 
HETATM    3  C5  UNL     1      17.552  -4.756  16.150  1.00  0.00     0.088 C 
HETATM    4  C7  UNL     1      18.191  -3.824  17.121  1.00  0.00     0.059 C 
HETATM    5  C8  UNL     1      18.847  -2.633  16.506  1.00  0.00     0.213 C 
HETATM    6  N3  UNL     1      18.060  -2.190  15.384  1.00  0.00    -0.062 N 
ATOM      7  H31 UNL     1      17.078  -2.039  15.616  1.00  0.00     0.278 HD
ATOM      8  H32 UNL     1      18.273  -1.236  15.095  1.00  0.00     0.278 HD
ENDROOT
BRANCH   5   9
HETATM    9  C9  UNL     1      19.006  -1.476  17.450  1.00  0.00     0.262 C 
BRANCH   9  10
HETATM   10  N2  UNL     1      17.785  -0.702  17.425  1.00  0.00    -0.077 N 
ATOM     11  H23 UNL     1      17.574  -0.330  16.499  1.00  0.00     0.274 HD
ATOM     12  H22 UNL     1      16.951  -1.279  17.535  1.00  0.00     0.274 HD
ATOM     13  H21 UNL     1      17.855   0.026  18.135  1.00  0.00     0.274 HD
ENDBRANCH   9  10
ENDBRANCH   5   9
BRANCH   3  14
HETATM   14  N1  UNL     1      16.090  -4.750  16.266  1.00  0.00    -0.363 N 
ATOM     15  H1  UNL     1      15.563  -5.466  15.766  1.00  0.00     0.162 HD
BRANCH  14  16
HETATM   16  C6  UNL     1      15.379  -3.817  17.027  1.00  0.00     0.348 C 
HETATM   17  O1  UNL     1      15.272  -2.607  16.708  1.00  0.00    -0.284 OA
ENDBRANCH  14  16
ENDBRANCH   3  14
BRANCH   1  18
HETATM   18  C2  UNL     1      17.498  -2.695  13.150  1.00  0.00    -0.005 C 
HETATM   19  C1  UNL     1      18.138  -2.470  12.023  1.00  0.00     0.009 C 
ENDBRANCH   1  18
TORSDOF 5
ENDMDL
MODEL 4
REMARK VINA RESULT: -5.156972135      2.598      4.360
REMARK  5 active torsions:
REMARK  status: ('A' for Active; 'I' for Inactive)
REMARK    1  A    between atoms: C2_2  and  C3_3 
REMARK    2  A    between atoms: C5_5  and  N1_6 
REMARK    3  A    between atoms: N1_6  and  C6_8 
REMARK    4  A    between atoms: C8_11  and  C9_12 
REMARK    5  A    between atoms: C9_12  and  N2_13 
ROOT
HETATM    1  C3  UNL     1      23.696  -4.431   9.185  1.00  0.00     0.210 C 
HETATM    2  C4  UNL     1      24.073  -5.571  10.066  1.00  0.00     0.062 C 
HETATM    3  C5  UNL     1      23.026  -6.028  11.015  1.00  0.00     0.088 C 
HETATM    4  C7  UNL     1      22.109  -4.965  11.517  1.00  0.00     0.059 C 
HETATM    5  C8  UNL     1      22.153  -3.687  10.747  1.00  0.00     0.213 C 
HETATM    6  N3  UNL     1      22.328  -3.986   9.349  1.00  0.00    -0.062 N 
ATOM      7  H31 UNL     1      21.644  -4.652   8.992  1.00  0.00     0.278 HD
ATOM      8  H32 UNL     1      22.083  -3.208   8.738  1.00  0.00     0.278 HD
ENDROOT
BRANCH   5   9
HETATM    9  C9  UNL     1      20.914  -2.852  10.894  1.00  0.00     0.262 C 
BRANCH   9  10
HETATM   10  N2  UNL     1      20.481  -2.451   9.574  1.00  0.00    -0.077 N 
ATOM     11  H23 UNL     1      20.173  -1.479   9.539  1.00  0.00     0.274 HD
ATOM     12  H22 UNL     1      21.254  -2.374   8.913  1.00  0.00     0.274 HD
ATOM     13  H21 UNL     1      19.761  -3.103   9.263  1.00  0.00     0.274 HD
ENDBRANCH   9  10
ENDBRANCH   5   9
BRANCH   3  14
HETATM   14  N1  UNL     1      22.290  -7.154  10.433  1.00  0.00    -0.363 N 
ATOM     15  H1  UNL     1      21.282  -7.061  10.311  1.00  0.00     0.162 HD
BRANCH  14  16
HETATM   16  C6  UNL     1      22.896  -8.349  10.034  1.00  0.00     0.348 C 
HETATM   17  O1  UNL     1      23.722  -8.973  10.744  1.00  0.00    -0.284 OA
ENDBRANCH  14  16
ENDBRANCH   3  14
BRANCH   1  18
HETATM   18  C2  UNL     1      23.911  -4.687   7.748  1.00  0.00    -0.005 C 
HETATM   19  C1  UNL     1      25.130  -4.617   7.257  1.00  0.00     0.009 C 
ENDBRANCH   1  18
TORSDOF 5
ENDMDL
MODEL 5
REMARK VINA RESULT: -4.865783171      2.469      4.253
REMARK  5 active torsions:
REMARK  status: ('A' for Active; 'I' for Inactive)
REMARK    1  A    between atoms: C2_2  and  C3_3 
REMARK    2  A    between atoms: C5_5  and  N1_6 
REMARK    3  A    between atoms: N1_6  and  C6_8 
REMARK    4  A    between atoms: C8_11  and  C9_12 
REMARK    5  A    between atoms: C9_12  and  N2_13 
ROOT
HETATM    1  C3  UNL     1      22.617  -5.541  11.243  1.00  0.00     0.210 C 
HETATM    2  C4  UNL     1      22.595  -5.770   9.772  1.00  0.00     0.062 C 
HETATM    3  C5  UNL     1      22.391  -4.563   8.932  1.00  0.00     0.088 C 
HETATM    4  C7  UNL     1      21.536  -3.501   9.536  1.00  0.00     0.059 C 
HETATM    5  C8  UNL     1      21.300  -3.647  11.002  1.00  0.00     0.213 C 
HETATM    6  N3  UNL     1      22.499  -4.149  11.624  1.00  0.00    -0.062 N 
ATOM      7  H31 UNL     1      23.328  -3.600  11.399  1.00  0.00     0.278 HD
ATOM      8  H32 UNL     1      22.518  -4.005  12.633  1.00  0.00     0.278 HD
ENDROOT
BRANCH   5   9
HETATM    9  C9  UNL     1      20.923  -2.364  11.683  1.00  0.00     0.262 C 
BRANCH   9  10
HETATM   10  N2  UNL     1      19.485  -2.343  11.841  1.00  0.00    -0.077 N 
ATOM     11  H23 UNL     1      19.004  -1.999  11.010  1.00  0.00     0.274 HD
ATOM     12  H22 UNL     1      19.078  -3.278  11.860  1.00  0.00     0.274 HD
ATOM     13  H21 UNL     1      19.265  -1.801  12.676  1.00  0.00     0.274 HD
ENDBRANCH   9  10
ENDBRANCH   5   9
BRANCH   3  14
HETATM   14  N1  UNL     1      23.689  -4.040   8.496  1.00  0.00    -0.363 N 
ATOM     15  H1  UNL     1      24.000  -3.145   8.874  1.00  0.00     0.162 HD
BRANCH  14  16
HETATM   16  C6  UNL     1      24.524  -4.701   7.590  1.00  0.00     0.348 C 
HETATM   17  O1  UNL     1      25.614  -4.227   7.187  1.00  0.00    -0.284 OA
ENDBRANCH  14  16
ENDBRANCH   3  14
BRANCH   1  18
HETATM   18  C2  UNL     1      23.809  -6.087  11.918  1.00  0.00    -0.005 C 
HETATM   19  C1  UNL     1      24.731  -6.695  11.204  1.00  0.00     0.009 C 
ENDBRANCH   1  18
TORSDOF 5
ENDMDL
