MODEL 1
REMARK VINA RESULT: -6.608254330      0.000      0.000
REMARK  3 active torsions:
REMARK  status: ('A' for Active; 'I' for Inactive)
REMARK    1  A    between atoms: C2_2  and  C4_12 
REMARK    2  A    between atoms: N1_3  and  N2_5 
REMARK       I    between atoms: N2_5  and  C3_7 
REMARK    3  A    between atoms: C8_16  and  C9_17 
ROOT
HETATM    1  C1  UNL     1      21.547  -7.837  14.424  1.00  0.00     0.070 C 
HETATM    2  C2  UNL     1      21.777  -6.654  13.536  1.00  0.00     0.032 C 
HETATM    3  N1  UNL     1      21.156  -5.555  13.667  1.00  0.00    -0.302 N 
ATOM      4  H1  UNL     1      21.381  -4.805  13.012  1.00  0.00     0.186 HD
ENDROOT
BRANCH   2   5
HETATM    5  C4  UNL     1      22.763  -6.736  12.450  1.00  0.00    -0.012 A 
HETATM    6  C5  UNL     1      23.337  -7.945  12.086  1.00  0.00     0.013 A 
HETATM    7  C6  UNL     1      24.261  -8.025  11.069  1.00  0.00     0.002 A 
HETATM    8  C7  UNL     1      24.644  -6.897  10.377  1.00  0.00     0.017 A 
HETATM    9  C8  UNL     1      24.098  -5.677  10.707  1.00  0.00     0.030 A 
HETATM   10  C10 UNL     1      23.167  -5.627  11.740  1.00  0.00     0.030 A 
BRANCH   9  11
HETATM   11  C9  UNL     1      24.508  -4.501   9.975  1.00  0.00     0.265 C 
HETATM   12  N5  UNL     1      24.146  -3.212  10.415  1.00  0.00    -0.057 NA
HETATM   13  O1  UNL     1      25.192  -4.621   8.938  1.00  0.00    -0.271 OA
ENDBRANCH   9  11
ENDBRANCH   2   5
BRANCH   3  14
HETATM   14  N2  UNL     1      20.189  -5.292  14.635  1.00  0.00    -0.274 N 
HETATM   15  C3  UNL     1      19.553  -4.018  14.587  1.00  0.00     0.200 C 
HETATM   16  N3  UNL     1      19.734  -3.246  15.613  1.00  0.00    -0.372 N 
HETATM   17  N4  UNL     1      18.764  -3.606  13.482  1.00  0.00    -0.062 NA
ATOM     18  H32 UNL     1      20.302  -3.542  16.408  1.00  0.00     0.158 HD
ATOM     19  H31 UNL     1      19.279  -2.333  15.578  1.00  0.00     0.158 HD
ATOM     20  H2  UNL     1      19.947  -5.981  15.347  1.00  0.00     0.189 HD
ENDBRANCH   3  14
TORSDOF 3
ENDMDL
MODEL 2
REMARK VINA RESULT: -6.561579262      3.858      5.011
REMARK  3 active torsions:
REMARK  status: ('A' for Active; 'I' for Inactive)
REMARK    1  A    between atoms: C2_2  and  C4_12 
REMARK    2  A    between atoms: N1_3  and  N2_5 
REMARK       I    between atoms: N2_5  and  C3_7 
REMARK    3  A    between atoms: C8_16  and  C9_17 
ROOT
HETATM    1  C1  UNL     1      18.586  -4.579  15.633  1.00  0.00     0.070 C 
HETATM    2  C2  UNL     1      19.148  -3.290  15.123  1.00  0.00     0.032 C 
HETATM    3  N1  UNL     1      19.578  -2.369  15.884  1.00  0.00    -0.302 N 
ATOM      4  H1  UNL     1      19.943  -1.525  15.442  1.00  0.00     0.186 HD
ENDROOT
BRANCH   2   5
HETATM    5  C4  UNL     1      19.219  -3.044  13.676  1.00  0.00    -0.012 A 
HETATM    6  C5  UNL     1      18.077  -2.795  12.929  1.00  0.00     0.013 A 
HETATM    7  C6  UNL     1      18.140  -2.565  11.574  1.00  0.00     0.002 A 
HETATM    8  C7  UNL     1      19.349  -2.576  10.915  1.00  0.00     0.017 A 
HETATM    9  C8  UNL     1      20.507  -2.819  11.619  1.00  0.00     0.030 A 
HETATM   10  C10 UNL     1      20.412  -3.048  12.988  1.00  0.00     0.030 A 
BRANCH   9  11
HETATM   11  C9  UNL     1      21.769  -2.828  10.917  1.00  0.00     0.265 C 
HETATM   12  N5  UNL     1      22.158  -3.939  10.142  1.00  0.00    -0.057 NA
HETATM   13  O1  UNL     1      22.531  -1.842  10.994  1.00  0.00    -0.271 OA
ENDBRANCH   9  11
ENDBRANCH   2   5
BRANCH   3  14
HETATM   14  N2  UNL     1      19.591  -2.422  17.276  1.00  0.00    -0.274 N 
HETATM   15  C3  UNL     1      18.530  -1.761  17.959  1.00  0.00     0.200 C 
HETATM   16  N3  UNL     1      18.868  -0.772  18.727  1.00  0.00    -0.372 N 
HETATM   17  N4  UNL     1      17.174  -2.154  17.813  1.00  0.00    -0.062 NA
ATOM     18  H32 UNL     1      19.843  -0.490  18.832  1.00  0.00     0.158 HD
ATOM     19  H31 UNL     1      18.107  -0.299  19.216  1.00  0.00     0.158 HD
ATOM     20  H2  UNL     1      20.327  -2.912  17.784  1.00  0.00     0.189 HD
ENDBRANCH   3  14
TORSDOF 3
ENDMDL
MODEL 3
REMARK VINA RESULT: -6.493650905      4.303      6.975
REMARK  3 active torsions:
REMARK  status: ('A' for Active; 'I' for Inactive)
REMARK    1  A    between atoms: C2_2  and  C4_12 
REMARK    2  A    between atoms: N1_3  and  N2_5 
REMARK       I    between atoms: N2_5  and  C3_7 
REMARK    3  A    between atoms: C8_16  and  C9_17 
ROOT
HETATM    1  C1  UNL     1      18.465  -2.580  12.070  1.00  0.00     0.070 C 
HETATM    2  C2  UNL     1      19.475  -2.857  13.140  1.00  0.00     0.032 C 
HETATM    3  N1  UNL     1      20.725  -2.710  12.971  1.00  0.00    -0.302 N 
ATOM      4  H1  UNL     1      21.335  -2.925  13.760  1.00  0.00     0.186 HD
ENDROOT
BRANCH   2   5
HETATM    5  C4  UNL     1      19.032  -3.324  14.460  1.00  0.00    -0.012 A 
HETATM    6  C5  UNL     1      17.719  -3.167  14.879  1.00  0.00     0.013 A 
HETATM    7  C6  UNL     1      17.301  -3.603  16.115  1.00  0.00     0.002 A 
HETATM    8  C7  UNL     1      18.183  -4.215  16.979  1.00  0.00     0.017 A 
HETATM    9  C8  UNL     1      19.495  -4.391  16.602  1.00  0.00     0.030 A 
HETATM   10  C10 UNL     1      19.888  -3.940  15.347  1.00  0.00     0.030 A 
BRANCH   9  11
HETATM   11  C9  UNL     1      20.410  -5.034  17.517  1.00  0.00     0.265 C 
HETATM   12  N5  UNL     1      21.184  -6.139  17.109  1.00  0.00    -0.057 NA
HETATM   13  O1  UNL     1      20.521  -4.610  18.685  1.00  0.00    -0.271 OA
ENDBRANCH   9  11
ENDBRANCH   2   5
BRANCH   3  14
HETATM   14  N2  UNL     1      21.328  -2.278  11.792  1.00  0.00    -0.274 N 
HETATM   15  C3  UNL     1      22.405  -3.063  11.290  1.00  0.00     0.200 C 
HETATM   16  N3  UNL     1      23.562  -2.480  11.229  1.00  0.00    -0.372 N 
HETATM   17  N4  UNL     1      22.234  -4.410  10.878  1.00  0.00    -0.062 NA
ATOM     18  H32 UNL     1      23.686  -1.511  11.526  1.00  0.00     0.158 HD
ATOM     19  H31 UNL     1      24.334  -3.042  10.870  1.00  0.00     0.158 HD
ATOM     20  H2  UNL     1      21.012  -1.437  11.309  1.00  0.00     0.189 HD
ENDBRANCH   3  14
TORSDOF 3
ENDMDL
MODEL 4
REMARK VINA RESULT: -6.340220813      4.596      7.777
REMARK  3 active torsions:
REMARK  status: ('A' for Active; 'I' for Inactive)
REMARK    1  A    between atoms: C2_2  and  C4_12 
REMARK    2  A    between atoms: N1_3  and  N2_5 
REMARK       I    between atoms: N2_5  and  C3_7 
REMARK    3  A    between atoms: C8_16  and  C9_17 
ROOT
HETATM    1  C1  UNL     1      18.310  -2.615  12.338  1.00  0.00     0.070 C 
HETATM    2  C2  UNL     1      19.412  -2.610  13.350  1.00  0.00     0.032 C 
HETATM    3  N1  UNL     1      20.640  -2.522  13.041  1.00  0.00    -0.302 N 
ATOM      4  H1  UNL     1      21.319  -2.527  13.802  1.00  0.00     0.186 HD
ENDROOT
BRANCH   2   5
HETATM    5  C4  UNL     1      19.092  -2.712  14.780  1.00  0.00    -0.012 A 
HETATM    6  C5  UNL     1      19.979  -2.271  15.751  1.00  0.00     0.013 A 
HETATM    7  C6  UNL     1      19.683  -2.365  17.092  1.00  0.00     0.002 A 
HETATM    8  C7  UNL     1      18.486  -2.903  17.511  1.00  0.00     0.017 A 
HETATM    9  C8  UNL     1      17.577  -3.351  16.579  1.00  0.00     0.030 A 
HETATM   10  C10 UNL     1      17.905  -3.244  15.232  1.00  0.00     0.030 A 
BRANCH   9  11
HETATM   11  C9  UNL     1      16.326  -3.914  17.031  1.00  0.00     0.265 C 
HETATM   12  N5  UNL     1      15.404  -3.136  17.761  1.00  0.00    -0.057 NA
HETATM   13  O1  UNL     1      16.050  -5.103  16.775  1.00  0.00    -0.271 OA
ENDBRANCH   9  11
ENDBRANCH   2   5
BRANCH   3  14
HETATM   14  N2  UNL     1      21.133  -2.418  11.741  1.00  0.00    -0.274 N 
HETATM   15  C3  UNL     1      22.284  -3.194  11.422  1.00  0.00     0.200 C 
HETATM   16  N3  UNL     1      23.350  -2.531  11.092  1.00  0.00    -0.372 N 
HETATM   17  N4  UNL     1      22.278  -4.612  11.460  1.00  0.00    -0.062 NA
ATOM     18  H32 UNL     1      23.355  -1.511  11.065  1.00  0.00     0.158 HD
ATOM     19  H31 UNL     1      24.175  -3.087  10.863  1.00  0.00     0.158 HD
ATOM     20  H2  UNL     1      20.689  -1.815  11.050  1.00  0.00     0.189 HD
ENDBRANCH   3  14
TORSDOF 3
ENDMDL
MODEL 5
REMARK VINA RESULT: -6.321137580      2.498      3.638
REMARK  3 active torsions:
REMARK  status: ('A' for Active; 'I' for Inactive)
REMARK    1  A    between atoms: C2_2  and  C4_12 
REMARK    2  A    between atoms: N1_3  and  N2_5 
REMARK       I    between atoms: N2_5  and  C3_7 
REMARK    3  A    between atoms: C8_16  and  C9_17 
ROOT
HETATM    1  C1  UNL     1      21.366  -2.978   9.933  1.00  0.00     0.070 C 
HETATM    2  C2  UNL     1      22.061  -3.478  11.160  1.00  0.00     0.032 C 
HETATM    3  N1  UNL     1      21.771  -3.087  12.333  1.00  0.00    -0.302 N 
ATOM      4  H1  UNL     1      22.302  -3.486  13.107  1.00  0.00     0.186 HD
ENDROOT
BRANCH   2   5
HETATM    5  C4  UNL     1      23.138  -4.470  11.038  1.00  0.00    -0.012 A 
HETATM    6  C5  UNL     1      24.468  -4.085  10.956  1.00  0.00     0.013 A 
HETATM    7  C6  UNL     1      25.479  -5.011  10.841  1.00  0.00     0.002 A 
HETATM    8  C7  UNL     1      25.196  -6.359  10.804  1.00  0.00     0.017 A 
HETATM    9  C8  UNL     1      23.889  -6.784  10.883  1.00  0.00     0.030 A 
HETATM   10  C10 UNL     1      22.889  -5.824  10.998  1.00  0.00     0.030 A 
BRANCH   9  11
HETATM   11  C9  UNL     1      23.605  -8.199  10.842  1.00  0.00     0.265 C 
HETATM   12  N5  UNL     1      24.477  -9.129  11.443  1.00  0.00    -0.057 NA
HETATM   13  O1  UNL     1      22.576  -8.611  10.270  1.00  0.00    -0.271 OA
ENDBRANCH   9  11
ENDBRANCH   2   5
BRANCH   3  14
HETATM   14  N2  UNL     1      20.783  -2.155  12.643  1.00  0.00    -0.274 N 
HETATM   15  C3  UNL     1      19.722  -2.593  13.488  1.00  0.00     0.200 C 
HETATM   16  N3  UNL     1      18.533  -2.584  12.969  1.00  0.00    -0.372 N 
HETATM   17  N4  UNL     1      19.943  -3.019  14.823  1.00  0.00    -0.062 NA
ATOM     18  H32 UNL     1      18.375  -2.279  12.008  1.00  0.00     0.158 HD
ATOM     19  H31 UNL     1      17.774  -2.898  13.574  1.00  0.00     0.158 HD
ATOM     20  H2  UNL     1      20.817  -1.202  12.283  1.00  0.00     0.189 HD
ENDBRANCH   3  14
TORSDOF 3
ENDMDL
