MODEL 1
REMARK VINA RESULT: -6.088746638      0.000      0.000
REMARK  3 active torsions:
REMARK  status: ('A' for Active; 'I' for Inactive)
REMARK    1  A    between atoms: C2_2  and  C4_10 
REMARK    2  A    between atoms: N1_3  and  N2_5 
REMARK       I    between atoms: N2_5  and  C3_7 
REMARK    3  A    between atoms: C7_13  and  C8_14 
ROOT
HETATM    1  C4  UNL     1      18.260  -3.793  14.830  1.00  0.00    -0.013 A 
HETATM    2  C5  UNL     1      17.363  -3.168  15.673  1.00  0.00     0.014 A 
HETATM    3  C6  UNL     1      16.770  -3.867  16.686  1.00  0.00     0.016 A 
HETATM    4  C7  UNL     1      17.053  -5.205  16.887  1.00  0.00     0.004 A 
HETATM    5  C9  UNL     1      17.952  -5.826  16.040  1.00  0.00     0.016 A 
HETATM    6  C10 UNL     1      18.551  -5.128  15.019  1.00  0.00     0.014 A 
ENDROOT
BRANCH   1   7
HETATM    7  C2  UNL     1      18.877  -3.028  13.759  1.00  0.00     0.032 C 
HETATM    8  C1  UNL     1      17.979  -2.236  12.869  1.00  0.00     0.070 C 
HETATM    9  N1  UNL     1      20.148  -3.057  13.614  1.00  0.00    -0.301 N 
ATOM     10  H1  UNL     1      20.676  -3.629  14.273  1.00  0.00     0.186 HD
BRANCH   9  11
HETATM   11  N2  UNL     1      20.867  -2.390  12.652  1.00  0.00    -0.254 N 
HETATM   12  C3  UNL     1      21.875  -2.991  11.843  1.00  0.00     0.347 C 
HETATM   13  N3  UNL     1      22.574  -2.240  10.874  1.00  0.00    -0.038 NA
HETATM   14  O1  UNL     1      22.157  -4.209  11.984  1.00  0.00    -0.249 OA
ATOM     15  H2  UNL     1      20.667  -1.400  12.508  1.00  0.00     0.191 HD
ENDBRANCH   9  11
ENDBRANCH   1   7
BRANCH   4  16
HETATM   16  C8  UNL     1      16.418  -5.946  17.969  1.00  0.00     0.120 C 
HETATM   17  N4  UNL     1      15.131  -5.947  18.026  1.00  0.00    -0.387 N 
ATOM     18  H42 UNL     1      14.536  -5.459  17.357  1.00  0.00     0.157 HD
ATOM     19  H41 UNL     1      14.686  -6.466  18.784  1.00  0.00     0.157 HD
HETATM   20  N5  UNL     1      17.240  -6.621  18.894  1.00  0.00    -0.082 NA
ENDBRANCH   4  16
TORSDOF 3
ENDMDL
MODEL 2
REMARK VINA RESULT: -6.071001418      0.196      1.206
REMARK  3 active torsions:
REMARK  status: ('A' for Active; 'I' for Inactive)
REMARK    1  A    between atoms: C2_2  and  C4_10 
REMARK    2  A    between atoms: N1_3  and  N2_5 
REMARK       I    between atoms: N2_5  and  C3_7 
REMARK    3  A    between atoms: C7_13  and  C8_14 
ROOT
HETATM    1  C4  UNL     1      18.268  -3.807  14.747  1.00  0.00    -0.013 A 
HETATM    2  C5  UNL     1      18.557  -5.140  14.964  1.00  0.00     0.014 A 
HETATM    3  C6  UNL     1      17.985  -5.805  16.011  1.00  0.00     0.016 A 
HETATM    4  C7  UNL     1      17.112  -5.163  16.870  1.00  0.00     0.004 A 
HETATM    5  C9  UNL     1      16.828  -3.828  16.649  1.00  0.00     0.016 A 
HETATM    6  C10 UNL     1      17.400  -3.154  15.597  1.00  0.00     0.014 A 
ENDROOT
BRANCH   1   7
HETATM    7  C2  UNL     1      18.890  -3.121  13.627  1.00  0.00     0.032 C 
HETATM    8  C1  UNL     1      18.012  -2.722  12.487  1.00  0.00     0.070 C 
HETATM    9  N1  UNL     1      20.146  -2.884  13.650  1.00  0.00    -0.301 N 
ATOM     10  H1  UNL     1      20.661  -3.197  14.473  1.00  0.00     0.186 HD
BRANCH   9  11
HETATM   11  N2  UNL     1      20.868  -2.249  12.668  1.00  0.00    -0.254 N 
HETATM   12  C3  UNL     1      21.839  -2.890  11.844  1.00  0.00     0.347 C 
HETATM   13  N3  UNL     1      22.542  -2.171  10.854  1.00  0.00    -0.038 NA
HETATM   14  O1  UNL     1      22.084  -4.115  11.990  1.00  0.00    -0.249 OA
ATOM     15  H2  UNL     1      20.697  -1.255  12.518  1.00  0.00     0.191 HD
ENDBRANCH   9  11
ENDBRANCH   1   7
BRANCH   4  16
HETATM   16  C8  UNL     1      16.505  -5.878  17.986  1.00  0.00     0.120 C 
HETATM   17  N4  UNL     1      15.233  -5.765  18.154  1.00  0.00    -0.387 N 
ATOM     18  H42 UNL     1      14.631  -5.205  17.550  1.00  0.00     0.157 HD
ATOM     19  H41 UNL     1      14.808  -6.266  18.935  1.00  0.00     0.157 HD
HETATM   20  N5  UNL     1      17.336  -6.651  18.820  1.00  0.00    -0.082 NA
ENDBRANCH   4  16
TORSDOF 3
ENDMDL
MODEL 3
REMARK VINA RESULT: -5.874609811      3.279      4.071
REMARK  3 active torsions:
REMARK  status: ('A' for Active; 'I' for Inactive)
REMARK    1  A    between atoms: C2_2  and  C4_10 
REMARK    2  A    between atoms: N1_3  and  N2_5 
REMARK       I    between atoms: N2_5  and  C3_7 
REMARK    3  A    between atoms: C7_13  and  C8_14 
ROOT
HETATM    1  C4  UNL     1      19.941  -5.575  15.672  1.00  0.00    -0.013 A 
HETATM    2  C5  UNL     1      20.307  -5.101  16.917  1.00  0.00     0.014 A 
HETATM    3  C6  UNL     1      19.599  -4.090  17.502  1.00  0.00     0.016 A 
HETATM    4  C7  UNL     1      18.510  -3.523  16.867  1.00  0.00     0.004 A 
HETATM    5  C9  UNL     1      18.149  -4.000  15.621  1.00  0.00     0.016 A 
HETATM    6  C10 UNL     1      18.857  -5.017  15.027  1.00  0.00     0.014 A 
ENDROOT
BRANCH   1   7
HETATM    7  C2  UNL     1      20.709  -6.651  15.070  1.00  0.00     0.032 C 
HETATM    8  C1  UNL     1      20.663  -7.988  15.731  1.00  0.00     0.070 C 
HETATM    9  N1  UNL     1      21.390  -6.424  14.011  1.00  0.00    -0.301 N 
ATOM     10  H1  UNL     1      21.359  -5.476  13.634  1.00  0.00     0.186 HD
BRANCH   9  11
HETATM   11  N2  UNL     1      22.162  -7.338  13.334  1.00  0.00    -0.254 N 
HETATM   12  C3  UNL     1      22.748  -7.102  12.057  1.00  0.00     0.347 C 
HETATM   13  N3  UNL     1      23.529  -8.091  11.421  1.00  0.00    -0.038 NA
HETATM   14  O1  UNL     1      22.576  -6.001  11.474  1.00  0.00    -0.249 OA
ATOM     15  H2  UNL     1      22.325  -8.243  13.775  1.00  0.00     0.191 HD
ENDBRANCH   9  11
ENDBRANCH   1   7
BRANCH   4  16
HETATM   16  C8  UNL     1      17.759  -2.444  17.496  1.00  0.00     0.120 C 
HETATM   17  N4  UNL     1      18.396  -1.373  17.819  1.00  0.00    -0.387 N 
ATOM     18  H42 UNL     1      19.395  -1.240  17.658  1.00  0.00     0.157 HD
ATOM     19  H41 UNL     1      17.870  -0.618  18.259  1.00  0.00     0.157 HD
HETATM   20  N5  UNL     1      16.379  -2.628  17.719  1.00  0.00    -0.082 NA
ENDBRANCH   4  16
TORSDOF 3
ENDMDL
MODEL 4
REMARK VINA RESULT: -5.831656296      3.417      4.401
REMARK  3 active torsions:
REMARK  status: ('A' for Active; 'I' for Inactive)
REMARK    1  A    between atoms: C2_2  and  C4_10 
REMARK    2  A    between atoms: N1_3  and  N2_5 
REMARK       I    between atoms: N2_5  and  C3_7 
REMARK    3  A    between atoms: C7_13  and  C8_14 
ROOT
HETATM    1  C4  UNL     1      20.043  -5.003  16.150  1.00  0.00    -0.013 A 
HETATM    2  C5  UNL     1      20.420  -5.136  17.473  1.00  0.00     0.014 A 
HETATM    3  C6  UNL     1      21.002  -6.292  17.909  1.00  0.00     0.016 A 
HETATM    4  C7  UNL     1      21.225  -7.347  17.043  1.00  0.00     0.004 A 
HETATM    5  C9  UNL     1      20.845  -7.209  15.721  1.00  0.00     0.016 A 
HETATM    6  C10 UNL     1      20.259  -6.048  15.277  1.00  0.00     0.014 A 
ENDROOT
BRANCH   1   7
HETATM    7  C2  UNL     1      19.426  -3.764  15.710  1.00  0.00     0.032 C 
HETATM    8  C1  UNL     1      19.660  -2.543  16.536  1.00  0.00     0.070 C 
HETATM    9  N1  UNL     1      18.711  -3.757  14.650  1.00  0.00    -0.301 N 
ATOM     10  H1  UNL     1      18.610  -4.643  14.154  1.00  0.00     0.186 HD
BRANCH   9  11
HETATM   11  N2  UNL     1      18.068  -2.666  14.115  1.00  0.00    -0.254 N 
HETATM   12  C3  UNL     1      18.085  -2.323  12.732  1.00  0.00     0.347 C 
HETATM   13  N3  UNL     1      17.400  -1.185  12.255  1.00  0.00    -0.038 NA
HETATM   14  O1  UNL     1      18.717  -3.036  11.910  1.00  0.00    -0.249 OA
ATOM     15  H2  UNL     1      17.544  -2.063  14.750  1.00  0.00     0.191 HD
ENDBRANCH   9  11
ENDBRANCH   1   7
BRANCH   4  16
HETATM   16  C8  UNL     1      21.846  -8.578  17.514  1.00  0.00     0.120 C 
HETATM   17  N4  UNL     1      22.451  -8.553  18.651  1.00  0.00    -0.387 N 
ATOM     18  H42 UNL     1      22.517  -7.720  19.236  1.00  0.00     0.157 HD
ATOM     19  H41 UNL     1      22.886  -9.415  18.980  1.00  0.00     0.157 HD
HETATM   20  N5  UNL     1      21.754  -9.729  16.705  1.00  0.00    -0.082 NA
ENDBRANCH   4  16
TORSDOF 3
ENDMDL
MODEL 5
REMARK VINA RESULT: -5.787673157      3.422      4.452
REMARK  3 active torsions:
REMARK  status: ('A' for Active; 'I' for Inactive)
REMARK    1  A    between atoms: C2_2  and  C4_10 
REMARK    2  A    between atoms: N1_3  and  N2_5 
REMARK       I    between atoms: N2_5  and  C3_7 
REMARK    3  A    between atoms: C7_13  and  C8_14 
ROOT
HETATM    1  C4  UNL     1      20.015  -4.901  16.401  1.00  0.00    -0.013 A 
HETATM    2  C5  UNL     1      20.265  -5.933  15.517  1.00  0.00     0.014 A 
HETATM    3  C6  UNL     1      20.855  -7.084  15.955  1.00  0.00     0.016 A 
HETATM    4  C7  UNL     1      21.213  -7.241  17.282  1.00  0.00     0.004 A 
HETATM    5  C9  UNL     1      20.960  -6.205  18.161  1.00  0.00     0.016 A 
HETATM    6  C10 UNL     1      20.368  -5.044  17.727  1.00  0.00     0.014 A 
ENDROOT
BRANCH   1   7
HETATM    7  C2  UNL     1      19.387  -3.686  15.911  1.00  0.00     0.032 C 
HETATM    8  C1  UNL     1      19.633  -2.425  16.673  1.00  0.00     0.070 C 
HETATM    9  N1  UNL     1      18.655  -3.731  14.864  1.00  0.00    -0.301 N 
ATOM     10  H1  UNL     1      18.547  -4.641  14.413  1.00  0.00     0.186 HD
BRANCH   9  11
HETATM   11  N2  UNL     1      18.001  -2.669  14.288  1.00  0.00    -0.254 N 
HETATM   12  C3  UNL     1      18.109  -2.310  12.912  1.00  0.00     0.347 C 
HETATM   13  N3  UNL     1      17.406  -1.204  12.391  1.00  0.00    -0.038 NA
HETATM   14  O1  UNL     1      18.840  -2.981  12.139  1.00  0.00    -0.249 OA
ATOM     15  H2  UNL     1      17.397  -2.101  14.882  1.00  0.00     0.191 HD
ENDBRANCH   9  11
ENDBRANCH   1   7
BRANCH   4  16
HETATM   16  C8  UNL     1      21.842  -8.472  17.743  1.00  0.00     0.120 C 
HETATM   17  N4  UNL     1      21.685  -9.533  17.031  1.00  0.00    -0.387 N 
ATOM     18  H42 UNL     1      21.146  -9.558  16.165  1.00  0.00     0.157 HD
ATOM     19  H41 UNL     1      22.126 -10.395  17.354  1.00  0.00     0.157 HD
HETATM   20  N5  UNL     1      22.586  -8.438  18.939  1.00  0.00    -0.082 NA
ENDBRANCH   4  16
TORSDOF 3
ENDMDL
