MODEL 1
REMARK VINA RESULT: -7.221689044      0.000      0.000
REMARK  2 active torsions:
REMARK  status: ('A' for Active; 'I' for Inactive)
REMARK       I    between atoms: C1_4  and  N2_5 
REMARK       I    between atoms: C1_4  and  N5_17 
REMARK    1  A    between atoms: N2_5  and  N3_7 
REMARK    2  A    between atoms: C2_9  and  C3_10 
REMARK       I    between atoms: N5_17  and  C8_19 
ROOT
HETATM    1  N1  UNL     1      21.600  -1.717  10.349  1.00  0.00    -0.233 N 
ATOM      2  H11 UNL     1      20.953  -0.929  10.334  1.00  0.00     0.174 HD
ATOM      3  H12 UNL     1      22.336  -1.799   9.649  1.00  0.00     0.174 HD
HETATM    4  C1  UNL     1      21.478  -2.602  11.258  1.00  0.00     0.694 C 
HETATM    5  N2  UNL     1      22.380  -3.698  11.278  1.00  0.00    -0.133 N 
ATOM      6  H2  UNL     1      22.025  -4.638  11.102  1.00  0.00     0.205 HD
HETATM    7  N5  UNL     1      20.457  -2.487  12.228  1.00  0.00    -0.143 N 
ATOM      8  H5  UNL     1      19.826  -1.688  12.183  1.00  0.00     0.189 HD
HETATM    9  C8  UNL     1      20.275  -3.442  13.266  1.00  0.00     0.347 C 
HETATM   10  N6  UNL     1      19.238  -3.284  14.214  1.00  0.00    -0.039 NA
HETATM   11  O1  UNL     1      21.030  -4.426  13.345  1.00  0.00    -0.250 OA
ENDROOT
BRANCH   5  12
HETATM   12  N3  UNL     1      23.730  -3.520  11.533  1.00  0.00    -0.295 N 
HETATM   13  C2  UNL     1      24.549  -4.485  11.629  1.00  0.00     0.137 C 
ATOM     14  H3  UNL     1      24.082  -2.569  11.648  1.00  0.00     0.186 HD
BRANCH  13  15
HETATM   15  C3  UNL     1      24.231  -5.885  11.495  1.00  0.00     0.049 A 
HETATM   16  C4  UNL     1      24.806  -6.623  10.452  1.00  0.00     0.031 A 
HETATM   17  C5  UNL     1      24.493  -7.958  10.337  1.00  0.00     0.004 A 
HETATM   18  C6  UNL     1      23.633  -8.612  11.204  1.00  0.00     0.017 A 
HETATM   19  C7  UNL     1      23.094  -7.846  12.212  1.00  0.00     0.088 A 
HETATM   20  N4  UNL     1      23.409  -6.545  12.311  1.00  0.00    -0.365 N 
ATOM     21  H4  UNL     1      22.985  -6.017  13.074  1.00  0.00     0.165 HD
ENDBRANCH  13  15
ENDBRANCH   5  12
TORSDOF 2
ENDMDL
MODEL 2
REMARK VINA RESULT: -7.053471173      0.711      1.207
REMARK  2 active torsions:
REMARK  status: ('A' for Active; 'I' for Inactive)
REMARK       I    between atoms: C1_4  and  N2_5 
REMARK       I    between atoms: C1_4  and  N5_17 
REMARK    1  A    between atoms: N2_5  and  N3_7 
REMARK    2  A    between atoms: C2_9  and  C3_10 
REMARK       I    between atoms: N5_17  and  C8_19 
ROOT
HETATM    1  N1  UNL     1      21.683  -1.797  10.369  1.00  0.00    -0.233 N 
ATOM      2  H11 UNL     1      21.045  -1.003  10.314  1.00  0.00     0.174 HD
ATOM      3  H12 UNL     1      22.438  -1.905   9.693  1.00  0.00     0.174 HD
HETATM    4  C1  UNL     1      21.525  -2.656  11.296  1.00  0.00     0.694 C 
HETATM    5  N2  UNL     1      22.414  -3.760  11.373  1.00  0.00    -0.133 N 
ATOM      6  H2  UNL     1      22.054  -4.701  11.211  1.00  0.00     0.205 HD
HETATM    7  N5  UNL     1      20.477  -2.505  12.233  1.00  0.00    -0.143 N 
ATOM      8  H5  UNL     1      19.856  -1.701  12.148  1.00  0.00     0.189 HD
HETATM    9  C8  UNL     1      20.254  -3.431  13.290  1.00  0.00     0.347 C 
HETATM   10  N6  UNL     1      19.192  -3.237  14.202  1.00  0.00    -0.039 NA
HETATM   11  O1  UNL     1      20.996  -4.419  13.417  1.00  0.00    -0.250 OA
ENDROOT
BRANCH   5  12
HETATM   12  N3  UNL     1      23.758  -3.588  11.662  1.00  0.00    -0.295 N 
HETATM   13  C2  UNL     1      24.588  -4.548  11.684  1.00  0.00     0.137 C 
ATOM     14  H3  UNL     1      24.095  -2.648  11.867  1.00  0.00     0.186 HD
BRANCH  13  15
HETATM   15  C3  UNL     1      24.291  -5.934  11.421  1.00  0.00     0.049 A 
HETATM   16  C4  UNL     1      23.575  -6.676  12.370  1.00  0.00     0.031 A 
HETATM   17  C5  UNL     1      23.299  -7.997  12.104  1.00  0.00     0.004 A 
HETATM   18  C6  UNL     1      23.694  -8.635  10.940  1.00  0.00     0.017 A 
HETATM   19  C7  UNL     1      24.393  -7.866  10.038  1.00  0.00     0.088 A 
HETATM   20  N4  UNL     1      24.655  -6.578  10.312  1.00  0.00    -0.365 N 
ATOM     21  H4  UNL     1      25.177  -6.047   9.614  1.00  0.00     0.165 HD
ENDBRANCH  13  15
ENDBRANCH   5  12
TORSDOF 2
ENDMDL
MODEL 3
REMARK VINA RESULT: -6.627238143      2.068      5.481
REMARK  2 active torsions:
REMARK  status: ('A' for Active; 'I' for Inactive)
REMARK       I    between atoms: C1_4  and  N2_5 
REMARK       I    between atoms: C1_4  and  N5_17 
REMARK    1  A    between atoms: N2_5  and  N3_7 
REMARK    2  A    between atoms: C2_9  and  C3_10 
REMARK       I    between atoms: N5_17  and  C8_19 
ROOT
HETATM    1  N1  UNL     1      22.153  -1.477  10.601  1.00  0.00    -0.233 N 
ATOM      2  H11 UNL     1      22.788  -1.448   9.804  1.00  0.00     0.174 HD
ATOM      3  H12 UNL     1      21.609  -0.655  10.863  1.00  0.00     0.174 HD
HETATM    4  C1  UNL     1      22.046  -2.556  11.270  1.00  0.00     0.694 C 
HETATM    5  N2  UNL     1      21.161  -2.595  12.379  1.00  0.00    -0.133 N 
ATOM      6  H2  UNL     1      21.543  -2.714  13.317  1.00  0.00     0.205 HD
HETATM    7  N5  UNL     1      22.800  -3.694  10.906  1.00  0.00    -0.143 N 
ATOM      8  H5  UNL     1      23.427  -3.631  10.104  1.00  0.00     0.189 HD
HETATM    9  C8  UNL     1      22.720  -4.926  11.614  1.00  0.00     0.347 C 
HETATM   10  N6  UNL     1      23.496  -6.036  11.211  1.00  0.00    -0.039 NA
HETATM   11  O1  UNL     1      21.964  -5.031  12.594  1.00  0.00    -0.250 OA
ENDROOT
BRANCH   5  12
HETATM   12  N3  UNL     1      19.790  -2.476  12.216  1.00  0.00    -0.295 N 
HETATM   13  C2  UNL     1      18.962  -2.687  13.154  1.00  0.00     0.137 C 
ATOM     14  H3  UNL     1      19.431  -2.205  11.301  1.00  0.00     0.186 HD
BRANCH  13  15
HETATM   15  C3  UNL     1      19.288  -3.074  14.505  1.00  0.00     0.049 A 
HETATM   16  C4  UNL     1      19.420  -4.433  14.817  1.00  0.00     0.031 A 
HETATM   17  C5  UNL     1      19.732  -4.786  16.109  1.00  0.00     0.004 A 
HETATM   18  C6  UNL     1      19.924  -3.862  17.123  1.00  0.00     0.017 A 
HETATM   19  C7  UNL     1      19.784  -2.539  16.767  1.00  0.00     0.088 A 
HETATM   20  N4  UNL     1      19.479  -2.211  15.502  1.00  0.00    -0.365 N 
ATOM     21  H4  UNL     1      19.386  -1.218  15.285  1.00  0.00     0.165 HD
ENDBRANCH  13  15
ENDBRANCH   5  12
TORSDOF 2
ENDMDL
MODEL 4
REMARK VINA RESULT: -6.254281414      3.401      6.797
REMARK  2 active torsions:
REMARK  status: ('A' for Active; 'I' for Inactive)
REMARK       I    between atoms: C1_4  and  N2_5 
REMARK       I    between atoms: C1_4  and  N5_17 
REMARK    1  A    between atoms: N2_5  and  N3_7 
REMARK    2  A    between atoms: C2_9  and  C3_10 
REMARK       I    between atoms: N5_17  and  C8_19 
ROOT
HETATM    1  N1  UNL     1      18.501  -1.692  13.239  1.00  0.00    -0.233 N 
ATOM      2  H11 UNL     1      18.215  -1.066  12.487  1.00  0.00     0.174 HD
ATOM      3  H12 UNL     1      17.989  -1.715  14.121  1.00  0.00     0.174 HD
HETATM    4  C1  UNL     1      19.510  -2.450  13.065  1.00  0.00     0.694 C 
HETATM    5  N2  UNL     1      19.907  -3.322  14.113  1.00  0.00    -0.133 N 
ATOM      6  H2  UNL     1      20.806  -3.173  14.570  1.00  0.00     0.205 HD
HETATM    7  N5  UNL     1      20.219  -2.419  11.843  1.00  0.00    -0.143 N 
ATOM      8  H5  UNL     1      19.908  -1.780  11.112  1.00  0.00     0.189 HD
HETATM    9  C8  UNL     1      21.351  -3.243  11.591  1.00  0.00     0.347 C 
HETATM   10  N6  UNL     1      22.027  -3.175  10.352  1.00  0.00    -0.039 NA
HETATM   11  O1  UNL     1      21.752  -4.032  12.464  1.00  0.00    -0.250 OA
ENDROOT
BRANCH   5  12
HETATM   12  N3  UNL     1      19.101  -4.370  14.527  1.00  0.00    -0.295 N 
HETATM   13  C2  UNL     1      18.670  -4.482  15.716  1.00  0.00     0.137 C 
ATOM     14  H3  UNL     1      18.842  -5.084  13.846  1.00  0.00     0.186 HD
BRANCH  13  15
HETATM   15  C3  UNL     1      18.932  -3.573  16.804  1.00  0.00     0.049 A 
HETATM   16  C4  UNL     1      19.912  -3.899  17.751  1.00  0.00     0.031 A 
HETATM   17  C5  UNL     1      20.152  -3.022  18.782  1.00  0.00     0.004 A 
HETATM   18  C6  UNL     1      19.470  -1.826  18.934  1.00  0.00     0.017 A 
HETATM   19  C7  UNL     1      18.518  -1.549  17.979  1.00  0.00     0.088 A 
HETATM   20  N4  UNL     1      18.296  -2.416  16.978  1.00  0.00    -0.365 N 
ATOM     21  H4  UNL     1      17.581  -2.168  16.294  1.00  0.00     0.165 HD
ENDBRANCH  13  15
ENDBRANCH   5  12
TORSDOF 2
ENDMDL
MODEL 5
REMARK VINA RESULT: -6.183207534      1.677      2.557
REMARK  2 active torsions:
REMARK  status: ('A' for Active; 'I' for Inactive)
REMARK       I    between atoms: C1_4  and  N2_5 
REMARK       I    between atoms: C1_4  and  N5_17 
REMARK    1  A    between atoms: N2_5  and  N3_7 
REMARK    2  A    between atoms: C2_9  and  C3_10 
REMARK       I    between atoms: N5_17  and  C8_19 
ROOT
HETATM    1  N1  UNL     1      18.194  -2.234  11.514  1.00  0.00    -0.233 N 
ATOM      2  H11 UNL     1      17.229  -1.925  11.633  1.00  0.00     0.174 HD
ATOM      3  H12 UNL     1      18.633  -2.227  10.594  1.00  0.00     0.174 HD
HETATM    4  C1  UNL     1      18.848  -2.629  12.533  1.00  0.00     0.694 C 
HETATM    5  N2  UNL     1      20.192  -3.057  12.367  1.00  0.00    -0.133 N 
ATOM      6  H2  UNL     1      20.427  -4.035  12.538  1.00  0.00     0.205 HD
HETATM    7  N5  UNL     1      18.239  -2.638  13.808  1.00  0.00    -0.143 N 
ATOM      8  H5  UNL     1      17.273  -2.325  13.892  1.00  0.00     0.189 HD
HETATM    9  C8  UNL     1      18.921  -3.066  14.981  1.00  0.00     0.347 C 
HETATM   10  N6  UNL     1      18.268  -3.057  16.234  1.00  0.00    -0.039 NA
HETATM   11  O1  UNL     1      20.100  -3.453  14.908  1.00  0.00    -0.250 OA
ENDROOT
BRANCH   5  12
HETATM   12  N3  UNL     1      21.189  -2.178  11.978  1.00  0.00    -0.295 N 
HETATM   13  C2  UNL     1      22.301  -2.562  11.501  1.00  0.00     0.137 C 
ATOM     14  H3  UNL     1      21.022  -1.177  12.080  1.00  0.00     0.186 HD
BRANCH  13  15
HETATM   15  C3  UNL     1      22.707  -3.928  11.286  1.00  0.00     0.049 A 
HETATM   16  C4  UNL     1      23.345  -4.275  10.087  1.00  0.00     0.031 A 
HETATM   17  C5  UNL     1      23.726  -5.583   9.897  1.00  0.00     0.004 A 
HETATM   18  C6  UNL     1      23.511  -6.580  10.835  1.00  0.00     0.017 A 
HETATM   19  C7  UNL     1      22.882  -6.191  11.995  1.00  0.00     0.088 A 
HETATM   20  N4  UNL     1      22.516  -4.910  12.166  1.00  0.00    -0.365 N 
ATOM     21  H4  UNL     1      22.053  -4.669  13.043  1.00  0.00     0.165 HD
ENDBRANCH  13  15
ENDBRANCH   5  12
TORSDOF 2
ENDMDL
