MODEL 1
REMARK VINA RESULT: -6.715717697      0.000      0.000
REMARK  4 active torsions:
REMARK  status: ('A' for Active; 'I' for Inactive)
REMARK    1  A    between atoms: O1_2  and  C2_3 
REMARK    2  A    between atoms: C5_6  and  C6_7 
REMARK    3  A    between atoms: C6_7  and  N2_11 
REMARK    4  A    between atoms: N2_11  and  N3_13 
ROOT
HETATM    1  C6  UNL     1      21.555  -2.826  11.159  1.00  0.00     0.123 C 
HETATM    2  N1  UNL     1      21.031  -2.410  10.082  1.00  0.00    -0.384 N 
ATOM      3  H11 UNL     1      20.304  -1.695  10.081  1.00  0.00     0.157 HD
ATOM      4  H12 UNL     1      21.340  -2.798   9.190  1.00  0.00     0.157 HD
ENDROOT
BRANCH   1   5
HETATM    5  C5  UNL     1      22.588  -3.842  11.162  1.00  0.00     0.009 A 
HETATM    6  C4  UNL     1      23.735  -3.673  10.415  1.00  0.00     0.018 A 
HETATM    7  C3  UNL     1      24.736  -4.654  10.415  1.00  0.00     0.037 A 
HETATM    8  C2  UNL     1      24.597  -5.805  11.159  1.00  0.00     0.068 A 
HETATM    9  C9  UNL     1      23.436  -5.942  11.895  1.00  0.00     0.037 A 
HETATM   10  C8  UNL     1      22.446  -5.012  11.918  1.00  0.00     0.018 A 
BRANCH   8  11
HETATM   11  O1  UNL     1      25.575  -6.780  11.169  1.00  0.00    -0.356 OA
HETATM   12  C1  UNL     1      25.236  -8.126  11.435  1.00  0.00     0.210 C 
ENDBRANCH   8  11
ENDBRANCH   1   5
BRANCH   1  13
HETATM   13  N2  UNL     1      21.126  -2.289  12.396  1.00  0.00    -0.283 N 
ATOM     14  H2  UNL     1      21.843  -2.000  13.061  1.00  0.00     0.188 HD
BRANCH  13  15
HETATM   15  N3  UNL     1      19.810  -2.130  12.766  1.00  0.00    -0.274 N 
HETATM   16  C7  UNL     1      19.308  -2.865  13.689  1.00  0.00     0.215 C 
HETATM   17  N4  UNL     1      20.109  -3.843  14.327  1.00  0.00    -0.065 NA
HETATM   18  N5  UNL     1      17.950  -2.716  14.087  1.00  0.00    -0.065 NA
ATOM     19  H3  UNL     1      19.235  -1.425  12.306  1.00  0.00     0.189 HD
ENDBRANCH  13  15
ENDBRANCH   1  13
TORSDOF 4
ENDMDL
MODEL 2
REMARK VINA RESULT: -6.702742978      0.026      1.225
REMARK  4 active torsions:
REMARK  status: ('A' for Active; 'I' for Inactive)
REMARK    1  A    between atoms: O1_2  and  C2_3 
REMARK    2  A    between atoms: C5_6  and  C6_7 
REMARK    3  A    between atoms: C6_7  and  N2_11 
REMARK    4  A    between atoms: N2_11  and  N3_13 
ROOT
HETATM    1  C6  UNL     1      21.553  -2.833  11.160  1.00  0.00     0.123 C 
HETATM    2  N1  UNL     1      21.034  -2.414  10.083  1.00  0.00    -0.384 N 
ATOM      3  H11 UNL     1      20.308  -1.696  10.081  1.00  0.00     0.157 HD
ATOM      4  H12 UNL     1      21.344  -2.801   9.191  1.00  0.00     0.157 HD
ENDROOT
BRANCH   1   5
HETATM    5  C5  UNL     1      22.584  -3.851  11.163  1.00  0.00     0.009 A 
HETATM    6  C4  UNL     1      22.430  -4.997  11.916  1.00  0.00     0.018 A 
HETATM    7  C3  UNL     1      23.424  -5.984  11.922  1.00  0.00     0.037 A 
HETATM    8  C2  UNL     1      24.575  -5.833  11.179  1.00  0.00     0.068 A 
HETATM    9  C9  UNL     1      24.696  -4.675  10.437  1.00  0.00     0.037 A 
HETATM   10  C8  UNL     1      23.752  -3.697  10.408  1.00  0.00     0.018 A 
BRANCH   8  11
HETATM   11  O1  UNL     1      25.563  -6.798  11.174  1.00  0.00    -0.356 OA
HETATM   12  C1  UNL     1      25.241  -8.148  11.445  1.00  0.00     0.210 C 
ENDBRANCH   8  11
ENDBRANCH   1   5
BRANCH   1  13
HETATM   13  N2  UNL     1      21.123  -2.297  12.397  1.00  0.00    -0.283 N 
ATOM     14  H2  UNL     1      21.839  -2.007  13.063  1.00  0.00     0.188 HD
BRANCH  13  15
HETATM   15  N3  UNL     1      19.807  -2.138  12.766  1.00  0.00    -0.274 N 
HETATM   16  C7  UNL     1      19.303  -2.877  13.685  1.00  0.00     0.215 C 
HETATM   17  N4  UNL     1      20.103  -3.857  14.321  1.00  0.00    -0.065 NA
HETATM   18  N5  UNL     1      17.945  -2.729  14.082  1.00  0.00    -0.065 NA
ATOM     19  H3  UNL     1      19.232  -1.432  12.308  1.00  0.00     0.189 HD
ENDBRANCH  13  15
ENDBRANCH   1  13
TORSDOF 4
ENDMDL
MODEL 3
REMARK VINA RESULT: -6.175546543      1.598      2.223
REMARK  4 active torsions:
REMARK  status: ('A' for Active; 'I' for Inactive)
REMARK    1  A    between atoms: O1_2  and  C2_3 
REMARK    2  A    between atoms: C5_6  and  C6_7 
REMARK    3  A    between atoms: C6_7  and  N2_11 
REMARK    4  A    between atoms: N2_11  and  N3_13 
ROOT
HETATM    1  C6  UNL     1      23.370  -3.376  11.053  1.00  0.00     0.123 C 
HETATM    2  N1  UNL     1      24.112  -2.680  10.298  1.00  0.00    -0.384 N 
ATOM      3  H11 UNL     1      24.031  -1.664  10.254  1.00  0.00     0.157 HD
ATOM      4  H12 UNL     1      24.812  -3.142   9.716  1.00  0.00     0.157 HD
ENDROOT
BRANCH   1   5
HETATM    5  C5  UNL     1      23.485  -4.819  11.115  1.00  0.00     0.009 A 
HETATM    6  C4  UNL     1      22.715  -5.542  12.002  1.00  0.00     0.018 A 
HETATM    7  C3  UNL     1      22.824  -6.938  12.066  1.00  0.00     0.037 A 
HETATM    8  C2  UNL     1      23.700  -7.617  11.246  1.00  0.00     0.068 A 
HETATM    9  C9  UNL     1      24.454  -6.861  10.370  1.00  0.00     0.037 A 
HETATM   10  C8  UNL     1      24.374  -5.508  10.282  1.00  0.00     0.018 A 
BRANCH   8  11
HETATM   11  O1  UNL     1      23.817  -8.992  11.297  1.00  0.00    -0.356 OA
HETATM   12  C1  UNL     1      25.075  -9.591  11.538  1.00  0.00     0.210 C 
ENDBRANCH   8  11
ENDBRANCH   1   5
BRANCH   1  13
HETATM   13  N2  UNL     1      22.399  -2.736  11.860  1.00  0.00    -0.283 N 
ATOM     14  H2  UNL     1      22.677  -2.453  12.800  1.00  0.00     0.188 HD
BRANCH  13  15
HETATM   15  N3  UNL     1      21.108  -2.468  11.468  1.00  0.00    -0.274 N 
HETATM   16  C7  UNL     1      20.123  -2.848  12.195  1.00  0.00     0.215 C 
HETATM   17  N4  UNL     1      20.364  -3.546  13.403  1.00  0.00    -0.065 NA
HETATM   18  N5  UNL     1      18.780  -2.581  11.808  1.00  0.00    -0.065 NA
ATOM     19  H3  UNL     1      20.935  -1.965  10.598  1.00  0.00     0.189 HD
ENDBRANCH  13  15
ENDBRANCH   1  13
TORSDOF 4
ENDMDL
MODEL 4
REMARK VINA RESULT: -6.159134346      1.581      1.887
REMARK  4 active torsions:
REMARK  status: ('A' for Active; 'I' for Inactive)
REMARK    1  A    between atoms: O1_2  and  C2_3 
REMARK    2  A    between atoms: C5_6  and  C6_7 
REMARK    3  A    between atoms: C6_7  and  N2_11 
REMARK    4  A    between atoms: N2_11  and  N3_13 
ROOT
HETATM    1  C6  UNL     1      23.349  -3.351  11.058  1.00  0.00     0.123 C 
HETATM    2  N1  UNL     1      24.101  -2.670  10.299  1.00  0.00    -0.384 N 
ATOM      3  H11 UNL     1      24.022  -1.655  10.236  1.00  0.00     0.157 HD
ATOM      4  H12 UNL     1      24.805  -3.143   9.732  1.00  0.00     0.157 HD
ENDROOT
BRANCH   1   5
HETATM    5  C5  UNL     1      23.461  -4.793  11.147  1.00  0.00     0.009 A 
HETATM    6  C4  UNL     1      24.330  -5.478  10.324  1.00  0.00     0.018 A 
HETATM    7  C3  UNL     1      24.441  -6.872  10.407  1.00  0.00     0.037 A 
HETATM    8  C2  UNL     1      23.687  -7.588  11.311  1.00  0.00     0.068 A 
HETATM    9  C9  UNL     1      22.827  -6.871  12.120  1.00  0.00     0.037 A 
HETATM   10  C8  UNL     1      22.694  -5.520  12.066  1.00  0.00     0.018 A 
BRANCH   8  11
HETATM   11  O1  UNL     1      23.786  -8.963  11.405  1.00  0.00    -0.356 OA
HETATM   12  C1  UNL     1      25.052  -9.578  11.529  1.00  0.00     0.210 C 
ENDBRANCH   8  11
ENDBRANCH   1   5
BRANCH   1  13
HETATM   13  N2  UNL     1      22.372  -2.695  11.844  1.00  0.00    -0.283 N 
ATOM     14  H2  UNL     1      22.661  -2.327  12.750  1.00  0.00     0.188 HD
BRANCH  13  15
HETATM   15  N3  UNL     1      21.059  -2.518  11.473  1.00  0.00    -0.274 N 
HETATM   16  C7  UNL     1      20.116  -2.773  12.304  1.00  0.00     0.215 C 
HETATM   17  N4  UNL     1      20.426  -3.238  13.605  1.00  0.00    -0.065 NA
HETATM   18  N5  UNL     1      18.752  -2.597  11.940  1.00  0.00    -0.065 NA
ATOM     19  H3  UNL     1      20.836  -2.184  10.536  1.00  0.00     0.189 HD
ENDBRANCH  13  15
ENDBRANCH   1  13
TORSDOF 4
ENDMDL
MODEL 5
REMARK VINA RESULT: -6.064750572      3.644      6.161
REMARK  4 active torsions:
REMARK  status: ('A' for Active; 'I' for Inactive)
REMARK    1  A    between atoms: O1_2  and  C2_3 
REMARK    2  A    between atoms: C5_6  and  C6_7 
REMARK    3  A    between atoms: C6_7  and  N2_11 
REMARK    4  A    between atoms: N2_11  and  N3_13 
ROOT
HETATM    1  C6  UNL     1      20.816  -2.787  10.891  1.00  0.00     0.123 C 
HETATM    2  N1  UNL     1      20.377  -2.467   9.746  1.00  0.00    -0.384 N 
ATOM      3  H11 UNL     1      20.986  -2.436   8.927  1.00  0.00     0.157 HD
ATOM      4  H12 UNL     1      19.391  -2.234   9.632  1.00  0.00     0.157 HD
ENDROOT
BRANCH   1   5
HETATM    5  C5  UNL     1      19.952  -2.832  12.053  1.00  0.00     0.009 A 
HETATM    6  C4  UNL     1      20.440  -3.260  13.269  1.00  0.00     0.018 A 
HETATM    7  C3  UNL     1      19.608  -3.305  14.396  1.00  0.00     0.037 A 
HETATM    8  C2  UNL     1      18.286  -2.925  14.313  1.00  0.00     0.068 A 
HETATM    9  C9  UNL     1      17.830  -2.502  13.079  1.00  0.00     0.037 A 
HETATM   10  C8  UNL     1      18.609  -2.445  11.967  1.00  0.00     0.018 A 
BRANCH   8  11
HETATM   11  O1  UNL     1      17.453  -2.964  15.414  1.00  0.00    -0.356 OA
HETATM   12  C1  UNL     1      17.998  -2.991  16.718  1.00  0.00     0.210 C 
ENDBRANCH   8  11
ENDBRANCH   1   5
BRANCH   1  13
HETATM   13  N2  UNL     1      22.185  -3.110  11.048  1.00  0.00    -0.283 N 
ATOM     14  H2  UNL     1      22.627  -2.880  11.938  1.00  0.00     0.188 HD
BRANCH  13  15
HETATM   15  N3  UNL     1      22.963  -3.713  10.087  1.00  0.00    -0.274 N 
HETATM   16  C7  UNL     1      24.225  -3.846  10.270  1.00  0.00     0.215 C 
HETATM   17  N4  UNL     1      24.819  -3.371  11.464  1.00  0.00    -0.065 NA
HETATM   18  N5  UNL     1      25.047  -4.467   9.289  1.00  0.00    -0.065 NA
ATOM     19  H3  UNL     1      22.534  -4.055   9.227  1.00  0.00     0.189 HD
ENDBRANCH  13  15
ENDBRANCH   1  13
TORSDOF 4
ENDMDL
