MODEL 1
REMARK VINA RESULT: -6.573803692      0.000      0.000
REMARK  3 active torsions:
REMARK  status: ('A' for Active; 'I' for Inactive)
REMARK    1  A    between atoms: O1_2  and  C2_3 
REMARK    2  A    between atoms: C7_8  and  C8_9 
REMARK    3  A    between atoms: N2_11  and  N3_13 
REMARK       I    between atoms: N3_13  and  C9_15 
ROOT
HETATM    1  C8  UNL     1      24.384  -3.647  11.617  1.00  0.00     0.143 C 
HETATM    2  N1  UNL     1      25.582  -3.000  12.073  1.00  0.00    -0.080 NA
HETATM    3  N2  UNL     1      23.404  -2.907  11.424  1.00  0.00    -0.285 N 
ATOM      4  H2  UNL     1      23.642  -1.937  11.633  1.00  0.00     0.188 HD
ENDROOT
BRANCH   1   5
HETATM    5  C7  UNL     1      24.421  -5.075  11.425  1.00  0.00     0.040 A 
HETATM    6  C2  UNL     1      24.445  -5.590  10.118  1.00  0.00     0.081 A 
HETATM    7  C3  UNL     1      24.481  -6.936   9.840  1.00  0.00     0.038 A 
HETATM    8  C4  UNL     1      24.496  -7.872  10.846  1.00  0.00     0.003 A 
HETATM    9  C5  UNL     1      24.473  -7.406  12.136  1.00  0.00     0.001 A 
HETATM   10  C6  UNL     1      24.436  -6.031  12.415  1.00  0.00     0.018 A 
BRANCH   6  11
HETATM   11  O1  UNL     1      24.431  -4.665   9.081  1.00  0.00    -0.355 OA
HETATM   12  C1  UNL     1      25.370  -4.628   8.052  1.00  0.00     0.210 C 
ENDBRANCH   6  11
ENDBRANCH   1   5
BRANCH   3  13
HETATM   13  N3  UNL     1      22.124  -3.003  11.021  1.00  0.00    -0.273 N 
HETATM   14  C9  UNL     1      21.108  -3.097  12.015  1.00  0.00     0.200 C 
HETATM   15  N4  UNL     1      20.176  -2.219  12.069  1.00  0.00    -0.372 N 
HETATM   16  N5  UNL     1      21.135  -4.166  12.940  1.00  0.00    -0.062 NA
ATOM     17  H42 UNL     1      20.156  -1.447  11.402  1.00  0.00     0.158 HD
ATOM     18  H41 UNL     1      19.449  -2.287  12.781  1.00  0.00     0.158 HD
ATOM     19  H3  UNL     1      21.888  -3.007  10.029  1.00  0.00     0.189 HD
ENDBRANCH   3  13
TORSDOF 3
ENDMDL
MODEL 2
REMARK VINA RESULT: -6.294143614      1.832      2.679
REMARK  3 active torsions:
REMARK  status: ('A' for Active; 'I' for Inactive)
REMARK    1  A    between atoms: O1_2  and  C2_3 
REMARK    2  A    between atoms: C7_8  and  C8_9 
REMARK    3  A    between atoms: N2_11  and  N3_13 
REMARK       I    between atoms: N3_13  and  C9_15 
ROOT
HETATM    1  C8  UNL     1      24.018  -4.385  10.943  1.00  0.00     0.143 C 
HETATM    2  N1  UNL     1      25.180  -3.708  11.448  1.00  0.00    -0.080 NA
HETATM    3  N2  UNL     1      23.107  -3.657  10.512  1.00  0.00    -0.285 N 
ATOM      4  H2  UNL     1      23.364  -2.674  10.600  1.00  0.00     0.188 HD
ENDROOT
BRANCH   1   5
HETATM    5  C7  UNL     1      24.010  -5.826  10.978  1.00  0.00     0.040 A 
HETATM    6  C2  UNL     1      23.085  -6.485  11.805  1.00  0.00     0.081 A 
HETATM    7  C3  UNL     1      23.006  -7.855  11.903  1.00  0.00     0.038 A 
HETATM    8  C4  UNL     1      23.843  -8.671  11.181  1.00  0.00     0.003 A 
HETATM    9  C5  UNL     1      24.758  -8.062  10.362  1.00  0.00     0.001 A 
HETATM   10  C6  UNL     1      24.837  -6.664  10.266  1.00  0.00     0.018 A 
BRANCH   6  11
HETATM   11  O1  UNL     1      22.226  -5.683  12.547  1.00  0.00    -0.355 OA
HETATM   12  C1  UNL     1      21.484  -6.131  13.638  1.00  0.00     0.210 C 
ENDBRANCH   6  11
ENDBRANCH   1   5
BRANCH   3  13
HETATM   13  N3  UNL     1      21.885  -3.779   9.964  1.00  0.00    -0.273 N 
HETATM   14  C9  UNL     1      20.848  -2.917  10.425  1.00  0.00     0.200 C 
HETATM   15  N4  UNL     1      20.249  -2.136   9.604  1.00  0.00    -0.372 N 
HETATM   16  N5  UNL     1      20.486  -2.930  11.791  1.00  0.00    -0.062 NA
ATOM     17  H42 UNL     1      20.510  -2.126   8.618  1.00  0.00     0.158 HD
ATOM     18  H41 UNL     1      19.507  -1.518   9.933  1.00  0.00     0.158 HD
ATOM     19  H3  UNL     1      21.705  -4.472   9.238  1.00  0.00     0.189 HD
ENDBRANCH   3  13
TORSDOF 3
ENDMDL
MODEL 3
REMARK VINA RESULT: -6.195649489      1.362      1.551
REMARK  3 active torsions:
REMARK  status: ('A' for Active; 'I' for Inactive)
REMARK    1  A    between atoms: O1_2  and  C2_3 
REMARK    2  A    between atoms: C7_8  and  C8_9 
REMARK    3  A    between atoms: N2_11  and  N3_13 
REMARK       I    between atoms: N3_13  and  C9_15 
ROOT
HETATM    1  C8  UNL     1      23.355  -3.712  11.310  1.00  0.00     0.143 C 
HETATM    2  N1  UNL     1      24.200  -2.843  12.082  1.00  0.00    -0.080 NA
HETATM    3  N2  UNL     1      22.454  -3.157  10.658  1.00  0.00    -0.285 N 
ATOM      4  H2  UNL     1      22.481  -2.147  10.798  1.00  0.00     0.188 HD
ENDROOT
BRANCH   1   5
HETATM    5  C7  UNL     1      23.624  -5.128  11.356  1.00  0.00     0.040 A 
HETATM    6  C2  UNL     1      24.602  -5.667  10.506  1.00  0.00     0.081 A 
HETATM    7  C3  UNL     1      24.924  -7.004  10.481  1.00  0.00     0.038 A 
HETATM    8  C4  UNL     1      24.293  -7.904  11.306  1.00  0.00     0.003 A 
HETATM    9  C5  UNL     1      23.332  -7.413  12.151  1.00  0.00     0.001 A 
HETATM   10  C6  UNL     1      23.006  -6.048  12.172  1.00  0.00     0.018 A 
BRANCH   6  11
HETATM   11  O1  UNL     1      25.256  -4.778   9.661  1.00  0.00    -0.355 OA
HETATM   12  C1  UNL     1      25.109  -4.762   8.275  1.00  0.00     0.210 C 
ENDBRANCH   6  11
ENDBRANCH   1   5
BRANCH   3  13
HETATM   13  N3  UNL     1      21.453  -3.492   9.824  1.00  0.00    -0.273 N 
HETATM   14  C9  UNL     1      20.221  -2.784   9.928  1.00  0.00     0.200 C 
HETATM   15  N4  UNL     1      19.760  -2.141   8.920  1.00  0.00    -0.372 N 
HETATM   16  N5  UNL     1      19.511  -2.796  11.150  1.00  0.00    -0.062 NA
ATOM     17  H42 UNL     1      20.272  -2.132   8.037  1.00  0.00     0.158 HD
ATOM     18  H41 UNL     1      18.878  -1.634   8.994  1.00  0.00     0.158 HD
ATOM     19  H3  UNL     1      21.573  -4.234   9.135  1.00  0.00     0.189 HD
ENDBRANCH   3  13
TORSDOF 3
ENDMDL
MODEL 4
REMARK VINA RESULT: -6.006855511      1.819      2.581
REMARK  3 active torsions:
REMARK  status: ('A' for Active; 'I' for Inactive)
REMARK    1  A    between atoms: O1_2  and  C2_3 
REMARK    2  A    between atoms: C7_8  and  C8_9 
REMARK    3  A    between atoms: N2_11  and  N3_13 
REMARK       I    between atoms: N3_13  and  C9_15 
ROOT
HETATM    1  C8  UNL     1      24.222  -4.786   9.325  1.00  0.00     0.143 C 
HETATM    2  N1  UNL     1      25.318  -4.376   8.492  1.00  0.00    -0.080 NA
HETATM    3  N2  UNL     1      23.185  -4.107   9.234  1.00  0.00    -0.285 N 
ATOM      4  H2  UNL     1      23.308  -3.355   8.557  1.00  0.00     0.188 HD
ENDROOT
BRANCH   1   5
HETATM    5  C7  UNL     1      24.418  -5.930  10.181  1.00  0.00     0.040 A 
HETATM    6  C2  UNL     1      24.399  -5.754  11.573  1.00  0.00     0.081 A 
HETATM    7  C3  UNL     1      24.577  -6.786  12.465  1.00  0.00     0.038 A 
HETATM    8  C4  UNL     1      24.786  -8.073  12.033  1.00  0.00     0.003 A 
HETATM    9  C5  UNL     1      24.810  -8.283  10.678  1.00  0.00     0.001 A 
HETATM   10  C6  UNL     1      24.629  -7.227   9.772  1.00  0.00     0.018 A 
BRANCH   6  11
HETATM   11  O1  UNL     1      24.189  -4.461  12.039  1.00  0.00    -0.355 OA
HETATM   12  C1  UNL     1      25.176  -3.480  12.098  1.00  0.00     0.210 C 
ENDBRANCH   6  11
ENDBRANCH   1   5
BRANCH   3  13
HETATM   13  N3  UNL     1      21.948  -4.070   9.762  1.00  0.00    -0.273 N 
HETATM   14  C9  UNL     1      21.414  -2.805  10.144  1.00  0.00     0.200 C 
HETATM   15  N4  UNL     1      20.324  -2.381   9.619  1.00  0.00    -0.372 N 
HETATM   16  N5  UNL     1      22.094  -2.022  11.104  1.00  0.00    -0.062 NA
ATOM     17  H42 UNL     1      19.833  -2.946   8.926  1.00  0.00     0.158 HD
ATOM     18  H41 UNL     1      19.942  -1.476   9.892  1.00  0.00     0.158 HD
ATOM     19  H3  UNL     1      21.407  -4.925   9.886  1.00  0.00     0.189 HD
ENDBRANCH   3  13
TORSDOF 3
ENDMDL
MODEL 5
REMARK VINA RESULT: -5.479175714      6.275      8.133
REMARK  3 active torsions:
REMARK  status: ('A' for Active; 'I' for Inactive)
REMARK    1  A    between atoms: O1_2  and  C2_3 
REMARK    2  A    between atoms: C7_8  and  C8_9 
REMARK    3  A    between atoms: N2_11  and  N3_13 
REMARK       I    between atoms: N3_13  and  C9_15 
ROOT
HETATM    1  C8  UNL     1      19.616  -3.909  15.511  1.00  0.00     0.143 C 
HETATM    2  N1  UNL     1      20.483  -5.014  15.809  1.00  0.00    -0.080 NA
HETATM    3  N2  UNL     1      19.997  -3.146  14.607  1.00  0.00    -0.285 N 
ATOM      4  H2  UNL     1      20.891  -3.458  14.228  1.00  0.00     0.188 HD
ENDROOT
BRANCH   1   5
HETATM    5  C7  UNL     1      18.399  -3.782  16.274  1.00  0.00     0.040 A 
HETATM    6  C2  UNL     1      18.300  -2.768  17.240  1.00  0.00     0.081 A 
HETATM    7  C3  UNL     1      17.180  -2.573  18.014  1.00  0.00     0.038 A 
HETATM    8  C4  UNL     1      16.072  -3.376  17.880  1.00  0.00     0.003 A 
HETATM    9  C5  UNL     1      16.133  -4.377  16.945  1.00  0.00     0.001 A 
HETATM   10  C6  UNL     1      17.279  -4.573  16.158  1.00  0.00     0.018 A 
BRANCH   6  11
HETATM   11  O1  UNL     1      19.406  -1.941  17.396  1.00  0.00    -0.355 OA
HETATM   12  C1  UNL     1      20.268  -1.984  18.490  1.00  0.00     0.210 C 
ENDBRANCH   6  11
ENDBRANCH   1   5
BRANCH   3  13
HETATM   13  N3  UNL     1      19.583  -2.030  13.979  1.00  0.00    -0.273 N 
HETATM   14  C9  UNL     1      18.751  -2.171  12.831  1.00  0.00     0.200 C 
HETATM   15  N4  UNL     1      17.584  -1.640  12.812  1.00  0.00    -0.372 N 
HETATM   16  N5  UNL     1      19.221  -2.898  11.714  1.00  0.00    -0.062 NA
ATOM     17  H42 UNL     1      17.244  -1.115  13.619  1.00  0.00     0.158 HD
ATOM     18  H41 UNL     1      16.988  -1.740  11.991  1.00  0.00     0.158 HD
ATOM     19  H3  UNL     1      19.857  -1.108  14.317  1.00  0.00     0.189 HD
ENDBRANCH   3  13
TORSDOF 3
ENDMDL
