MODEL 1
REMARK VINA RESULT: -7.104946649      0.000      0.000
REMARK  4 active torsions:
REMARK  status: ('A' for Active; 'I' for Inactive)
REMARK    1  A    between atoms: C4_4  and  N1_5 
REMARK    2  A    between atoms: N1_5  and  C5_7 
REMARK    3  A    between atoms: C5_7  and  C6_8 
REMARK    4  A    between atoms: C9_13  and  N3_14 
ROOT
HETATM    1  C6  UNL     1       0.888  -3.670  13.488  1.00  0.00     0.045 A 
HETATM    2  C7  UNL     1       0.508  -4.597  12.519  1.00  0.00     0.045 A 
HETATM    3  C8  UNL     1      -0.622  -5.348  12.689  1.00  0.00     0.108 A 
HETATM    4  N2  UNL     1      -1.350  -5.170  13.810  1.00  0.00    -0.202 N 
ATOM      5  H2  UNL     1      -2.194  -5.726  13.946  1.00  0.00     0.183 HD
HETATM    6  C9  UNL     1      -0.998  -4.284  14.748  1.00  0.00     0.675 A 
HETATM    7  N4  UNL     1       0.107  -3.549  14.581  1.00  0.00    -0.194 N 
ATOM      8  H4  UNL     1       0.367  -2.877  15.303  1.00  0.00     0.184 HD
ENDROOT
BRANCH   1   9
HETATM    9  C5  UNL     1       2.108  -2.895  13.246  1.00  0.00     0.179 C 
BRANCH   9  10
HETATM   10  N1  UNL     1       2.159  -2.425  11.876  1.00  0.00    -0.370 N 
ATOM     11  H1  UNL     1       1.368  -1.919  11.478  1.00  0.00     0.161 HD
BRANCH  10  12
HETATM   12  C4  UNL     1       3.227  -2.655  11.152  1.00  0.00     0.117 A 
HETATM   13  C3  UNL     1       3.412  -3.655  10.220  1.00  0.00     0.075 A 
HETATM   14  C2  UNL     1       4.687  -3.547   9.677  1.00  0.00     0.025 A 
HETATM   15  C1  UNL     1       5.326  -4.401   8.641  1.00  0.00     0.070 C 
HETATM   16  N6  UNL     1       5.233  -2.486  10.297  1.00  0.00    -0.304 N 
HETATM   17  N5  UNL     1       4.380  -1.962  11.161  1.00  0.00    -0.286 N 
ATOM     18  H6  UNL     1       6.175  -2.134  10.125  1.00  0.00     0.186 HD
ATOM     19  H5  UNL     1       4.569  -1.149  11.749  1.00  0.00     0.188 HD
ENDBRANCH  10  12
ENDBRANCH   9  10
ENDBRANCH   1   9
BRANCH   6  20
HETATM   20  N3  UNL     1      -1.746  -4.167  15.797  1.00  0.00    -0.234 N 
ATOM     21  H32 UNL     1      -2.315  -4.940  16.144  1.00  0.00     0.174 HD
ATOM     22  H31 UNL     1      -1.762  -3.271  16.285  1.00  0.00     0.174 HD
ENDBRANCH   6  20
TORSDOF 4
ENDMDL
MODEL 2
REMARK VINA RESULT: -7.067755461      2.017      5.610
REMARK  4 active torsions:
REMARK  status: ('A' for Active; 'I' for Inactive)
REMARK    1  A    between atoms: C4_4  and  N1_5 
REMARK    2  A    between atoms: N1_5  and  C5_7 
REMARK    3  A    between atoms: C5_7  and  C6_8 
REMARK    4  A    between atoms: C9_13  and  N3_14 
ROOT
HETATM    1  C6  UNL     1       1.505  -2.750  12.833  1.00  0.00     0.045 A 
HETATM    2  C7  UNL     1       2.323  -2.783  11.705  1.00  0.00     0.045 A 
HETATM    3  C8  UNL     1       3.684  -2.756  11.838  1.00  0.00     0.108 A 
HETATM    4  N2  UNL     1       4.207  -2.696  13.079  1.00  0.00    -0.202 N 
ATOM      5  H2  UNL     1       5.221  -2.675  13.189  1.00  0.00     0.183 HD
HETATM    6  C9  UNL     1       3.435  -2.665  14.172  1.00  0.00     0.675 A 
HETATM    7  N4  UNL     1       2.104  -2.691  14.041  1.00  0.00    -0.194 N 
ATOM      8  H4  UNL     1       1.524  -2.666  14.879  1.00  0.00     0.184 HD
ENDROOT
BRANCH   1   9
HETATM    9  C5  UNL     1       0.056  -2.782  12.624  1.00  0.00     0.179 C 
BRANCH   9  10
HETATM   10  N1  UNL     1      -0.600  -3.547  13.667  1.00  0.00    -0.370 N 
ATOM     11  H1  UNL     1      -0.799  -3.117  14.570  1.00  0.00     0.161 HD
BRANCH  10  12
HETATM   12  C4  UNL     1      -0.936  -4.794  13.440  1.00  0.00     0.117 A 
HETATM   13  C3  UNL     1      -0.193  -5.926  13.704  1.00  0.00     0.075 A 
HETATM   14  C2  UNL     1      -0.913  -7.049  13.315  1.00  0.00     0.025 A 
HETATM   15  C1  UNL     1      -0.516  -8.479  13.405  1.00  0.00     0.070 C 
HETATM   16  N6  UNL     1      -2.068  -6.562  12.826  1.00  0.00    -0.304 N 
HETATM   17  N5  UNL     1      -2.083  -5.241  12.899  1.00  0.00    -0.286 N 
ATOM     18  H6  UNL     1      -2.826  -7.131  12.452  1.00  0.00     0.186 HD
ATOM     19  H5  UNL     1      -2.854  -4.649  12.591  1.00  0.00     0.188 HD
ENDBRANCH  10  12
ENDBRANCH   9  10
ENDBRANCH   1   9
BRANCH   6  20
HETATM   20  N3  UNL     1       4.008  -2.608  15.330  1.00  0.00    -0.234 N 
ATOM     21  H32 UNL     1       4.307  -3.447  15.827  1.00  0.00     0.174 HD
ATOM     22  H31 UNL     1       4.161  -1.691  15.751  1.00  0.00     0.174 HD
ENDBRANCH   6  20
TORSDOF 4
ENDMDL
MODEL 3
REMARK VINA RESULT: -6.823044982      1.795      6.143
REMARK  4 active torsions:
REMARK  status: ('A' for Active; 'I' for Inactive)
REMARK    1  A    between atoms: C4_4  and  N1_5 
REMARK    2  A    between atoms: N1_5  and  C5_7 
REMARK    3  A    between atoms: C5_7  and  C6_8 
REMARK    4  A    between atoms: C9_13  and  N3_14 
ROOT
HETATM    1  C6  UNL     1       3.588  -3.112  10.094  1.00  0.00     0.045 A 
HETATM    2  C7  UNL     1       3.397  -4.443   9.730  1.00  0.00     0.045 A 
HETATM    3  C8  UNL     1       3.423  -4.809   8.412  1.00  0.00     0.108 A 
HETATM    4  N2  UNL     1       3.635  -3.853   7.484  1.00  0.00    -0.202 N 
ATOM      5  H2  UNL     1       3.656  -4.115   6.499  1.00  0.00     0.183 HD
HETATM    6  C9  UNL     1       3.821  -2.571   7.819  1.00  0.00     0.675 A 
HETATM    7  N4  UNL     1       3.796  -2.215   9.107  1.00  0.00    -0.194 N 
ATOM      8  H4  UNL     1       3.938  -1.235   9.352  1.00  0.00     0.184 HD
ENDROOT
BRANCH   1   9
HETATM    9  C5  UNL     1       3.550  -2.785  11.521  1.00  0.00     0.179 C 
BRANCH   9  10
HETATM   10  N1  UNL     1       2.218  -2.373  11.922  1.00  0.00    -0.370 N 
ATOM     11  H1  UNL     1       1.799  -1.534  11.521  1.00  0.00     0.161 HD
BRANCH  10  12
HETATM   12  C4  UNL     1       1.558  -3.087  12.801  1.00  0.00     0.117 A 
HETATM   13  C3  UNL     1       0.513  -3.957  12.563  1.00  0.00     0.075 A 
HETATM   14  C2  UNL     1       0.096  -4.512  13.767  1.00  0.00     0.025 A 
HETATM   15  C1  UNL     1      -0.994  -5.497  14.003  1.00  0.00     0.070 C 
HETATM   16  N6  UNL     1       0.899  -3.961  14.695  1.00  0.00    -0.304 N 
HETATM   17  N5  UNL     1       1.756  -3.127  14.130  1.00  0.00    -0.286 N 
ATOM     18  H6  UNL     1       0.854  -4.159  15.694  1.00  0.00     0.186 HD
ATOM     19  H5  UNL     1       2.465  -2.591  14.632  1.00  0.00     0.188 HD
ENDBRANCH  10  12
ENDBRANCH   9  10
ENDBRANCH   1   9
BRANCH   6  20
HETATM   20  N3  UNL     1       4.020  -1.711   6.874  1.00  0.00    -0.234 N 
ATOM     21  H32 UNL     1       3.308  -1.033   6.601  1.00  0.00     0.174 HD
ATOM     22  H31 UNL     1       4.919  -1.718   6.392  1.00  0.00     0.174 HD
ENDBRANCH   6  20
TORSDOF 4
ENDMDL
MODEL 4
REMARK VINA RESULT: -6.737632324      2.025      2.887
REMARK  4 active torsions:
REMARK  status: ('A' for Active; 'I' for Inactive)
REMARK    1  A    between atoms: C4_4  and  N1_5 
REMARK    2  A    between atoms: N1_5  and  C5_7 
REMARK    3  A    between atoms: C5_7  and  C6_8 
REMARK    4  A    between atoms: C9_13  and  N3_14 
ROOT
HETATM    1  C6  UNL     1      -0.726  -4.870  13.534  1.00  0.00     0.045 A 
HETATM    2  C7  UNL     1      -1.911  -5.254  12.910  1.00  0.00     0.045 A 
HETATM    3  C8  UNL     1      -2.123  -6.564  12.578  1.00  0.00     0.108 A 
HETATM    4  N2  UNL     1      -1.162  -7.464  12.868  1.00  0.00    -0.202 N 
ATOM      5  H2  UNL     1      -1.309  -8.443  12.624  1.00  0.00     0.183 HD
HETATM    6  C9  UNL     1      -0.019  -7.110  13.468  1.00  0.00     0.675 A 
HETATM    7  N4  UNL     1       0.188  -5.829  13.792  1.00  0.00    -0.194 N 
ATOM      8  H4  UNL     1       1.062  -5.569  14.247  1.00  0.00     0.184 HD
ENDROOT
BRANCH   1   9
HETATM    9  C5  UNL     1      -0.559  -3.452  13.864  1.00  0.00     0.179 C 
BRANCH   9  10
HETATM   10  N1  UNL     1       0.107  -2.746  12.787  1.00  0.00    -0.370 N 
ATOM     11  H1  UNL     1      -0.440  -2.249  12.084  1.00  0.00     0.161 HD
BRANCH  10  12
HETATM   12  C4  UNL     1       1.416  -2.750  12.723  1.00  0.00     0.117 A 
HETATM   13  C3  UNL     1       2.202  -2.823  11.591  1.00  0.00     0.075 A 
HETATM   14  C2  UNL     1       3.542  -2.798  11.961  1.00  0.00     0.025 A 
HETATM   15  C1  UNL     1       4.744  -2.854  11.086  1.00  0.00     0.070 C 
HETATM   16  N6  UNL     1       3.525  -2.711  13.303  1.00  0.00    -0.304 N 
HETATM   17  N5  UNL     1       2.281  -2.682  13.751  1.00  0.00    -0.286 N 
ATOM     18  H6  UNL     1       4.355  -2.672  13.893  1.00  0.00     0.186 HD
ATOM     19  H5  UNL     1       2.016  -2.617  14.734  1.00  0.00     0.188 HD
ENDBRANCH  10  12
ENDBRANCH   9  10
ENDBRANCH   1   9
BRANCH   6  20
HETATM   20  N3  UNL     1       0.857  -8.029  13.715  1.00  0.00    -0.234 N 
ATOM     21  H32 UNL     1       1.048  -8.353  14.663  1.00  0.00     0.174 HD
ATOM     22  H31 UNL     1       1.369  -8.435  12.932  1.00  0.00     0.174 HD
ENDBRANCH   6  20
TORSDOF 4
ENDMDL
MODEL 5
REMARK VINA RESULT: -6.711685564      2.134      5.374
REMARK  4 active torsions:
REMARK  status: ('A' for Active; 'I' for Inactive)
REMARK    1  A    between atoms: C4_4  and  N1_5 
REMARK    2  A    between atoms: N1_5  and  C5_7 
REMARK    3  A    between atoms: C5_7  and  C6_8 
REMARK    4  A    between atoms: C9_13  and  N3_14 
ROOT
HETATM    1  C6  UNL     1       1.597  -2.844  12.803  1.00  0.00     0.045 A 
HETATM    2  C7  UNL     1       2.434  -2.834  11.689  1.00  0.00     0.045 A 
HETATM    3  C8  UNL     1       3.789  -2.731  11.845  1.00  0.00     0.108 A 
HETATM    4  N2  UNL     1       4.286  -2.640  13.095  1.00  0.00    -0.202 N 
ATOM      5  H2  UNL     1       5.295  -2.562  13.223  1.00  0.00     0.183 HD
HETATM    6  C9  UNL     1       3.495  -2.648  14.174  1.00  0.00     0.675 A 
HETATM    7  N4  UNL     1       2.170  -2.749  14.020  1.00  0.00    -0.194 N 
ATOM      8  H4  UNL     1       1.575  -2.754  14.849  1.00  0.00     0.184 HD
ENDROOT
BRANCH   1   9
HETATM    9  C5  UNL     1       0.155  -2.956  12.569  1.00  0.00     0.179 C 
BRANCH   9  10
HETATM   10  N1  UNL     1      -0.426  -3.988  13.406  1.00  0.00    -0.370 N 
ATOM     11  H1  UNL     1      -0.879  -3.740  14.285  1.00  0.00     0.161 HD
BRANCH  10  12
HETATM   12  C4  UNL     1      -0.365  -5.241  13.025  1.00  0.00     0.117 A 
HETATM   13  C3  UNL     1      -1.156  -6.288  13.450  1.00  0.00     0.075 A 
HETATM   14  C2  UNL     1      -0.765  -7.453  12.799  1.00  0.00     0.025 A 
HETATM   15  C1  UNL     1      -1.327  -8.823  12.938  1.00  0.00     0.070 C 
HETATM   16  N6  UNL     1       0.250  -7.074  12.001  1.00  0.00    -0.304 N 
HETATM   17  N5  UNL     1       0.485  -5.779  12.132  1.00  0.00    -0.286 N 
ATOM     18  H6  UNL     1       0.765  -7.698  11.382  1.00  0.00     0.186 HD
ATOM     19  H5  UNL     1       1.207  -5.263  11.627  1.00  0.00     0.188 HD
ENDBRANCH  10  12
ENDBRANCH   9  10
ENDBRANCH   1   9
BRANCH   6  20
HETATM   20  N3  UNL     1       4.044  -2.557  15.342  1.00  0.00    -0.234 N 
ATOM     21  H32 UNL     1       5.016  -2.819  15.503  1.00  0.00     0.174 HD
ATOM     22  H31 UNL     1       3.479  -2.213  16.118  1.00  0.00     0.174 HD
ENDBRANCH   6  20
TORSDOF 4
ENDMDL
