MODEL 1
REMARK VINA RESULT: -5.627727992      0.000      0.000
REMARK  5 active torsions:
REMARK  status: ('A' for Active; 'I' for Inactive)
REMARK    1  A    between atoms: C2_2  and  N1_3 
REMARK       I    between atoms: N1_3  and  C3_4 
REMARK       I    between atoms: C3_4  and  N2_6 
REMARK    2  A    between atoms: N2_6  and  N3_8 
REMARK    3  A    between atoms: N3_8  and  C4_10 
REMARK    4  A    between atoms: C4_10  and  N4_12 
REMARK    5  A    between atoms: N4_12  and  O2_14 
ROOT
HETATM    1  N3  UNL     1       0.450  -3.040  13.964  1.00  0.00    -0.270 N 
ATOM      2  H3  UNL     1       0.040  -2.150  14.247  1.00  0.00     0.189 HD
ENDROOT
BRANCH   1   3
HETATM    3  N2  UNL     1       1.791  -3.118  13.580  1.00  0.00    -0.237 N 
HETATM    4  C3  UNL     1       2.255  -2.698  12.259  1.00  0.00     0.411 C 
HETATM    5  N1  UNL     1       3.544  -2.739  11.924  1.00  0.00    -0.368 NA
HETATM    6  O1  UNL     1       1.239  -2.305  11.550  1.00  0.00    -0.228 OA
ATOM      7  H2  UNL     1       2.472  -3.481  14.247  1.00  0.00     0.193 HD
BRANCH   5   8
HETATM    8  C2  UNL     1       4.869  -2.782  11.578  1.00  0.00     0.156 C 
HETATM    9  C1  UNL     1       5.773  -2.467  12.767  1.00  0.00     0.071 C 
ENDBRANCH   5   8
ENDBRANCH   1   3
BRANCH   1  10
HETATM   10  C4  UNL     1      -0.336  -4.238  13.951  1.00  0.00     0.210 C 
HETATM   11  S1  UNL     1      -1.326  -4.591  15.170  1.00  0.00    -0.037 SA
BRANCH  10  12
HETATM   12  N4  UNL     1      -0.229  -5.114  12.854  1.00  0.00    -0.240 N 
ATOM     13  H4  UNL     1      -1.066  -5.220  12.281  1.00  0.00     0.197 HD
BRANCH  12  14
HETATM   14  O2  UNL     1       0.832  -5.821  12.474  1.00  0.00    -0.283 OA
HETATM   15  C5  UNL     1       0.581  -6.940  11.730  1.00  0.00     0.237 C 
ENDBRANCH  12  14
ENDBRANCH  10  12
ENDBRANCH   1  10
TORSDOF 5
ENDMDL
MODEL 2
REMARK VINA RESULT: -5.415610991      2.562      5.406
REMARK  5 active torsions:
REMARK  status: ('A' for Active; 'I' for Inactive)
REMARK    1  A    between atoms: C2_2  and  N1_3 
REMARK       I    between atoms: N1_3  and  C3_4 
REMARK       I    between atoms: C3_4  and  N2_6 
REMARK    2  A    between atoms: N2_6  and  N3_8 
REMARK    3  A    between atoms: N3_8  and  C4_10 
REMARK    4  A    between atoms: C4_10  and  N4_12 
REMARK    5  A    between atoms: N4_12  and  O2_14 
ROOT
HETATM    1  N3  UNL     1       0.959  -3.788  14.456  1.00  0.00    -0.270 N 
ATOM      2  H3  UNL     1       0.627  -3.455  15.362  1.00  0.00     0.189 HD
ENDROOT
BRANCH   1   3
HETATM    3  N2  UNL     1       0.464  -4.972  13.907  1.00  0.00    -0.237 N 
HETATM    4  C3  UNL     1      -0.961  -5.191  13.666  1.00  0.00     0.411 C 
HETATM    5  N1  UNL     1      -1.412  -6.311  13.101  1.00  0.00    -0.368 NA
HETATM    6  O1  UNL     1      -1.631  -4.154  14.072  1.00  0.00    -0.228 OA
ATOM      7  H2  UNL     1       1.122  -5.713  13.665  1.00  0.00     0.193 HD
BRANCH   5   8
HETATM    8  C2  UNL     1      -1.877  -7.462  12.521  1.00  0.00     0.156 C 
HETATM    9  C1  UNL     1      -1.077  -8.682  12.968  1.00  0.00     0.071 C 
ENDBRANCH   5   8
ENDBRANCH   1   3
BRANCH   1  10
HETATM   10  C4  UNL     1       1.941  -3.050  13.719  1.00  0.00     0.210 C 
HETATM   11  S1  UNL     1       1.776  -2.803  12.137  1.00  0.00    -0.037 SA
BRANCH  10  12
HETATM   12  N4  UNL     1       3.066  -2.542  14.397  1.00  0.00    -0.240 N 
ATOM     13  H4  UNL     1       2.923  -1.674  14.915  1.00  0.00     0.197 HD
BRANCH  12  14
HETATM   14  O2  UNL     1       4.291  -3.056  14.445  1.00  0.00    -0.283 OA
HETATM   15  C5  UNL     1       5.178  -2.602  13.509  1.00  0.00     0.237 C 
ENDBRANCH  12  14
ENDBRANCH  10  12
ENDBRANCH   1  10
TORSDOF 5
ENDMDL
MODEL 3
REMARK VINA RESULT: -5.391449276      1.568      1.657
REMARK  5 active torsions:
REMARK  status: ('A' for Active; 'I' for Inactive)
REMARK    1  A    between atoms: C2_2  and  N1_3 
REMARK       I    between atoms: N1_3  and  C3_4 
REMARK       I    between atoms: C3_4  and  N2_6 
REMARK    2  A    between atoms: N2_6  and  N3_8 
REMARK    3  A    between atoms: N3_8  and  C4_10 
REMARK    4  A    between atoms: C4_10  and  N4_12 
REMARK    5  A    between atoms: N4_12  and  O2_14 
ROOT
HETATM    1  N3  UNL     1       0.267  -3.794  14.744  1.00  0.00    -0.270 N 
ATOM      2  H3  UNL     1       0.623  -3.310  15.568  1.00  0.00     0.189 HD
ENDROOT
BRANCH   1   3
HETATM    3  N2  UNL     1       1.088  -4.015  13.636  1.00  0.00    -0.237 N 
HETATM    4  C3  UNL     1       1.547  -2.931  12.770  1.00  0.00     0.411 C 
HETATM    5  N1  UNL     1       2.364  -3.154  11.742  1.00  0.00    -0.368 NA
HETATM    6  O1  UNL     1       1.043  -1.806  13.183  1.00  0.00    -0.228 OA
ATOM      7  H2  UNL     1       1.378  -4.970  13.423  1.00  0.00     0.193 HD
BRANCH   5   8
HETATM    8  C2  UNL     1       3.205  -3.382  10.684  1.00  0.00     0.156 C 
HETATM    9  C1  UNL     1       4.604  -2.833  10.946  1.00  0.00     0.071 C 
ENDBRANCH   5   8
ENDBRANCH   1   3
BRANCH   1  10
HETATM   10  C4  UNL     1      -1.087  -4.263  14.697  1.00  0.00     0.210 C 
HETATM   11  S1  UNL     1      -1.884  -4.625  16.047  1.00  0.00    -0.037 SA
BRANCH  10  12
HETATM   12  N4  UNL     1      -1.716  -4.411  13.446  1.00  0.00    -0.240 N 
ATOM     13  H4  UNL     1      -2.552  -3.846  13.295  1.00  0.00     0.197 HD
BRANCH  12  14
HETATM   14  O2  UNL     1      -1.353  -5.199  12.438  1.00  0.00    -0.283 OA
HETATM   15  C5  UNL     1      -1.663  -6.525  12.561  1.00  0.00     0.237 C 
ENDBRANCH  12  14
ENDBRANCH  10  12
ENDBRANCH   1  10
TORSDOF 5
ENDMDL
MODEL 4
REMARK VINA RESULT: -5.293504510      1.650      1.738
REMARK  5 active torsions:
REMARK  status: ('A' for Active; 'I' for Inactive)
REMARK    1  A    between atoms: C2_2  and  N1_3 
REMARK       I    between atoms: N1_3  and  C3_4 
REMARK       I    between atoms: C3_4  and  N2_6 
REMARK    2  A    between atoms: N2_6  and  N3_8 
REMARK    3  A    between atoms: N3_8  and  C4_10 
REMARK    4  A    between atoms: C4_10  and  N4_12 
REMARK    5  A    between atoms: N4_12  and  O2_14 
ROOT
HETATM    1  N3  UNL     1      -0.994  -3.230  13.225  1.00  0.00    -0.270 N 
ATOM      2  H3  UNL     1      -1.401  -2.312  13.405  1.00  0.00     0.189 HD
ENDROOT
BRANCH   1   3
HETATM    3  N2  UNL     1       0.058  -3.380  12.319  1.00  0.00    -0.237 N 
HETATM    4  C3  UNL     1       1.303  -2.623  12.430  1.00  0.00     0.411 C 
HETATM    5  N1  UNL     1       2.314  -2.809  11.581  1.00  0.00    -0.368 NA
HETATM    6  O1  UNL     1       1.226  -1.811  13.442  1.00  0.00    -0.228 OA
ATOM      7  H2  UNL     1      -0.047  -4.043  11.551  1.00  0.00     0.193 HD
BRANCH   5   8
HETATM    8  C2  UNL     1       3.354  -3.000  10.709  1.00  0.00     0.156 C 
HETATM    9  C1  UNL     1       4.689  -2.589  11.324  1.00  0.00     0.071 C 
ENDBRANCH   5   8
ENDBRANCH   1   3
BRANCH   1  10
HETATM   10  C4  UNL     1      -1.489  -4.395  13.898  1.00  0.00     0.210 C 
HETATM   11  S1  UNL     1      -1.345  -4.553  15.493  1.00  0.00    -0.037 SA
BRANCH  10  12
HETATM   12  N4  UNL     1      -2.103  -5.411  13.142  1.00  0.00    -0.240 N 
ATOM     13  H4  UNL     1      -3.113  -5.507  13.256  1.00  0.00     0.197 HD
BRANCH  12  14
HETATM   14  O2  UNL     1      -1.528  -6.261  12.297  1.00  0.00    -0.283 OA
HETATM   15  C5  UNL     1      -1.370  -7.546  12.740  1.00  0.00     0.237 C 
ENDBRANCH  12  14
ENDBRANCH  10  12
ENDBRANCH   1  10
TORSDOF 5
ENDMDL
MODEL 5
REMARK VINA RESULT: -5.292241232      1.350      1.452
REMARK  5 active torsions:
REMARK  status: ('A' for Active; 'I' for Inactive)
REMARK    1  A    between atoms: C2_2  and  N1_3 
REMARK       I    between atoms: N1_3  and  C3_4 
REMARK       I    between atoms: C3_4  and  N2_6 
REMARK    2  A    between atoms: N2_6  and  N3_8 
REMARK    3  A    between atoms: N3_8  and  C4_10 
REMARK    4  A    between atoms: C4_10  and  N4_12 
REMARK    5  A    between atoms: N4_12  and  O2_14 
ROOT
HETATM    1  N3  UNL     1      -0.870  -3.511  13.442  1.00  0.00    -0.270 N 
ATOM      2  H3  UNL     1      -1.472  -2.694  13.545  1.00  0.00     0.189 HD
ENDROOT
BRANCH   1   3
HETATM    3  N2  UNL     1       0.122  -3.548  12.460  1.00  0.00    -0.237 N 
HETATM    4  C3  UNL     1       1.277  -2.651  12.477  1.00  0.00     0.411 C 
HETATM    5  N1  UNL     1       2.237  -2.727  11.556  1.00  0.00    -0.368 NA
HETATM    6  O1  UNL     1       1.183  -1.845  13.493  1.00  0.00    -0.228 OA
ATOM      7  H2  UNL     1       0.038  -4.225  11.702  1.00  0.00     0.193 HD
BRANCH   5   8
HETATM    8  C2  UNL     1       3.224  -2.805  10.609  1.00  0.00     0.156 C 
HETATM    9  C1  UNL     1       4.610  -2.621  11.221  1.00  0.00     0.071 C 
ENDBRANCH   5   8
ENDBRANCH   1   3
BRANCH   1  10
HETATM   10  C4  UNL     1      -1.024  -4.648  14.301  1.00  0.00     0.210 C 
HETATM   11  S1  UNL     1      -1.608  -4.485  15.792  1.00  0.00    -0.037 SA
BRANCH  10  12
HETATM   12  N4  UNL     1      -0.650  -5.919  13.826  1.00  0.00    -0.240 N 
ATOM     13  H4  UNL     1      -1.389  -6.622  13.798  1.00  0.00     0.197 HD
BRANCH  12  14
HETATM   14  O2  UNL     1       0.549  -6.316  13.411  1.00  0.00    -0.283 OA
HETATM   15  C5  UNL     1       0.574  -7.125  12.309  1.00  0.00     0.237 C 
ENDBRANCH  12  14
ENDBRANCH  10  12
ENDBRANCH   1  10
TORSDOF 5
ENDMDL
