MODEL 1
REMARK VINA RESULT: -6.713873831      0.000      0.000
REMARK  2 active torsions:
REMARK  status: ('A' for Active; 'I' for Inactive)
REMARK    1  A    between atoms: C5_5  and  C6_6 
REMARK       I    between atoms: C6_6  and  N1_8 
REMARK    2  A    between atoms: N1_8  and  N2_10 
REMARK       I    between atoms: N2_10  and  C7_12 
ROOT
HETATM    1  C6  UNL     1       1.376  -3.574  12.392  1.00  0.00     0.270 C 
HETATM    2  O1  UNL     1       0.932  -2.485  12.889  1.00  0.00    -0.266 OA
HETATM    3  N1  UNL     1       2.561  -3.525  11.661  1.00  0.00    -0.263 N 
ATOM      4  H1  UNL     1       2.913  -4.396  11.266  1.00  0.00     0.190 HD
ENDROOT
BRANCH   1   5
HETATM    5  C5  UNL     1       0.655  -4.820  12.593  1.00  0.00     0.033 A 
HETATM    6  C4  UNL     1      -0.298  -4.983  13.560  1.00  0.00     0.017 A 
HETATM    7  C3  UNL     1      -0.975  -6.186  13.731  1.00  0.00     0.007 A 
HETATM    8  C2  UNL     1      -0.679  -7.240  12.909  1.00  0.00    -0.062 A 
HETATM    9  C1  UNL     1      -1.390  -8.547  13.069  1.00  0.00     0.048 C 
HETATM   10  C9  UNL     1       0.278  -7.103  11.926  1.00  0.00     0.007 A 
HETATM   11  C8  UNL     1       0.940  -5.910  11.765  1.00  0.00     0.017 A 
ENDBRANCH   1   5
BRANCH   3  12
HETATM   12  N2  UNL     1       3.300  -2.359  11.433  1.00  0.00    -0.271 N 
HETATM   13  C7  UNL     1       4.634  -2.339  11.918  1.00  0.00     0.200 C 
HETATM   14  N3  UNL     1       5.011  -2.802  13.058  1.00  0.00    -0.372 N 
HETATM   15  N4  UNL     1       5.613  -1.762  11.065  1.00  0.00    -0.062 NA
ATOM     16  H32 UNL     1       4.309  -3.216  13.671  1.00  0.00     0.158 HD
ATOM     17  H31 UNL     1       5.969  -2.788  13.406  1.00  0.00     0.158 HD
ATOM     18  H2  UNL     1       2.899  -1.560  10.942  1.00  0.00     0.189 HD
ENDBRANCH   3  12
TORSDOF 2
ENDMDL
MODEL 2
REMARK VINA RESULT: -6.533273457      0.142      1.277
REMARK  2 active torsions:
REMARK  status: ('A' for Active; 'I' for Inactive)
REMARK    1  A    between atoms: C5_5  and  C6_6 
REMARK       I    between atoms: C6_6  and  N1_8 
REMARK    2  A    between atoms: N1_8  and  N2_10 
REMARK       I    between atoms: N2_10  and  C7_12 
ROOT
HETATM    1  C6  UNL     1       1.465  -3.644  12.238  1.00  0.00     0.270 C 
HETATM    2  O1  UNL     1       0.981  -2.563  12.715  1.00  0.00    -0.266 OA
HETATM    3  N1  UNL     1       2.668  -3.572  11.541  1.00  0.00    -0.263 N 
ATOM      4  H1  UNL     1       3.052  -4.438  11.162  1.00  0.00     0.190 HD
ENDROOT
BRANCH   1   5
HETATM    5  C5  UNL     1       0.767  -4.905  12.427  1.00  0.00     0.033 A 
HETATM    6  C4  UNL     1       0.997  -6.009  11.654  1.00  0.00     0.017 A 
HETATM    7  C3  UNL     1       0.316  -7.205  11.855  1.00  0.00     0.007 A 
HETATM    8  C2  UNL     1      -0.613  -7.282  12.857  1.00  0.00    -0.062 A 
HETATM    9  C1  UNL     1      -1.363  -8.554  13.099  1.00  0.00     0.048 C 
HETATM   10  C9  UNL     1      -0.866  -6.183  13.653  1.00  0.00     0.007 A 
HETATM   11  C8  UNL     1      -0.187  -5.008  13.445  1.00  0.00     0.017 A 
ENDBRANCH   1   5
BRANCH   3  12
HETATM   12  N2  UNL     1       3.386  -2.390  11.326  1.00  0.00    -0.271 N 
HETATM   13  C7  UNL     1       4.689  -2.320  11.886  1.00  0.00     0.200 C 
HETATM   14  N3  UNL     1       5.012  -2.744  13.057  1.00  0.00    -0.372 N 
HETATM   15  N4  UNL     1       5.699  -1.735  11.076  1.00  0.00    -0.062 NA
ATOM     16  H32 UNL     1       4.287  -3.164  13.639  1.00  0.00     0.158 HD
ATOM     17  H31 UNL     1       5.948  -2.694  13.459  1.00  0.00     0.158 HD
ATOM     18  H2  UNL     1       2.992  -1.616  10.792  1.00  0.00     0.189 HD
ENDBRANCH   3  12
TORSDOF 2
ENDMDL
MODEL 3
REMARK VINA RESULT: -6.320397559      3.551      6.426
REMARK  2 active torsions:
REMARK  status: ('A' for Active; 'I' for Inactive)
REMARK    1  A    between atoms: C5_5  and  C6_6 
REMARK       I    between atoms: C6_6  and  N1_8 
REMARK    2  A    between atoms: N1_8  and  N2_10 
REMARK       I    between atoms: N2_10  and  C7_12 
ROOT
HETATM    1  C6  UNL     1       4.048  -2.912  11.032  1.00  0.00     0.270 C 
HETATM    2  O1  UNL     1       4.959  -3.202  11.878  1.00  0.00    -0.266 OA
HETATM    3  N1  UNL     1       2.772  -2.627  11.513  1.00  0.00    -0.263 N 
ATOM      4  H1  UNL     1       2.048  -2.394  10.834  1.00  0.00     0.190 HD
ENDROOT
BRANCH   1   5
HETATM    5  C5  UNL     1       4.350  -2.883   9.610  1.00  0.00     0.033 A 
HETATM    6  C4  UNL     1       3.454  -2.470   8.664  1.00  0.00     0.017 A 
HETATM    7  C3  UNL     1       3.768  -2.451   7.309  1.00  0.00     0.007 A 
HETATM    8  C2  UNL     1       5.012  -2.859   6.908  1.00  0.00    -0.062 A 
HETATM    9  C1  UNL     1       5.379  -2.851   5.458  1.00  0.00     0.048 C 
HETATM   10  C9  UNL     1       5.935  -3.282   7.841  1.00  0.00     0.007 A 
HETATM   11  C8  UNL     1       5.614  -3.295   9.176  1.00  0.00     0.017 A 
ENDBRANCH   1   5
BRANCH   3  12
HETATM   12  N2  UNL     1       2.420  -2.638  12.867  1.00  0.00    -0.271 N 
HETATM   13  C7  UNL     1       1.107  -3.075  13.185  1.00  0.00     0.200 C 
HETATM   14  N3  UNL     1       0.046  -2.762  12.526  1.00  0.00    -0.372 N 
HETATM   15  N4  UNL     1       0.974  -3.921  14.318  1.00  0.00    -0.062 NA
ATOM     16  H32 UNL     1       0.141  -2.154  11.713  1.00  0.00     0.158 HD
ATOM     17  H31 UNL     1      -0.897  -3.076  12.754  1.00  0.00     0.158 HD
ATOM     18  H2  UNL     1       3.075  -2.346  13.592  1.00  0.00     0.189 HD
ENDBRANCH   3  12
TORSDOF 2
ENDMDL
MODEL 4
REMARK VINA RESULT: -6.302589757      3.556      6.480
REMARK  2 active torsions:
REMARK  status: ('A' for Active; 'I' for Inactive)
REMARK    1  A    between atoms: C5_5  and  C6_6 
REMARK       I    between atoms: C6_6  and  N1_8 
REMARK    2  A    between atoms: N1_8  and  N2_10 
REMARK       I    between atoms: N2_10  and  C7_12 
ROOT
HETATM    1  C6  UNL     1       4.115  -2.927  11.032  1.00  0.00     0.270 C 
HETATM    2  O1  UNL     1       5.012  -3.215  11.893  1.00  0.00    -0.266 OA
HETATM    3  N1  UNL     1       2.834  -2.631  11.493  1.00  0.00    -0.263 N 
ATOM      4  H1  UNL     1       2.121  -2.401  10.802  1.00  0.00     0.190 HD
ENDROOT
BRANCH   1   5
HETATM    5  C5  UNL     1       4.437  -2.913   9.614  1.00  0.00     0.033 A 
HETATM    6  C4  UNL     1       5.656  -3.289   9.122  1.00  0.00     0.017 A 
HETATM    7  C3  UNL     1       5.939  -3.267   7.761  1.00  0.00     0.007 A 
HETATM    8  C2  UNL     1       4.970  -2.857   6.885  1.00  0.00    -0.062 A 
HETATM    9  C1  UNL     1       5.245  -2.822   5.414  1.00  0.00     0.048 C 
HETATM   10  C9  UNL     1       3.732  -2.472   7.354  1.00  0.00     0.007 A 
HETATM   11  C8  UNL     1       3.463  -2.499   8.700  1.00  0.00     0.017 A 
ENDBRANCH   1   5
BRANCH   3  12
HETATM   12  N2  UNL     1       2.463  -2.628  12.842  1.00  0.00    -0.271 N 
HETATM   13  C7  UNL     1       1.149  -3.071  13.147  1.00  0.00     0.200 C 
HETATM   14  N3  UNL     1       0.096  -2.775  12.470  1.00  0.00    -0.372 N 
HETATM   15  N4  UNL     1       1.007  -3.904  14.289  1.00  0.00    -0.062 NA
ATOM     16  H32 UNL     1       0.197  -2.176  11.650  1.00  0.00     0.158 HD
ATOM     17  H31 UNL     1      -0.848  -3.093  12.689  1.00  0.00     0.158 HD
ATOM     18  H2  UNL     1       3.106  -2.322  13.572  1.00  0.00     0.189 HD
ENDBRANCH   3  12
TORSDOF 2
ENDMDL
MODEL 5
REMARK VINA RESULT: -6.223715495      3.044      5.847
REMARK  2 active torsions:
REMARK  status: ('A' for Active; 'I' for Inactive)
REMARK    1  A    between atoms: C5_5  and  C6_6 
REMARK       I    between atoms: C6_6  and  N1_8 
REMARK    2  A    between atoms: N1_8  and  N2_10 
REMARK       I    between atoms: N2_10  and  C7_12 
ROOT
HETATM    1  C6  UNL     1       2.257  -2.966  12.434  1.00  0.00     0.270 C 
HETATM    2  O1  UNL     1       2.601  -3.033  13.662  1.00  0.00    -0.266 OA
HETATM    3  N1  UNL     1       0.913  -2.753  12.140  1.00  0.00    -0.263 N 
ATOM      4  H1  UNL     1       0.643  -2.699  11.159  1.00  0.00     0.190 HD
ENDROOT
BRANCH   1   5
HETATM    5  C5  UNL     1       3.254  -3.110  11.386  1.00  0.00     0.033 A 
HETATM    6  C4  UNL     1       4.452  -2.452  11.398  1.00  0.00     0.017 A 
HETATM    7  C3  UNL     1       5.389  -2.607  10.383  1.00  0.00     0.007 A 
HETATM    8  C2  UNL     1       5.106  -3.444   9.337  1.00  0.00    -0.062 A 
HETATM    9  C1  UNL     1       6.094  -3.632   8.229  1.00  0.00     0.048 C 
HETATM   10  C9  UNL     1       3.905  -4.121   9.299  1.00  0.00     0.007 A 
HETATM   11  C8  UNL     1       2.987  -3.960  10.307  1.00  0.00     0.017 A 
ENDBRANCH   1   5
BRANCH   3  12
HETATM   12  N2  UNL     1      -0.092  -2.607  13.103  1.00  0.00    -0.271 N 
HETATM   13  C7  UNL     1      -0.891  -3.748  13.375  1.00  0.00     0.200 C 
HETATM   14  N3  UNL     1      -1.343  -4.561  12.486  1.00  0.00    -0.372 N 
HETATM   15  N4  UNL     1      -1.203  -3.996  14.739  1.00  0.00    -0.062 NA
ATOM     16  H32 UNL     1      -1.119  -4.383  11.507  1.00  0.00     0.158 HD
ATOM     17  H31 UNL     1      -1.917  -5.380  12.681  1.00  0.00     0.158 HD
ATOM     18  H2  UNL     1      -0.243  -1.722  13.587  1.00  0.00     0.189 HD
ENDBRANCH   3  12
TORSDOF 2
ENDMDL
