MODEL 1
REMARK VINA RESULT: -9.636125991      0.000      0.000
REMARK  11 active torsions:
REMARK  status: ('A' for Active; 'I' for Inactive)
REMARK    1  A    between atoms: C3_3  and  O1_4 
REMARK    2  A    between atoms: O1_4  and  C4_5 
REMARK    3  A    between atoms: C4_5  and  C5_6 
REMARK    4  A    between atoms: C5_6  and  C6_7 
REMARK    5  A    between atoms: C6_7  and  C7_8 
REMARK    6  A    between atoms: C7_8  and  C8_9 
REMARK    7  A    between atoms: C8_9  and  C9_10 
REMARK    8  A    between atoms: C9_10  and  C10_11 
REMARK    9  A    between atoms: C10_11  and  C11_12 
REMARK   10  A    between atoms: C11_12  and  C12_13 
REMARK   11  A    between atoms: C18_22  and  C19_23 
ROOT
HETATM    1  C1  UNL     1      24.970   1.537  10.565  1.00  0.00     0.004 A 
HETATM    2  C2  UNL     1      24.934   0.575   9.555  1.00  0.00     0.037 A 
HETATM    3  C3  UNL     1      24.330   0.851   8.349  1.00  0.00     0.069 A 
HETATM    4  C17 UNL     1      23.752   2.124   8.155  1.00  0.00     0.050 A 
HETATM    5  C18 UNL     1      23.780   3.077   9.137  1.00  0.00    -0.004 A 
HETATM    6  C25 UNL     1      24.393   2.768  10.336  1.00  0.00     0.014 A 
ENDROOT
BRANCH   3   7
HETATM    7  O1  UNL     1      24.251  -0.027   7.325  1.00  0.00    -0.351 OA
BRANCH   7   8
HETATM    8  C4  UNL     1      24.471  -1.370   7.177  1.00  0.00     0.175 C 
BRANCH   8   9
HETATM    9  C5  UNL     1      25.856  -1.830   6.909  1.00  0.00     0.027 C 
BRANCH   9  10
HETATM   10  C6  UNL     1      26.523  -2.219   8.215  1.00  0.00     0.002 C 
BRANCH  10  11
HETATM   11  C7  UNL     1      27.992  -1.970   8.264  1.00  0.00     0.000 C 
BRANCH  11  12
HETATM   12  C8  UNL     1      28.274  -0.727   9.065  1.00  0.00     0.000 C 
BRANCH  12  13
HETATM   13  C9  UNL     1      28.618   0.409   8.174  1.00  0.00     0.000 C 
BRANCH  13  14
HETATM   14  C10 UNL     1      29.767   0.081   7.231  1.00  0.00     0.000 C 
BRANCH  14  15
HETATM   15  C11 UNL     1      29.322   0.077   5.796  1.00  0.00     0.005 C 
BRANCH  15  16
HETATM   16  C12 UNL     1      30.515  -0.142   4.906  1.00  0.00    -0.011 C 
HETATM   17  C13 UNL     1      30.952  -1.582   4.877  1.00  0.00     0.032 C 
HETATM   18  C14 UNL     1      32.443  -1.730   4.992  1.00  0.00     0.232 C 
HETATM   19  N1  UNL     1      33.107  -0.779   4.119  1.00  0.00    -0.075 N 
HETATM   20  C15 UNL     1      32.874   0.592   4.514  1.00  0.00     0.232 C 
ATOM     21  H12 UNL     1      34.106  -0.977   4.052  1.00  0.00     0.277 HD
ATOM     22  H11 UNL     1      32.844  -0.929   3.144  1.00  0.00     0.277 HD
HETATM   23  C16 UNL     1      31.663   0.693   5.434  1.00  0.00     0.032 C 
ENDBRANCH  15  16
ENDBRANCH  14  15
ENDBRANCH  13  14
ENDBRANCH  12  13
ENDBRANCH  11  12
ENDBRANCH  10  11
ENDBRANCH   9  10
ENDBRANCH   8   9
ENDBRANCH   7   8
ENDBRANCH   3   7
BRANCH   5  24
HETATM   24  C19 UNL     1      23.196   4.406   8.980  1.00  0.00     0.071 A 
HETATM   25  N2  UNL     1      23.923   5.413   8.456  1.00  0.00    -0.363 N 
HETATM   26  C20 UNL     1      23.425   6.659   8.290  1.00  0.00     0.090 A 
ATOM     27  H2  UNL     1      24.885   5.227   8.173  1.00  0.00     0.165 HD
HETATM   28  C21 UNL     1      22.132   6.979   8.651  1.00  0.00     0.049 A 
HETATM   29  C22 UNL     1      21.354   5.968   9.193  1.00  0.00     0.063 A 
HETATM   30  N3  UNL     1      20.076   5.957   9.637  1.00  0.00    -0.350 N 
HETATM   31  C24 UNL     1      21.899   4.704   9.347  1.00  0.00     0.088 A 
HETATM   32  C23 UNL     1      19.822   4.704  10.064  1.00  0.00     0.181 A 
ATOM     33  H3  UNL     1      19.429   6.746   9.647  1.00  0.00     0.166 HD
HETATM   34  N4  UNL     1      20.924   3.949   9.888  1.00  0.00    -0.349 N 
ATOM     35  H4  UNL     1      21.007   2.960  10.126  1.00  0.00     0.167 HD
ENDBRANCH   5  24
TORSDOF 11
ENDMDL
MODEL 2
REMARK VINA RESULT: -9.461765178      0.784      1.718
REMARK  11 active torsions:
REMARK  status: ('A' for Active; 'I' for Inactive)
REMARK    1  A    between atoms: C3_3  and  O1_4 
REMARK    2  A    between atoms: O1_4  and  C4_5 
REMARK    3  A    between atoms: C4_5  and  C5_6 
REMARK    4  A    between atoms: C5_6  and  C6_7 
REMARK    5  A    between atoms: C6_7  and  C7_8 
REMARK    6  A    between atoms: C7_8  and  C8_9 
REMARK    7  A    between atoms: C8_9  and  C9_10 
REMARK    8  A    between atoms: C9_10  and  C10_11 
REMARK    9  A    between atoms: C10_11  and  C11_12 
REMARK   10  A    between atoms: C11_12  and  C12_13 
REMARK   11  A    between atoms: C18_22  and  C19_23 
ROOT
HETATM    1  C1  UNL     1      25.396   1.354  10.528  1.00  0.00     0.004 A 
HETATM    2  C2  UNL     1      25.473   0.436   9.479  1.00  0.00     0.037 A 
HETATM    3  C3  UNL     1      24.607   0.521   8.412  1.00  0.00     0.069 A 
HETATM    4  C17 UNL     1      23.644   1.553   8.401  1.00  0.00     0.050 A 
HETATM    5  C18 UNL     1      23.558   2.459   9.423  1.00  0.00    -0.004 A 
HETATM    6  C25 UNL     1      24.441   2.346  10.478  1.00  0.00     0.014 A 
ENDROOT
BRANCH   3   7
HETATM    7  O1  UNL     1      24.616  -0.329   7.363  1.00  0.00    -0.351 OA
BRANCH   7   8
HETATM    8  C4  UNL     1      25.016  -1.623   7.163  1.00  0.00     0.175 C 
BRANCH   8   9
HETATM    9  C5  UNL     1      26.430  -1.873   6.791  1.00  0.00     0.027 C 
BRANCH   9  10
HETATM   10  C6  UNL     1      27.222  -2.247   8.030  1.00  0.00     0.002 C 
BRANCH  10  11
HETATM   11  C7  UNL     1      28.665  -1.874   7.985  1.00  0.00     0.000 C 
BRANCH  11  12
HETATM   12  C8  UNL     1      28.933  -0.750   8.950  1.00  0.00     0.000 C 
BRANCH  12  13
HETATM   13  C9  UNL     1      29.176   0.522   8.225  1.00  0.00     0.000 C 
BRANCH  13  14
HETATM   14  C10 UNL     1      30.292   0.401   7.197  1.00  0.00     0.000 C 
BRANCH  14  15
HETATM   15  C11 UNL     1      29.755   0.384   5.794  1.00  0.00     0.005 C 
BRANCH  15  16
HETATM   16  C12 UNL     1      30.843  -0.048   4.850  1.00  0.00    -0.011 C 
HETATM   17  C13 UNL     1      31.126  -1.524   4.937  1.00  0.00     0.032 C 
HETATM   18  C14 UNL     1      32.598  -1.825   4.962  1.00  0.00     0.232 C 
HETATM   19  N1  UNL     1      33.284  -1.039   3.952  1.00  0.00    -0.075 N 
HETATM   20  C15 UNL     1      33.226   0.380   4.221  1.00  0.00     0.232 C 
ATOM     21  H12 UNL     1      34.248  -1.351   3.836  1.00  0.00     0.277 HD
ATOM     22  H11 UNL     1      32.929  -1.250   3.019  1.00  0.00     0.277 HD
HETATM   23  C16 UNL     1      32.111   0.700   5.209  1.00  0.00     0.032 C 
ENDBRANCH  15  16
ENDBRANCH  14  15
ENDBRANCH  13  14
ENDBRANCH  12  13
ENDBRANCH  11  12
ENDBRANCH  10  11
ENDBRANCH   9  10
ENDBRANCH   8   9
ENDBRANCH   7   8
ENDBRANCH   3   7
BRANCH   5  24
HETATM   24  C19 UNL     1      22.578   3.542   9.452  1.00  0.00     0.071 A 
HETATM   25  N2  UNL     1      21.333   3.322   9.920  1.00  0.00    -0.363 N 
HETATM   26  C20 UNL     1      20.392   4.292   9.967  1.00  0.00     0.090 A 
ATOM     27  H2  UNL     1      21.093   2.389  10.253  1.00  0.00     0.165 HD
HETATM   28  C21 UNL     1      20.651   5.577   9.534  1.00  0.00     0.049 A 
HETATM   29  C22 UNL     1      21.922   5.840   9.045  1.00  0.00     0.063 A 
HETATM   30  N3  UNL     1      22.480   6.971   8.556  1.00  0.00    -0.350 N 
HETATM   31  C24 UNL     1      22.859   4.820   9.013  1.00  0.00     0.088 A 
HETATM   32  C23 UNL     1      23.750   6.666   8.221  1.00  0.00     0.181 A 
ATOM     33  H3  UNL     1      22.028   7.880   8.459  1.00  0.00     0.166 HD
HETATM   34  N4  UNL     1      23.976   5.366   8.498  1.00  0.00    -0.349 N 
ATOM     35  H4  UNL     1      24.856   4.874   8.343  1.00  0.00     0.167 HD
ENDBRANCH   5  24
TORSDOF 11
ENDMDL
MODEL 3
REMARK VINA RESULT: -9.451035851      1.319      2.404
REMARK  11 active torsions:
REMARK  status: ('A' for Active; 'I' for Inactive)
REMARK    1  A    between atoms: C3_3  and  O1_4 
REMARK    2  A    between atoms: O1_4  and  C4_5 
REMARK    3  A    between atoms: C4_5  and  C5_6 
REMARK    4  A    between atoms: C5_6  and  C6_7 
REMARK    5  A    between atoms: C6_7  and  C7_8 
REMARK    6  A    between atoms: C7_8  and  C8_9 
REMARK    7  A    between atoms: C8_9  and  C9_10 
REMARK    8  A    between atoms: C9_10  and  C10_11 
REMARK    9  A    between atoms: C10_11  and  C11_12 
REMARK   10  A    between atoms: C11_12  and  C12_13 
REMARK   11  A    between atoms: C18_22  and  C19_23 
ROOT
HETATM    1  C1  UNL     1      25.405   1.096  10.541  1.00  0.00     0.004 A 
HETATM    2  C2  UNL     1      25.682   0.114   9.589  1.00  0.00     0.037 A 
HETATM    3  C3  UNL     1      24.974   0.066   8.410  1.00  0.00     0.069 A 
HETATM    4  C17 UNL     1      23.966   1.028   8.184  1.00  0.00     0.050 A 
HETATM    5  C18 UNL     1      23.683   1.996   9.109  1.00  0.00    -0.004 A 
HETATM    6  C25 UNL     1      24.412   2.016  10.282  1.00  0.00     0.014 A 
ENDROOT
BRANCH   3   7
HETATM    7  O1  UNL     1      25.181  -0.853   7.442  1.00  0.00    -0.351 OA
BRANCH   7   8
HETATM    8  C4  UNL     1      26.180  -1.739   7.140  1.00  0.00     0.175 C 
BRANCH   8   9
HETATM    9  C5  UNL     1      27.538  -1.206   6.873  1.00  0.00     0.027 C 
BRANCH   9  10
HETATM   10  C6  UNL     1      28.483  -1.649   7.974  1.00  0.00     0.002 C 
BRANCH  10  11
HETATM   11  C7  UNL     1      29.329  -0.562   8.545  1.00  0.00     0.000 C 
BRANCH  11  12
HETATM   12  C8  UNL     1      30.614  -0.451   7.768  1.00  0.00     0.000 C 
BRANCH  12  13
HETATM   13  C9  UNL     1      31.012  -1.768   7.213  1.00  0.00     0.000 C 
BRANCH  13  14
HETATM   14  C10 UNL     1      31.492  -1.671   5.772  1.00  0.00     0.000 C 
BRANCH  14  15
HETATM   15  C11 UNL     1      31.446  -0.256   5.266  1.00  0.00     0.005 C 
BRANCH  15  16
HETATM   16  C12 UNL     1      32.526  -0.061   4.239  1.00  0.00    -0.011 C 
HETATM   17  C13 UNL     1      33.237  -1.344   3.901  1.00  0.00     0.032 C 
HETATM   18  C14 UNL     1      34.729  -1.174   3.839  1.00  0.00     0.232 C 
HETATM   19  N1  UNL     1      35.063   0.028   3.096  1.00  0.00    -0.075 N 
HETATM   20  C15 UNL     1      34.614   1.232   3.758  1.00  0.00     0.232 C 
ATOM     21  H12 UNL     1      36.062   0.070   2.895  1.00  0.00     0.277 HD
ATOM     22  H11 UNL     1      34.705  -0.020   2.141  1.00  0.00     0.277 HD
HETATM   23  C16 UNL     1      33.544   0.914   4.796  1.00  0.00     0.032 C 
ENDBRANCH  15  16
ENDBRANCH  14  15
ENDBRANCH  13  14
ENDBRANCH  12  13
ENDBRANCH  11  12
ENDBRANCH  10  11
ENDBRANCH   9  10
ENDBRANCH   8   9
ENDBRANCH   7   8
ENDBRANCH   3   7
BRANCH   5  24
HETATM   24  C19 UNL     1      22.650   3.009   8.916  1.00  0.00     0.071 A 
HETATM   25  N2  UNL     1      21.346   2.681   9.018  1.00  0.00    -0.363 N 
HETATM   26  C20 UNL     1      20.354   3.584   8.848  1.00  0.00     0.090 A 
ATOM     27  H2  UNL     1      21.099   1.715   9.231  1.00  0.00     0.165 HD
HETATM   28  C21 UNL     1      20.617   4.908   8.558  1.00  0.00     0.049 A 
HETATM   29  C22 UNL     1      21.948   5.282   8.447  1.00  0.00     0.063 A 
HETATM   30  N3  UNL     1      22.526   6.475   8.178  1.00  0.00    -0.350 N 
HETATM   31  C24 UNL     1      22.936   4.328   8.628  1.00  0.00     0.088 A 
HETATM   32  C23 UNL     1      23.859   6.273   8.190  1.00  0.00     0.181 A 
ATOM     33  H3  UNL     1      22.046   7.357   8.001  1.00  0.00     0.166 HD
HETATM   34  N4  UNL     1      24.104   4.976   8.461  1.00  0.00    -0.349 N 
ATOM     35  H4  UNL     1      25.029   4.552   8.531  1.00  0.00     0.167 HD
ENDBRANCH   5  24
TORSDOF 11
ENDMDL
MODEL 4
REMARK VINA RESULT: -9.072745403      1.921      3.142
REMARK  11 active torsions:
REMARK  status: ('A' for Active; 'I' for Inactive)
REMARK    1  A    between atoms: C3_3  and  O1_4 
REMARK    2  A    between atoms: O1_4  and  C4_5 
REMARK    3  A    between atoms: C4_5  and  C5_6 
REMARK    4  A    between atoms: C5_6  and  C6_7 
REMARK    5  A    between atoms: C6_7  and  C7_8 
REMARK    6  A    between atoms: C7_8  and  C8_9 
REMARK    7  A    between atoms: C8_9  and  C9_10 
REMARK    8  A    between atoms: C9_10  and  C10_11 
REMARK    9  A    between atoms: C10_11  and  C11_12 
REMARK   10  A    between atoms: C11_12  and  C12_13 
REMARK   11  A    between atoms: C18_22  and  C19_23 
ROOT
HETATM    1  C1  UNL     1      21.589   3.818   7.198  1.00  0.00     0.004 A 
HETATM    2  C2  UNL     1      22.453   3.008   7.936  1.00  0.00     0.037 A 
HETATM    3  C3  UNL     1      22.865   3.390   9.193  1.00  0.00     0.069 A 
HETATM    4  C17 UNL     1      22.395   4.614   9.718  1.00  0.00     0.050 A 
HETATM    5  C18 UNL     1      21.547   5.418   9.004  1.00  0.00    -0.004 A 
HETATM    6  C25 UNL     1      21.154   5.005   7.746  1.00  0.00     0.014 A 
ENDROOT
BRANCH   3   7
HETATM    7  O1  UNL     1      23.700   2.665   9.967  1.00  0.00    -0.351 OA
BRANCH   7   8
HETATM    8  C4  UNL     1      24.120   1.362   9.989  1.00  0.00     0.175 C 
BRANCH   8   9
HETATM    9  C5  UNL     1      25.552   1.088  10.265  1.00  0.00     0.027 C 
BRANCH   9  10
HETATM   10  C6  UNL     1      26.027  -0.058   9.391  1.00  0.00     0.002 C 
BRANCH  10  11
HETATM   11  C7  UNL     1      26.890   0.349   8.245  1.00  0.00     0.000 C 
BRANCH  11  12
HETATM   12  C8  UNL     1      27.041  -0.801   7.284  1.00  0.00     0.000 C 
BRANCH  12  13
HETATM   13  C9  UNL     1      27.937  -1.842   7.844  1.00  0.00     0.000 C 
BRANCH  13  14
HETATM   14  C10 UNL     1      29.403  -1.437   7.791  1.00  0.00     0.000 C 
BRANCH  14  15
HETATM   15  C11 UNL     1      30.135  -2.144   6.686  1.00  0.00     0.005 C 
BRANCH  15  16
HETATM   16  C12 UNL     1      31.281  -1.287   6.221  1.00  0.00    -0.011 C 
HETATM   17  C13 UNL     1      30.985   0.183   6.340  1.00  0.00     0.032 C 
HETATM   18  C14 UNL     1      31.406   0.954   5.121  1.00  0.00     0.232 C 
HETATM   19  N1  UNL     1      32.734   0.539   4.704  1.00  0.00    -0.075 N 
HETATM   20  C15 UNL     1      32.771  -0.837   4.263  1.00  0.00     0.232 C 
ATOM     21  H12 UNL     1      33.106   1.164   3.989  1.00  0.00     0.277 HD
ATOM     22  H11 UNL     1      33.419   0.706   5.442  1.00  0.00     0.277 HD
HETATM   23  C16 UNL     1      31.551  -1.601   4.764  1.00  0.00     0.032 C 
ENDBRANCH  15  16
ENDBRANCH  14  15
ENDBRANCH  13  14
ENDBRANCH  12  13
ENDBRANCH  11  12
ENDBRANCH  10  11
ENDBRANCH   9  10
ENDBRANCH   8   9
ENDBRANCH   7   8
ENDBRANCH   3   7
BRANCH   5  24
HETATM   24  C19 UNL     1      21.037   6.689   9.508  1.00  0.00     0.071 A 
HETATM   25  N2  UNL     1      21.696   7.838   9.252  1.00  0.00    -0.363 N 
HETATM   26  C20 UNL     1      21.263   9.039   9.697  1.00  0.00     0.090 A 
ATOM     27  H2  UNL     1      22.553   7.798   8.701  1.00  0.00     0.165 HD
HETATM   28  C21 UNL     1      20.111   9.164  10.447  1.00  0.00     0.049 A 
HETATM   29  C22 UNL     1      19.407   8.004  10.730  1.00  0.00     0.063 A 
HETATM   30  N3  UNL     1      18.266   7.792  11.425  1.00  0.00    -0.350 N 
HETATM   31  C24 UNL     1      19.882   6.791  10.257  1.00  0.00     0.088 A 
HETATM   32  C23 UNL     1      18.027   6.465  11.389  1.00  0.00     0.181 A 
ATOM     33  H3  UNL     1      17.695   8.500  11.888  1.00  0.00     0.166 HD
HETATM   34  N4  UNL     1      19.005   5.864  10.683  1.00  0.00    -0.349 N 
ATOM     35  H4  UNL     1      19.070   4.862  10.500  1.00  0.00     0.167 HD
ENDBRANCH   5  24
TORSDOF 11
ENDMDL
MODEL 5
REMARK VINA RESULT: -9.056334845      1.729      2.227
REMARK  11 active torsions:
REMARK  status: ('A' for Active; 'I' for Inactive)
REMARK    1  A    between atoms: C3_3  and  O1_4 
REMARK    2  A    between atoms: O1_4  and  C4_5 
REMARK    3  A    between atoms: C4_5  and  C5_6 
REMARK    4  A    between atoms: C5_6  and  C6_7 
REMARK    5  A    between atoms: C6_7  and  C7_8 
REMARK    6  A    between atoms: C7_8  and  C8_9 
REMARK    7  A    between atoms: C8_9  and  C9_10 
REMARK    8  A    between atoms: C9_10  and  C10_11 
REMARK    9  A    between atoms: C10_11  and  C11_12 
REMARK   10  A    between atoms: C11_12  and  C12_13 
REMARK   11  A    between atoms: C18_22  and  C19_23 
ROOT
HETATM    1  C1  UNL     1      25.758   0.889  10.231  1.00  0.00     0.004 A 
HETATM    2  C2  UNL     1      26.121  -0.100   9.316  1.00  0.00     0.037 A 
HETATM    3  C3  UNL     1      25.394  -0.284   8.161  1.00  0.00     0.069 A 
HETATM    4  C17 UNL     1      24.278   0.548   7.922  1.00  0.00     0.050 A 
HETATM    5  C18 UNL     1      23.911   1.521   8.811  1.00  0.00    -0.004 A 
HETATM    6  C25 UNL     1      24.661   1.679   9.960  1.00  0.00     0.014 A 
ENDROOT
BRANCH   3   7
HETATM    7  O1  UNL     1      25.679  -1.219   7.230  1.00  0.00    -0.351 OA
BRANCH   7   8
HETATM    8  C4  UNL     1      26.777  -1.972   6.912  1.00  0.00     0.175 C 
BRANCH   8   9
HETATM    9  C5  UNL     1      28.093  -1.292   6.814  1.00  0.00     0.027 C 
BRANCH   9  10
HETATM   10  C6  UNL     1      28.991  -1.760   7.945  1.00  0.00     0.002 C 
BRANCH  10  11
HETATM   11  C7  UNL     1      29.707  -0.668   8.665  1.00  0.00     0.000 C 
BRANCH  11  12
HETATM   12  C8  UNL     1      29.631   0.607   7.867  1.00  0.00     0.000 C 
BRANCH  12  13
HETATM   13  C9  UNL     1      30.989   1.135   7.585  1.00  0.00     0.000 C 
BRANCH  13  14
HETATM   14  C10 UNL     1      31.256   1.284   6.094  1.00  0.00     0.000 C 
BRANCH  14  15
HETATM   15  C11 UNL     1      31.254  -0.045   5.394  1.00  0.00     0.005 C 
BRANCH  15  16
HETATM   16  C12 UNL     1      32.328  -0.054   4.341  1.00  0.00    -0.011 C 
HETATM   17  C13 UNL     1      32.912  -1.425   4.127  1.00  0.00     0.032 C 
HETATM   18  C14 UNL     1      34.412  -1.401   4.034  1.00  0.00     0.232 C 
HETATM   19  N1  UNL     1      34.840  -0.316   3.170  1.00  0.00    -0.075 N 
HETATM   20  C15 UNL     1      34.516   0.984   3.713  1.00  0.00     0.232 C 
ATOM     21  H12 UNL     1      35.835  -0.386   2.957  1.00  0.00     0.277 HD
ATOM     22  H11 UNL     1      34.461  -0.425   2.229  1.00  0.00     0.277 HD
HETATM   23  C16 UNL     1      33.441   0.872   4.788  1.00  0.00     0.032 C 
ENDBRANCH  15  16
ENDBRANCH  14  15
ENDBRANCH  13  14
ENDBRANCH  12  13
ENDBRANCH  11  12
ENDBRANCH  10  11
ENDBRANCH   9  10
ENDBRANCH   8   9
ENDBRANCH   7   8
ENDBRANCH   3   7
BRANCH   5  24
HETATM   24  C19 UNL     1      22.765   2.402   8.605  1.00  0.00     0.071 A 
HETATM   25  N2  UNL     1      22.667   3.141   7.481  1.00  0.00    -0.363 N 
HETATM   26  C20 UNL     1      21.626   3.971   7.244  1.00  0.00     0.090 A 
ATOM     27  H2  UNL     1      23.406   3.070   6.782  1.00  0.00     0.165 HD
HETATM   28  C21 UNL     1      20.591   4.114   8.147  1.00  0.00     0.049 A 
HETATM   29  C22 UNL     1      20.658   3.370   9.315  1.00  0.00     0.063 A 
HETATM   30  N3  UNL     1      19.823   3.285  10.376  1.00  0.00    -0.350 N 
HETATM   31  C24 UNL     1      21.741   2.530   9.521  1.00  0.00     0.088 A 
HETATM   32  C23 UNL     1      20.374   2.406  11.237  1.00  0.00     0.181 A 
ATOM     33  H3  UNL     1      18.945   3.790  10.500  1.00  0.00     0.166 HD
HETATM   34  N4  UNL     1      21.532   1.951  10.718  1.00  0.00    -0.349 N 
ATOM     35  H4  UNL     1      22.152   1.274  11.162  1.00  0.00     0.167 HD
ENDBRANCH   5  24
TORSDOF 11
ENDMDL
