MODEL 1
REMARK VINA RESULT: -10.105853543      0.000      0.000
REMARK  12 active torsions:
REMARK  status: ('A' for Active; 'I' for Inactive)
REMARK    1  A    between atoms: C5_8  and  N3_9 
REMARK    2  A    between atoms: N3_9  and  C6_11 
REMARK    3  A    between atoms: C6_11  and  C7_12 
REMARK    4  A    between atoms: C7_12  and  C8_13 
REMARK    5  A    between atoms: C8_13  and  C9_14 
REMARK    6  A    between atoms: C9_14  and  C10_15 
REMARK    7  A    between atoms: C10_15  and  C11_16 
REMARK    8  A    between atoms: C10_15  and  C12_19 
REMARK    9  A    between atoms: C11_16  and  O1_17 
REMARK   10  A    between atoms: C13_20  and  C14_21 
REMARK   11  A    between atoms: C14_21  and  C15_22 
REMARK   12  A    between atoms: C15_22  and  C16_23 
ROOT
HETATM    1  C8  UNL     1      26.115   0.271  10.148  1.00  0.00     0.006 C 
ENDROOT
BRANCH   1   2
HETATM    2  C7  UNL     1      24.876   1.159  10.082  1.00  0.00     0.020 C 
BRANCH   2   3
HETATM    3  C6  UNL     1      24.319   1.094   8.705  1.00  0.00     0.121 C 
BRANCH   3   4
HETATM    4  N3  UNL     1      24.312   2.358   8.015  1.00  0.00    -0.370 N 
ATOM      5  H3  UNL     1      25.010   2.551   7.297  1.00  0.00     0.161 HD
BRANCH   4   6
HETATM    6  C5  UNL     1      23.403   3.266   8.310  1.00  0.00     0.145 A 
HETATM    7  N2  UNL     1      23.528   4.589   8.254  1.00  0.00    -0.336 N 
HETATM    8  C4  UNL     1      22.504   5.329   8.588  1.00  0.00     0.051 A 
ATOM      9  H2  UNL     1      24.405   5.016   7.956  1.00  0.00     0.168 HD
HETATM   10  C3  UNL     1      22.445   6.734   8.593  1.00  0.00     0.033 A 
HETATM   11  C22 UNL     1      21.356   4.702   8.979  1.00  0.00     0.037 A 
HETATM   12  C2  UNL     1      21.329   7.421   8.960  1.00  0.00     0.029 A 
HETATM   13  C1  UNL     1      20.185   6.781   9.349  1.00  0.00     0.047 A 
HETATM   14  N1  UNL     1      19.051   7.535   9.720  1.00  0.00    -0.102 NA
HETATM   15  C23 UNL     1      20.200   5.403   9.358  1.00  0.00     0.048 A 
HETATM   16  S1  UNL     1      21.798   3.054   8.849  1.00  0.00    -0.052 SA
ENDBRANCH   4   6
ENDBRANCH   3   4
ENDBRANCH   2   3
ENDBRANCH   1   2
BRANCH   1  17
HETATM   17  C9  UNL     1      25.986  -0.965   9.299  1.00  0.00     0.036 C 
BRANCH  17  18
HETATM   18  C10 UNL     1      27.333  -1.250   8.631  1.00  0.00    -0.057 C 
BRANCH  18  19
HETATM   19  C11 UNL     1      27.175  -1.847   7.309  1.00  0.00     0.198 C 
BRANCH  19  20
HETATM   20  O1  UNL     1      25.877  -1.908   6.889  1.00  0.00    -0.397 OA
ATOM     21  H1  UNL     1      25.658  -1.255   6.234  1.00  0.00     0.209 HD
ENDBRANCH  19  20
ENDBRANCH  18  19
BRANCH  18  22
HETATM   22  C12 UNL     1      28.356  -0.249   8.951  1.00  0.00     0.001 C 
HETATM   23  C13 UNL     1      29.531  -0.037   8.134  1.00  0.00    -0.026 C 
BRANCH  23  24
HETATM   24  C14 UNL     1      30.698  -0.891   7.967  1.00  0.00     0.027 C 
BRANCH  24  25
HETATM   25  C15 UNL     1      30.958  -1.560   6.691  1.00  0.00     0.008 C 
BRANCH  25  26
HETATM   26  C16 UNL     1      30.631  -1.103   5.365  1.00  0.00    -0.014 C 
HETATM   27  C17 UNL     1      30.783   0.319   4.983  1.00  0.00     0.004 C 
HETATM   28  C18 UNL     1      32.224   0.782   5.237  1.00  0.00     0.000 C 
HETATM   29  C19 UNL     1      33.070   0.087   4.195  1.00  0.00     0.000 C 
HETATM   30  C20 UNL     1      32.927  -1.401   4.407  1.00  0.00     0.000 C 
HETATM   31  C21 UNL     1      31.506  -1.888   4.347  1.00  0.00     0.004 C 
ENDBRANCH  25  26
ENDBRANCH  24  25
ENDBRANCH  23  24
ENDBRANCH  18  22
ENDBRANCH  17  18
ENDBRANCH   1  17
TORSDOF 12
ENDMDL
MODEL 2
REMARK VINA RESULT: -10.020515287      1.105      1.721
REMARK  12 active torsions:
REMARK  status: ('A' for Active; 'I' for Inactive)
REMARK    1  A    between atoms: C5_8  and  N3_9 
REMARK    2  A    between atoms: N3_9  and  C6_11 
REMARK    3  A    between atoms: C6_11  and  C7_12 
REMARK    4  A    between atoms: C7_12  and  C8_13 
REMARK    5  A    between atoms: C8_13  and  C9_14 
REMARK    6  A    between atoms: C9_14  and  C10_15 
REMARK    7  A    between atoms: C10_15  and  C11_16 
REMARK    8  A    between atoms: C10_15  and  C12_19 
REMARK    9  A    between atoms: C11_16  and  O1_17 
REMARK   10  A    between atoms: C13_20  and  C14_21 
REMARK   11  A    between atoms: C14_21  and  C15_22 
REMARK   12  A    between atoms: C15_22  and  C16_23 
ROOT
HETATM    1  C8  UNL     1      24.706   0.340   9.296  1.00  0.00     0.006 C 
ENDROOT
BRANCH   1   2
HETATM    2  C7  UNL     1      24.759   1.179   8.022  1.00  0.00     0.020 C 
BRANCH   2   3
HETATM    3  C6  UNL     1      23.589   2.096   8.009  1.00  0.00     0.121 C 
BRANCH   3   4
HETATM    4  N3  UNL     1      23.908   3.460   8.344  1.00  0.00    -0.370 N 
ATOM      5  H3  UNL     1      24.876   3.779   8.315  1.00  0.00     0.161 HD
BRANCH   4   6
HETATM    6  C5  UNL     1      22.948   4.297   8.687  1.00  0.00     0.145 A 
HETATM    7  N2  UNL     1      22.993   5.626   8.692  1.00  0.00    -0.336 N 
HETATM    8  C4  UNL     1      21.930   6.287   9.068  1.00  0.00     0.051 A 
ATOM      9  H2  UNL     1      23.840   6.119   8.409  1.00  0.00     0.168 HD
HETATM   10  C3  UNL     1      21.786   7.684   9.139  1.00  0.00     0.033 A 
HETATM   11  C22 UNL     1      20.825   5.573   9.436  1.00  0.00     0.037 A 
HETATM   12  C2  UNL     1      20.634   8.284   9.545  1.00  0.00     0.029 A 
HETATM   13  C1  UNL     1      19.534   7.558   9.911  1.00  0.00     0.047 A 
HETATM   14  N1  UNL     1      18.361   8.224  10.325  1.00  0.00    -0.102 NA
HETATM   15  C23 UNL     1      19.633   6.184   9.856  1.00  0.00     0.048 A 
HETATM   16  S1  UNL     1      21.364   3.963   9.227  1.00  0.00    -0.052 SA
ENDBRANCH   4   6
ENDBRANCH   3   4
ENDBRANCH   2   3
ENDBRANCH   1   2
BRANCH   1  17
HETATM   17  C9  UNL     1      25.968   0.447  10.110  1.00  0.00     0.036 C 
BRANCH  17  18
HETATM   18  C10 UNL     1      26.853  -0.765   9.813  1.00  0.00    -0.057 C 
BRANCH  18  19
HETATM   19  C11 UNL     1      26.092  -1.875   9.248  1.00  0.00     0.198 C 
BRANCH  19  20
HETATM   20  O1  UNL     1      26.867  -2.791   8.594  1.00  0.00    -0.397 OA
ATOM     21  H1  UNL     1      26.599  -3.690   8.742  1.00  0.00     0.209 HD
ENDBRANCH  19  20
ENDBRANCH  18  19
BRANCH  18  22
HETATM   22  C12 UNL     1      28.201  -0.396   9.366  1.00  0.00     0.001 C 
HETATM   23  C13 UNL     1      28.449   0.359   8.157  1.00  0.00    -0.026 C 
BRANCH  23  24
HETATM   24  C14 UNL     1      28.316  -0.062   6.770  1.00  0.00     0.027 C 
BRANCH  24  25
HETATM   25  C15 UNL     1      29.399  -0.787   6.102  1.00  0.00     0.008 C 
BRANCH  25  26
HETATM   26  C16 UNL     1      30.730  -1.042   6.590  1.00  0.00    -0.014 C 
HETATM   27  C17 UNL     1      31.582  -2.090   5.987  1.00  0.00     0.004 C 
HETATM   28  C18 UNL     1      31.735  -1.844   4.479  1.00  0.00     0.000 C 
HETATM   29  C19 UNL     1      32.609  -0.618   4.348  1.00  0.00     0.000 C 
HETATM   30  C20 UNL     1      31.893   0.529   5.022  1.00  0.00     0.000 C 
HETATM   31  C21 UNL     1      31.557   0.270   6.464  1.00  0.00     0.004 C 
ENDBRANCH  25  26
ENDBRANCH  24  25
ENDBRANCH  23  24
ENDBRANCH  18  22
ENDBRANCH  17  18
ENDBRANCH   1  17
TORSDOF 12
ENDMDL
MODEL 3
REMARK VINA RESULT: -9.923517422      0.912      1.034
REMARK  12 active torsions:
REMARK  status: ('A' for Active; 'I' for Inactive)
REMARK    1  A    between atoms: C5_8  and  N3_9 
REMARK    2  A    between atoms: N3_9  and  C6_11 
REMARK    3  A    between atoms: C6_11  and  C7_12 
REMARK    4  A    between atoms: C7_12  and  C8_13 
REMARK    5  A    between atoms: C8_13  and  C9_14 
REMARK    6  A    between atoms: C9_14  and  C10_15 
REMARK    7  A    between atoms: C10_15  and  C11_16 
REMARK    8  A    between atoms: C10_15  and  C12_19 
REMARK    9  A    between atoms: C11_16  and  O1_17 
REMARK   10  A    between atoms: C13_20  and  C14_21 
REMARK   11  A    between atoms: C14_21  and  C15_22 
REMARK   12  A    between atoms: C15_22  and  C16_23 
ROOT
HETATM    1  C8  UNL     1      25.435   0.429   9.526  1.00  0.00     0.006 C 
ENDROOT
BRANCH   1   2
HETATM    2  C7  UNL     1      24.124   1.162   9.257  1.00  0.00     0.020 C 
BRANCH   2   3
HETATM    3  C6  UNL     1      24.211   1.817   7.926  1.00  0.00     0.121 C 
BRANCH   3   4
HETATM    4  N3  UNL     1      22.944   2.266   7.408  1.00  0.00    -0.370 N 
ATOM      5  H3  UNL     1      22.492   1.754   6.651  1.00  0.00     0.161 HD
BRANCH   4   6
HETATM    6  C5  UNL     1      22.368   3.340   7.913  1.00  0.00     0.145 A 
HETATM    7  N2  UNL     1      22.827   4.587   7.905  1.00  0.00    -0.336 N 
HETATM    8  C4  UNL     1      22.105   5.524   8.461  1.00  0.00     0.051 A 
ATOM      9  H2  UNL     1      23.725   4.808   7.475  1.00  0.00     0.168 HD
HETATM   10  C3  UNL     1      22.420   6.892   8.551  1.00  0.00     0.033 A 
HETATM   11  C22 UNL     1      20.912   5.169   9.021  1.00  0.00     0.037 A 
HETATM   12  C2  UNL     1      21.601   7.796   9.152  1.00  0.00     0.029 A 
HETATM   13  C1  UNL     1      20.408   7.428   9.710  1.00  0.00     0.047 A 
HETATM   14  N1  UNL     1      19.590   8.402  10.322  1.00  0.00    -0.102 NA
HETATM   15  C23 UNL     1      20.060   6.096   9.643  1.00  0.00     0.048 A 
HETATM   16  S1  UNL     1      20.875   3.484   8.726  1.00  0.00    -0.052 SA
ENDBRANCH   4   6
ENDBRANCH   3   4
ENDBRANCH   2   3
ENDBRANCH   1   2
BRANCH   1  17
HETATM   17  C9  UNL     1      26.198   0.128   8.263  1.00  0.00     0.036 C 
BRANCH  17  18
HETATM   18  C10 UNL     1      26.327  -1.389   8.112  1.00  0.00    -0.057 C 
BRANCH  18  19
HETATM   19  C11 UNL     1      25.747  -1.869   6.862  1.00  0.00     0.198 C 
BRANCH  19  20
HETATM   20  O1  UNL     1      24.381  -1.875   6.860  1.00  0.00    -0.397 OA
ATOM     21  H1  UNL     1      24.005  -2.696   7.156  1.00  0.00     0.209 HD
ENDBRANCH  19  20
ENDBRANCH  18  19
BRANCH  18  22
HETATM   22  C12 UNL     1      27.568  -1.920   8.686  1.00  0.00     0.001 C 
HETATM   23  C13 UNL     1      28.718  -1.089   8.975  1.00  0.00    -0.026 C 
BRANCH  23  24
HETATM   24  C14 UNL     1      29.646  -0.454   8.051  1.00  0.00     0.027 C 
BRANCH  24  25
HETATM   25  C15 UNL     1      30.241  -1.214   6.950  1.00  0.00     0.008 C 
BRANCH  25  26
HETATM   26  C16 UNL     1      30.076  -1.005   5.535  1.00  0.00    -0.014 C 
HETATM   27  C17 UNL     1      30.352   0.311   4.915  1.00  0.00     0.004 C 
HETATM   28  C18 UNL     1      31.786   0.755   5.235  1.00  0.00     0.000 C 
HETATM   29  C19 UNL     1      32.688  -0.160   4.439  1.00  0.00     0.000 C 
HETATM   30  C20 UNL     1      32.434  -1.574   4.906  1.00  0.00     0.000 C 
HETATM   31  C21 UNL     1      31.000  -2.005   4.781  1.00  0.00     0.004 C 
ENDBRANCH  25  26
ENDBRANCH  24  25
ENDBRANCH  23  24
ENDBRANCH  18  22
ENDBRANCH  17  18
ENDBRANCH   1  17
TORSDOF 12
ENDMDL
MODEL 4
REMARK VINA RESULT: -9.861772801      1.135      1.408
REMARK  12 active torsions:
REMARK  status: ('A' for Active; 'I' for Inactive)
REMARK    1  A    between atoms: C5_8  and  N3_9 
REMARK    2  A    between atoms: N3_9  and  C6_11 
REMARK    3  A    between atoms: C6_11  and  C7_12 
REMARK    4  A    between atoms: C7_12  and  C8_13 
REMARK    5  A    between atoms: C8_13  and  C9_14 
REMARK    6  A    between atoms: C9_14  and  C10_15 
REMARK    7  A    between atoms: C10_15  and  C11_16 
REMARK    8  A    between atoms: C10_15  and  C12_19 
REMARK    9  A    between atoms: C11_16  and  O1_17 
REMARK   10  A    between atoms: C13_20  and  C14_21 
REMARK   11  A    between atoms: C14_21  and  C15_22 
REMARK   12  A    between atoms: C15_22  and  C16_23 
ROOT
HETATM    1  C8  UNL     1      25.592   0.829   9.670  1.00  0.00     0.006 C 
ENDROOT
BRANCH   1   2
HETATM    2  C7  UNL     1      24.136   1.184   9.387  1.00  0.00     0.020 C 
BRANCH   2   3
HETATM    3  C6  UNL     1      24.027   1.654   7.980  1.00  0.00     0.121 C 
BRANCH   3   4
HETATM    4  N3  UNL     1      22.739   2.204   7.643  1.00  0.00    -0.370 N 
ATOM      5  H3  UNL     1      22.049   1.628   7.162  1.00  0.00     0.161 HD
BRANCH   4   6
HETATM    6  C5  UNL     1      22.453   3.453   7.956  1.00  0.00     0.145 A 
HETATM    7  N2  UNL     1      21.263   4.045   7.925  1.00  0.00    -0.336 N 
HETATM    8  C4  UNL     1      21.179   5.301   8.276  1.00  0.00     0.051 A 
ATOM      9  H2  UNL     1      20.432   3.529   7.633  1.00  0.00     0.168 HD
HETATM   10  C3  UNL     1      20.018   6.093   8.308  1.00  0.00     0.033 A 
HETATM   11  C22 UNL     1      22.324   5.940   8.657  1.00  0.00     0.037 A 
HETATM   12  C2  UNL     1      20.029   7.399   8.688  1.00  0.00     0.029 A 
HETATM   13  C1  UNL     1      21.182   8.028   9.068  1.00  0.00     0.047 A 
HETATM   14  N1  UNL     1      21.146   9.385   9.456  1.00  0.00    -0.102 NA
HETATM   15  C23 UNL     1      22.345   7.288   9.051  1.00  0.00     0.048 A 
HETATM   16  S1  UNL     1      23.488   4.698   8.494  1.00  0.00    -0.052 SA
ENDBRANCH   4   6
ENDBRANCH   3   4
ENDBRANCH   2   3
ENDBRANCH   1   2
BRANCH   1  17
HETATM   17  C9  UNL     1      25.788  -0.642   9.925  1.00  0.00     0.036 C 
BRANCH  17  18
HETATM   18  C10 UNL     1      27.116  -1.079   9.301  1.00  0.00    -0.057 C 
BRANCH  18  19
HETATM   19  C11 UNL     1      26.949  -2.207   8.390  1.00  0.00     0.198 C 
BRANCH  19  20
HETATM   20  O1  UNL     1      25.705  -2.770   8.439  1.00  0.00    -0.397 OA
ATOM     21  H1  UNL     1      25.569  -3.324   9.198  1.00  0.00     0.209 HD
ENDBRANCH  19  20
ENDBRANCH  18  19
BRANCH  18  22
HETATM   22  C12 UNL     1      28.027   0.041   9.045  1.00  0.00     0.001 C 
HETATM   23  C13 UNL     1      29.089  -0.018   8.064  1.00  0.00    -0.026 C 
BRANCH  23  24
HETATM   24  C14 UNL     1      30.336  -0.768   8.107  1.00  0.00     0.027 C 
BRANCH  24  25
HETATM   25  C15 UNL     1      30.945  -1.274   6.875  1.00  0.00     0.008 C 
BRANCH  25  26
HETATM   26  C16 UNL     1      30.609  -0.940   5.515  1.00  0.00    -0.014 C 
HETATM   27  C17 UNL     1      30.839   0.420   4.978  1.00  0.00     0.004 C 
HETATM   28  C18 UNL     1      32.313   0.813   5.148  1.00  0.00     0.000 C 
HETATM   29  C19 UNL     1      33.083  -0.043   4.170  1.00  0.00     0.000 C 
HETATM   30  C20 UNL     1      32.854  -1.488   4.545  1.00  0.00     0.000 C 
HETATM   31  C21 UNL     1      31.404  -1.885   4.568  1.00  0.00     0.004 C 
ENDBRANCH  25  26
ENDBRANCH  24  25
ENDBRANCH  23  24
ENDBRANCH  18  22
ENDBRANCH  17  18
ENDBRANCH   1  17
TORSDOF 12
ENDMDL
MODEL 5
REMARK VINA RESULT: -9.659202608      0.716      1.269
REMARK  12 active torsions:
REMARK  status: ('A' for Active; 'I' for Inactive)
REMARK    1  A    between atoms: C5_8  and  N3_9 
REMARK    2  A    between atoms: N3_9  and  C6_11 
REMARK    3  A    between atoms: C6_11  and  C7_12 
REMARK    4  A    between atoms: C7_12  and  C8_13 
REMARK    5  A    between atoms: C8_13  and  C9_14 
REMARK    6  A    between atoms: C9_14  and  C10_15 
REMARK    7  A    between atoms: C10_15  and  C11_16 
REMARK    8  A    between atoms: C10_15  and  C12_19 
REMARK    9  A    between atoms: C11_16  and  O1_17 
REMARK   10  A    between atoms: C13_20  and  C14_21 
REMARK   11  A    between atoms: C14_21  and  C15_22 
REMARK   12  A    between atoms: C15_22  and  C16_23 
ROOT
HETATM    1  C8  UNL     1      26.417   0.448   9.185  1.00  0.00     0.006 C 
ENDROOT
BRANCH   1   2
HETATM    2  C7  UNL     1      25.014   0.727   9.714  1.00  0.00     0.020 C 
BRANCH   2   3
HETATM    3  C6  UNL     1      24.120   1.017   8.562  1.00  0.00     0.121 C 
BRANCH   3   4
HETATM    4  N3  UNL     1      24.240   2.357   8.048  1.00  0.00    -0.370 N 
ATOM      5  H3  UNL     1      25.027   2.605   7.449  1.00  0.00     0.161 HD
BRANCH   4   6
HETATM    6  C5  UNL     1      23.332   3.264   8.352  1.00  0.00     0.145 A 
HETATM    7  N2  UNL     1      23.448   4.586   8.277  1.00  0.00    -0.336 N 
HETATM    8  C4  UNL     1      22.428   5.325   8.624  1.00  0.00     0.051 A 
ATOM      9  H2  UNL     1      24.316   5.014   7.954  1.00  0.00     0.168 HD
HETATM   10  C3  UNL     1      22.360   6.730   8.613  1.00  0.00     0.033 A 
HETATM   11  C22 UNL     1      21.293   4.696   9.048  1.00  0.00     0.037 A 
HETATM   12  C2  UNL     1      21.249   7.415   8.996  1.00  0.00     0.029 A 
HETATM   13  C1  UNL     1      20.118   6.773   9.418  1.00  0.00     0.047 A 
HETATM   14  N1  UNL     1      18.988   7.526   9.805  1.00  0.00    -0.102 NA
HETATM   15  C23 UNL     1      20.141   5.395   9.444  1.00  0.00     0.048 A 
HETATM   16  S1  UNL     1      21.741   3.049   8.930  1.00  0.00    -0.052 SA
ENDBRANCH   4   6
ENDBRANCH   3   4
ENDBRANCH   2   3
ENDBRANCH   1   2
BRANCH   1  17
HETATM   17  C9  UNL     1      26.904  -0.932   9.541  1.00  0.00     0.036 C 
BRANCH  17  18
HETATM   18  C10 UNL     1      27.408  -1.622   8.272  1.00  0.00    -0.057 C 
BRANCH  18  19
HETATM   19  C11 UNL     1      26.606  -1.274   7.103  1.00  0.00     0.198 C 
BRANCH  19  20
HETATM   20  O1  UNL     1      25.511  -2.074   6.934  1.00  0.00    -0.397 OA
ATOM     21  H1  UNL     1      25.075  -1.949   6.100  1.00  0.00     0.209 HD
ENDBRANCH  19  20
ENDBRANCH  18  19
BRANCH  18  22
HETATM   22  C12 UNL     1      28.867  -1.770   8.239  1.00  0.00     0.001 C 
HETATM   23  C13 UNL     1      29.774  -0.704   8.610  1.00  0.00    -0.026 C 
BRANCH  23  24
HETATM   24  C14 UNL     1      30.078   0.529   7.899  1.00  0.00     0.027 C 
BRANCH  24  25
HETATM   25  C15 UNL     1      31.216   0.600   6.981  1.00  0.00     0.008 C 
BRANCH  25  26
HETATM   26  C16 UNL     1      31.197   0.816   5.557  1.00  0.00    -0.014 C 
HETATM   27  C17 UNL     1      32.339   0.420   4.704  1.00  0.00     0.004 C 
HETATM   28  C18 UNL     1      32.647  -1.072   4.891  1.00  0.00     0.000 C 
HETATM   29  C19 UNL     1      31.501  -1.814   4.242  1.00  0.00     0.000 C 
HETATM   30  C20 UNL     1      30.233  -1.420   4.962  1.00  0.00     0.000 C 
HETATM   31  C21 UNL     1      29.973   0.060   4.964  1.00  0.00     0.004 C 
ENDBRANCH  25  26
ENDBRANCH  24  25
ENDBRANCH  23  24
ENDBRANCH  18  22
ENDBRANCH  17  18
ENDBRANCH   1  17
TORSDOF 12
ENDMDL
