MODEL 1
REMARK VINA RESULT: -9.782261113      0.000      0.000
REMARK  11 active torsions:
REMARK  status: ('A' for Active; 'I' for Inactive)
REMARK    1  A    between atoms: C4_4  and  N1_5 
REMARK    2  A    between atoms: N1_5  and  C5_7 
REMARK    3  A    between atoms: C5_7  and  C6_8 
REMARK    4  A    between atoms: C6_8  and  N2_9 
REMARK    5  A    between atoms: N2_9  and  C7_11 
REMARK    6  A    between atoms: C7_11  and  C8_12 
REMARK    7  A    between atoms: C8_12  and  C9_13 
REMARK    8  A    between atoms: C9_13  and  C10_14 
REMARK    9  A    between atoms: C10_14  and  N3_15 
REMARK   10  A    between atoms: N3_15  and  C11_17 
REMARK   11  A    between atoms: C11_17  and  C12_18 
ROOT
HETATM    1  N3  UNL     1      24.277   1.893   7.639  1.00  0.00    -0.398 N 
ATOM      2  H3  UNL     1      23.975   2.184   6.710  1.00  0.00     0.158 HD
ENDROOT
BRANCH   1   3
HETATM    3  C10 UNL     1      24.973   0.606   8.016  1.00  0.00     0.119 C 
BRANCH   3   4
HETATM    4  C9  UNL     1      25.539   0.741   9.382  1.00  0.00     0.021 C 
BRANCH   4   5
HETATM    5  C8  UNL     1      26.482  -0.357   9.728  1.00  0.00     0.021 C 
BRANCH   5   6
HETATM    6  C7  UNL     1      26.140  -1.723   9.237  1.00  0.00     0.113 C 
BRANCH   6   7
HETATM    7  N2  UNL     1      27.151  -2.441   8.553  1.00  0.00    -0.420 N 
ATOM      8  H2  UNL     1      27.487  -3.344   8.888  1.00  0.00     0.153 HD
BRANCH   7   9
HETATM    9  C6  UNL     1      27.675  -1.839   7.374  1.00  0.00     0.133 C 
BRANCH   9  10
HETATM   10  C5  UNL     1      29.139  -1.461   7.517  1.00  0.00     0.139 C 
BRANCH  10  11
HETATM   11  N1  UNL     1      29.480  -0.409   6.561  1.00  0.00    -0.388 N 
ATOM     12  H1  UNL     1      28.854   0.390   6.462  1.00  0.00     0.159 HD
BRANCH  11  13
HETATM   13  C4  UNL     1      30.644  -0.466   5.773  1.00  0.00     0.028 A 
HETATM   14  C3  UNL     1      31.392   0.678   5.495  1.00  0.00     0.029 A 
HETATM   15  C2  UNL     1      32.529   0.659   4.734  1.00  0.00     0.002 A 
HETATM   16  C1  UNL     1      32.964  -0.545   4.210  1.00  0.00     0.000 A 
HETATM   17  C27 UNL     1      32.233  -1.683   4.478  1.00  0.00     0.002 A 
HETATM   18  C26 UNL     1      31.101  -1.643   5.241  1.00  0.00     0.029 A 
ENDBRANCH  11  13
ENDBRANCH  10  11
ENDBRANCH   9  10
ENDBRANCH   7   9
ENDBRANCH   6   7
ENDBRANCH   5   6
ENDBRANCH   4   5
ENDBRANCH   3   4
ENDBRANCH   1   3
BRANCH   1  19
HETATM   19  C11 UNL     1      24.136   2.598   8.834  1.00  0.00     0.096 C 
BRANCH  19  20
HETATM   20  C12 UNL     1      22.885   3.139   9.340  1.00  0.00     0.001 A 
HETATM   21  C13 UNL     1      22.716   4.542   9.119  1.00  0.00    -0.013 A 
HETATM   22  C14 UNL     1      23.704   5.247   8.465  1.00  0.00     0.013 A 
HETATM   23  C18 UNL     1      21.601   5.182   9.543  1.00  0.00    -0.024 A 
HETATM   24  C15 UNL     1      23.529   6.610   8.252  1.00  0.00     0.001 A 
HETATM   25  C16 UNL     1      22.401   7.273   8.677  1.00  0.00     0.001 A 
HETATM   26  C17 UNL     1      21.426   6.555   9.329  1.00  0.00     0.012 A 
HETATM   27  C19 UNL     1      20.626   4.473  10.189  1.00  0.00     0.024 A 
HETATM   28  C20 UNL     1      20.772   3.116  10.410  1.00  0.00    -0.024 A 
HETATM   29  C21 UNL     1      19.762   2.421  11.050  1.00  0.00     0.012 A 
HETATM   30  C25 UNL     1      21.915   2.418   9.983  1.00  0.00    -0.013 A 
HETATM   31  C22 UNL     1      19.849   1.073  11.275  1.00  0.00     0.001 A 
HETATM   32  C23 UNL     1      20.965   0.401  10.854  1.00  0.00     0.001 A 
HETATM   33  C24 UNL     1      21.996   1.060  10.211  1.00  0.00     0.013 A 
ENDBRANCH  19  20
ENDBRANCH   1  19
TORSDOF 11
ENDMDL
MODEL 2
REMARK VINA RESULT: -9.778345331      0.141      3.284
REMARK  11 active torsions:
REMARK  status: ('A' for Active; 'I' for Inactive)
REMARK    1  A    between atoms: C4_4  and  N1_5 
REMARK    2  A    between atoms: N1_5  and  C5_7 
REMARK    3  A    between atoms: C5_7  and  C6_8 
REMARK    4  A    between atoms: C6_8  and  N2_9 
REMARK    5  A    between atoms: N2_9  and  C7_11 
REMARK    6  A    between atoms: C7_11  and  C8_12 
REMARK    7  A    between atoms: C8_12  and  C9_13 
REMARK    8  A    between atoms: C9_13  and  C10_14 
REMARK    9  A    between atoms: C10_14  and  N3_15 
REMARK   10  A    between atoms: N3_15  and  C11_17 
REMARK   11  A    between atoms: C11_17  and  C12_18 
ROOT
HETATM    1  N3  UNL     1      24.386   1.916   7.755  1.00  0.00    -0.398 N 
ATOM      2  H3  UNL     1      24.068   2.248   6.845  1.00  0.00     0.158 HD
ENDROOT
BRANCH   1   3
HETATM    3  C10 UNL     1      25.239   0.702   8.041  1.00  0.00     0.119 C 
BRANCH   3   4
HETATM    4  C9  UNL     1      25.696   0.749   9.453  1.00  0.00     0.021 C 
BRANCH   4   5
HETATM    5  C8  UNL     1      26.472  -0.457   9.850  1.00  0.00     0.021 C 
BRANCH   5   6
HETATM    6  C7  UNL     1      26.116  -1.742   9.182  1.00  0.00     0.113 C 
BRANCH   6   7
HETATM    7  N2  UNL     1      27.162  -2.457   8.549  1.00  0.00    -0.420 N 
ATOM      8  H2  UNL     1      27.476  -3.364   8.896  1.00  0.00     0.153 HD
BRANCH   7   9
HETATM    9  C6  UNL     1      27.752  -1.849   7.405  1.00  0.00     0.133 C 
BRANCH   9  10
HETATM   10  C5  UNL     1      29.141  -1.304   7.689  1.00  0.00     0.139 C 
BRANCH  10  11
HETATM   11  N1  UNL     1      29.492  -0.290   6.697  1.00  0.00    -0.388 N 
ATOM     12  H1  UNL     1      28.896   0.531   6.597  1.00  0.00     0.159 HD
BRANCH  11  13
HETATM   13  C4  UNL     1      30.628  -0.413   5.875  1.00  0.00     0.028 A 
HETATM   14  C3  UNL     1      31.385   0.698   5.508  1.00  0.00     0.029 A 
HETATM   15  C2  UNL     1      32.495   0.615   4.712  1.00  0.00     0.002 A 
HETATM   16  C1  UNL     1      32.892  -0.625   4.244  1.00  0.00     0.000 A 
HETATM   17  C27 UNL     1      32.151  -1.732   4.601  1.00  0.00     0.002 A 
HETATM   18  C26 UNL     1      31.047  -1.627   5.397  1.00  0.00     0.029 A 
ENDBRANCH  11  13
ENDBRANCH  10  11
ENDBRANCH   9  10
ENDBRANCH   7   9
ENDBRANCH   6   7
ENDBRANCH   5   6
ENDBRANCH   4   5
ENDBRANCH   3   4
ENDBRANCH   1   3
BRANCH   1  19
HETATM   19  C11 UNL     1      24.127   2.484   9.002  1.00  0.00     0.096 C 
BRANCH  19  20
HETATM   20  C12 UNL     1      22.937   3.251   9.337  1.00  0.00     0.001 A 
HETATM   21  C13 UNL     1      21.913   2.494   9.988  1.00  0.00    -0.013 A 
HETATM   22  C14 UNL     1      22.120   1.156  10.245  1.00  0.00     0.013 A 
HETATM   23  C18 UNL     1      20.746   3.076  10.354  1.00  0.00    -0.024 A 
HETATM   24  C15 UNL     1      21.118   0.430  10.881  1.00  0.00     0.001 A 
HETATM   25  C16 UNL     1      19.928   1.009  11.258  1.00  0.00     0.001 A 
HETATM   26  C17 UNL     1      19.738   2.345  10.993  1.00  0.00     0.012 A 
HETATM   27  C19 UNL     1      20.551   4.406  10.095  1.00  0.00     0.024 A 
HETATM   28  C20 UNL     1      21.532   5.152   9.469  1.00  0.00    -0.024 A 
HETATM   29  C21 UNL     1      21.315   6.498   9.237  1.00  0.00     0.012 A 
HETATM   30  C25 UNL     1      22.755   4.582   9.076  1.00  0.00    -0.013 A 
HETATM   31  C22 UNL     1      22.261   7.286   8.637  1.00  0.00     0.001 A 
HETATM   32  C23 UNL     1      23.451   6.723   8.261  1.00  0.00     0.001 A 
HETATM   33  C24 UNL     1      23.706   5.380   8.475  1.00  0.00     0.013 A 
ENDBRANCH  19  20
ENDBRANCH   1  19
TORSDOF 11
ENDMDL
MODEL 3
REMARK VINA RESULT: -9.114085043      0.827      3.490
REMARK  11 active torsions:
REMARK  status: ('A' for Active; 'I' for Inactive)
REMARK    1  A    between atoms: C4_4  and  N1_5 
REMARK    2  A    between atoms: N1_5  and  C5_7 
REMARK    3  A    between atoms: C5_7  and  C6_8 
REMARK    4  A    between atoms: C6_8  and  N2_9 
REMARK    5  A    between atoms: N2_9  and  C7_11 
REMARK    6  A    between atoms: C7_11  and  C8_12 
REMARK    7  A    between atoms: C8_12  and  C9_13 
REMARK    8  A    between atoms: C9_13  and  C10_14 
REMARK    9  A    between atoms: C10_14  and  N3_15 
REMARK   10  A    between atoms: N3_15  and  C11_17 
REMARK   11  A    between atoms: C11_17  and  C12_18 
ROOT
HETATM    1  N3  UNL     1      24.440   2.578   8.168  1.00  0.00    -0.398 N 
ATOM      2  H3  UNL     1      25.038   3.384   8.346  1.00  0.00     0.158 HD
ENDROOT
BRANCH   1   3
HETATM    3  C10 UNL     1      24.871   1.148   7.939  1.00  0.00     0.119 C 
BRANCH   3   4
HETATM    4  C9  UNL     1      24.843   0.417   9.231  1.00  0.00     0.021 C 
BRANCH   4   5
HETATM    5  C8  UNL     1      26.145   0.465   9.951  1.00  0.00     0.021 C 
BRANCH   5   6
HETATM    6  C7  UNL     1      26.896  -0.817  10.075  1.00  0.00     0.113 C 
BRANCH   6   7
HETATM    7  N2  UNL     1      28.185  -0.875   9.489  1.00  0.00    -0.420 N 
ATOM      8  H2  UNL     1      29.033  -0.857  10.057  1.00  0.00     0.153 HD
BRANCH   7   9
HETATM    9  C6  UNL     1      28.238  -0.959   8.068  1.00  0.00     0.133 C 
BRANCH   9  10
HETATM   10  C5  UNL     1      29.300  -0.053   7.472  1.00  0.00     0.139 C 
BRANCH  10  11
HETATM   11  N1  UNL     1      29.452  -0.330   6.046  1.00  0.00    -0.388 N 
ATOM     12  H1  UNL     1      28.618  -0.516   5.488  1.00  0.00     0.159 HD
BRANCH  11  13
HETATM   13  C4  UNL     1      30.711  -0.350   5.419  1.00  0.00     0.028 A 
HETATM   14  C3  UNL     1      31.243  -1.525   4.888  1.00  0.00     0.029 A 
HETATM   15  C2  UNL     1      32.463  -1.580   4.272  1.00  0.00     0.002 A 
HETATM   16  C1  UNL     1      33.211  -0.422   4.165  1.00  0.00     0.000 A 
HETATM   17  C27 UNL     1      32.696   0.747   4.686  1.00  0.00     0.002 A 
HETATM   18  C26 UNL     1      31.476   0.780   5.297  1.00  0.00     0.029 A 
ENDBRANCH  11  13
ENDBRANCH  10  11
ENDBRANCH   9  10
ENDBRANCH   7   9
ENDBRANCH   6   7
ENDBRANCH   5   6
ENDBRANCH   4   5
ENDBRANCH   3   4
ENDBRANCH   1   3
BRANCH   1  19
HETATM   19  C11 UNL     1      23.048   2.559   8.082  1.00  0.00     0.096 C 
BRANCH  19  20
HETATM   20  C12 UNL     1      22.149   3.306   8.948  1.00  0.00     0.001 A 
HETATM   21  C13 UNL     1      21.360   2.493   9.820  1.00  0.00    -0.013 A 
HETATM   22  C14 UNL     1      21.506   1.122   9.785  1.00  0.00     0.013 A 
HETATM   23  C18 UNL     1      20.474   3.052  10.678  1.00  0.00    -0.024 A 
HETATM   24  C15 UNL     1      20.736   0.341  10.639  1.00  0.00     0.001 A 
HETATM   25  C16 UNL     1      19.832   0.896  11.516  1.00  0.00     0.001 A 
HETATM   26  C17 UNL     1      19.698   2.265  11.538  1.00  0.00     0.012 A 
HETATM   27  C19 UNL     1      20.337   4.413  10.707  1.00  0.00     0.024 A 
HETATM   28  C20 UNL     1      21.094   5.214   9.872  1.00  0.00    -0.024 A 
HETATM   29  C21 UNL     1      20.949   6.588   9.935  1.00  0.00     0.012 A 
HETATM   30  C25 UNL     1      22.023   4.669   8.969  1.00  0.00    -0.013 A 
HETATM   31  C22 UNL     1      21.687   7.426   9.143  1.00  0.00     0.001 A 
HETATM   32  C23 UNL     1      22.592   6.886   8.269  1.00  0.00     0.001 A 
HETATM   33  C24 UNL     1      22.767   5.518   8.176  1.00  0.00     0.013 A 
ENDBRANCH  19  20
ENDBRANCH   1  19
TORSDOF 11
ENDMDL
MODEL 4
REMARK VINA RESULT: -9.036812833      1.155      1.731
REMARK  11 active torsions:
REMARK  status: ('A' for Active; 'I' for Inactive)
REMARK    1  A    between atoms: C4_4  and  N1_5 
REMARK    2  A    between atoms: N1_5  and  C5_7 
REMARK    3  A    between atoms: C5_7  and  C6_8 
REMARK    4  A    between atoms: C6_8  and  N2_9 
REMARK    5  A    between atoms: N2_9  and  C7_11 
REMARK    6  A    between atoms: C7_11  and  C8_12 
REMARK    7  A    between atoms: C8_12  and  C9_13 
REMARK    8  A    between atoms: C9_13  and  C10_14 
REMARK    9  A    between atoms: C10_14  and  N3_15 
REMARK   10  A    between atoms: N3_15  and  C11_17 
REMARK   11  A    between atoms: C11_17  and  C12_18 
ROOT
HETATM    1  N3  UNL     1      24.913   1.901   9.109  1.00  0.00    -0.398 N 
ATOM      2  H3  UNL     1      25.489   2.390   9.793  1.00  0.00     0.158 HD
ENDROOT
BRANCH   1   3
HETATM    3  C10 UNL     1      25.137   0.519   8.541  1.00  0.00     0.119 C 
BRANCH   3   4
HETATM    4  C9  UNL     1      26.501   0.058   8.905  1.00  0.00     0.021 C 
BRANCH   4   5
HETATM    5  C8  UNL     1      27.440   0.061   7.749  1.00  0.00     0.021 C 
BRANCH   5   6
HETATM    6  C7  UNL     1      28.861   0.411   8.032  1.00  0.00     0.113 C 
BRANCH   6   7
HETATM    7  N2  UNL     1      29.748  -0.655   8.323  1.00  0.00    -0.420 N 
ATOM      8  H2  UNL     1      29.610  -1.261   9.132  1.00  0.00     0.153 HD
BRANCH   7   9
HETATM    9  C6  UNL     1      30.840  -0.840   7.428  1.00  0.00     0.133 C 
BRANCH   9  10
HETATM   10  C5  UNL     1      30.885   0.221   6.341  1.00  0.00     0.139 C 
BRANCH  10  11
HETATM   11  N1  UNL     1      31.258  -0.387   5.066  1.00  0.00    -0.388 N 
ATOM     12  H1  UNL     1      30.559  -0.923   4.551  1.00  0.00     0.159 HD
BRANCH  11  13
HETATM   13  C4  UNL     1      32.551  -0.255   4.526  1.00  0.00     0.028 A 
HETATM   14  C3  UNL     1      33.214   0.972   4.516  1.00  0.00     0.029 A 
HETATM   15  C2  UNL     1      34.470   1.136   4.000  1.00  0.00     0.002 A 
HETATM   16  C1  UNL     1      35.120   0.041   3.461  1.00  0.00     0.000 A 
HETATM   17  C27 UNL     1      34.475  -1.177   3.464  1.00  0.00     0.002 A 
HETATM   18  C26 UNL     1      33.221  -1.321   3.985  1.00  0.00     0.029 A 
ENDBRANCH  11  13
ENDBRANCH  10  11
ENDBRANCH   9  10
ENDBRANCH   7   9
ENDBRANCH   6   7
ENDBRANCH   5   6
ENDBRANCH   4   5
ENDBRANCH   3   4
ENDBRANCH   1   3
BRANCH   1  19
HETATM   19  C11 UNL     1      23.748   2.364   8.497  1.00  0.00     0.096 C 
BRANCH  19  20
HETATM   20  C12 UNL     1      22.626   2.974   9.193  1.00  0.00     0.001 A 
HETATM   21  C13 UNL     1      22.535   4.392   9.035  1.00  0.00    -0.013 A 
HETATM   22  C14 UNL     1      23.470   5.049   8.263  1.00  0.00     0.013 A 
HETATM   23  C18 UNL     1      21.544   5.095   9.632  1.00  0.00    -0.024 A 
HETATM   24  C15 UNL     1      23.371   6.428   8.113  1.00  0.00     0.001 A 
HETATM   25  C16 UNL     1      22.369   7.154   8.714  1.00  0.00     0.001 A 
HETATM   26  C17 UNL     1      21.444   6.484   9.481  1.00  0.00     0.012 A 
HETATM   27  C19 UNL     1      20.620   4.434  10.394  1.00  0.00     0.024 A 
HETATM   28  C20 UNL     1      20.692   3.063  10.556  1.00  0.00    -0.024 A 
HETATM   29  C21 UNL     1      19.734   2.419  11.317  1.00  0.00     0.012 A 
HETATM   30  C25 UNL     1      21.706   2.301   9.951  1.00  0.00    -0.013 A 
HETATM   31  C22 UNL     1      19.749   1.060  11.493  1.00  0.00     0.001 A 
HETATM   32  C23 UNL     1      20.739   0.326  10.897  1.00  0.00     0.001 A 
HETATM   33  C24 UNL     1      21.716   0.933  10.129  1.00  0.00     0.013 A 
ENDBRANCH  19  20
ENDBRANCH   1  19
TORSDOF 11
ENDMDL
MODEL 5
REMARK VINA RESULT: -8.258254565      2.016      4.154
REMARK  11 active torsions:
REMARK  status: ('A' for Active; 'I' for Inactive)
REMARK    1  A    between atoms: C4_4  and  N1_5 
REMARK    2  A    between atoms: N1_5  and  C5_7 
REMARK    3  A    between atoms: C5_7  and  C6_8 
REMARK    4  A    between atoms: C6_8  and  N2_9 
REMARK    5  A    between atoms: N2_9  and  C7_11 
REMARK    6  A    between atoms: C7_11  and  C8_12 
REMARK    7  A    between atoms: C8_12  and  C9_13 
REMARK    8  A    between atoms: C9_13  and  C10_14 
REMARK    9  A    between atoms: C10_14  and  N3_15 
REMARK   10  A    between atoms: N3_15  and  C11_17 
REMARK   11  A    between atoms: C11_17  and  C12_18 
ROOT
HETATM    1  N3  UNL     1      20.357   2.966  10.813  1.00  0.00    -0.398 N 
ATOM      2  H3  UNL     1      20.339   2.966  11.833  1.00  0.00     0.158 HD
ENDROOT
BRANCH   1   3
HETATM    3  C10 UNL     1      20.957   1.917   9.906  1.00  0.00     0.119 C 
BRANCH   3   4
HETATM    4  C9  UNL     1      22.312   1.565  10.399  1.00  0.00     0.021 C 
BRANCH   4   5
HETATM    5  C8  UNL     1      23.216   1.089   9.315  1.00  0.00     0.021 C 
BRANCH   5   6
HETATM    6  C7  UNL     1      24.681   1.255   9.534  1.00  0.00     0.113 C 
BRANCH   6   7
HETATM    7  N2  UNL     1      25.535   1.010   8.431  1.00  0.00    -0.420 N 
ATOM      8  H2  UNL     1      25.306   1.339   7.493  1.00  0.00     0.153 HD
BRANCH   7   9
HETATM    9  C6  UNL     1      26.730   0.281   8.698  1.00  0.00     0.133 C 
BRANCH   9  10
HETATM   10  C5  UNL     1      27.592   0.108   7.459  1.00  0.00     0.139 C 
BRANCH  10  11
HETATM   11  N1  UNL     1      28.975  -0.160   7.847  1.00  0.00    -0.388 N 
ATOM     12  H1  UNL     1      29.236  -0.081   8.829  1.00  0.00     0.159 HD
BRANCH  11  13
HETATM   13  C4  UNL     1      29.956  -0.524   6.906  1.00  0.00     0.028 A 
HETATM   14  C3  UNL     1      30.519  -1.800   6.897  1.00  0.00     0.029 A 
HETATM   15  C2  UNL     1      31.474  -2.188   5.998  1.00  0.00     0.002 A 
HETATM   16  C1  UNL     1      31.908  -1.280   5.049  1.00  0.00     0.000 A 
HETATM   17  C27 UNL     1      31.359  -0.015   5.047  1.00  0.00     0.002 A 
HETATM   18  C26 UNL     1      30.406   0.352   5.954  1.00  0.00     0.029 A 
ENDBRANCH  11  13
ENDBRANCH  10  11
ENDBRANCH   9  10
ENDBRANCH   7   9
ENDBRANCH   6   7
ENDBRANCH   5   6
ENDBRANCH   4   5
ENDBRANCH   3   4
ENDBRANCH   1   3
BRANCH   1  19
HETATM   19  C11 UNL     1      19.833   3.935   9.958  1.00  0.00     0.096 C 
BRANCH  19  20
HETATM   20  C12 UNL     1      20.350   5.286   9.813  1.00  0.00     0.001 A 
HETATM   21  C13 UNL     1      19.506   6.302  10.361  1.00  0.00    -0.013 A 
HETATM   22  C14 UNL     1      18.321   5.943  10.968  1.00  0.00     0.013 A 
HETATM   23  C18 UNL     1      19.857   7.608  10.294  1.00  0.00    -0.024 A 
HETATM   24  C15 UNL     1      17.509   6.938  11.500  1.00  0.00     0.001 A 
HETATM   25  C16 UNL     1      17.853   8.268  11.438  1.00  0.00     0.001 A 
HETATM   26  C17 UNL     1      19.039   8.610  10.830  1.00  0.00     0.012 A 
HETATM   27  C19 UNL     1      21.036   7.954   9.692  1.00  0.00     0.024 A 
HETATM   28  C20 UNL     1      21.865   6.985   9.158  1.00  0.00    -0.024 A 
HETATM   29  C21 UNL     1      23.059   7.361   8.572  1.00  0.00     0.012 A 
HETATM   30  C25 UNL     1      21.533   5.620   9.211  1.00  0.00    -0.013 A 
HETATM   31  C22 UNL     1      23.924   6.439   8.045  1.00  0.00     0.001 A 
HETATM   32  C23 UNL     1      23.594   5.112   8.104  1.00  0.00     0.001 A 
HETATM   33  C24 UNL     1      22.409   4.695   8.682  1.00  0.00     0.013 A 
ENDBRANCH  19  20
ENDBRANCH   1  19
TORSDOF 11
ENDMDL
