MODEL 1
REMARK VINA RESULT: -10.952593776      0.000      0.000
REMARK  11 active torsions:
REMARK  status: ('A' for Active; 'I' for Inactive)
REMARK    1  A    between atoms: C2_2  and  C3_3 
REMARK    2  A    between atoms: C3_3  and  C4_4 
REMARK    3  A    between atoms: C4_4  and  C5_5 
REMARK    4  A    between atoms: C5_5  and  C6_6 
REMARK    5  A    between atoms: C6_6  and  C7_7 
REMARK    6  A    between atoms: C7_7  and  C8_8 
REMARK    7  A    between atoms: C8_8  and  N1_9 
REMARK    8  A    between atoms: N1_9  and  C9_11 
REMARK    9  A    between atoms: C12_14  and  C13_15 
REMARK   10  A    between atoms: C13_15  and  C14_16 
REMARK   11  A    between atoms: C14_16  and  C15_17 
ROOT
HETATM    1  N1  UNL     1      25.732   0.897  10.429  1.00  0.00    -0.390 N 
ATOM      2  H1  UNL     1      25.929   0.823  11.427  1.00  0.00     0.159 HD
ENDROOT
BRANCH   1   3
HETATM    3  C8  UNL     1      26.683   0.378   9.475  1.00  0.00     0.119 C 
BRANCH   3   4
HETATM    4  C7  UNL     1      26.836  -1.137   9.792  1.00  0.00     0.020 C 
BRANCH   4   5
HETATM    5  C6  UNL     1      26.547  -1.859   8.557  1.00  0.00     0.002 C 
BRANCH   5   6
HETATM    6  C5  UNL     1      27.323  -1.602   7.348  1.00  0.00     0.000 C 
BRANCH   6   7
HETATM    7  C4  UNL     1      28.762  -1.675   7.390  1.00  0.00     0.004 C 
BRANCH   7   8
HETATM    8  C3  UNL     1      29.678  -2.173   6.359  1.00  0.00     0.036 C 
BRANCH   8   9
HETATM    9  C2  UNL     1      30.681  -1.227   5.865  1.00  0.00    -0.061 A 
HETATM   10  C1  UNL     1      31.696  -1.707   5.110  1.00  0.00     0.018 A 
HETATM   11  C24 UNL     1      32.749  -0.898   4.560  1.00  0.00    -0.009 A 
HETATM   12  C19 UNL     1      32.745   0.457   4.803  1.00  0.00     0.038 A 
HETATM   13  C23 UNL     1      33.778  -1.398   3.793  1.00  0.00     0.013 A 
HETATM   14  N6  UNL     1      31.704   0.990   5.583  1.00  0.00    -0.385 N 
HETATM   15  C20 UNL     1      33.762   1.250   4.273  1.00  0.00     0.030 A 
HETATM   16  C18 UNL     1      30.686   0.196   6.201  1.00  0.00     0.154 A 
ATOM     17  H6  UNL     1      31.671   2.000   5.717  1.00  0.00     0.160 HD
HETATM   18  C21 UNL     1      34.782   0.730   3.509  1.00  0.00     0.002 A 
HETATM   19  C22 UNL     1      34.785  -0.626   3.267  1.00  0.00     0.001 A 
ENDBRANCH   8   9
ENDBRANCH   7   8
ENDBRANCH   6   7
ENDBRANCH   5   6
ENDBRANCH   4   5
ENDBRANCH   3   4
ENDBRANCH   1   3
BRANCH   1  20
HETATM   20  C9  UNL     1      24.505   1.520   9.986  1.00  0.00     0.027 A 
HETATM   21  C10 UNL     1      23.727   2.259  10.846  1.00  0.00     0.029 A 
HETATM   22  C11 UNL     1      22.554   2.857  10.425  1.00  0.00     0.009 A 
HETATM   23  C12 UNL     1      22.116   2.734   9.121  1.00  0.00    -0.058 A 
HETATM   24  C16 UNL     1      22.901   1.990   8.262  1.00  0.00     0.009 A 
HETATM   25  C17 UNL     1      24.076   1.393   8.685  1.00  0.00     0.029 A 
BRANCH  23  26
HETATM   26  C13 UNL     1      20.851   3.383   8.682  1.00  0.00     0.046 C 
BRANCH  26  27
HETATM   27  C14 UNL     1      21.204   4.284   7.514  1.00  0.00     0.084 C 
BRANCH  27  28
HETATM   28  C15 UNL     1      22.069   5.413   7.938  1.00  0.00     0.113 A 
HETATM   29  N2  UNL     1      23.372   5.630   7.748  1.00  0.00    -0.272 N 
HETATM   30  N3  UNL     1      23.651   6.785   8.328  1.00  0.00    -0.227 N 
ATOM     31  H2  UNL     1      24.026   5.024   7.252  1.00  0.00     0.190 HD
HETATM   32  N4  UNL     1      22.582   7.304   8.875  1.00  0.00    -0.227 N 
ATOM     33  H3  UNL     1      24.576   7.214   8.347  1.00  0.00     0.210 HD
HETATM   34  N5  UNL     1      21.600   6.459   8.637  1.00  0.00    -0.272 N 
ATOM     35  H4  UNL     1      22.521   8.187   9.384  1.00  0.00     0.210 HD
ATOM     36  H5  UNL     1      20.633   6.580   8.937  1.00  0.00     0.190 HD
ENDBRANCH  27  28
ENDBRANCH  26  27
ENDBRANCH  23  26
ENDBRANCH   1  20
TORSDOF 11
ENDMDL
MODEL 2
REMARK VINA RESULT: -10.933318531      0.922      1.784
REMARK  11 active torsions:
REMARK  status: ('A' for Active; 'I' for Inactive)
REMARK    1  A    between atoms: C2_2  and  C3_3 
REMARK    2  A    between atoms: C3_3  and  C4_4 
REMARK    3  A    between atoms: C4_4  and  C5_5 
REMARK    4  A    between atoms: C5_5  and  C6_6 
REMARK    5  A    between atoms: C6_6  and  C7_7 
REMARK    6  A    between atoms: C7_7  and  C8_8 
REMARK    7  A    between atoms: C8_8  and  N1_9 
REMARK    8  A    between atoms: N1_9  and  C9_11 
REMARK    9  A    between atoms: C12_14  and  C13_15 
REMARK   10  A    between atoms: C13_15  and  C14_16 
REMARK   11  A    between atoms: C14_16  and  C15_17 
ROOT
HETATM    1  N1  UNL     1      26.553   0.605   9.618  1.00  0.00    -0.390 N 
ATOM      2  H1  UNL     1      27.398   1.125   9.384  1.00  0.00     0.159 HD
ENDROOT
BRANCH   1   3
HETATM    3  C8  UNL     1      26.664  -0.725  10.167  1.00  0.00     0.119 C 
BRANCH   3   4
HETATM    4  C7  UNL     1      26.089  -1.689   9.090  1.00  0.00     0.020 C 
BRANCH   4   5
HETATM    5  C6  UNL     1      27.229  -2.235   8.359  1.00  0.00     0.002 C 
BRANCH   5   6
HETATM    6  C5  UNL     1      27.784  -1.524   7.212  1.00  0.00     0.000 C 
BRANCH   6   7
HETATM    7  C4  UNL     1      29.048  -0.840   7.335  1.00  0.00     0.004 C 
BRANCH   7   8
HETATM    8  C3  UNL     1      29.637   0.151   6.429  1.00  0.00     0.036 C 
BRANCH   8   9
HETATM    9  C2  UNL     1      30.807  -0.280   5.662  1.00  0.00    -0.061 A 
HETATM   10  C1  UNL     1      31.728   0.652   5.323  1.00  0.00     0.018 A 
HETATM   11  C24 UNL     1      32.923   0.374   4.573  1.00  0.00    -0.009 A 
HETATM   12  C19 UNL     1      33.168  -0.918   4.164  1.00  0.00     0.038 A 
HETATM   13  C23 UNL     1      33.853   1.331   4.232  1.00  0.00     0.013 A 
HETATM   14  N6  UNL     1      32.232  -1.911   4.501  1.00  0.00    -0.385 N 
HETATM   15  C20 UNL     1      34.325  -1.196   3.437  1.00  0.00     0.030 A 
HETATM   16  C18 UNL     1      31.002  -1.647   5.182  1.00  0.00     0.154 A 
ATOM     17  H6  UNL     1      32.442  -2.875   4.245  1.00  0.00     0.160 HD
HETATM   18  C21 UNL     1      35.242  -0.225   3.106  1.00  0.00     0.002 A 
HETATM   19  C22 UNL     1      34.994   1.067   3.516  1.00  0.00     0.001 A 
ENDBRANCH   8   9
ENDBRANCH   7   8
ENDBRANCH   6   7
ENDBRANCH   5   6
ENDBRANCH   4   5
ENDBRANCH   3   4
ENDBRANCH   1   3
BRANCH   1  20
HETATM   20  C9  UNL     1      25.256   1.208   9.397  1.00  0.00     0.027 A 
HETATM   21  C10 UNL     1      24.687   1.241   8.146  1.00  0.00     0.029 A 
HETATM   22  C11 UNL     1      23.448   1.816   7.933  1.00  0.00     0.009 A 
HETATM   23  C12 UNL     1      22.733   2.381   8.970  1.00  0.00    -0.058 A 
HETATM   24  C16 UNL     1      23.311   2.345  10.224  1.00  0.00     0.009 A 
HETATM   25  C17 UNL     1      24.551   1.769  10.436  1.00  0.00     0.029 A 
BRANCH  23  26
HETATM   26  C13 UNL     1      21.400   2.996   8.725  1.00  0.00     0.046 C 
BRANCH  26  27
HETATM   27  C14 UNL     1      21.565   3.947   7.556  1.00  0.00     0.084 C 
BRANCH  27  28
HETATM   28  C15 UNL     1      22.189   5.226   7.978  1.00  0.00     0.113 A 
HETATM   29  N2  UNL     1      21.648   6.328   8.502  1.00  0.00    -0.272 N 
HETATM   30  N3  UNL     1      22.639   7.180   8.696  1.00  0.00    -0.227 N 
ATOM     31  H2  UNL     1      20.661   6.483   8.711  1.00  0.00     0.190 HD
HETATM   32  N4  UNL     1      23.781   6.664   8.318  1.00  0.00    -0.227 N 
ATOM     33  H3  UNL     1      22.529   8.115   9.088  1.00  0.00     0.210 HD
HETATM   34  N5  UNL     1      23.508   5.455   7.872  1.00  0.00    -0.272 N 
ATOM     35  H4  UNL     1      24.699   7.110   8.360  1.00  0.00     0.210 HD
ATOM     36  H5  UNL     1      24.192   4.795   7.504  1.00  0.00     0.190 HD
ENDBRANCH  27  28
ENDBRANCH  26  27
ENDBRANCH  23  26
ENDBRANCH   1  20
TORSDOF 11
ENDMDL
MODEL 3
REMARK VINA RESULT: -10.810492470      0.792      1.474
REMARK  11 active torsions:
REMARK  status: ('A' for Active; 'I' for Inactive)
REMARK    1  A    between atoms: C2_2  and  C3_3 
REMARK    2  A    between atoms: C3_3  and  C4_4 
REMARK    3  A    between atoms: C4_4  and  C5_5 
REMARK    4  A    between atoms: C5_5  and  C6_6 
REMARK    5  A    between atoms: C6_6  and  C7_7 
REMARK    6  A    between atoms: C7_7  and  C8_8 
REMARK    7  A    between atoms: C8_8  and  N1_9 
REMARK    8  A    between atoms: N1_9  and  C9_11 
REMARK    9  A    between atoms: C12_14  and  C13_15 
REMARK   10  A    between atoms: C13_15  and  C14_16 
REMARK   11  A    between atoms: C14_16  and  C15_17 
ROOT
HETATM    1  N1  UNL     1      25.738   0.789  10.552  1.00  0.00    -0.390 N 
ATOM      2  H1  UNL     1      25.846   0.654  11.557  1.00  0.00     0.159 HD
ENDROOT
BRANCH   1   3
HETATM    3  C8  UNL     1      26.782   0.350   9.658  1.00  0.00     0.119 C 
BRANCH   3   4
HETATM    4  C7  UNL     1      26.868  -1.195   9.815  1.00  0.00     0.020 C 
BRANCH   4   5
HETATM    5  C6  UNL     1      27.268  -1.731   8.517  1.00  0.00     0.002 C 
BRANCH   5   6
HETATM    6  C5  UNL     1      26.897  -1.044   7.284  1.00  0.00     0.000 C 
BRANCH   6   7
HETATM    7  C4  UNL     1      27.917  -0.428   6.472  1.00  0.00     0.004 C 
BRANCH   7   8
HETATM    8  C3  UNL     1      29.237   0.060   6.885  1.00  0.00     0.036 C 
BRANCH   8   9
HETATM    9  C2  UNL     1      30.379  -0.399   6.091  1.00  0.00    -0.061 A 
HETATM   10  C1  UNL     1      31.292   0.519   5.696  1.00  0.00     0.018 A 
HETATM   11  C24 UNL     1      32.460   0.215   4.915  1.00  0.00    -0.009 A 
HETATM   12  C19 UNL     1      32.686  -1.089   4.534  1.00  0.00     0.038 A 
HETATM   13  C23 UNL     1      33.382   1.157   4.517  1.00  0.00     0.013 A 
HETATM   14  N6  UNL     1      31.757  -2.068   4.929  1.00  0.00    -0.385 N 
HETATM   15  C20 UNL     1      33.817  -1.393   3.776  1.00  0.00     0.030 A 
HETATM   16  C18 UNL     1      30.552  -1.779   5.643  1.00  0.00     0.154 A 
ATOM     17  H6  UNL     1      31.954  -3.040   4.693  1.00  0.00     0.160 HD
HETATM   18  C21 UNL     1      34.727  -0.436   3.389  1.00  0.00     0.002 A 
HETATM   19  C22 UNL     1      34.498   0.868   3.771  1.00  0.00     0.001 A 
ENDBRANCH   8   9
ENDBRANCH   7   8
ENDBRANCH   6   7
ENDBRANCH   5   6
ENDBRANCH   4   5
ENDBRANCH   3   4
ENDBRANCH   1   3
BRANCH   1  20
HETATM   20  C9  UNL     1      24.542   1.419  10.039  1.00  0.00     0.027 A 
HETATM   21  C10 UNL     1      23.691   2.119  10.863  1.00  0.00     0.029 A 
HETATM   22  C11 UNL     1      22.549   2.723  10.374  1.00  0.00     0.009 A 
HETATM   23  C12 UNL     1      22.213   2.646   9.037  1.00  0.00    -0.058 A 
HETATM   24  C16 UNL     1      23.071   1.941   8.215  1.00  0.00     0.009 A 
HETATM   25  C17 UNL     1      24.216   1.338   8.705  1.00  0.00     0.029 A 
BRANCH  23  26
HETATM   26  C13 UNL     1      20.980   3.302   8.526  1.00  0.00     0.046 C 
BRANCH  26  27
HETATM   27  C14 UNL     1      21.406   4.212   7.391  1.00  0.00     0.084 C 
BRANCH  27  28
HETATM   28  C15 UNL     1      22.097   5.425   7.895  1.00  0.00     0.113 A 
HETATM   29  N2  UNL     1      21.618   6.507   8.511  1.00  0.00    -0.272 N 
HETATM   30  N3  UNL     1      22.651   7.295   8.749  1.00  0.00    -0.227 N 
ATOM     31  H2  UNL     1      20.643   6.690   8.753  1.00  0.00     0.190 HD
HETATM   32  N4  UNL     1      23.761   6.759   8.308  1.00  0.00    -0.227 N 
ATOM     33  H3  UNL     1      22.593   8.202   9.213  1.00  0.00     0.210 HD
HETATM   34  N5  UNL     1      23.423   5.601   7.779  1.00  0.00    -0.272 N 
ATOM     35  H4  UNL     1      24.699   7.157   8.365  1.00  0.00     0.210 HD
ATOM     36  H5  UNL     1      24.068   4.940   7.347  1.00  0.00     0.190 HD
ENDBRANCH  27  28
ENDBRANCH  26  27
ENDBRANCH  23  26
ENDBRANCH   1  20
TORSDOF 11
ENDMDL
MODEL 4
REMARK VINA RESULT: -10.741894640      0.994      1.394
REMARK  11 active torsions:
REMARK  status: ('A' for Active; 'I' for Inactive)
REMARK    1  A    between atoms: C2_2  and  C3_3 
REMARK    2  A    between atoms: C3_3  and  C4_4 
REMARK    3  A    between atoms: C4_4  and  C5_5 
REMARK    4  A    between atoms: C5_5  and  C6_6 
REMARK    5  A    between atoms: C6_6  and  C7_7 
REMARK    6  A    between atoms: C7_7  and  C8_8 
REMARK    7  A    between atoms: C8_8  and  N1_9 
REMARK    8  A    between atoms: N1_9  and  C9_11 
REMARK    9  A    between atoms: C12_14  and  C13_15 
REMARK   10  A    between atoms: C13_15  and  C14_16 
REMARK   11  A    between atoms: C14_16  and  C15_17 
ROOT
HETATM    1  N1  UNL     1      24.346   0.281   9.442  1.00  0.00    -0.390 N 
ATOM      2  H1  UNL     1      24.150  -0.516  10.048  1.00  0.00     0.159 HD
ENDROOT
BRANCH   1   3
HETATM    3  C8  UNL     1      25.653   0.419   8.847  1.00  0.00     0.119 C 
BRANCH   3   4
HETATM    4  C7  UNL     1      26.633  -0.373   9.759  1.00  0.00     0.020 C 
BRANCH   4   5
HETATM    5  C6  UNL     1      26.831  -1.678   9.134  1.00  0.00     0.002 C 
BRANCH   5   6
HETATM    6  C5  UNL     1      27.347  -1.778   7.773  1.00  0.00     0.000 C 
BRANCH   6   7
HETATM    7  C4  UNL     1      28.734  -1.485   7.508  1.00  0.00     0.004 C 
BRANCH   7   8
HETATM    8  C3  UNL     1      29.588  -2.017   6.442  1.00  0.00     0.036 C 
BRANCH   8   9
HETATM    9  C2  UNL     1      30.618  -1.116   5.920  1.00  0.00    -0.061 A 
HETATM   10  C1  UNL     1      31.617  -1.648   5.178  1.00  0.00     0.018 A 
HETATM   11  C24 UNL     1      32.693  -0.887   4.604  1.00  0.00    -0.009 A 
HETATM   12  C19 UNL     1      32.730   0.474   4.807  1.00  0.00     0.038 A 
HETATM   13  C23 UNL     1      33.706  -1.440   3.851  1.00  0.00     0.013 A 
HETATM   14  N6  UNL     1      31.706   1.060   5.572  1.00  0.00    -0.385 N 
HETATM   15  C20 UNL     1      33.769   1.220   4.253  1.00  0.00     0.030 A 
HETATM   16  C18 UNL     1      30.666   0.315   6.214  1.00  0.00     0.154 A 
ATOM     17  H6  UNL     1      31.704   2.074   5.676  1.00  0.00     0.160 HD
HETATM   18  C21 UNL     1      34.772   0.648   3.503  1.00  0.00     0.002 A 
HETATM   19  C22 UNL     1      34.734  -0.715   3.302  1.00  0.00     0.001 A 
ENDBRANCH   8   9
ENDBRANCH   7   8
ENDBRANCH   6   7
ENDBRANCH   5   6
ENDBRANCH   4   5
ENDBRANCH   3   4
ENDBRANCH   1   3
BRANCH   1  20
HETATM   20  C9  UNL     1      23.312   1.261   9.191  1.00  0.00     0.027 A 
HETATM   21  C10 UNL     1      23.370   2.101   8.105  1.00  0.00     0.029 A 
HETATM   22  C11 UNL     1      22.383   3.037   7.862  1.00  0.00     0.009 A 
HETATM   23  C12 UNL     1      21.297   3.167   8.705  1.00  0.00    -0.058 A 
HETATM   24  C16 UNL     1      21.244   2.320   9.795  1.00  0.00     0.009 A 
HETATM   25  C17 UNL     1      22.233   1.383  10.036  1.00  0.00     0.029 A 
BRANCH  23  26
HETATM   26  C13 UNL     1      20.241   4.179   8.431  1.00  0.00     0.046 C 
BRANCH  26  27
HETATM   27  C14 UNL     1      20.172   5.080   9.649  1.00  0.00     0.084 C 
BRANCH  27  28
HETATM   28  C15 UNL     1      21.005   6.296   9.475  1.00  0.00     0.113 A 
HETATM   29  N2  UNL     1      22.275   6.433   9.089  1.00  0.00    -0.272 N 
HETATM   30  N3  UNL     1      22.535   7.728   9.101  1.00  0.00    -0.227 N 
ATOM     31  H2  UNL     1      22.919   5.684   8.834  1.00  0.00     0.190 HD
HETATM   32  N4  UNL     1      21.486   8.414   9.479  1.00  0.00    -0.227 N 
ATOM     33  H3  UNL     1      23.434   8.140   8.850  1.00  0.00     0.210 HD
HETATM   34  N5  UNL     1      20.537   7.531   9.712  1.00  0.00    -0.272 N 
ATOM     35  H4  UNL     1      21.418   9.428   9.573  1.00  0.00     0.210 HD
ATOM     36  H5  UNL     1      19.591   7.752  10.024  1.00  0.00     0.190 HD
ENDBRANCH  27  28
ENDBRANCH  26  27
ENDBRANCH  23  26
ENDBRANCH   1  20
TORSDOF 11
ENDMDL
MODEL 5
REMARK VINA RESULT: -10.708245142      1.167      1.825
REMARK  11 active torsions:
REMARK  status: ('A' for Active; 'I' for Inactive)
REMARK    1  A    between atoms: C2_2  and  C3_3 
REMARK    2  A    between atoms: C3_3  and  C4_4 
REMARK    3  A    between atoms: C4_4  and  C5_5 
REMARK    4  A    between atoms: C5_5  and  C6_6 
REMARK    5  A    between atoms: C6_6  and  C7_7 
REMARK    6  A    between atoms: C7_7  and  C8_8 
REMARK    7  A    between atoms: C8_8  and  N1_9 
REMARK    8  A    between atoms: N1_9  and  C9_11 
REMARK    9  A    between atoms: C12_14  and  C13_15 
REMARK   10  A    between atoms: C13_15  and  C14_16 
REMARK   11  A    between atoms: C14_16  and  C15_17 
ROOT
HETATM    1  N1  UNL     1      24.789   0.242   9.212  1.00  0.00    -0.390 N 
ATOM      2  H1  UNL     1      24.711  -0.684   8.793  1.00  0.00     0.159 HD
ENDROOT
BRANCH   1   3
HETATM    3  C8  UNL     1      25.982   0.596   9.943  1.00  0.00     0.119 C 
BRANCH   3   4
HETATM    4  C7  UNL     1      26.816  -0.710  10.073  1.00  0.00     0.020 C 
BRANCH   4   5
HETATM    5  C6  UNL     1      26.543  -1.507   8.881  1.00  0.00     0.002 C 
BRANCH   5   6
HETATM    6  C5  UNL     1      27.585  -1.730   7.883  1.00  0.00     0.000 C 
BRANCH   6   7
HETATM    7  C4  UNL     1      28.732  -0.858   7.836  1.00  0.00     0.004 C 
BRANCH   7   8
HETATM    8  C3  UNL     1      29.169   0.011   6.739  1.00  0.00     0.036 C 
BRANCH   8   9
HETATM    9  C2  UNL     1      30.341  -0.433   5.982  1.00  0.00    -0.061 A 
HETATM   10  C1  UNL     1      31.251   0.497   5.609  1.00  0.00     0.018 A 
HETATM   11  C24 UNL     1      32.446   0.207   4.864  1.00  0.00    -0.009 A 
HETATM   12  C19 UNL     1      32.704  -1.094   4.497  1.00  0.00     0.038 A 
HETATM   13  C23 UNL     1      33.365   1.162   4.488  1.00  0.00     0.013 A 
HETATM   14  N6  UNL     1      31.780  -2.086   4.870  1.00  0.00    -0.385 N 
HETATM   15  C20 UNL     1      33.861  -1.385   3.775  1.00  0.00     0.030 A 
HETATM   16  C18 UNL     1      30.549  -1.813   5.547  1.00  0.00     0.154 A 
ATOM     17  H6  UNL     1      31.999  -3.056   4.646  1.00  0.00     0.160 HD
HETATM   18  C21 UNL     1      34.767  -0.415   3.409  1.00  0.00     0.002 A 
HETATM   19  C22 UNL     1      34.506   0.887   3.777  1.00  0.00     0.001 A 
ENDBRANCH   8   9
ENDBRANCH   7   8
ENDBRANCH   6   7
ENDBRANCH   5   6
ENDBRANCH   4   5
ENDBRANCH   3   4
ENDBRANCH   1   3
BRANCH   1  20
HETATM   20  C9  UNL     1      23.704   1.187   9.066  1.00  0.00     0.027 A 
HETATM   21  C10 UNL     1      23.579   1.966   7.939  1.00  0.00     0.029 A 
HETATM   22  C11 UNL     1      22.542   2.868   7.797  1.00  0.00     0.009 A 
HETATM   23  C12 UNL     1      21.589   3.025   8.784  1.00  0.00    -0.058 A 
HETATM   24  C16 UNL     1      21.720   2.240   9.913  1.00  0.00     0.009 A 
HETATM   25  C17 UNL     1      22.758   1.337  10.054  1.00  0.00     0.029 A 
BRANCH  23  26
HETATM   26  C13 UNL     1      20.478   4.000   8.617  1.00  0.00     0.046 C 
BRANCH  26  27
HETATM   27  C14 UNL     1      20.501   4.903   9.835  1.00  0.00     0.084 C 
BRANCH  27  28
HETATM   28  C15 UNL     1      21.246   6.159   9.568  1.00  0.00     0.113 A 
HETATM   29  N2  UNL     1      22.453   6.359   9.036  1.00  0.00    -0.272 N 
HETATM   30  N3  UNL     1      22.647   7.666   9.021  1.00  0.00    -0.227 N 
ATOM     31  H2  UNL     1      23.100   5.643   8.705  1.00  0.00     0.190 HD
HETATM   32  N4  UNL     1      21.616   8.299   9.520  1.00  0.00    -0.227 N 
ATOM     33  H3  UNL     1      23.489   8.122   8.667  1.00  0.00     0.210 HD
HETATM   34  N5  UNL     1      20.746   7.370   9.861  1.00  0.00    -0.272 N 
ATOM     35  H4  UNL     1      21.508   9.308   9.625  1.00  0.00     0.210 HD
ATOM     36  H5  UNL     1      19.834   7.544  10.282  1.00  0.00     0.190 HD
ENDBRANCH  27  28
ENDBRANCH  26  27
ENDBRANCH  23  26
ENDBRANCH   1  20
TORSDOF 11
ENDMDL
