MODEL 1
REMARK VINA RESULT: -9.616941694      0.000      0.000
REMARK  12 active torsions:
REMARK  status: ('A' for Active; 'I' for Inactive)
REMARK       I    between atoms: C3_3  and  N1_5 
REMARK    1  A    between atoms: N1_5  and  C4_7 
REMARK    2  A    between atoms: C8_14  and  C9_15 
REMARK    3  A    between atoms: C11_17  and  N4_18 
REMARK    4  A    between atoms: N4_18  and  C12_20 
REMARK    5  A    between atoms: C12_20  and  C13_21 
REMARK    6  A    between atoms: C13_21  and  N5_22 
REMARK    7  A    between atoms: N5_22  and  C14_23 
REMARK    8  A    between atoms: N5_22  and  C18_28 
REMARK    9  A    between atoms: C14_23  and  C15_24 
REMARK   10  A    between atoms: C15_24  and  N6_25 
REMARK   11  A    between atoms: C22_33  and  N7_34 
REMARK       I    between atoms: N7_34  and  C23_36 
REMARK   12  A    between atoms: C23_36  and  C24_38 
ROOT
HETATM    1  C1  UNL     1       7.838  14.593  13.605  1.00  0.00     0.022 C 
HETATM    2  C2  UNL     1       8.037  15.050  14.696  1.00  0.00    -0.016 C 
HETATM    3  C3  UNL     1       8.295  15.629  16.037  1.00  0.00     0.300 C 
HETATM    4  O1  UNL     1       7.861  14.945  16.983  1.00  0.00    -0.258 OA
HETATM    5  N1  UNL     1       8.969  16.832  16.147  1.00  0.00    -0.316 N 
ATOM      6  H1  UNL     1       9.249  17.259  15.264  1.00  0.00     0.170 HD
ENDROOT
BRANCH   5   7
HETATM    7  C4  UNL     1       9.323  17.548  17.297  1.00  0.00     0.040 A 
HETATM    8  C5  UNL     1       8.500  17.632  18.392  1.00  0.00     0.070 A 
HETATM    9  C6  UNL     1       8.957  18.390  19.471  1.00  0.00     0.116 A 
HETATM   10  C7  UNL     1       8.068  18.466  20.606  1.00  0.00     0.117 C 
HETATM   11  N3  UNL     1      10.146  19.022  19.467  1.00  0.00    -0.346 N 
HETATM   12  N2  UNL     1       7.362  18.535  21.542  1.00  0.00    -0.190 NA
HETATM   13  C8  UNL     1      10.982  18.964  18.411  1.00  0.00     0.062 A 
ATOM     14  H3  UNL     1      10.423  19.560  20.288  1.00  0.00     0.167 HD
HETATM   15  C28 UNL     1      10.559  18.229  17.342  1.00  0.00     0.061 A 
BRANCH  13  16
HETATM   16  C9  UNL     1      12.268  19.649  18.421  1.00  0.00     0.064 A 
HETATM   17  C10 UNL     1      13.245  19.485  17.486  1.00  0.00     0.080 A 
HETATM   18  C11 UNL     1      14.473  20.158  17.539  1.00  0.00     0.104 A 
HETATM   19  N8  UNL     1      14.653  20.990  18.573  1.00  0.00    -0.333 N 
HETATM   20  C26 UNL     1      13.697  21.177  19.524  1.00  0.00     0.079 A 
ATOM     21  H8  UNL     1      15.534  21.498  18.650  1.00  0.00     0.168 HD
HETATM   22  C27 UNL     1      14.012  22.135  20.636  1.00  0.00     0.089 C 
HETATM   23  N9  UNL     1      12.540  20.520  19.439  1.00  0.00    -0.344 N 
ATOM     24  H9  UNL     1      11.834  20.673  20.158  1.00  0.00     0.167 HD
BRANCH  18  25
HETATM   25  N4  UNL     1      15.352  19.956  16.612  1.00  0.00    -0.375 N 
ATOM     26  H4  UNL     1      15.886  19.088  16.662  1.00  0.00     0.161 HD
BRANCH  25  27
HETATM   27  C12 UNL     1      15.645  20.840  15.520  1.00  0.00     0.141 C 
BRANCH  27  28
HETATM   28  C13 UNL     1      15.713  22.282  15.915  1.00  0.00     0.142 C 
BRANCH  28  29
HETATM   29  N5  UNL     1      16.964  22.939  15.764  1.00  0.00    -0.378 N 
BRANCH  29  30
HETATM   30  C14 UNL     1      17.929  22.830  14.719  1.00  0.00     0.153 C 
BRANCH  30  31
HETATM   31  C15 UNL     1      17.519  23.114  13.328  1.00  0.00     0.291 C 
BRANCH  31  32
HETATM   32  N6  UNL     1      18.252  24.289  12.790  1.00  0.00     0.081 N 
HETATM   33  C16 UNL     1      18.343  24.094  11.326  1.00  0.00     0.309 C 
HETATM   34  C17 UNL     1      17.429  25.471  12.992  1.00  0.00     0.309 C 
ENDBRANCH  31  32
ENDBRANCH  30  31
ENDBRANCH  29  30
BRANCH  29  35
HETATM   35  C18 UNL     1      17.343  23.869  16.836  1.00  0.00     0.034 A 
HETATM   36  C19 UNL     1      16.846  23.700  18.107  1.00  0.00     0.053 A 
HETATM   37  C20 UNL     1      17.234  24.606  19.080  1.00  0.00     0.038 A 
HETATM   38 CL1  UNL     1      16.642  24.455  20.727  1.00  0.00    -0.084 Cl
HETATM   39  C21 UNL     1      18.104  25.653  18.756  1.00  0.00     0.053 A 
HETATM   40  C22 UNL     1      18.596  25.816  17.490  1.00  0.00     0.038 A 
HETATM   41  C25 UNL     1      18.190  24.891  16.532  1.00  0.00     0.059 A 
BRANCH  40  42
HETATM   42  N7  UNL     1      19.450  26.842  17.054  1.00  0.00    -0.326 N 
HETATM   43  C23 UNL     1      18.990  27.964  16.361  1.00  0.00     0.235 C 
HETATM   44  O2  UNL     1      17.780  28.170  16.041  1.00  0.00    -0.272 OA
ATOM     45  H7  UNL     1      20.448  26.764  17.250  1.00  0.00     0.169 HD
BRANCH  43  46
HETATM   46  C24 UNL     1      19.963  29.020  15.945  1.00  0.00     0.217 C 
HETATM   47 CL2  UNL     1      21.528  28.721  16.686  1.00  0.00    -0.121 Cl
ENDBRANCH  43  46
ENDBRANCH  40  42
ENDBRANCH  29  35
ENDBRANCH  28  29
ENDBRANCH  27  28
ENDBRANCH  25  27
ENDBRANCH  18  25
ENDBRANCH  13  16
ENDBRANCH   5   7
TORSDOF 12
ENDMDL
MODEL 2
REMARK VINA RESULT: -9.535012874      3.759     11.404
REMARK  12 active torsions:
REMARK  status: ('A' for Active; 'I' for Inactive)
REMARK       I    between atoms: C3_3  and  N1_5 
REMARK    1  A    between atoms: N1_5  and  C4_7 
REMARK    2  A    between atoms: C8_14  and  C9_15 
REMARK    3  A    between atoms: C11_17  and  N4_18 
REMARK    4  A    between atoms: N4_18  and  C12_20 
REMARK    5  A    between atoms: C12_20  and  C13_21 
REMARK    6  A    between atoms: C13_21  and  N5_22 
REMARK    7  A    between atoms: N5_22  and  C14_23 
REMARK    8  A    between atoms: N5_22  and  C18_28 
REMARK    9  A    between atoms: C14_23  and  C15_24 
REMARK   10  A    between atoms: C15_24  and  N6_25 
REMARK   11  A    between atoms: C22_33  and  N7_34 
REMARK       I    between atoms: N7_34  and  C23_36 
REMARK   12  A    between atoms: C23_36  and  C24_38 
ROOT
HETATM    1  C1  UNL     1      17.768  23.803  12.308  1.00  0.00     0.022 C 
HETATM    2  C2  UNL     1      17.599  23.492  13.453  1.00  0.00    -0.016 C 
HETATM    3  C3  UNL     1      17.372  23.116  14.870  1.00  0.00     0.300 C 
HETATM    4  O1  UNL     1      18.394  22.732  15.470  1.00  0.00    -0.258 OA
HETATM    5  N1  UNL     1      16.102  23.209  15.410  1.00  0.00    -0.316 N 
ATOM      6  H1  UNL     1      15.379  23.538  14.770  1.00  0.00     0.170 HD
ENDROOT
BRANCH   5   7
HETATM    7  C4  UNL     1      15.666  22.916  16.707  1.00  0.00     0.040 A 
HETATM    8  C5  UNL     1      16.071  23.643  17.799  1.00  0.00     0.070 A 
HETATM    9  C6  UNL     1      15.580  23.243  19.043  1.00  0.00     0.116 A 
HETATM   10  C7  UNL     1      16.029  24.021  20.173  1.00  0.00     0.117 C 
HETATM   11  N3  UNL     1      14.746  22.198  19.196  1.00  0.00    -0.346 N 
HETATM   12  N2  UNL     1      16.377  24.645  21.106  1.00  0.00    -0.190 NA
HETATM   13  C8  UNL     1      14.326  21.460  18.150  1.00  0.00     0.062 A 
ATOM     14  H3  UNL     1      14.422  21.957  20.133  1.00  0.00     0.167 HD
HETATM   15  C28 UNL     1      14.791  21.829  16.922  1.00  0.00     0.061 A 
BRANCH  13  16
HETATM   16  C9  UNL     1      13.420  20.333  18.330  1.00  0.00     0.064 A 
HETATM   17  C10 UNL     1      13.103  19.427  17.363  1.00  0.00     0.080 A 
HETATM   18  C11 UNL     1      12.217  18.362  17.576  1.00  0.00     0.104 A 
HETATM   19  N8  UNL     1      11.680  18.268  18.799  1.00  0.00    -0.333 N 
HETATM   20  C26 UNL     1      11.976  19.156  19.787  1.00  0.00     0.079 A 
ATOM     21  H8  UNL     1      11.030  17.507  18.995  1.00  0.00     0.168 HD
HETATM   22  C27 UNL     1      11.314  18.949  21.118  1.00  0.00     0.089 C 
HETATM   23  N9  UNL     1      12.825  20.156  19.548  1.00  0.00    -0.344 N 
ATOM     24  H9  UNL     1      13.037  20.812  20.299  1.00  0.00     0.167 HD
BRANCH  18  25
HETATM   25  N4  UNL     1      11.968  17.536  16.611  1.00  0.00    -0.375 N 
ATOM     26  H4  UNL     1      12.557  16.706  16.550  1.00  0.00     0.161 HD
BRANCH  25  27
HETATM   27  C12 UNL     1      10.941  17.682  15.621  1.00  0.00     0.141 C 
BRANCH  27  28
HETATM   28  C13 UNL     1       9.754  18.462  16.094  1.00  0.00     0.142 C 
BRANCH  28  29
HETATM   29  N5  UNL     1       8.803  17.775  16.896  1.00  0.00    -0.378 N 
BRANCH  29  30
HETATM   30  C14 UNL     1       8.400  16.407  16.860  1.00  0.00     0.153 C 
BRANCH  30  31
HETATM   31  C15 UNL     1       7.732  15.886  15.650  1.00  0.00     0.291 C 
BRANCH  31  32
HETATM   32  N6  UNL     1       6.553  15.056  16.012  1.00  0.00     0.081 N 
HETATM   33  C16 UNL     1       5.360  15.901  15.785  1.00  0.00     0.309 C 
HETATM   34  C17 UNL     1       6.460  13.958  15.063  1.00  0.00     0.309 C 
ENDBRANCH  31  32
ENDBRANCH  30  31
ENDBRANCH  29  30
BRANCH  29  35
HETATM   35  C18 UNL     1       8.115  18.577  17.918  1.00  0.00     0.034 A 
HETATM   36  C19 UNL     1       8.795  19.555  18.605  1.00  0.00     0.053 A 
HETATM   37  C20 UNL     1       8.099  20.280  19.558  1.00  0.00     0.038 A 
HETATM   38 CL1  UNL     1       8.900  21.546  20.476  1.00  0.00    -0.084 Cl
HETATM   39  C21 UNL     1       6.748  20.007  19.797  1.00  0.00     0.053 A 
HETATM   40  C22 UNL     1       6.076  19.034  19.110  1.00  0.00     0.038 A 
HETATM   41  C25 UNL     1       6.799  18.322  18.158  1.00  0.00     0.059 A 
BRANCH  40  42
HETATM   42  N7  UNL     1       4.733  18.664  19.289  1.00  0.00    -0.326 N 
HETATM   43  C23 UNL     1       4.268  18.054  20.456  1.00  0.00     0.235 C 
HETATM   44  O2  UNL     1       4.990  17.759  21.456  1.00  0.00    -0.272 OA
ATOM     45  H7  UNL     1       4.070  18.847  18.536  1.00  0.00     0.169 HD
BRANCH  43  46
HETATM   46  C24 UNL     1       2.819  17.706  20.575  1.00  0.00     0.217 C 
HETATM   47 CL2  UNL     1       1.911  18.457  19.271  1.00  0.00    -0.121 Cl
ENDBRANCH  43  46
ENDBRANCH  40  42
ENDBRANCH  29  35
ENDBRANCH  28  29
ENDBRANCH  27  28
ENDBRANCH  25  27
ENDBRANCH  18  25
ENDBRANCH  13  16
ENDBRANCH   5   7
TORSDOF 12
ENDMDL
MODEL 3
REMARK VINA RESULT: -9.520867335      3.961     11.081
REMARK  12 active torsions:
REMARK  status: ('A' for Active; 'I' for Inactive)
REMARK       I    between atoms: C3_3  and  N1_5 
REMARK    1  A    between atoms: N1_5  and  C4_7 
REMARK    2  A    between atoms: C8_14  and  C9_15 
REMARK    3  A    between atoms: C11_17  and  N4_18 
REMARK    4  A    between atoms: N4_18  and  C12_20 
REMARK    5  A    between atoms: C12_20  and  C13_21 
REMARK    6  A    between atoms: C13_21  and  N5_22 
REMARK    7  A    between atoms: N5_22  and  C14_23 
REMARK    8  A    between atoms: N5_22  and  C18_28 
REMARK    9  A    between atoms: C14_23  and  C15_24 
REMARK   10  A    between atoms: C15_24  and  N6_25 
REMARK   11  A    between atoms: C22_33  and  N7_34 
REMARK       I    between atoms: N7_34  and  C23_36 
REMARK   12  A    between atoms: C23_36  and  C24_38 
ROOT
HETATM    1  C1  UNL     1      20.297  29.510  18.006  1.00  0.00     0.022 C 
HETATM    2  C2  UNL     1      19.467  28.654  17.878  1.00  0.00    -0.016 C 
HETATM    3  C3  UNL     1      18.448  27.585  17.735  1.00  0.00     0.300 C 
HETATM    4  O1  UNL     1      17.782  27.648  16.685  1.00  0.00    -0.258 OA
HETATM    5  N1  UNL     1      18.309  26.632  18.728  1.00  0.00    -0.316 N 
ATOM      6  H1  UNL     1      18.938  26.737  19.525  1.00  0.00     0.170 HD
ENDROOT
BRANCH   5   7
HETATM    7  C4  UNL     1      17.430  25.545  18.798  1.00  0.00     0.040 A 
HETATM    8  C5  UNL     1      16.735  25.234  19.940  1.00  0.00     0.070 A 
HETATM    9  C6  UNL     1      15.902  24.115  19.890  1.00  0.00     0.116 A 
HETATM   10  C7  UNL     1      15.190  23.809  21.108  1.00  0.00     0.117 C 
HETATM   11  N3  UNL     1      15.766  23.357  18.786  1.00  0.00    -0.346 N 
HETATM   12  N2  UNL     1      14.596  23.546  22.086  1.00  0.00    -0.190 NA
HETATM   13  C8  UNL     1      16.431  23.628  17.646  1.00  0.00     0.062 A 
ATOM     14  H3  UNL     1      15.140  22.552  18.815  1.00  0.00     0.167 HD
HETATM   15  C28 UNL     1      17.253  24.717  17.667  1.00  0.00     0.061 A 
BRANCH  13  16
HETATM   16  C9  UNL     1      16.271  22.801  16.457  1.00  0.00     0.064 A 
HETATM   17  C10 UNL     1      15.076  22.392  15.948  1.00  0.00     0.080 A 
HETATM   18  C11 UNL     1      14.969  21.587  14.805  1.00  0.00     0.104 A 
HETATM   19  N8  UNL     1      16.117  21.226  14.220  1.00  0.00    -0.333 N 
HETATM   20  C26 UNL     1      17.329  21.617  14.704  1.00  0.00     0.079 A 
ATOM     21  H8  UNL     1      16.084  20.639  13.386  1.00  0.00     0.168 HD
HETATM   22  C27 UNL     1      18.548  21.151  13.963  1.00  0.00     0.089 C 
HETATM   23  N9  UNL     1      17.391  22.384  15.792  1.00  0.00    -0.344 N 
ATOM     24  H9  UNL     1      18.306  22.670  16.141  1.00  0.00     0.167 HD
BRANCH  18  25
HETATM   25  N4  UNL     1      13.798  21.243  14.375  1.00  0.00    -0.375 N 
ATOM     26  H4  UNL     1      13.622  21.352  13.376  1.00  0.00     0.161 HD
BRANCH  25  27
HETATM   27  C12 UNL     1      12.726  20.723  15.173  1.00  0.00     0.141 C 
BRANCH  27  28
HETATM   28  C13 UNL     1      12.947  19.316  15.637  1.00  0.00     0.142 C 
BRANCH  28  29
HETATM   29  N5  UNL     1      12.294  18.916  16.834  1.00  0.00    -0.378 N 
BRANCH  29  30
HETATM   30  C14 UNL     1      12.736  19.010  18.187  1.00  0.00     0.153 C 
BRANCH  30  31
HETATM   31  C15 UNL     1      13.634  20.117  18.575  1.00  0.00     0.291 C 
BRANCH  31  32
HETATM   32  N6  UNL     1      12.928  21.091  19.448  1.00  0.00     0.081 N 
HETATM   33  C16 UNL     1      12.414  22.156  18.559  1.00  0.00     0.309 C 
HETATM   34  C17 UNL     1      11.760  20.433  20.012  1.00  0.00     0.309 C 
ENDBRANCH  31  32
ENDBRANCH  30  31
ENDBRANCH  29  30
BRANCH  29  35
HETATM   35  C18 UNL     1      10.967  18.306  16.677  1.00  0.00     0.034 A 
HETATM   36  C19 UNL     1      10.744  17.376  15.689  1.00  0.00     0.053 A 
HETATM   37  C20 UNL     1       9.474  16.834  15.584  1.00  0.00     0.038 A 
HETATM   38 CL1  UNL     1       9.114  15.639  14.347  1.00  0.00    -0.084 Cl
HETATM   39  C21 UNL     1       8.465  17.236  16.465  1.00  0.00     0.053 A 
HETATM   40  C22 UNL     1       8.692  18.162  17.447  1.00  0.00     0.038 A 
HETATM   41  C25 UNL     1       9.977  18.689  17.530  1.00  0.00     0.059 A 
BRANCH  40  42
HETATM   42  N7  UNL     1       7.748  18.652  18.364  1.00  0.00    -0.326 N 
HETATM   43  C23 UNL     1       7.389  17.957  19.520  1.00  0.00     0.235 C 
HETATM   44  O2  UNL     1       7.851  16.825  19.857  1.00  0.00    -0.272 OA
ATOM     45  H7  UNL     1       7.307  19.553  18.177  1.00  0.00     0.169 HD
BRANCH  43  46
HETATM   46  C24 UNL     1       6.387  18.556  20.455  1.00  0.00     0.217 C 
HETATM   47 CL2  UNL     1       5.482  19.821  19.637  1.00  0.00    -0.121 Cl
ENDBRANCH  43  46
ENDBRANCH  40  42
ENDBRANCH  29  35
ENDBRANCH  28  29
ENDBRANCH  27  28
ENDBRANCH  25  27
ENDBRANCH  18  25
ENDBRANCH  13  16
ENDBRANCH   5   7
TORSDOF 12
ENDMDL
MODEL 4
REMARK VINA RESULT: -9.375740105      3.282     11.422
REMARK  12 active torsions:
REMARK  status: ('A' for Active; 'I' for Inactive)
REMARK       I    between atoms: C3_3  and  N1_5 
REMARK    1  A    between atoms: N1_5  and  C4_7 
REMARK    2  A    between atoms: C8_14  and  C9_15 
REMARK    3  A    between atoms: C11_17  and  N4_18 
REMARK    4  A    between atoms: N4_18  and  C12_20 
REMARK    5  A    between atoms: C12_20  and  C13_21 
REMARK    6  A    between atoms: C13_21  and  N5_22 
REMARK    7  A    between atoms: N5_22  and  C14_23 
REMARK    8  A    between atoms: N5_22  and  C18_28 
REMARK    9  A    between atoms: C14_23  and  C15_24 
REMARK   10  A    between atoms: C15_24  and  N6_25 
REMARK   11  A    between atoms: C22_33  and  N7_34 
REMARK       I    between atoms: N7_34  and  C23_36 
REMARK   12  A    between atoms: C23_36  and  C24_38 
ROOT
HETATM    1  C1  UNL     1      20.897  28.677  18.039  1.00  0.00     0.022 C 
HETATM    2  C2  UNL     1      19.897  28.016  17.999  1.00  0.00    -0.016 C 
HETATM    3  C3  UNL     1      18.670  27.184  17.960  1.00  0.00     0.300 C 
HETATM    4  O1  UNL     1      17.802  27.587  17.163  1.00  0.00    -0.258 OA
HETATM    5  N1  UNL     1      18.571  26.068  18.771  1.00  0.00    -0.316 N 
ATOM      6  H1  UNL     1      19.378  25.889  19.368  1.00  0.00     0.170 HD
ENDROOT
BRANCH   5   7
HETATM    7  C4  UNL     1      17.522  25.148  18.890  1.00  0.00     0.040 A 
HETATM    8  C5  UNL     1      16.877  24.921  20.080  1.00  0.00     0.070 A 
HETATM    9  C6  UNL     1      15.858  23.967  20.076  1.00  0.00     0.116 A 
HETATM   10  C7  UNL     1      15.203  23.744  21.343  1.00  0.00     0.117 C 
HETATM   11  N3  UNL     1      15.503  23.285  18.971  1.00  0.00    -0.346 N 
HETATM   12  N2  UNL     1      14.653  23.552  22.362  1.00  0.00    -0.190 NA
HETATM   13  C8  UNL     1      16.111  23.480  17.785  1.00  0.00     0.062 A 
ATOM     14  H3  UNL     1      14.749  22.601  19.034  1.00  0.00     0.167 HD
HETATM   15  C28 UNL     1      17.112  24.407  17.760  1.00  0.00     0.061 A 
BRANCH  13  16
HETATM   16  C9  UNL     1      15.713  22.738  16.595  1.00  0.00     0.064 A 
HETATM   17  C10 UNL     1      15.030  21.560  16.605  1.00  0.00     0.080 A 
HETATM   18  C11 UNL     1      14.676  20.874  15.434  1.00  0.00     0.104 A 
HETATM   19  N8  UNL     1      15.046  21.437  14.278  1.00  0.00    -0.333 N 
HETATM   20  C26 UNL     1      15.729  22.614  14.233  1.00  0.00     0.079 A 
ATOM     21  H8  UNL     1      14.808  20.969  13.402  1.00  0.00     0.168 HD
HETATM   22  C27 UNL     1      16.090  23.149  12.878  1.00  0.00     0.089 C 
HETATM   23  N9  UNL     1      16.048  23.238  15.367  1.00  0.00    -0.344 N 
ATOM     24  H9  UNL     1      16.558  24.119  15.317  1.00  0.00     0.167 HD
BRANCH  18  25
HETATM   25  N4  UNL     1      14.021  19.762  15.521  1.00  0.00    -0.375 N 
ATOM     26  H4  UNL     1      14.569  18.910  15.643  1.00  0.00     0.161 HD
BRANCH  25  27
HETATM   27  C12 UNL     1      12.595  19.615  15.459  1.00  0.00     0.141 C 
BRANCH  27  28
HETATM   28  C13 UNL     1      12.082  18.405  16.177  1.00  0.00     0.142 C 
BRANCH  28  29
HETATM   29  N5  UNL     1      10.672  18.250  16.264  1.00  0.00    -0.378 N 
BRANCH  29  30
HETATM   30  C14 UNL     1       9.740  17.827  15.271  1.00  0.00     0.153 C 
BRANCH  30  31
HETATM   31  C15 UNL     1       9.585  16.383  14.998  1.00  0.00     0.291 C 
BRANCH  31  32
HETATM   32  N6  UNL     1       8.152  15.991  15.021  1.00  0.00     0.081 N 
HETATM   33  C16 UNL     1       8.013  14.851  14.087  1.00  0.00     0.309 C 
HETATM   34  C17 UNL     1       7.843  15.473  16.344  1.00  0.00     0.309 C 
ENDBRANCH  31  32
ENDBRANCH  30  31
ENDBRANCH  29  30
BRANCH  29  35
HETATM   35  C18 UNL     1      10.062  18.576  17.561  1.00  0.00     0.034 A 
HETATM   36  C19 UNL     1      10.833  18.618  18.698  1.00  0.00     0.053 A 
HETATM   37  C20 UNL     1      10.207  18.928  19.894  1.00  0.00     0.038 A 
HETATM   38 CL1  UNL     1      11.127  19.002  21.389  1.00  0.00    -0.084 Cl
HETATM   39  C21 UNL     1       8.832  19.186  19.919  1.00  0.00     0.053 A 
HETATM   40  C22 UNL     1       8.070  19.143  18.784  1.00  0.00     0.038 A 
HETATM   41  C25 UNL     1       8.724  18.830  17.596  1.00  0.00     0.059 A 
BRANCH  40  42
HETATM   42  N7  UNL     1       6.684  19.360  18.702  1.00  0.00    -0.326 N 
HETATM   43  C23 UNL     1       5.748  18.358  18.966  1.00  0.00     0.235 C 
HETATM   44  O2  UNL     1       6.035  17.165  19.287  1.00  0.00    -0.272 OA
ATOM     45  H7  UNL     1       6.348  20.286  18.438  1.00  0.00     0.169 HD
BRANCH  43  46
HETATM   46  C24 UNL     1       4.289  18.674  18.874  1.00  0.00     0.217 C 
HETATM   47 CL2  UNL     1       4.045  20.413  18.938  1.00  0.00    -0.121 Cl
ENDBRANCH  43  46
ENDBRANCH  40  42
ENDBRANCH  29  35
ENDBRANCH  28  29
ENDBRANCH  27  28
ENDBRANCH  25  27
ENDBRANCH  18  25
ENDBRANCH  13  16
ENDBRANCH   5   7
TORSDOF 12
ENDMDL
MODEL 5
REMARK VINA RESULT: -9.351918731      3.994     11.070
REMARK  12 active torsions:
REMARK  status: ('A' for Active; 'I' for Inactive)
REMARK       I    between atoms: C3_3  and  N1_5 
REMARK    1  A    between atoms: N1_5  and  C4_7 
REMARK    2  A    between atoms: C8_14  and  C9_15 
REMARK    3  A    between atoms: C11_17  and  N4_18 
REMARK    4  A    between atoms: N4_18  and  C12_20 
REMARK    5  A    between atoms: C12_20  and  C13_21 
REMARK    6  A    between atoms: C13_21  and  N5_22 
REMARK    7  A    between atoms: N5_22  and  C14_23 
REMARK    8  A    between atoms: N5_22  and  C18_28 
REMARK    9  A    between atoms: C14_23  and  C15_24 
REMARK   10  A    between atoms: C15_24  and  N6_25 
REMARK   11  A    between atoms: C22_33  and  N7_34 
REMARK       I    between atoms: N7_34  and  C23_36 
REMARK   12  A    between atoms: C23_36  and  C24_38 
ROOT
HETATM    1  C1  UNL     1      19.525  29.867  16.959  1.00  0.00     0.022 C 
HETATM    2  C2  UNL     1      18.977  28.850  16.641  1.00  0.00    -0.016 C 
HETATM    3  C3  UNL     1      18.309  27.581  16.261  1.00  0.00     0.300 C 
HETATM    4  O1  UNL     1      17.629  27.650  15.219  1.00  0.00    -0.258 OA
HETATM    5  N1  UNL     1      18.473  26.456  17.048  1.00  0.00    -0.316 N 
ATOM      6  H1  UNL     1      19.062  26.581  17.872  1.00  0.00     0.170 HD
ENDROOT
BRANCH   5   7
HETATM    7  C4  UNL     1      17.949  25.169  16.878  1.00  0.00     0.040 A 
HETATM    8  C5  UNL     1      18.353  24.341  15.861  1.00  0.00     0.070 A 
HETATM    9  C6  UNL     1      17.744  23.087  15.785  1.00  0.00     0.116 A 
HETATM   10  C7  UNL     1      18.183  22.241  14.701  1.00  0.00     0.117 C 
HETATM   11  N3  UNL     1      16.802  22.681  16.657  1.00  0.00    -0.346 N 
HETATM   12  N2  UNL     1      18.530  21.534  13.830  1.00  0.00    -0.190 NA
HETATM   13  C8  UNL     1      16.379  23.464  17.669  1.00  0.00     0.062 A 
ATOM     14  H3  UNL     1      16.396  21.751  16.548  1.00  0.00     0.167 HD
HETATM   15  C28 UNL     1      16.958  24.696  17.765  1.00  0.00     0.061 A 
BRANCH  13  16
HETATM   16  C9  UNL     1      15.361  23.010  18.607  1.00  0.00     0.064 A 
HETATM   17  C10 UNL     1      14.318  22.193  18.291  1.00  0.00     0.080 A 
HETATM   18  C11 UNL     1      13.354  21.789  19.225  1.00  0.00     0.104 A 
HETATM   19  N8  UNL     1      13.502  22.250  20.473  1.00  0.00    -0.333 N 
HETATM   20  C26 UNL     1      14.533  23.068  20.822  1.00  0.00     0.079 A 
ATOM     21  H8  UNL     1      12.822  21.981  21.183  1.00  0.00     0.168 HD
HETATM   22  C27 UNL     1      14.596  23.522  22.252  1.00  0.00     0.089 C 
HETATM   23  N9  UNL     1      15.432  23.431  19.906  1.00  0.00    -0.344 N 
ATOM     24  H9  UNL     1      16.199  24.042  20.185  1.00  0.00     0.167 HD
BRANCH  18  25
HETATM   25  N4  UNL     1      12.394  21.006  18.852  1.00  0.00    -0.375 N 
ATOM     26  H4  UNL     1      11.523  21.449  18.559  1.00  0.00     0.161 HD
BRANCH  25  27
HETATM   27  C12 UNL     1      12.442  19.572  18.814  1.00  0.00     0.141 C 
BRANCH  27  28
HETATM   28  C13 UNL     1      12.608  19.012  17.435  1.00  0.00     0.142 C 
BRANCH  28  29
HETATM   29  N5  UNL     1      11.590  19.304  16.488  1.00  0.00    -0.378 N 
BRANCH  29  30
HETATM   30  C14 UNL     1      11.529  20.340  15.508  1.00  0.00     0.153 C 
BRANCH  30  31
HETATM   31  C15 UNL     1      12.761  21.079  15.165  1.00  0.00     0.291 C 
BRANCH  31  32
HETATM   32  N6  UNL     1      13.563  20.335  14.160  1.00  0.00     0.081 N 
HETATM   33  C16 UNL     1      13.618  21.187  12.951  1.00  0.00     0.309 C 
HETATM   34  C17 UNL     1      14.928  20.235  14.650  1.00  0.00     0.309 C 
ENDBRANCH  31  32
ENDBRANCH  30  31
ENDBRANCH  29  30
BRANCH  29  35
HETATM   35  C18 UNL     1      10.413  18.426  16.508  1.00  0.00     0.034 A 
HETATM   36  C19 UNL     1      10.357  17.322  15.689  1.00  0.00     0.053 A 
HETATM   37  C20 UNL     1       9.224  16.529  15.747  1.00  0.00     0.038 A 
HETATM   38 CL1  UNL     1       9.082  15.101  14.732  1.00  0.00    -0.084 Cl
HETATM   39  C21 UNL     1       8.180  16.860  16.618  1.00  0.00     0.053 A 
HETATM   40  C22 UNL     1       8.240  17.959  17.430  1.00  0.00     0.038 A 
HETATM   41  C25 UNL     1       9.391  18.738  17.353  1.00  0.00     0.059 A 
BRANCH  40  42
HETATM   42  N7  UNL     1       7.243  18.394  18.318  1.00  0.00    -0.326 N 
HETATM   43  C23 UNL     1       7.179  17.969  19.647  1.00  0.00     0.235 C 
HETATM   44  O2  UNL     1       7.985  17.150  20.185  1.00  0.00    -0.272 OA
ATOM     45  H7  UNL     1       6.537  19.047  17.979  1.00  0.00     0.169 HD
BRANCH  43  46
HETATM   46  C24 UNL     1       6.095  18.492  20.534  1.00  0.00     0.217 C 
HETATM   47 CL2  UNL     1       5.119  19.665  19.662  1.00  0.00    -0.121 Cl
ENDBRANCH  43  46
ENDBRANCH  40  42
ENDBRANCH  29  35
ENDBRANCH  28  29
ENDBRANCH  27  28
ENDBRANCH  25  27
ENDBRANCH  18  25
ENDBRANCH  13  16
ENDBRANCH   5   7
TORSDOF 12
ENDMDL
