MODEL 1
REMARK VINA RESULT: -8.457947229      0.000      0.000
REMARK  11 active torsions:
REMARK  status: ('A' for Active; 'I' for Inactive)
REMARK    1  A    between atoms: C2_2  and  C3_3 
REMARK    2  A    between atoms: C3_3  and  S1_4 
REMARK    3  A    between atoms: S1_4  and  N1_7 
REMARK    4  A    between atoms: N2_9  and  C4_11 
REMARK       I    between atoms: N3_15  and  C7_17 
REMARK       I    between atoms: C7_17  and  N4_19 
REMARK    5  A    between atoms: N4_19  and  S2_21 
REMARK    6  A    between atoms: S2_21  and  C8_24 
REMARK    7  A    between atoms: N6_32  and  C13_33 
REMARK    8  A    between atoms: C13_33  and  C14_34 
REMARK    9  A    between atoms: C14_34  and  C15_35 
REMARK   10  A    between atoms: C15_35  and  C16_36 
REMARK   11  A    between atoms: C16_36  and  C17_37 
ROOT
HETATM    1  C4  UNL     1      12.419  18.934  17.733  1.00  0.00     0.142 A 
HETATM    2  C5  UNL     1      11.380  18.146  17.525  1.00  0.00     0.112 A 
HETATM    3 CL1  UNL     1      11.327  17.040  16.164  1.00  0.00    -0.078 Cl
HETATM    4  C6  UNL     1      10.364  18.339  18.540  1.00  0.00     0.139 A 
HETATM    5  N3  UNL     1       9.244  17.786  18.675  1.00  0.00    -0.292 N 
ATOM      6  H3  UNL     1       8.689  18.083  19.477  1.00  0.00     0.172 HD
HETATM    7  C7  UNL     1       8.669  16.807  17.849  1.00  0.00     0.335 C 
HETATM    8  O3  UNL     1       8.652  15.597  18.266  1.00  0.00    -0.246 OA
HETATM    9  N4  UNL     1       8.097  17.084  16.579  1.00  0.00    -0.232 N 
ATOM     10  H4  UNL     1       8.109  18.041  16.226  1.00  0.00     0.183 HD
HETATM   11  N6  UNL     1      10.855  19.341  19.435  1.00  0.00    -0.297 N 
HETATM   12  C18 UNL     1      12.135  19.720  18.941  1.00  0.00     0.279 A 
HETATM   13  O8  UNL     1      12.858  20.586  19.485  1.00  0.00    -0.265 OA
ENDROOT
BRANCH  11  14
HETATM   14  C13 UNL     1      10.202  19.891  20.621  1.00  0.00     0.134 C 
BRANCH  14  15
HETATM   15  C14 UNL     1       9.280  21.009  20.256  1.00  0.00     0.021 C 
BRANCH  15  16
HETATM   16  C15 UNL     1       7.838  20.637  20.182  1.00  0.00     0.012 C 
BRANCH  16  17
HETATM   17  C16 UNL     1       7.443  19.861  21.411  1.00  0.00     0.113 C 
BRANCH  17  18
HETATM   18  C17 UNL     1       6.518  18.769  21.022  1.00  0.00     0.172 C 
HETATM   19  O6  UNL     1       6.994  17.673  20.657  1.00  0.00    -0.648 OA
HETATM   20  O7  UNL     1       5.145  18.948  21.058  1.00  0.00    -0.648 OA
ENDBRANCH  17  18
ENDBRANCH  16  17
ENDBRANCH  15  16
ENDBRANCH  14  15
ENDBRANCH  11  14
BRANCH   1  21
HETATM   21  N2  UNL     1      13.598  19.048  16.976  1.00  0.00    -0.285 N 
HETATM   22  N1  UNL     1      13.886  19.851  16.085  1.00  0.00    -0.226 N 
ATOM     23  H1  UNL     1      14.811  19.746  15.668  1.00  0.00     0.200 HD
ATOM     24  H2  UNL     1      14.324  18.365  17.196  1.00  0.00     0.188 HD
BRANCH  22  25
HETATM   25  S1  UNL     1      12.929  21.112  15.469  1.00  0.00     0.243 S 
HETATM   26  O1  UNL     1      11.531  20.599  15.192  1.00  0.00    -0.204 OA
HETATM   27  O2  UNL     1      13.508  21.620  14.201  1.00  0.00    -0.204 OA
BRANCH  25  28
HETATM   28  C3  UNL     1      12.788  22.454  16.644  1.00  0.00     0.164 C 
BRANCH  28  29
HETATM   29  C2  UNL     1      14.181  22.758  17.153  1.00  0.00     0.012 C 
HETATM   30  C1  UNL     1      14.135  23.811  18.251  1.00  0.00     0.006 C 
ENDBRANCH  28  29
ENDBRANCH  25  28
ENDBRANCH  22  25
ENDBRANCH   1  21
BRANCH   9  31
HETATM   31  S2  UNL     1       7.387  15.851  15.623  1.00  0.00     0.270 S 
HETATM   32  O4  UNL     1       7.429  16.313  14.172  1.00  0.00    -0.200 OA
HETATM   33  O5  UNL     1       8.233  14.595  15.648  1.00  0.00    -0.200 OA
BRANCH  31  34
HETATM   34  C8  UNL     1       5.737  15.500  16.038  1.00  0.00     0.125 A 
HETATM   35  C9  UNL     1       4.883  16.176  16.879  1.00  0.00     0.074 A 
HETATM   36 CL2  UNL     1       5.260  17.643  17.763  1.00  0.00    -0.081 Cl
HETATM   37  C10 UNL     1       3.661  15.502  16.901  1.00  0.00     0.113 A 
HETATM   38  N5  UNL     1       3.774  14.436  16.086  1.00  0.00    -0.366 N 
HETATM   39  C11 UNL     1       5.007  14.409  15.555  1.00  0.00     0.030 A 
ATOM     40  H5  UNL     1       3.037  13.755  15.901  1.00  0.00     0.165 HD
HETATM   41  C12 UNL     1       5.540  13.410  14.617  1.00  0.00     0.070 C 
ENDBRANCH  31  34
ENDBRANCH   9  31
TORSDOF 11
ENDMDL
MODEL 2
REMARK VINA RESULT: -8.407229044      1.206      1.368
REMARK  11 active torsions:
REMARK  status: ('A' for Active; 'I' for Inactive)
REMARK    1  A    between atoms: C2_2  and  C3_3 
REMARK    2  A    between atoms: C3_3  and  S1_4 
REMARK    3  A    between atoms: S1_4  and  N1_7 
REMARK    4  A    between atoms: N2_9  and  C4_11 
REMARK       I    between atoms: N3_15  and  C7_17 
REMARK       I    between atoms: C7_17  and  N4_19 
REMARK    5  A    between atoms: N4_19  and  S2_21 
REMARK    6  A    between atoms: S2_21  and  C8_24 
REMARK    7  A    between atoms: N6_32  and  C13_33 
REMARK    8  A    between atoms: C13_33  and  C14_34 
REMARK    9  A    between atoms: C14_34  and  C15_35 
REMARK   10  A    between atoms: C15_35  and  C16_36 
REMARK   11  A    between atoms: C16_36  and  C17_37 
ROOT
HETATM    1  C4  UNL     1      12.765  19.067  17.603  1.00  0.00     0.142 A 
HETATM    2  C5  UNL     1      11.707  18.295  17.425  1.00  0.00     0.112 A 
HETATM    3 CL1  UNL     1      11.641  17.117  16.127  1.00  0.00    -0.078 Cl
HETATM    4  C6  UNL     1      10.685  18.570  18.415  1.00  0.00     0.139 A 
HETATM    5  N3  UNL     1       9.550  18.055  18.566  1.00  0.00    -0.292 N 
ATOM      6  H3  UNL     1       8.994  18.410  19.343  1.00  0.00     0.172 HD
HETATM    7  C7  UNL     1       8.958  17.047  17.788  1.00  0.00     0.335 C 
HETATM    8  O3  UNL     1       8.904  15.863  18.270  1.00  0.00    -0.246 OA
HETATM    9  N4  UNL     1       8.408  17.268  16.498  1.00  0.00    -0.232 N 
ATOM     10  H4  UNL     1       8.450  18.203  16.093  1.00  0.00     0.183 HD
HETATM   11  N6  UNL     1      11.193  19.608  19.260  1.00  0.00    -0.297 N 
HETATM   12  C18 UNL     1      12.487  19.925  18.762  1.00  0.00     0.279 A 
HETATM   13  O8  UNL     1      13.227  20.801  19.267  1.00  0.00    -0.265 OA
ENDROOT
BRANCH  11  14
HETATM   14  C13 UNL     1      10.540  20.239  20.405  1.00  0.00     0.134 C 
BRANCH  14  15
HETATM   15  C14 UNL     1       9.479  21.192  19.960  1.00  0.00     0.021 C 
BRANCH  15  16
HETATM   16  C15 UNL     1       8.084  20.680  20.080  1.00  0.00     0.012 C 
BRANCH  16  17
HETATM   17  C16 UNL     1       7.860  20.109  21.455  1.00  0.00     0.113 C 
BRANCH  17  18
HETATM   18  C17 UNL     1       7.320  18.733  21.329  1.00  0.00     0.172 C 
HETATM   19  O6  UNL     1       8.107  17.795  21.080  1.00  0.00    -0.648 OA
HETATM   20  O7  UNL     1       5.968  18.478  21.485  1.00  0.00    -0.648 OA
ENDBRANCH  17  18
ENDBRANCH  16  17
ENDBRANCH  15  16
ENDBRANCH  14  15
ENDBRANCH  11  14
BRANCH   1  21
HETATM   21  N2  UNL     1      13.955  19.108  16.856  1.00  0.00    -0.285 N 
HETATM   22  N1  UNL     1      14.279  19.861  15.935  1.00  0.00    -0.226 N 
ATOM     23  H1  UNL     1      15.204  19.707  15.534  1.00  0.00     0.200 HD
ATOM     24  H2  UNL     1      14.654  18.411  17.115  1.00  0.00     0.188 HD
BRANCH  22  25
HETATM   25  S1  UNL     1      13.372  21.126  15.253  1.00  0.00     0.243 S 
HETATM   26  O1  UNL     1      13.238  22.252  16.257  1.00  0.00    -0.204 OA
HETATM   27  O2  UNL     1      12.015  20.645  14.894  1.00  0.00    -0.204 OA
BRANCH  25  28
HETATM   28  C3  UNL     1      14.178  21.791  13.801  1.00  0.00     0.164 C 
BRANCH  28  29
HETATM   29  C2  UNL     1      15.481  22.416  14.253  1.00  0.00     0.012 C 
HETATM   30  C1  UNL     1      15.959  23.452  13.246  1.00  0.00     0.006 C 
ENDBRANCH  28  29
ENDBRANCH  25  28
ENDBRANCH  22  25
ENDBRANCH   1  21
BRANCH   9  31
HETATM   31  S2  UNL     1       7.677  16.002  15.602  1.00  0.00     0.270 S 
HETATM   32  O4  UNL     1       7.622  16.443  14.144  1.00  0.00    -0.200 OA
HETATM   33  O5  UNL     1       8.556  14.769  15.594  1.00  0.00    -0.200 OA
BRANCH  31  34
HETATM   34  C8  UNL     1       6.064  15.616  16.117  1.00  0.00     0.125 A 
HETATM   35  C9  UNL     1       5.252  16.266  17.018  1.00  0.00     0.074 A 
HETATM   36 CL2  UNL     1       5.659  17.731  17.893  1.00  0.00    -0.081 Cl
HETATM   37  C10 UNL     1       4.048  15.569  17.111  1.00  0.00     0.113 A 
HETATM   38  N5  UNL     1       4.127  14.513  16.279  1.00  0.00    -0.366 N 
HETATM   39  C11 UNL     1       5.325  14.516  15.669  1.00  0.00     0.030 A 
ATOM     40  H5  UNL     1       3.393  13.820  16.133  1.00  0.00     0.165 HD
HETATM   41  C12 UNL     1       5.814  13.536  14.688  1.00  0.00     0.070 C 
ENDBRANCH  31  34
ENDBRANCH   9  31
TORSDOF 11
ENDMDL
MODEL 3
REMARK VINA RESULT: -8.320767599      3.006      5.941
REMARK  11 active torsions:
REMARK  status: ('A' for Active; 'I' for Inactive)
REMARK    1  A    between atoms: C2_2  and  C3_3 
REMARK    2  A    between atoms: C3_3  and  S1_4 
REMARK    3  A    between atoms: S1_4  and  N1_7 
REMARK    4  A    between atoms: N2_9  and  C4_11 
REMARK       I    between atoms: N3_15  and  C7_17 
REMARK       I    between atoms: C7_17  and  N4_19 
REMARK    5  A    between atoms: N4_19  and  S2_21 
REMARK    6  A    between atoms: S2_21  and  C8_24 
REMARK    7  A    between atoms: N6_32  and  C13_33 
REMARK    8  A    between atoms: C13_33  and  C14_34 
REMARK    9  A    between atoms: C14_34  and  C15_35 
REMARK   10  A    between atoms: C15_35  and  C16_36 
REMARK   11  A    between atoms: C16_36  and  C17_37 
ROOT
HETATM    1  C4  UNL     1      14.413  20.112  17.780  1.00  0.00     0.142 A 
HETATM    2  C5  UNL     1      13.327  19.671  18.389  1.00  0.00     0.112 A 
HETATM    3 CL1  UNL     1      12.647  18.096  18.022  1.00  0.00    -0.078 Cl
HETATM    4  C6  UNL     1      12.829  20.642  19.342  1.00  0.00     0.139 A 
HETATM    5  N3  UNL     1      11.826  20.590  20.096  1.00  0.00    -0.292 N 
ATOM      6  H3  UNL     1      11.668  21.402  20.692  1.00  0.00     0.172 HD
HETATM    7  C7  UNL     1      10.897  19.544  20.213  1.00  0.00     0.335 C 
HETATM    8  O3  UNL     1      10.967  18.784  21.240  1.00  0.00    -0.246 OA
HETATM    9  N4  UNL     1       9.878  19.284  19.258  1.00  0.00    -0.232 N 
ATOM     10  H4  UNL     1       9.812  19.874  18.428  1.00  0.00     0.183 HD
HETATM   11  N6  UNL     1      13.711  21.767  19.289  1.00  0.00    -0.297 N 
HETATM   12  C18 UNL     1      14.701  21.449  18.318  1.00  0.00     0.279 A 
HETATM   13  O8  UNL     1      15.642  22.216  18.011  1.00  0.00    -0.265 OA
ENDROOT
BRANCH  11  14
HETATM   14  C13 UNL     1      13.638  23.009  20.056  1.00  0.00     0.134 C 
BRANCH  14  15
HETATM   15  C14 UNL     1      14.540  22.959  21.245  1.00  0.00     0.021 C 
BRANCH  15  16
HETATM   16  C15 UNL     1      15.409  24.157  21.427  1.00  0.00     0.012 C 
BRANCH  16  17
HETATM   17  C16 UNL     1      15.484  24.939  20.141  1.00  0.00     0.113 C 
BRANCH  17  18
HETATM   18  C17 UNL     1      16.904  25.238  19.835  1.00  0.00     0.172 C 
HETATM   19  O6  UNL     1      17.167  26.070  18.941  1.00  0.00    -0.648 OA
HETATM   20  O7  UNL     1      17.931  24.613  20.522  1.00  0.00    -0.648 OA
ENDBRANCH  17  18
ENDBRANCH  16  17
ENDBRANCH  15  16
ENDBRANCH  14  15
ENDBRANCH  11  14
BRANCH   1  21
HETATM   21  N2  UNL     1      15.186  19.473  16.795  1.00  0.00    -0.285 N 
HETATM   22  N1  UNL     1      15.223  19.667  15.578  1.00  0.00    -0.226 N 
ATOM     23  H1  UNL     1      15.868  19.078  15.050  1.00  0.00     0.200 HD
ATOM     24  H2  UNL     1      15.809  18.742  17.138  1.00  0.00     0.188 HD
BRANCH  22  25
HETATM   25  S1  UNL     1      14.332  20.795  14.673  1.00  0.00     0.243 S 
HETATM   26  O1  UNL     1      14.122  20.266  13.268  1.00  0.00    -0.204 OA
HETATM   27  O2  UNL     1      15.068  22.080  14.591  1.00  0.00    -0.204 OA
BRANCH  25  28
HETATM   28  C3  UNL     1      12.717  21.071  15.391  1.00  0.00     0.164 C 
BRANCH  28  29
HETATM   29  C2  UNL     1      11.861  19.867  15.058  1.00  0.00     0.012 C 
HETATM   30  C1  UNL     1      10.532  19.930  15.798  1.00  0.00     0.006 C 
ENDBRANCH  28  29
ENDBRANCH  25  28
ENDBRANCH  22  25
ENDBRANCH   1  21
BRANCH   9  31
HETATM   31  S2  UNL     1       8.756  18.005  19.465  1.00  0.00     0.270 S 
HETATM   32  O4  UNL     1       8.978  17.012  18.330  1.00  0.00    -0.200 OA
HETATM   33  O5  UNL     1       9.059  17.219  20.723  1.00  0.00    -0.200 OA
BRANCH  31  34
HETATM   34  C8  UNL     1       7.095  18.512  19.430  1.00  0.00     0.125 A 
HETATM   35  C9  UNL     1       6.103  18.203  18.528  1.00  0.00     0.074 A 
HETATM   36 CL2  UNL     1       6.274  17.149  17.137  1.00  0.00    -0.081 Cl
HETATM   37  C10 UNL     1       4.935  18.862  18.913  1.00  0.00     0.113 A 
HETATM   38  N5  UNL     1       5.215  19.558  20.031  1.00  0.00    -0.366 N 
HETATM   39  C11 UNL     1       6.502  19.368  20.364  1.00  0.00     0.030 A 
ATOM     40  H5  UNL     1       4.552  20.140  20.545  1.00  0.00     0.165 HD
HETATM   41  C12 UNL     1       7.208  19.950  21.515  1.00  0.00     0.070 C 
ENDBRANCH  31  34
ENDBRANCH   9  31
TORSDOF 11
ENDMDL
MODEL 4
REMARK VINA RESULT: -8.294480392      2.823      5.733
REMARK  11 active torsions:
REMARK  status: ('A' for Active; 'I' for Inactive)
REMARK    1  A    between atoms: C2_2  and  C3_3 
REMARK    2  A    between atoms: C3_3  and  S1_4 
REMARK    3  A    between atoms: S1_4  and  N1_7 
REMARK    4  A    between atoms: N2_9  and  C4_11 
REMARK       I    between atoms: N3_15  and  C7_17 
REMARK       I    between atoms: C7_17  and  N4_19 
REMARK    5  A    between atoms: N4_19  and  S2_21 
REMARK    6  A    between atoms: S2_21  and  C8_24 
REMARK    7  A    between atoms: N6_32  and  C13_33 
REMARK    8  A    between atoms: C13_33  and  C14_34 
REMARK    9  A    between atoms: C14_34  and  C15_35 
REMARK   10  A    between atoms: C15_35  and  C16_36 
REMARK   11  A    between atoms: C16_36  and  C17_37 
ROOT
HETATM    1  C4  UNL     1      14.033  19.995  17.361  1.00  0.00     0.142 A 
HETATM    2  C5  UNL     1      12.982  19.548  18.027  1.00  0.00     0.112 A 
HETATM    3 CL1  UNL     1      12.276  17.981  17.679  1.00  0.00    -0.078 Cl
HETATM    4  C6  UNL     1      12.546  20.508  19.021  1.00  0.00     0.139 A 
HETATM    5  N3  UNL     1      11.588  20.449  19.831  1.00  0.00    -0.292 N 
ATOM      6  H3  UNL     1      11.469  21.253  20.446  1.00  0.00     0.172 HD
HETATM    7  C7  UNL     1      10.664  19.405  19.988  1.00  0.00     0.335 C 
HETATM    8  O3  UNL     1      10.790  18.630  20.999  1.00  0.00    -0.246 OA
HETATM    9  N4  UNL     1       9.589  19.162  19.092  1.00  0.00    -0.232 N 
ATOM     10  H4  UNL     1       9.477  19.763  18.275  1.00  0.00     0.183 HD
HETATM   11  N6  UNL     1      13.428  21.631  18.931  1.00  0.00    -0.297 N 
HETATM   12  C18 UNL     1      14.358  21.323  17.899  1.00  0.00     0.279 A 
HETATM   13  O8  UNL     1      15.283  22.091  17.548  1.00  0.00    -0.265 OA
ENDROOT
BRANCH  11  14
HETATM   14  C13 UNL     1      13.405  22.862  19.718  1.00  0.00     0.134 C 
BRANCH  14  15
HETATM   15  C14 UNL     1      14.486  22.861  20.748  1.00  0.00     0.021 C 
BRANCH  15  16
HETATM   16  C15 UNL     1      15.103  24.192  21.016  1.00  0.00     0.012 C 
BRANCH  16  17
HETATM   17  C16 UNL     1      15.718  24.738  19.754  1.00  0.00     0.113 C 
BRANCH  17  18
HETATM   18  C17 UNL     1      17.167  24.424  19.743  1.00  0.00     0.172 C 
HETATM   19  O6  UNL     1      17.826  24.574  20.795  1.00  0.00    -0.648 OA
HETATM   20  O7  UNL     1      17.793  23.970  18.595  1.00  0.00    -0.648 OA
ENDBRANCH  17  18
ENDBRANCH  16  17
ENDBRANCH  15  16
ENDBRANCH  14  15
ENDBRANCH  11  14
BRANCH   1  21
HETATM   21  N2  UNL     1      14.744  19.367  16.324  1.00  0.00    -0.285 N 
HETATM   22  N1  UNL     1      14.784  19.640  15.121  1.00  0.00    -0.226 N 
ATOM     23  H1  UNL     1      15.375  19.040  14.545  1.00  0.00     0.200 HD
ATOM     24  H2  UNL     1      15.312  18.568  16.607  1.00  0.00     0.188 HD
BRANCH  22  25
HETATM   25  S1  UNL     1      13.974  20.892  14.308  1.00  0.00     0.243 S 
HETATM   26  O1  UNL     1      12.709  21.250  15.060  1.00  0.00    -0.204 OA
HETATM   27  O2  UNL     1      13.605  20.457  12.939  1.00  0.00    -0.204 OA
BRANCH  25  28
HETATM   28  C3  UNL     1      14.983  22.367  14.219  1.00  0.00     0.164 C 
BRANCH  28  29
HETATM   29  C2  UNL     1      16.424  21.941  14.406  1.00  0.00     0.012 C 
HETATM   30  C1  UNL     1      17.313  23.149  14.663  1.00  0.00     0.006 C 
ENDBRANCH  28  29
ENDBRANCH  25  28
ENDBRANCH  22  25
ENDBRANCH   1  21
BRANCH   9  31
HETATM   31  S2  UNL     1       8.476  17.884  19.346  1.00  0.00     0.270 S 
HETATM   32  O4  UNL     1       8.665  16.879  18.216  1.00  0.00    -0.200 OA
HETATM   33  O5  UNL     1       8.818  17.112  20.603  1.00  0.00    -0.200 OA
BRANCH  31  34
HETATM   34  C8  UNL     1       6.814  18.388  19.357  1.00  0.00     0.125 A 
HETATM   35  C9  UNL     1       5.807  18.106  18.462  1.00  0.00     0.074 A 
HETATM   36 CL2  UNL     1       5.955  17.098  17.035  1.00  0.00    -0.081 Cl
HETATM   37  C10 UNL     1       4.645  18.750  18.888  1.00  0.00     0.113 A 
HETATM   38  N5  UNL     1       4.943  19.411  20.023  1.00  0.00    -0.366 N 
HETATM   39  C11 UNL     1       6.236  19.212  20.328  1.00  0.00     0.030 A 
ATOM     40  H5  UNL     1       4.289  19.974  20.567  1.00  0.00     0.165 HD
HETATM   41  C12 UNL     1       6.961  19.758  21.485  1.00  0.00     0.070 C 
ENDBRANCH  31  34
ENDBRANCH   9  31
TORSDOF 11
ENDMDL
MODEL 5
REMARK VINA RESULT: -8.288944265      3.088      5.916
REMARK  11 active torsions:
REMARK  status: ('A' for Active; 'I' for Inactive)
REMARK    1  A    between atoms: C2_2  and  C3_3 
REMARK    2  A    between atoms: C3_3  and  S1_4 
REMARK    3  A    between atoms: S1_4  and  N1_7 
REMARK    4  A    between atoms: N2_9  and  C4_11 
REMARK       I    between atoms: N3_15  and  C7_17 
REMARK       I    between atoms: C7_17  and  N4_19 
REMARK    5  A    between atoms: N4_19  and  S2_21 
REMARK    6  A    between atoms: S2_21  and  C8_24 
REMARK    7  A    between atoms: N6_32  and  C13_33 
REMARK    8  A    between atoms: C13_33  and  C14_34 
REMARK    9  A    between atoms: C14_34  and  C15_35 
REMARK   10  A    between atoms: C15_35  and  C16_36 
REMARK   11  A    between atoms: C16_36  and  C17_37 
ROOT
HETATM    1  C4  UNL     1      14.541  20.412  17.626  1.00  0.00     0.142 A 
HETATM    2  C5  UNL     1      13.355  20.072  18.098  1.00  0.00     0.112 A 
HETATM    3 CL1  UNL     1      12.563  18.588  17.601  1.00  0.00    -0.078 Cl
HETATM    4  C6  UNL     1      12.857  21.064  19.030  1.00  0.00     0.139 A 
HETATM    5  N3  UNL     1      11.776  21.098  19.669  1.00  0.00    -0.292 N 
ATOM      6  H3  UNL     1      11.637  21.906  20.275  1.00  0.00     0.172 HD
HETATM    7  C7  UNL     1      10.739  20.152  19.646  1.00  0.00     0.335 C 
HETATM    8  O3  UNL     1      10.617  19.362  20.645  1.00  0.00    -0.246 OA
HETATM    9  N4  UNL     1       9.810  20.027  18.578  1.00  0.00    -0.232 N 
ATOM     10  H4  UNL     1       9.897  20.643  17.769  1.00  0.00     0.183 HD
HETATM   11  N6  UNL     1      13.849  22.091  19.114  1.00  0.00    -0.297 N 
HETATM   12  C18 UNL     1      14.903  21.696  18.243  1.00  0.00     0.279 A 
HETATM   13  O8  UNL     1      15.945  22.369  18.068  1.00  0.00    -0.265 OA
ENDROOT
BRANCH  11  14
HETATM   14  C13 UNL     1      13.818  23.313  19.916  1.00  0.00     0.134 C 
BRANCH  14  15
HETATM   15  C14 UNL     1      14.614  23.152  21.170  1.00  0.00     0.021 C 
BRANCH  15  16
HETATM   16  C15 UNL     1      15.639  24.208  21.405  1.00  0.00     0.012 C 
BRANCH  16  17
HETATM   17  C16 UNL     1      15.707  25.133  20.218  1.00  0.00     0.113 C 
BRANCH  17  18
HETATM   18  C17 UNL     1      17.125  25.316  19.824  1.00  0.00     0.172 C 
HETATM   19  O6  UNL     1      18.009  24.668  20.425  1.00  0.00    -0.648 OA
HETATM   20  O7  UNL     1      17.479  26.187  18.808  1.00  0.00    -0.648 OA
ENDBRANCH  17  18
ENDBRANCH  16  17
ENDBRANCH  15  16
ENDBRANCH  14  15
ENDBRANCH  11  14
BRANCH   1  21
HETATM   21  N2  UNL     1      15.349  19.723  16.706  1.00  0.00    -0.285 N 
HETATM   22  N1  UNL     1      15.421  19.841  15.480  1.00  0.00    -0.226 N 
ATOM     23  H1  UNL     1      16.086  19.228  15.009  1.00  0.00     0.200 HD
ATOM     24  H2  UNL     1      15.968  19.020  17.112  1.00  0.00     0.188 HD
BRANCH  22  25
HETATM   25  S1  UNL     1      14.547  20.901  14.482  1.00  0.00     0.243 S 
HETATM   26  O1  UNL     1      13.258  21.300  15.170  1.00  0.00    -0.204 OA
HETATM   27  O2  UNL     1      14.214  20.236  13.198  1.00  0.00    -0.204 OA
BRANCH  25  28
HETATM   28  C3  UNL     1      15.471  22.400  14.160  1.00  0.00     0.164 C 
BRANCH  28  29
HETATM   29  C2  UNL     1      16.910  22.136  14.551  1.00  0.00     0.012 C 
HETATM   30  C1  UNL     1      17.859  22.975  13.707  1.00  0.00     0.006 C 
ENDBRANCH  28  29
ENDBRANCH  25  28
ENDBRANCH  22  25
ENDBRANCH   1  21
BRANCH   9  31
HETATM   31  S2  UNL     1       8.548  18.868  18.615  1.00  0.00     0.270 S 
HETATM   32  O4  UNL     1       8.618  18.155  19.960  1.00  0.00    -0.200 OA
HETATM   33  O5  UNL     1       7.194  19.545  18.612  1.00  0.00    -0.200 OA
BRANCH  31  34
HETATM   34  C8  UNL     1       8.652  17.674  17.358  1.00  0.00     0.125 A 
HETATM   35  C9  UNL     1       9.233  17.761  16.113  1.00  0.00     0.074 A 
HETATM   36 CL2  UNL     1      10.075  19.158  15.468  1.00  0.00    -0.081 Cl
HETATM   37  C10 UNL     1       9.048  16.544  15.454  1.00  0.00     0.113 A 
HETATM   38  N5  UNL     1       8.367  15.734  16.286  1.00  0.00    -0.366 N 
HETATM   39  C11 UNL     1       8.115  16.385  17.435  1.00  0.00     0.030 A 
ATOM     40  H5  UNL     1       8.085  14.776  16.078  1.00  0.00     0.165 HD
HETATM   41  C12 UNL     1       7.394  15.859  18.603  1.00  0.00     0.070 C 
ENDBRANCH  31  34
ENDBRANCH   9  31
TORSDOF 11
ENDMDL
