MODEL 1
REMARK VINA RESULT: -8.804618537      0.000      0.000
REMARK  13 active torsions:
REMARK  status: ('A' for Active; 'I' for Inactive)
REMARK    1  A    between atoms: O1_2  and  C2_3 
REMARK    2  A    between atoms: C2_3  and  C3_4 
REMARK    3  A    between atoms: C3_4  and  O2_5 
REMARK    4  A    between atoms: O2_5  and  C4_6 
REMARK    5  A    between atoms: C4_6  and  C5_7 
REMARK    6  A    between atoms: C5_7  and  N1_8 
REMARK    7  A    between atoms: C6_11  and  N3_12 
REMARK       I    between atoms: N3_12  and  C7_14 
REMARK    8  A    between atoms: C7_14  and  C8_16 
REMARK    9  A    between atoms: C10_18  and  C11_19 
REMARK   10  A    between atoms: C13_24  and  C14_25 
REMARK   11  A    between atoms: C14_25  and  N4_26 
REMARK       I    between atoms: N4_26  and  C15_28 
REMARK   12  A    between atoms: C15_28  and  C16_30 
REMARK   13  A    between atoms: C20_37  and  N6_38 
ROOT
HETATM    1  N1  UNL     1       9.302  19.941  19.169  1.00  0.00    -0.292 N 
HETATM    2  N2  UNL     1       8.654  19.461  18.125  1.00  0.00    -0.282 N 
ATOM      3  H2  UNL     1       7.672  19.650  17.920  1.00  0.00     0.189 HD
HETATM    4  C6  UNL     1       9.472  18.670  17.347  1.00  0.00     0.133 A 
HETATM    5  C13 UNL     1      10.667  18.715  17.987  1.00  0.00     0.029 A 
HETATM    6  C25 UNL     1      10.541  19.490  19.110  1.00  0.00     0.036 A 
HETATM    7  C26 UNL     1      11.572  19.646  20.207  1.00  0.00     0.070 C 
ENDROOT
BRANCH   5   8
HETATM    8  C14 UNL     1      11.937  17.972  17.595  1.00  0.00     0.167 C 
BRANCH   8   9
HETATM    9  N4  UNL     1      12.932  19.031  17.446  1.00  0.00    -0.352 N 
HETATM   10  C15 UNL     1      13.038  20.129  16.678  1.00  0.00     0.254 C 
HETATM   11  O4  UNL     1      12.159  20.392  15.786  1.00  0.00    -0.268 OA
ATOM     12  H4  UNL     1      13.731  18.908  18.068  1.00  0.00     0.163 HD
BRANCH  10  13
HETATM   13  C16 UNL     1      14.139  21.134  16.757  1.00  0.00     0.062 A 
HETATM   14  C17 UNL     1      15.298  21.109  16.041  1.00  0.00     0.025 A 
HETATM   15  C18 UNL     1      15.589  20.144  14.964  1.00  0.00     0.069 C 
HETATM   16  N5  UNL     1      16.298  22.032  16.227  1.00  0.00    -0.325 N 
HETATM   17  C19 UNL     1      16.171  22.993  17.108  1.00  0.00     0.272 A 
ATOM     18  H5  UNL     1      17.151  21.969  15.672  1.00  0.00     0.169 HD
HETATM   19  O5  UNL     1      17.056  23.862  17.308  1.00  0.00    -0.266 OA
HETATM   20  C20 UNL     1      15.019  23.127  17.897  1.00  0.00     0.105 A 
HETATM   21  C23 UNL     1      14.049  22.179  17.689  1.00  0.00    -0.012 A 
HETATM   22  C24 UNL     1      12.904  22.222  18.656  1.00  0.00     0.052 C 
BRANCH  20  23
HETATM   23  N6  UNL     1      14.932  24.226  18.749  1.00  0.00    -0.385 N 
HETATM   24  C21 UNL     1      14.413  25.539  18.606  1.00  0.00     0.149 C 
HETATM   25  C22 UNL     1      15.365  23.899  20.164  1.00  0.00     0.149 C 
ENDBRANCH  20  23
ENDBRANCH  10  13
ENDBRANCH   8   9
ENDBRANCH   5   8
BRANCH   4  26
HETATM   26  N3  UNL     1       9.028  18.138  16.315  1.00  0.00    -0.307 N 
HETATM   27  C7  UNL     1       9.089  17.059  15.521  1.00  0.00     0.264 C 
HETATM   28  O3  UNL     1      10.038  16.649  14.872  1.00  0.00    -0.267 OA
ATOM     29  H3  UNL     1       8.344  18.777  15.911  1.00  0.00     0.170 HD
BRANCH  27  30
HETATM   30  C8  UNL     1       7.820  16.226  15.410  1.00  0.00     0.075 A 
HETATM   31  C9  UNL     1       6.613  16.430  15.935  1.00  0.00     0.036 A 
HETATM   32  C10 UNL     1       5.625  15.509  15.662  1.00  0.00     0.000 A 
HETATM   33  C12 UNL     1       6.002  14.461  14.850  1.00  0.00     0.084 A 
HETATM   34 CL1  UNL     1       5.029  13.050  14.328  1.00  0.00    -0.076 Cl
HETATM   35  S1  UNL     1       7.630  14.781  14.526  1.00  0.00    -0.072 SA
BRANCH  32  36
HETATM   36  C11 UNL     1       4.208  15.695  16.163  1.00  0.00     0.263 C 
HETATM   37  F1  UNL     1       3.331  16.077  15.180  1.00  0.00    -0.251 F 
ENDBRANCH  32  36
ENDBRANCH  27  30
ENDBRANCH   4  26
BRANCH   1  38
HETATM   38  C5  UNL     1       8.730  20.788  20.194  1.00  0.00     0.175 C 
BRANCH  38  39
HETATM   39  C4  UNL     1       8.040  20.050  21.337  1.00  0.00     0.189 C 
BRANCH  39  40
HETATM   40  O2  UNL     1       7.528  18.895  20.803  1.00  0.00    -0.387 OA
BRANCH  40  41
HETATM   41  C3  UNL     1       6.201  18.643  20.870  1.00  0.00     0.193 C 
BRANCH  41  42
HETATM   42  C2  UNL     1       5.714  18.519  19.420  1.00  0.00     0.193 C 
BRANCH  42  43
HETATM   43  O1  UNL     1       5.557  19.686  18.789  1.00  0.00    -0.394 OA
HETATM   44  C1  UNL     1       4.520  20.498  19.122  1.00  0.00     0.201 C 
ENDBRANCH  42  43
ENDBRANCH  41  42
ENDBRANCH  40  41
ENDBRANCH  39  40
ENDBRANCH  38  39
ENDBRANCH   1  38
TORSDOF 13
ENDMDL
MODEL 2
REMARK VINA RESULT: -8.589850293      0.996      1.087
REMARK  13 active torsions:
REMARK  status: ('A' for Active; 'I' for Inactive)
REMARK    1  A    between atoms: O1_2  and  C2_3 
REMARK    2  A    between atoms: C2_3  and  C3_4 
REMARK    3  A    between atoms: C3_4  and  O2_5 
REMARK    4  A    between atoms: O2_5  and  C4_6 
REMARK    5  A    between atoms: C4_6  and  C5_7 
REMARK    6  A    between atoms: C5_7  and  N1_8 
REMARK    7  A    between atoms: C6_11  and  N3_12 
REMARK       I    between atoms: N3_12  and  C7_14 
REMARK    8  A    between atoms: C7_14  and  C8_16 
REMARK    9  A    between atoms: C10_18  and  C11_19 
REMARK   10  A    between atoms: C13_24  and  C14_25 
REMARK   11  A    between atoms: C14_25  and  N4_26 
REMARK       I    between atoms: N4_26  and  C15_28 
REMARK   12  A    between atoms: C15_28  and  C16_30 
REMARK   13  A    between atoms: C20_37  and  N6_38 
ROOT
HETATM    1  N1  UNL     1      10.093  18.693  18.977  1.00  0.00    -0.292 N 
HETATM    2  N2  UNL     1       9.106  18.345  18.174  1.00  0.00    -0.282 N 
ATOM      3  H2  UNL     1       8.125  18.308  18.450  1.00  0.00     0.189 HD
HETATM    4  C6  UNL     1       9.571  18.037  16.913  1.00  0.00     0.133 A 
HETATM    5  C13 UNL     1      10.909  18.237  17.005  1.00  0.00     0.029 A 
HETATM    6  C25 UNL     1      11.213  18.627  18.283  1.00  0.00     0.036 A 
HETATM    7  C26 UNL     1      12.603  18.765  18.867  1.00  0.00     0.070 C 
ENDROOT
BRANCH   5   8
HETATM    8  C14 UNL     1      11.941  17.995  15.912  1.00  0.00     0.167 C 
BRANCH   8   9
HETATM    9  N4  UNL     1      12.948  19.028  16.144  1.00  0.00    -0.352 N 
HETATM   10  C15 UNL     1      13.103  20.303  15.749  1.00  0.00     0.254 C 
HETATM   11  O4  UNL     1      12.280  20.841  14.930  1.00  0.00    -0.268 OA
ATOM     12  H4  UNL     1      13.707  18.708  16.745  1.00  0.00     0.163 HD
BRANCH  10  13
HETATM   13  C16 UNL     1      14.201  21.215  16.189  1.00  0.00     0.062 A 
HETATM   14  C17 UNL     1      15.484  21.201  15.729  1.00  0.00     0.025 A 
HETATM   15  C18 UNL     1      15.958  20.360  14.614  1.00  0.00     0.069 C 
HETATM   16  N5  UNL     1      16.457  22.026  16.240  1.00  0.00    -0.325 N 
HETATM   17  C19 UNL     1      16.183  22.876  17.197  1.00  0.00     0.272 A 
ATOM     18  H5  UNL     1      17.405  21.975  15.868  1.00  0.00     0.169 HD
HETATM   19  O5  UNL     1      17.039  23.652  17.691  1.00  0.00    -0.266 OA
HETATM   20  C20 UNL     1      14.896  22.988  17.744  1.00  0.00     0.105 A 
HETATM   21  C23 UNL     1      13.956  22.140  17.214  1.00  0.00    -0.012 A 
HETATM   22  C24 UNL     1      12.634  22.139  17.922  1.00  0.00     0.052 C 
BRANCH  20  23
HETATM   23  N6  UNL     1      14.674  23.975  18.701  1.00  0.00    -0.385 N 
HETATM   24  C21 UNL     1      14.268  25.334  18.632  1.00  0.00     0.149 C 
HETATM   25  C22 UNL     1      14.756  23.442  20.117  1.00  0.00     0.149 C 
ENDBRANCH  20  23
ENDBRANCH  10  13
ENDBRANCH   8   9
ENDBRANCH   5   8
BRANCH   4  26
HETATM   26  N3  UNL     1       8.775  17.693  16.021  1.00  0.00    -0.307 N 
HETATM   27  C7  UNL     1       8.484  16.752  15.112  1.00  0.00     0.264 C 
HETATM   28  O3  UNL     1       9.136  16.412  14.138  1.00  0.00    -0.267 OA
ATOM     29  H3  UNL     1       8.059  18.416  15.955  1.00  0.00     0.170 HD
BRANCH  27  30
HETATM   30  C8  UNL     1       7.175  16.000  15.312  1.00  0.00     0.075 A 
HETATM   31  C9  UNL     1       5.989  16.440  15.725  1.00  0.00     0.036 A 
HETATM   32  C10 UNL     1       4.955  15.533  15.806  1.00  0.00     0.000 A 
HETATM   33  C12 UNL     1       5.269  14.244  15.432  1.00  0.00     0.084 A 
HETATM   34 CL1  UNL     1       4.222  12.790  15.459  1.00  0.00    -0.076 Cl
HETATM   35  S1  UNL     1       6.904  14.343  15.014  1.00  0.00    -0.072 SA
BRANCH  32  36
HETATM   36  C11 UNL     1       3.557  15.958  16.204  1.00  0.00     0.263 C 
HETATM   37  F1  UNL     1       2.779  16.332  15.137  1.00  0.00    -0.251 F 
ENDBRANCH  32  36
ENDBRANCH  27  30
ENDBRANCH   4  26
BRANCH   1  38
HETATM   38  C5  UNL     1       9.951  19.055  20.371  1.00  0.00     0.175 C 
BRANCH  38  39
HETATM   39  C4  UNL     1       9.048  18.139  21.192  1.00  0.00     0.189 C 
BRANCH  39  40
HETATM   40  O2  UNL     1       7.789  18.253  20.659  1.00  0.00    -0.387 OA
BRANCH  40  41
HETATM   41  C3  UNL     1       6.962  19.240  21.072  1.00  0.00     0.193 C 
BRANCH  41  42
HETATM   42  C2  UNL     1       6.524  19.991  19.807  1.00  0.00     0.193 C 
BRANCH  42  43
HETATM   43  O1  UNL     1       6.303  19.207  18.748  1.00  0.00    -0.394 OA
HETATM   44  C1  UNL     1       5.095  18.605  18.595  1.00  0.00     0.201 C 
ENDBRANCH  42  43
ENDBRANCH  41  42
ENDBRANCH  40  41
ENDBRANCH  39  40
ENDBRANCH  38  39
ENDBRANCH   1  38
TORSDOF 13
ENDMDL
MODEL 3
REMARK VINA RESULT: -8.445900171      1.051      1.190
REMARK  13 active torsions:
REMARK  status: ('A' for Active; 'I' for Inactive)
REMARK    1  A    between atoms: O1_2  and  C2_3 
REMARK    2  A    between atoms: C2_3  and  C3_4 
REMARK    3  A    between atoms: C3_4  and  O2_5 
REMARK    4  A    between atoms: O2_5  and  C4_6 
REMARK    5  A    between atoms: C4_6  and  C5_7 
REMARK    6  A    between atoms: C5_7  and  N1_8 
REMARK    7  A    between atoms: C6_11  and  N3_12 
REMARK       I    between atoms: N3_12  and  C7_14 
REMARK    8  A    between atoms: C7_14  and  C8_16 
REMARK    9  A    between atoms: C10_18  and  C11_19 
REMARK   10  A    between atoms: C13_24  and  C14_25 
REMARK   11  A    between atoms: C14_25  and  N4_26 
REMARK       I    between atoms: N4_26  and  C15_28 
REMARK   12  A    between atoms: C15_28  and  C16_30 
REMARK   13  A    between atoms: C20_37  and  N6_38 
ROOT
HETATM    1  N1  UNL     1       9.262  19.951  19.171  1.00  0.00    -0.292 N 
HETATM    2  N2  UNL     1       8.547  19.415  18.200  1.00  0.00    -0.282 N 
ATOM      3  H2  UNL     1       7.553  19.590  18.054  1.00  0.00     0.189 HD
HETATM    4  C6  UNL     1       9.317  18.590  17.409  1.00  0.00     0.133 A 
HETATM    5  C13 UNL     1      10.552  18.673  17.961  1.00  0.00     0.029 A 
HETATM    6  C25 UNL     1      10.497  19.503  19.050  1.00  0.00     0.036 A 
HETATM    7  C26 UNL     1      11.601  19.719  20.064  1.00  0.00     0.070 C 
ENDROOT
BRANCH   5   8
HETATM    8  C14 UNL     1      11.798  17.917  17.520  1.00  0.00     0.167 C 
BRANCH   8   9
HETATM    9  N4  UNL     1      12.810  18.960  17.375  1.00  0.00    -0.352 N 
HETATM   10  C15 UNL     1      12.927  20.066  16.621  1.00  0.00     0.254 C 
HETATM   11  O4  UNL     1      12.045  20.357  15.742  1.00  0.00    -0.268 OA
ATOM     12  H4  UNL     1      13.613  18.815  17.988  1.00  0.00     0.163 HD
BRANCH  10  13
HETATM   13  C16 UNL     1      14.047  21.051  16.703  1.00  0.00     0.062 A 
HETATM   14  C17 UNL     1      15.211  20.999  15.997  1.00  0.00     0.025 A 
HETATM   15  C18 UNL     1      15.492  20.022  14.929  1.00  0.00     0.069 C 
HETATM   16  N5  UNL     1      16.227  21.905  16.185  1.00  0.00    -0.325 N 
HETATM   17  C19 UNL     1      16.110  22.874  17.059  1.00  0.00     0.272 A 
ATOM     18  H5  UNL     1      17.083  21.822  15.637  1.00  0.00     0.169 HD
HETATM   19  O5  UNL     1      17.010  23.727  17.260  1.00  0.00    -0.266 OA
HETATM   20  C20 UNL     1      14.955  23.034  17.838  1.00  0.00     0.105 A 
HETATM   21  C23 UNL     1      13.969  22.103  17.627  1.00  0.00    -0.012 A 
HETATM   22  C24 UNL     1      12.817  22.175  18.585  1.00  0.00     0.052 C 
BRANCH  20  23
HETATM   23  N6  UNL     1      14.882  24.140  18.682  1.00  0.00    -0.385 N 
HETATM   24  C21 UNL     1      14.394  25.464  18.524  1.00  0.00     0.149 C 
HETATM   25  C22 UNL     1      15.289  23.813  20.105  1.00  0.00     0.149 C 
ENDBRANCH  20  23
ENDBRANCH  10  13
ENDBRANCH   8   9
ENDBRANCH   5   8
BRANCH   4  26
HETATM   26  N3  UNL     1       8.807  18.004  16.437  1.00  0.00    -0.307 N 
HETATM   27  C7  UNL     1       8.765  16.857  15.744  1.00  0.00     0.264 C 
HETATM   28  O3  UNL     1       9.664  16.320  15.116  1.00  0.00    -0.267 OA
ATOM     29  H3  UNL     1       8.163  18.656  15.990  1.00  0.00     0.170 HD
BRANCH  27  30
HETATM   30  C8  UNL     1       7.434  16.119  15.733  1.00  0.00     0.075 A 
HETATM   31  C9  UNL     1       7.108  14.950  15.186  1.00  0.00     0.036 A 
HETATM   32  C10 UNL     1       5.814  14.504  15.338  1.00  0.00     0.000 A 
HETATM   33  C12 UNL     1       4.984  15.331  16.063  1.00  0.00     0.084 A 
HETATM   34 CL1  UNL     1       3.240  15.127  16.419  1.00  0.00    -0.076 Cl
HETATM   35  S1  UNL     1       5.986  16.629  16.474  1.00  0.00    -0.072 SA
BRANCH  32  36
HETATM   36  C11 UNL     1       5.372  13.156  14.805  1.00  0.00     0.263 C 
HETATM   37  F1  UNL     1       5.366  13.090  13.435  1.00  0.00    -0.251 F 
ENDBRANCH  32  36
ENDBRANCH  27  30
ENDBRANCH   4  26
BRANCH   1  38
HETATM   38  C5  UNL     1       8.755  20.846  20.190  1.00  0.00     0.175 C 
BRANCH  38  39
HETATM   39  C4  UNL     1       8.199  20.165  21.436  1.00  0.00     0.189 C 
BRANCH  39  40
HETATM   40  O2  UNL     1       7.551  19.034  21.007  1.00  0.00    -0.387 OA
BRANCH  40  41
HETATM   41  C3  UNL     1       6.205  18.943  21.102  1.00  0.00     0.193 C 
BRANCH  41  42
HETATM   42  C2  UNL     1       5.707  18.480  19.726  1.00  0.00     0.193 C 
BRANCH  42  43
HETATM   43  O1  UNL     1       5.518  19.468  18.846  1.00  0.00    -0.394 OA
HETATM   44  C1  UNL     1       4.602  20.437  19.107  1.00  0.00     0.201 C 
ENDBRANCH  42  43
ENDBRANCH  41  42
ENDBRANCH  40  41
ENDBRANCH  39  40
ENDBRANCH  38  39
ENDBRANCH   1  38
TORSDOF 13
ENDMDL
MODEL 4
REMARK VINA RESULT: -8.444218245      1.413      1.579
REMARK  13 active torsions:
REMARK  status: ('A' for Active; 'I' for Inactive)
REMARK    1  A    between atoms: O1_2  and  C2_3 
REMARK    2  A    between atoms: C2_3  and  C3_4 
REMARK    3  A    between atoms: C3_4  and  O2_5 
REMARK    4  A    between atoms: O2_5  and  C4_6 
REMARK    5  A    between atoms: C4_6  and  C5_7 
REMARK    6  A    between atoms: C5_7  and  N1_8 
REMARK    7  A    between atoms: C6_11  and  N3_12 
REMARK       I    between atoms: N3_12  and  C7_14 
REMARK    8  A    between atoms: C7_14  and  C8_16 
REMARK    9  A    between atoms: C10_18  and  C11_19 
REMARK   10  A    between atoms: C13_24  and  C14_25 
REMARK   11  A    between atoms: C14_25  and  N4_26 
REMARK       I    between atoms: N4_26  and  C15_28 
REMARK   12  A    between atoms: C15_28  and  C16_30 
REMARK   13  A    between atoms: C20_37  and  N6_38 
ROOT
HETATM    1  N1  UNL     1      10.529  18.692  19.178  1.00  0.00    -0.292 N 
HETATM    2  N2  UNL     1       9.479  18.357  18.454  1.00  0.00    -0.282 N 
ATOM      3  H2  UNL     1       8.533  18.255  18.824  1.00  0.00     0.189 HD
HETATM    4  C6  UNL     1       9.822  18.163  17.133  1.00  0.00     0.133 A 
HETATM    5  C13 UNL     1      11.154  18.416  17.105  1.00  0.00     0.029 A 
HETATM    6  C25 UNL     1      11.573  18.727  18.372  1.00  0.00     0.036 A 
HETATM    7  C26 UNL     1      13.010  18.887  18.823  1.00  0.00     0.070 C 
ENDROOT
BRANCH   5   8
HETATM    8  C14 UNL     1      12.077  18.301  15.900  1.00  0.00     0.167 C 
BRANCH   8   9
HETATM    9  N4  UNL     1      13.100  19.315  16.142  1.00  0.00    -0.352 N 
HETATM   10  C15 UNL     1      13.270  20.595  15.769  1.00  0.00     0.254 C 
HETATM   11  O4  UNL     1      12.448  21.160  14.969  1.00  0.00    -0.268 OA
ATOM     12  H4  UNL     1      13.860  18.972  16.729  1.00  0.00     0.163 HD
BRANCH  10  13
HETATM   13  C16 UNL     1      14.386  21.482  16.216  1.00  0.00     0.062 A 
HETATM   14  C17 UNL     1      15.665  21.456  15.747  1.00  0.00     0.025 A 
HETATM   15  C18 UNL     1      16.118  20.625  14.615  1.00  0.00     0.069 C 
HETATM   16  N5  UNL     1      16.655  22.256  16.264  1.00  0.00    -0.325 N 
HETATM   17  C19 UNL     1      16.401  23.095  17.237  1.00  0.00     0.272 A 
ATOM     18  H5  UNL     1      17.599  22.196  15.885  1.00  0.00     0.169 HD
HETATM   19  O5  UNL     1      17.273  23.849  17.736  1.00  0.00    -0.266 OA
HETATM   20  C20 UNL     1      15.120  23.218  17.795  1.00  0.00     0.105 A 
HETATM   21  C23 UNL     1      14.163  22.394  17.258  1.00  0.00    -0.012 A 
HETATM   22  C24 UNL     1      12.846  22.403  17.975  1.00  0.00     0.052 C 
BRANCH  20  23
HETATM   23  N6  UNL     1      14.920  24.193  18.769  1.00  0.00    -0.385 N 
HETATM   24  C21 UNL     1      14.546  25.562  18.724  1.00  0.00     0.149 C 
HETATM   25  C22 UNL     1      14.988  23.633  20.175  1.00  0.00     0.149 C 
ENDBRANCH  20  23
ENDBRANCH  10  13
ENDBRANCH   8   9
ENDBRANCH   5   8
BRANCH   4  26
HETATM   26  N3  UNL     1       8.953  17.847  16.302  1.00  0.00    -0.307 N 
HETATM   27  C7  UNL     1       8.592  16.946  15.378  1.00  0.00     0.264 C 
HETATM   28  O3  UNL     1       9.156  16.666  14.332  1.00  0.00    -0.267 OA
ATOM     29  H3  UNL     1       8.223  18.558  16.338  1.00  0.00     0.170 HD
BRANCH  27  30
HETATM   30  C8  UNL     1       7.319  16.159  15.658  1.00  0.00     0.075 A 
HETATM   31  C9  UNL     1       6.824  15.086  15.046  1.00  0.00     0.036 A 
HETATM   32  C10 UNL     1       5.640  14.561  15.518  1.00  0.00     0.000 A 
HETATM   33  C12 UNL     1       5.094  15.215  16.601  1.00  0.00     0.084 A 
HETATM   34 CL1  UNL     1       3.552  14.874  17.447  1.00  0.00    -0.076 Cl
HETATM   35  S1  UNL     1       6.188  16.470  16.895  1.00  0.00    -0.072 SA
BRANCH  32  36
HETATM   36  C11 UNL     1       5.039  13.304  14.925  1.00  0.00     0.263 C 
HETATM   37  F1  UNL     1       5.427  13.076  13.629  1.00  0.00    -0.251 F 
ENDBRANCH  32  36
ENDBRANCH  27  30
ENDBRANCH   4  26
BRANCH   1  38
HETATM   38  C5  UNL     1      10.519  18.946  20.603  1.00  0.00     0.175 C 
BRANCH  38  39
HETATM   39  C4  UNL     1       9.299  19.703  21.120  1.00  0.00     0.189 C 
BRANCH  39  40
HETATM   40  O2  UNL     1       8.322  18.765  21.339  1.00  0.00    -0.387 OA
BRANCH  40  41
HETATM   41  C3  UNL     1       7.022  19.072  21.124  1.00  0.00     0.193 C 
BRANCH  41  42
HETATM   42  C2  UNL     1       7.009  20.123  20.006  1.00  0.00     0.193 C 
BRANCH  42  43
HETATM   43  O1  UNL     1       6.357  19.746  18.901  1.00  0.00    -0.394 OA
HETATM   44  C1  UNL     1       5.021  19.509  18.955  1.00  0.00     0.201 C 
ENDBRANCH  42  43
ENDBRANCH  41  42
ENDBRANCH  40  41
ENDBRANCH  39  40
ENDBRANCH  38  39
ENDBRANCH   1  38
TORSDOF 13
ENDMDL
MODEL 5
REMARK VINA RESULT: -8.302468324      0.868      2.162
REMARK  13 active torsions:
REMARK  status: ('A' for Active; 'I' for Inactive)
REMARK    1  A    between atoms: O1_2  and  C2_3 
REMARK    2  A    between atoms: C2_3  and  C3_4 
REMARK    3  A    between atoms: C3_4  and  O2_5 
REMARK    4  A    between atoms: O2_5  and  C4_6 
REMARK    5  A    between atoms: C4_6  and  C5_7 
REMARK    6  A    between atoms: C5_7  and  N1_8 
REMARK    7  A    between atoms: C6_11  and  N3_12 
REMARK       I    between atoms: N3_12  and  C7_14 
REMARK    8  A    between atoms: C7_14  and  C8_16 
REMARK    9  A    between atoms: C10_18  and  C11_19 
REMARK   10  A    between atoms: C13_24  and  C14_25 
REMARK   11  A    between atoms: C14_25  and  N4_26 
REMARK       I    between atoms: N4_26  and  C15_28 
REMARK   12  A    between atoms: C15_28  and  C16_30 
REMARK   13  A    between atoms: C20_37  and  N6_38 
ROOT
HETATM    1  N1  UNL     1       9.248  19.868  19.122  1.00  0.00    -0.292 N 
HETATM    2  N2  UNL     1       8.591  19.358  18.097  1.00  0.00    -0.282 N 
ATOM      3  H2  UNL     1       7.599  19.512  17.915  1.00  0.00     0.189 HD
HETATM    4  C6  UNL     1       9.418  18.590  17.305  1.00  0.00     0.133 A 
HETATM    5  C13 UNL     1      10.625  18.682  17.915  1.00  0.00     0.029 A 
HETATM    6  C25 UNL     1      10.499  19.460  19.036  1.00  0.00     0.036 A 
HETATM    7  C26 UNL     1      11.551  19.660  20.106  1.00  0.00     0.070 C 
ENDROOT
BRANCH   5   8
HETATM    8  C14 UNL     1      11.910  17.980  17.497  1.00  0.00     0.167 C 
BRANCH   8   9
HETATM    9  N4  UNL     1      12.885  19.063  17.392  1.00  0.00    -0.352 N 
HETATM   10  C15 UNL     1      12.959  20.203  16.684  1.00  0.00     0.254 C 
HETATM   11  O4  UNL     1      12.063  20.499  15.821  1.00  0.00    -0.268 OA
ATOM     12  H4  UNL     1      13.695  18.922  17.995  1.00  0.00     0.163 HD
BRANCH  10  13
HETATM   13  C16 UNL     1      14.044  21.223  16.803  1.00  0.00     0.062 A 
HETATM   14  C17 UNL     1      14.144  22.174  17.773  1.00  0.00     0.025 A 
HETATM   15  C18 UNL     1      13.256  22.260  18.947  1.00  0.00     0.069 C 
HETATM   16  N5  UNL     1      15.135  23.126  17.771  1.00  0.00    -0.325 N 
HETATM   17  C19 UNL     1      16.041  23.150  16.826  1.00  0.00     0.272 A 
ATOM     18  H5  UNL     1      15.165  23.823  18.515  1.00  0.00     0.169 HD
HETATM   19  O5  UNL     1      16.968  23.998  16.786  1.00  0.00    -0.266 OA
HETATM   20  C20 UNL     1      16.047  22.216  15.779  1.00  0.00     0.105 A 
HETATM   21  C23 UNL     1      15.035  21.290  15.813  1.00  0.00    -0.012 A 
HETATM   22  C24 UNL     1      14.943  20.410  14.601  1.00  0.00     0.052 C 
BRANCH  20  23
HETATM   23  N6  UNL     1      17.095  22.264  14.863  1.00  0.00    -0.385 N 
HETATM   24  C21 UNL     1      18.331  21.576  14.750  1.00  0.00     0.149 C 
HETATM   25  C22 UNL     1      16.782  23.142  13.668  1.00  0.00     0.149 C 
ENDBRANCH  20  23
ENDBRANCH  10  13
ENDBRANCH   8   9
ENDBRANCH   5   8
BRANCH   4  26
HETATM   26  N3  UNL     1       8.967  18.036  16.288  1.00  0.00    -0.307 N 
HETATM   27  C7  UNL     1       9.000  16.926  15.535  1.00  0.00     0.264 C 
HETATM   28  O3  UNL     1       9.942  16.460  14.914  1.00  0.00    -0.267 OA
ATOM     29  H3  UNL     1       8.311  18.682  15.851  1.00  0.00     0.170 HD
BRANCH  27  30
HETATM   30  C8  UNL     1       7.704  16.134  15.438  1.00  0.00     0.075 A 
HETATM   31  C9  UNL     1       6.500  16.398  15.941  1.00  0.00     0.036 A 
HETATM   32  C10 UNL     1       5.484  15.502  15.688  1.00  0.00     0.000 A 
HETATM   33  C12 UNL     1       5.832  14.414  14.919  1.00  0.00     0.084 A 
HETATM   34 CL1  UNL     1       4.816  13.020  14.434  1.00  0.00    -0.076 Cl
HETATM   35  S1  UNL     1       7.474  14.666  14.602  1.00  0.00    -0.072 SA
BRANCH  32  36
HETATM   36  C11 UNL     1       4.068  15.755  16.166  1.00  0.00     0.263 C 
HETATM   37  F1  UNL     1       3.211  16.112  15.157  1.00  0.00    -0.251 F 
ENDBRANCH  32  36
ENDBRANCH  27  30
ENDBRANCH   4  26
BRANCH   1  38
HETATM   38  C5  UNL     1       8.671  20.702  20.155  1.00  0.00     0.175 C 
BRANCH  38  39
HETATM   39  C4  UNL     1       8.044  19.949  21.325  1.00  0.00     0.189 C 
BRANCH  39  40
HETATM   40  O2  UNL     1       7.448  18.833  20.795  1.00  0.00    -0.387 OA
BRANCH  40  41
HETATM   41  C3  UNL     1       6.107  18.675  20.870  1.00  0.00     0.193 C 
BRANCH  41  42
HETATM   42  C2  UNL     1       5.606  18.562  19.424  1.00  0.00     0.193 C 
BRANCH  42  43
HETATM   43  O1  UNL     1       5.474  19.732  18.792  1.00  0.00    -0.394 OA
HETATM   44  C1  UNL     1       4.443  20.557  19.110  1.00  0.00     0.201 C 
ENDBRANCH  42  43
ENDBRANCH  41  42
ENDBRANCH  40  41
ENDBRANCH  39  40
ENDBRANCH  38  39
ENDBRANCH   1  38
TORSDOF 13
ENDMDL
