MODEL 1
REMARK VINA RESULT: -7.767106860      0.000      0.000
REMARK  13 active torsions:
REMARK  status: ('A' for Active; 'I' for Inactive)
REMARK    1  A    between atoms: N1_1  and  C1_4 
REMARK    2  A    between atoms: C3_8  and  C4_9 
REMARK       I    between atoms: C4_9  and  N3_11 
REMARK    3  A    between atoms: N3_11  and  C5_13 
REMARK    4  A    between atoms: C6_18  and  C7_19 
REMARK    5  A    between atoms: C7_19  and  C8_20 
REMARK    6  A    between atoms: C8_20  and  S1_21 
REMARK    7  A    between atoms: S1_21  and  C9_22 
REMARK    8  A    between atoms: C9_22  and  C10_23 
REMARK    9  A    between atoms: C10_23  and  C11_24 
REMARK   10  A    between atoms: N7_32  and  C16_33 
REMARK   11  A    between atoms: C16_33  and  O2_34 
REMARK   12  A    between atoms: O2_34  and  C17_35 
REMARK   13  A    between atoms: C17_35  and  C18_36 
ROOT
HETATM    1  C5  UNL     1       9.757  19.422  19.196  1.00  0.00     0.705 A 
HETATM    2  N4  UNL     1      10.334  19.247  20.406  1.00  0.00    -0.130 N 
ATOM      3  H4  UNL     1       9.890  19.371  21.315  1.00  0.00     0.205 HD
HETATM    4  N5  UNL     1      11.571  18.888  20.187  1.00  0.00    -0.274 N 
ATOM      5  H5  UNL     1      12.241  18.688  20.929  1.00  0.00     0.189 HD
HETATM    6  C6  UNL     1      11.864  18.810  18.883  1.00  0.00     0.117 A 
HETATM    7  N7  UNL     1      10.691  19.157  18.272  1.00  0.00    -0.147 N 
ENDROOT
BRANCH   1   8
HETATM    8  N3  UNL     1       8.537  19.758  18.952  1.00  0.00    -0.153 N 
HETATM    9  C4  UNL     1       7.461  18.994  19.447  1.00  0.00     0.278 C 
HETATM   10  O1  UNL     1       6.801  19.378  20.421  1.00  0.00    -0.266 OA
ATOM     11  H3  UNL     1       8.348  20.589  18.392  1.00  0.00     0.187 HD
BRANCH   9  12
HETATM   12  C3  UNL     1       7.149  17.719  18.765  1.00  0.00     0.092 A 
HETATM   13  C2  UNL     1       7.856  16.545  18.810  1.00  0.00     0.115 A 
HETATM   14  N2  UNL     1       7.399  15.533  18.126  1.00  0.00    -0.345 N 
HETATM   15  C1  UNL     1       6.277  15.691  17.425  1.00  0.00     0.142 A 
ATOM     16  H2  UNL     1       7.890  14.640  18.128  1.00  0.00     0.167 HD
HETATM   17  S2  UNL     1       5.851  17.311  17.737  1.00  0.00    -0.048 SA
BRANCH  15  18
HETATM   18  N1  UNL     1       5.645  14.818  16.675  1.00  0.00    -0.380 N 
ATOM     19  H12 UNL     1       4.700  14.453  16.797  1.00  0.00     0.158 HD
ATOM     20  H11 UNL     1       5.971  14.340  15.835  1.00  0.00     0.158 HD
ENDBRANCH  15  18
ENDBRANCH   9  12
ENDBRANCH   1   8
BRANCH   7  21
HETATM   21  C16 UNL     1      10.541  19.245  16.836  1.00  0.00     0.318 C 
BRANCH  21  22
HETATM   22  O2  UNL     1       9.533  18.438  16.403  1.00  0.00    -0.370 OA
BRANCH  22  23
HETATM   23  C17 UNL     1       9.885  17.249  15.816  1.00  0.00     0.180 C 
BRANCH  23  24
HETATM   24  C18 UNL     1       8.785  16.957  14.772  1.00  0.00     0.111 C 
HETATM   25 BR2  UNL     1       8.638  15.080  14.441  1.00  0.00    -0.094 Br
ENDBRANCH  23  24
ENDBRANCH  22  23
ENDBRANCH  21  22
ENDBRANCH   7  21
BRANCH   6  26
HETATM   26  C7  UNL     1      13.078  18.468  18.154  1.00  0.00     0.089 C 
BRANCH  26  27
HETATM   27  C8  UNL     1      14.213  19.398  18.106  1.00  0.00     0.081 C 
BRANCH  27  28
HETATM   28  S1  UNL     1      14.351  20.455  16.721  1.00  0.00    -0.168 SA
BRANCH  28  29
HETATM   29  C9  UNL     1      13.186  21.707  16.368  1.00  0.00     0.080 C 
BRANCH  29  30
HETATM   30  C10 UNL     1      12.526  22.275  17.620  1.00  0.00     0.067 C 
BRANCH  30  31
HETATM   31  C11 UNL     1      13.530  22.987  18.455  1.00  0.00     0.009 A 
HETATM   32  C12 UNL     1      13.784  22.608  19.737  1.00  0.00     0.026 A 
HETATM   33  C13 UNL     1      14.730  23.302  20.481  1.00  0.00     0.022 A 
HETATM   34  C14 UNL     1      15.404  24.357  19.944  1.00  0.00     0.026 A 
HETATM   35 BR1  UNL     1      16.707  25.333  20.937  1.00  0.00    -0.050 Br
HETATM   36  C15 UNL     1      15.119  24.713  18.639  1.00  0.00     0.107 A 
HETATM   37  N6  UNL     1      14.205  24.033  17.934  1.00  0.00    -0.368 N 
ATOM     38  H6  UNL     1      14.012  24.315  16.974  1.00  0.00     0.165 HD
ENDBRANCH  30  31
ENDBRANCH  29  30
ENDBRANCH  28  29
ENDBRANCH  27  28
ENDBRANCH  26  27
ENDBRANCH   6  26
TORSDOF 13
ENDMDL
MODEL 2
REMARK VINA RESULT: -7.558860506      3.719     10.420
REMARK  13 active torsions:
REMARK  status: ('A' for Active; 'I' for Inactive)
REMARK    1  A    between atoms: N1_1  and  C1_4 
REMARK    2  A    between atoms: C3_8  and  C4_9 
REMARK       I    between atoms: C4_9  and  N3_11 
REMARK    3  A    between atoms: N3_11  and  C5_13 
REMARK    4  A    between atoms: C6_18  and  C7_19 
REMARK    5  A    between atoms: C7_19  and  C8_20 
REMARK    6  A    between atoms: C8_20  and  S1_21 
REMARK    7  A    between atoms: S1_21  and  C9_22 
REMARK    8  A    between atoms: C9_22  and  C10_23 
REMARK    9  A    between atoms: C10_23  and  C11_24 
REMARK   10  A    between atoms: N7_32  and  C16_33 
REMARK   11  A    between atoms: C16_33  and  O2_34 
REMARK   12  A    between atoms: O2_34  and  C17_35 
REMARK   13  A    between atoms: C17_35  and  C18_36 
ROOT
HETATM    1  C5  UNL     1      15.591  21.707  15.517  1.00  0.00     0.705 A 
HETATM    2  N4  UNL     1      16.152  20.490  15.337  1.00  0.00    -0.130 N 
ATOM      3  H4  UNL     1      16.838  20.236  14.627  1.00  0.00     0.205 HD
HETATM    4  N5  UNL     1      15.647  19.702  16.248  1.00  0.00    -0.274 N 
ATOM      5  H5  UNL     1      15.897  18.717  16.344  1.00  0.00     0.189 HD
HETATM    6  C6  UNL     1      14.767  20.324  17.041  1.00  0.00     0.117 A 
HETATM    7  N7  UNL     1      14.747  21.601  16.555  1.00  0.00    -0.147 N 
ENDROOT
BRANCH   1   8
HETATM    8  N3  UNL     1      15.822  22.783  14.848  1.00  0.00    -0.153 N 
HETATM    9  C4  UNL     1      17.129  23.300  14.733  1.00  0.00     0.278 C 
HETATM   10  O1  UNL     1      17.782  23.158  13.692  1.00  0.00    -0.266 OA
ATOM     11  H3  UNL     1      15.048  23.268  14.394  1.00  0.00     0.187 HD
BRANCH   9  12
HETATM   12  C3  UNL     1      17.692  24.015  15.900  1.00  0.00     0.092 A 
HETATM   13  C2  UNL     1      18.124  23.480  17.086  1.00  0.00     0.115 A 
HETATM   14  N2  UNL     1      18.589  24.300  17.988  1.00  0.00    -0.345 N 
HETATM   15  C1  UNL     1      18.620  25.602  17.712  1.00  0.00     0.142 A 
ATOM     16  H2  UNL     1      18.921  23.950  18.886  1.00  0.00     0.167 HD
HETATM   17  S2  UNL     1      17.977  25.679  16.136  1.00  0.00    -0.048 SA
BRANCH  15  18
HETATM   18  N1  UNL     1      19.043  26.594  18.463  1.00  0.00    -0.380 N 
ATOM     19  H12 UNL     1      18.878  26.743  19.458  1.00  0.00     0.158 HD
ATOM     20  H11 UNL     1      19.611  27.399  18.200  1.00  0.00     0.158 HD
ENDBRANCH  15  18
ENDBRANCH   9  12
ENDBRANCH   1   8
BRANCH   7  21
HETATM   21  C16 UNL     1      13.897  22.641  17.090  1.00  0.00     0.318 C 
BRANCH  21  22
HETATM   22  O2  UNL     1      14.640  23.661  17.602  1.00  0.00    -0.370 OA
BRANCH  22  23
HETATM   23  C17 UNL     1      14.896  23.639  18.950  1.00  0.00     0.180 C 
BRANCH  23  24
HETATM   24  C18 UNL     1      15.327  25.077  19.316  1.00  0.00     0.111 C 
HETATM   25 BR2  UNL     1      16.427  25.083  20.879  1.00  0.00    -0.094 Br
ENDBRANCH  23  24
ENDBRANCH  22  23
ENDBRANCH  21  22
ENDBRANCH   7  21
BRANCH   6  26
HETATM   26  C7  UNL     1      13.954  19.882  18.166  1.00  0.00     0.089 C 
BRANCH  26  27
HETATM   27  C8  UNL     1      12.778  19.029  17.955  1.00  0.00     0.081 C 
BRANCH  27  28
HETATM   28  S1  UNL     1      11.252  19.807  17.607  1.00  0.00    -0.168 SA
BRANCH  28  29
HETATM   29  C9  UNL     1      10.249  19.358  16.249  1.00  0.00     0.080 C 
BRANCH  29  30
HETATM   30  C10 UNL     1      10.761  18.124  15.515  1.00  0.00     0.067 C 
BRANCH  30  31
HETATM   31  C11 UNL     1       9.675  17.116  15.380  1.00  0.00     0.009 A 
HETATM   32  C12 UNL     1       9.756  16.103  14.475  1.00  0.00     0.026 A 
HETATM   33  C13 UNL     1       8.718  15.184  14.381  1.00  0.00     0.022 A 
HETATM   34  C14 UNL     1       7.620  15.287  15.182  1.00  0.00     0.026 A 
HETATM   35 BR1  UNL     1       6.176  14.046  15.079  1.00  0.00    -0.050 Br
HETATM   36  C15 UNL     1       7.573  16.330  16.089  1.00  0.00     0.107 A 
HETATM   37  N6  UNL     1       8.583  17.207  16.167  1.00  0.00    -0.368 N 
ATOM     38  H6  UNL     1       8.525  17.967  16.844  1.00  0.00     0.165 HD
ENDBRANCH  30  31
ENDBRANCH  29  30
ENDBRANCH  28  29
ENDBRANCH  27  28
ENDBRANCH  26  27
ENDBRANCH   6  26
TORSDOF 13
ENDMDL
MODEL 3
REMARK VINA RESULT: -7.508017706      1.580      2.142
REMARK  13 active torsions:
REMARK  status: ('A' for Active; 'I' for Inactive)
REMARK    1  A    between atoms: N1_1  and  C1_4 
REMARK    2  A    between atoms: C3_8  and  C4_9 
REMARK       I    between atoms: C4_9  and  N3_11 
REMARK    3  A    between atoms: N3_11  and  C5_13 
REMARK    4  A    between atoms: C6_18  and  C7_19 
REMARK    5  A    between atoms: C7_19  and  C8_20 
REMARK    6  A    between atoms: C8_20  and  S1_21 
REMARK    7  A    between atoms: S1_21  and  C9_22 
REMARK    8  A    between atoms: C9_22  and  C10_23 
REMARK    9  A    between atoms: C10_23  and  C11_24 
REMARK   10  A    between atoms: N7_32  and  C16_33 
REMARK   11  A    between atoms: C16_33  and  O2_34 
REMARK   12  A    between atoms: O2_34  and  C17_35 
REMARK   13  A    between atoms: C17_35  and  C18_36 
ROOT
HETATM    1  C5  UNL     1       9.976  19.226  19.871  1.00  0.00     0.705 A 
HETATM    2  N4  UNL     1      10.815  18.651  20.762  1.00  0.00    -0.130 N 
ATOM      3  H4  UNL     1      10.582  18.346  21.707  1.00  0.00     0.205 HD
HETATM    4  N5  UNL     1      11.981  18.561  20.180  1.00  0.00    -0.274 N 
ATOM      5  H5  UNL     1      12.806  18.162  20.628  1.00  0.00     0.189 HD
HETATM    6  C6  UNL     1      11.977  19.048  18.934  1.00  0.00     0.117 A 
HETATM    7  N7  UNL     1      10.688  19.468  18.760  1.00  0.00    -0.147 N 
ENDROOT
BRANCH   1   8
HETATM    8  N3  UNL     1       8.723  19.484  20.028  1.00  0.00    -0.153 N 
HETATM    9  C4  UNL     1       7.790  18.447  20.232  1.00  0.00     0.278 C 
HETATM   10  O1  UNL     1       7.328  18.218  21.357  1.00  0.00    -0.266 OA
ATOM     11  H3  UNL     1       8.403  20.451  20.004  1.00  0.00     0.187 HD
BRANCH   9  12
HETATM   12  C3  UNL     1       7.383  17.644  19.058  1.00  0.00     0.092 A 
HETATM   13  C2  UNL     1       6.506  17.993  18.064  1.00  0.00     0.115 A 
HETATM   14  N2  UNL     1       6.289  17.126  17.114  1.00  0.00    -0.345 N 
HETATM   15  C1  UNL     1       6.926  15.958  17.158  1.00  0.00     0.142 A 
ATOM     16  H2  UNL     1       5.645  17.339  16.353  1.00  0.00     0.167 HD
HETATM   17  S2  UNL     1       7.859  16.079  18.578  1.00  0.00    -0.048 SA
BRANCH  15  18
HETATM   18  N1  UNL     1       6.860  14.951  16.317  1.00  0.00    -0.380 N 
ATOM     19  H12 UNL     1       6.170  14.789  15.583  1.00  0.00     0.158 HD
ATOM     20  H11 UNL     1       7.477  14.143  16.236  1.00  0.00     0.158 HD
ENDBRANCH  15  18
ENDBRANCH   9  12
ENDBRANCH   1   8
BRANCH   7  21
HETATM   21  C16 UNL     1      10.218  20.106  17.551  1.00  0.00     0.318 C 
BRANCH  21  22
HETATM   22  O2  UNL     1       9.474  19.243  16.804  1.00  0.00    -0.370 OA
BRANCH  22  23
HETATM   23  C17 UNL     1      10.035  18.767  15.646  1.00  0.00     0.180 C 
BRANCH  23  24
HETATM   24  C18 UNL     1      10.218  17.249  15.865  1.00  0.00     0.111 C 
HETATM   25 BR2  UNL     1       9.623  16.263  14.339  1.00  0.00    -0.094 Br
ENDBRANCH  23  24
ENDBRANCH  22  23
ENDBRANCH  21  22
ENDBRANCH   7  21
BRANCH   6  26
HETATM   26  C7  UNL     1      13.006  19.175  17.911  1.00  0.00     0.089 C 
BRANCH  26  27
HETATM   27  C8  UNL     1      13.713  20.447  17.709  1.00  0.00     0.081 C 
BRANCH  27  28
HETATM   28  S1  UNL     1      14.441  21.211  19.102  1.00  0.00    -0.168 SA
BRANCH  28  29
HETATM   29  C9  UNL     1      13.648  22.474  20.010  1.00  0.00     0.080 C 
BRANCH  29  30
HETATM   30  C10 UNL     1      14.590  23.196  20.969  1.00  0.00     0.067 C 
BRANCH  30  31
HETATM   31  C11 UNL     1      15.477  24.126  20.218  1.00  0.00     0.009 A 
HETATM   32  C12 UNL     1      15.012  24.858  19.170  1.00  0.00     0.026 A 
HETATM   33  C13 UNL     1      15.875  25.714  18.497  1.00  0.00     0.022 A 
HETATM   34  C14 UNL     1      17.180  25.826  18.872  1.00  0.00     0.026 A 
HETATM   35 BR1  UNL     1      18.393  26.989  17.969  1.00  0.00    -0.050 Br
HETATM   36  C15 UNL     1      17.616  25.066  19.941  1.00  0.00     0.107 A 
HETATM   37  N6  UNL     1      16.771  24.247  20.580  1.00  0.00    -0.368 N 
ATOM     38  H6  UNL     1      17.117  23.696  21.366  1.00  0.00     0.165 HD
ENDBRANCH  30  31
ENDBRANCH  29  30
ENDBRANCH  28  29
ENDBRANCH  27  28
ENDBRANCH  26  27
ENDBRANCH   6  26
TORSDOF 13
ENDMDL
MODEL 4
REMARK VINA RESULT: -7.489725837      2.416      3.113
REMARK  13 active torsions:
REMARK  status: ('A' for Active; 'I' for Inactive)
REMARK    1  A    between atoms: N1_1  and  C1_4 
REMARK    2  A    between atoms: C3_8  and  C4_9 
REMARK       I    between atoms: C4_9  and  N3_11 
REMARK    3  A    between atoms: N3_11  and  C5_13 
REMARK    4  A    between atoms: C6_18  and  C7_19 
REMARK    5  A    between atoms: C7_19  and  C8_20 
REMARK    6  A    between atoms: C8_20  and  S1_21 
REMARK    7  A    between atoms: S1_21  and  C9_22 
REMARK    8  A    between atoms: C9_22  and  C10_23 
REMARK    9  A    between atoms: C10_23  and  C11_24 
REMARK   10  A    between atoms: N7_32  and  C16_33 
REMARK   11  A    between atoms: C16_33  and  O2_34 
REMARK   12  A    between atoms: O2_34  and  C17_35 
REMARK   13  A    between atoms: C17_35  and  C18_36 
ROOT
HETATM    1  C5  UNL     1      11.870  19.479  19.378  1.00  0.00     0.705 A 
HETATM    2  N4  UNL     1      12.479  18.272  19.428  1.00  0.00    -0.130 N 
ATOM      3  H4  UNL     1      12.163  17.453  19.946  1.00  0.00     0.205 HD
HETATM    4  N5  UNL     1      13.549  18.357  18.685  1.00  0.00    -0.274 N 
ATOM      5  H5  UNL     1      14.201  17.585  18.543  1.00  0.00     0.189 HD
HETATM    6  C6  UNL     1      13.700  19.566  18.130  1.00  0.00     0.117 A 
HETATM    7  N7  UNL     1      12.618  20.264  18.588  1.00  0.00    -0.147 N 
ENDROOT
BRANCH   1   8
HETATM    8  N3  UNL     1      10.771  19.826  19.953  1.00  0.00    -0.153 N 
HETATM    9  C4  UNL     1       9.769  18.875  20.236  1.00  0.00     0.278 C 
HETATM   10  O1  UNL     1       9.602  18.449  21.386  1.00  0.00    -0.266 OA
ATOM     11  H3  UNL     1      10.623  20.802  20.206  1.00  0.00     0.187 HD
BRANCH   9  12
HETATM   12  C3  UNL     1       8.926  18.406  19.115  1.00  0.00     0.092 A 
HETATM   13  C2  UNL     1       7.788  18.986  18.618  1.00  0.00     0.115 A 
HETATM   14  N2  UNL     1       7.196  18.400  17.614  1.00  0.00    -0.345 N 
HETATM   15  C1  UNL     1       7.723  17.278  17.128  1.00  0.00     0.142 A 
ATOM     16  H2  UNL     1       6.346  18.793  17.210  1.00  0.00     0.167 HD
HETATM   17  S2  UNL     1       9.094  17.038  18.111  1.00  0.00    -0.048 SA
BRANCH  15  18
HETATM   18  N1  UNL     1       7.299  16.531  16.134  1.00  0.00    -0.380 N 
ATOM     19  H12 UNL     1       6.340  16.265  15.913  1.00  0.00     0.158 HD
ATOM     20  H11 UNL     1       7.841  16.076  15.399  1.00  0.00     0.158 HD
ENDBRANCH  15  18
ENDBRANCH   9  12
ENDBRANCH   1   8
BRANCH   7  21
HETATM   21  C16 UNL     1      12.377  21.654  18.269  1.00  0.00     0.318 C 
BRANCH  21  22
HETATM   22  O2  UNL     1      11.252  21.791  17.514  1.00  0.00    -0.370 OA
BRANCH  22  23
HETATM   23  C17 UNL     1      11.318  21.386  16.204  1.00  0.00     0.180 C 
BRANCH  23  24
HETATM   24  C18 UNL     1      10.292  20.239  16.070  1.00  0.00     0.111 C 
HETATM   25 BR2  UNL     1      11.155  18.606  15.577  1.00  0.00    -0.094 Br
ENDBRANCH  23  24
ENDBRANCH  22  23
ENDBRANCH  21  22
ENDBRANCH   7  21
BRANCH   6  26
HETATM   26  C7  UNL     1      14.711  20.140  17.251  1.00  0.00     0.089 C 
BRANCH  26  27
HETATM   27  C8  UNL     1      14.674  19.897  15.804  1.00  0.00     0.081 C 
BRANCH  27  28
HETATM   28  S1  UNL     1      15.918  20.628  14.817  1.00  0.00    -0.168 SA
BRANCH  28  29
HETATM   29  C9  UNL     1      16.073  22.356  14.615  1.00  0.00     0.080 C 
BRANCH  29  30
HETATM   30  C10 UNL     1      17.401  22.897  15.134  1.00  0.00     0.067 C 
BRANCH  30  31
HETATM   31  C11 UNL     1      17.232  23.456  16.502  1.00  0.00     0.009 A 
HETATM   32  C12 UNL     1      18.294  23.916  17.217  1.00  0.00     0.026 A 
HETATM   33  C13 UNL     1      18.090  24.429  18.492  1.00  0.00     0.022 A 
HETATM   34  C14 UNL     1      16.842  24.475  19.035  1.00  0.00     0.026 A 
HETATM   35 BR1  UNL     1      16.526  25.170  20.782  1.00  0.00    -0.050 Br
HETATM   36  C15 UNL     1      15.787  23.998  18.279  1.00  0.00     0.107 A 
HETATM   37  N6  UNL     1      16.000  23.507  17.051  1.00  0.00    -0.368 N 
ATOM     38  H6  UNL     1      15.206  23.161  16.513  1.00  0.00     0.165 HD
ENDBRANCH  30  31
ENDBRANCH  29  30
ENDBRANCH  28  29
ENDBRANCH  27  28
ENDBRANCH  26  27
ENDBRANCH   6  26
TORSDOF 13
ENDMDL
MODEL 5
REMARK VINA RESULT: -7.389107433      2.707      3.681
REMARK  13 active torsions:
REMARK  status: ('A' for Active; 'I' for Inactive)
REMARK    1  A    between atoms: N1_1  and  C1_4 
REMARK    2  A    between atoms: C3_8  and  C4_9 
REMARK       I    between atoms: C4_9  and  N3_11 
REMARK    3  A    between atoms: N3_11  and  C5_13 
REMARK    4  A    between atoms: C6_18  and  C7_19 
REMARK    5  A    between atoms: C7_19  and  C8_20 
REMARK    6  A    between atoms: C8_20  and  S1_21 
REMARK    7  A    between atoms: S1_21  and  C9_22 
REMARK    8  A    between atoms: C9_22  and  C10_23 
REMARK    9  A    between atoms: C10_23  and  C11_24 
REMARK   10  A    between atoms: N7_32  and  C16_33 
REMARK   11  A    between atoms: C16_33  and  O2_34 
REMARK   12  A    between atoms: O2_34  and  C17_35 
REMARK   13  A    between atoms: C17_35  and  C18_36 
ROOT
HETATM    1  C5  UNL     1       9.845  18.010  17.152  1.00  0.00     0.705 A 
HETATM    2  N4  UNL     1       9.068  18.365  16.104  1.00  0.00    -0.130 N 
ATOM      3  H4  UNL     1       8.179  17.943  15.836  1.00  0.00     0.205 HD
HETATM    4  N5  UNL     1       9.673  19.353  15.501  1.00  0.00    -0.274 N 
ATOM      5  H5  UNL     1       9.305  19.819  14.671  1.00  0.00     0.189 HD
HETATM    6  C6  UNL     1      10.827  19.688  16.088  1.00  0.00     0.117 A 
HETATM    7  N7  UNL     1      10.917  18.817  17.138  1.00  0.00    -0.147 N 
ENDROOT
BRANCH   1   8
HETATM    8  N3  UNL     1       9.613  17.091  18.024  1.00  0.00    -0.153 N 
HETATM    9  C4  UNL     1       8.355  16.459  18.093  1.00  0.00     0.278 C 
HETATM   10  O1  UNL     1       8.189  15.318  17.644  1.00  0.00    -0.266 OA
ATOM     11  H3  UNL     1      10.350  16.816  18.673  1.00  0.00     0.187 HD
BRANCH   9  12
HETATM   12  C3  UNL     1       7.242  17.205  18.721  1.00  0.00     0.092 A 
HETATM   13  C2  UNL     1       7.243  17.863  19.923  1.00  0.00     0.115 A 
HETATM   14  N2  UNL     1       6.143  18.462  20.289  1.00  0.00    -0.345 N 
HETATM   15  C1  UNL     1       5.086  18.404  19.482  1.00  0.00     0.142 A 
ATOM     16  H2  UNL     1       6.095  18.964  21.175  1.00  0.00     0.167 HD
HETATM   17  S2  UNL     1       5.653  17.480  18.168  1.00  0.00    -0.048 SA
BRANCH  15  18
HETATM   18  N1  UNL     1       3.893  18.928  19.648  1.00  0.00    -0.380 N 
ATOM     19  H12 UNL     1       3.530  19.799  19.260  1.00  0.00     0.158 HD
ATOM     20  H11 UNL     1       3.106  18.571  20.190  1.00  0.00     0.158 HD
ENDBRANCH  15  18
ENDBRANCH   9  12
ENDBRANCH   1   8
BRANCH   7  21
HETATM   21  C16 UNL     1      12.039  18.785  18.049  1.00  0.00     0.318 C 
BRANCH  21  22
HETATM   22  O2  UNL     1      11.708  19.345  19.246  1.00  0.00    -0.370 OA
BRANCH  22  23
HETATM   23  C17 UNL     1      12.304  20.539  19.569  1.00  0.00     0.180 C 
BRANCH  23  24
HETATM   24  C18 UNL     1      11.191  21.604  19.454  1.00  0.00     0.111 C 
HETATM   25 BR2  UNL     1       9.506  20.895  20.013  1.00  0.00    -0.094 Br
ENDBRANCH  23  24
ENDBRANCH  22  23
ENDBRANCH  21  22
ENDBRANCH   7  21
BRANCH   6  26
HETATM   26  C7  UNL     1      11.840  20.694  15.793  1.00  0.00     0.089 C 
BRANCH  26  27
HETATM   27  C8  UNL     1      12.787  20.504  14.686  1.00  0.00     0.081 C 
BRANCH  27  28
HETATM   28  S1  UNL     1      14.330  19.765  15.044  1.00  0.00    -0.168 SA
BRANCH  28  29
HETATM   29  C9  UNL     1      15.803  20.686  15.221  1.00  0.00     0.080 C 
BRANCH  29  30
HETATM   30  C10 UNL     1      15.566  22.193  15.200  1.00  0.00     0.067 C 
BRANCH  30  31
HETATM   31  C11 UNL     1      15.579  22.736  16.585  1.00  0.00     0.009 A 
HETATM   32  C12 UNL     1      14.425  22.967  17.267  1.00  0.00     0.026 A 
HETATM   33  C13 UNL     1      14.483  23.477  18.559  1.00  0.00     0.022 A 
HETATM   34  C14 UNL     1      15.681  23.749  19.148  1.00  0.00     0.026 A 
HETATM   35 BR1  UNL     1      15.798  24.451  20.918  1.00  0.00    -0.050 Br
HETATM   36  C15 UNL     1      16.833  23.502  18.424  1.00  0.00     0.107 A 
HETATM   37  N6  UNL     1      16.759  23.010  17.180  1.00  0.00    -0.368 N 
ATOM     38  H6  UNL     1      17.622  22.837  16.666  1.00  0.00     0.165 HD
ENDBRANCH  30  31
ENDBRANCH  29  30
ENDBRANCH  28  29
ENDBRANCH  27  28
ENDBRANCH  26  27
ENDBRANCH   6  26
TORSDOF 13
ENDMDL
