MODEL 1
REMARK VINA RESULT: -9.204008578      0.000      0.000
REMARK  14 active torsions:
REMARK  status: ('A' for Active; 'I' for Inactive)
REMARK    1  A    between atoms: N2_13  and  C8_14 
REMARK    2  A    between atoms: C8_14  and  C9_15 
REMARK    3  A    between atoms: C9_15  and  C10_16 
REMARK    4  A    between atoms: C10_16  and  C11_17 
REMARK    5  A    between atoms: C12_18  and  N3_19 
REMARK    6  A    between atoms: N3_19  and  C13_21 
REMARK    7  A    between atoms: C17_29  and  C18_30 
REMARK    8  A    between atoms: C18_30  and  O3_31 
REMARK    9  A    between atoms: C19_33  and  O4_34 
REMARK   10  A    between atoms: O4_34  and  C20_35 
REMARK   11  A    between atoms: C20_35  and  C21_36 
REMARK   12  A    between atoms: C21_36  and  O5_37 
REMARK   13  A    between atoms: C21_36  and  C22_39 
REMARK   14  A    between atoms: C22_39  and  O6_40 
ROOT
HETATM    1  C13 UNL     1      12.412  19.315  18.610  1.00  0.00     0.120 A 
HETATM    2  N4  UNL     1      11.792  18.248  18.142  1.00  0.00    -0.338 N 
ATOM      3  H4  UNL     1      11.179  17.733  18.774  1.00  0.00     0.168 HD
HETATM    4  C14 UNL     1      11.923  17.801  16.885  1.00  0.00     0.182 A 
HETATM    5  N5  UNL     1      12.729  18.491  16.040  1.00  0.00    -0.351 N 
ATOM      6  H5  UNL     1      12.841  18.176  15.076  1.00  0.00     0.166 HD
HETATM    7  C15 UNL     1      13.388  19.597  16.471  1.00  0.00     0.049 A 
HETATM    8  C16 UNL     1      14.139  20.345  15.573  1.00  0.00     0.042 A 
HETATM    9  C17 UNL     1      14.736  21.494  16.008  1.00  0.00     0.002 A 
HETATM   10  C19 UNL     1      14.643  21.960  17.303  1.00  0.00     0.095 A 
HETATM   11  C23 UNL     1      13.874  21.204  18.209  1.00  0.00     0.061 A 
HETATM   12 BR1  UNL     1      13.636  21.801  19.984  1.00  0.00    -0.047 Br
HETATM   13  C24 UNL     1      13.259  20.040  17.774  1.00  0.00     0.055 A 
ENDROOT
BRANCH   1  14
HETATM   14  N3  UNL     1      11.922  20.042  19.660  1.00  0.00    -0.352 N 
ATOM     15  H3  UNL     1      12.237  20.979  19.910  1.00  0.00     0.166 HD
BRANCH  14  16
HETATM   16  C12 UNL     1      10.925  19.323  20.352  1.00  0.00     0.085 C 
HETATM   17  C11 UNL     1      10.048  19.439  21.408  1.00  0.00    -0.010 C 
BRANCH  17  18
HETATM   18  C10 UNL     1       8.827  20.341  21.546  1.00  0.00     0.030 C 
BRANCH  18  19
HETATM   19  C9  UNL     1       7.761  19.509  20.946  1.00  0.00     0.024 C 
BRANCH  19  20
HETATM   20  C8  UNL     1       6.873  19.904  19.834  1.00  0.00     0.136 C 
BRANCH  20  21
HETATM   21  N2  UNL     1       7.064  18.764  18.861  1.00  0.00    -0.279 N 
HETATM   22  C1  UNL     1       6.232  17.630  18.670  1.00  0.00     0.263 A 
HETATM   23  O1  UNL     1       5.219  17.376  19.381  1.00  0.00    -0.267 OA
HETATM   24  C2  UNL     1       6.747  16.844  17.535  1.00  0.00     0.066 A 
HETATM   25  C3  UNL     1       6.278  15.698  16.933  1.00  0.00     0.045 A 
HETATM   26  C6  UNL     1       7.895  17.496  17.044  1.00  0.00     0.117 A 
HETATM   27  C4  UNL     1       6.936  15.144  15.822  1.00  0.00     0.050 A 
HETATM   28 CL1  UNL     1       6.364  13.702  15.064  1.00  0.00    -0.083 Cl
HETATM   29  C5  UNL     1       8.049  15.808  15.385  1.00  0.00     0.112 A 
HETATM   30  N1  UNL     1       8.494  16.935  15.981  1.00  0.00    -0.359 N 
ATOM     31  H1  UNL     1       9.329  17.383  15.605  1.00  0.00     0.165 HD
HETATM   32  C7  UNL     1       8.082  18.689  17.875  1.00  0.00     0.278 A 
HETATM   33  O2  UNL     1       8.990  19.544  17.767  1.00  0.00    -0.265 OA
ENDBRANCH  20  21
ENDBRANCH  19  20
ENDBRANCH  18  19
ENDBRANCH  17  18
ENDBRANCH  14  16
ENDBRANCH   1  14
BRANCH  10  34
HETATM   34  O4  UNL     1      15.266  23.113  17.640  1.00  0.00    -0.346 OA
BRANCH  34  35
HETATM   35  C20 UNL     1      16.285  23.260  18.589  1.00  0.00     0.209 C 
BRANCH  35  36
HETATM   36  C21 UNL     1      17.543  23.906  18.183  1.00  0.00     0.166 C 
BRANCH  36  37
HETATM   37  O5  UNL     1      18.518  23.056  17.723  1.00  0.00    -0.391 OA
ATOM     38  H5  UNL     1      19.403  23.401  17.746  1.00  0.00     0.210 HD
ENDBRANCH  36  37
BRANCH  36  39
HETATM   39  C22 UNL     1      17.959  25.058  19.020  1.00  0.00     0.198 C 
BRANCH  39  40
HETATM   40  O6  UNL     1      17.955  24.641  20.386  1.00  0.00    -0.398 OA
ATOM     41  H6  UNL     1      17.139  24.182  20.553  1.00  0.00     0.209 HD
ENDBRANCH  39  40
ENDBRANCH  36  39
ENDBRANCH  35  36
ENDBRANCH  34  35
ENDBRANCH  10  34
BRANCH   9  42
HETATM   42  C18 UNL     1      15.557  22.375  15.103  1.00  0.00     0.205 C 
BRANCH  42  43
HETATM   43  O3  UNL     1      16.934  22.133  15.274  1.00  0.00    -0.396 OA
ATOM     44  H3  UNL     1      17.423  22.376  14.497  1.00  0.00     0.209 HD
ENDBRANCH  42  43
ENDBRANCH   9  42
TORSDOF 14
ENDMDL
MODEL 2
REMARK VINA RESULT: -9.145403302      0.787      1.554
REMARK  14 active torsions:
REMARK  status: ('A' for Active; 'I' for Inactive)
REMARK    1  A    between atoms: N2_13  and  C8_14 
REMARK    2  A    between atoms: C8_14  and  C9_15 
REMARK    3  A    between atoms: C9_15  and  C10_16 
REMARK    4  A    between atoms: C10_16  and  C11_17 
REMARK    5  A    between atoms: C12_18  and  N3_19 
REMARK    6  A    between atoms: N3_19  and  C13_21 
REMARK    7  A    between atoms: C17_29  and  C18_30 
REMARK    8  A    between atoms: C18_30  and  O3_31 
REMARK    9  A    between atoms: C19_33  and  O4_34 
REMARK   10  A    between atoms: O4_34  and  C20_35 
REMARK   11  A    between atoms: C20_35  and  C21_36 
REMARK   12  A    between atoms: C21_36  and  O5_37 
REMARK   13  A    between atoms: C21_36  and  C22_39 
REMARK   14  A    between atoms: C22_39  and  O6_40 
ROOT
HETATM    1  C13 UNL     1      12.192  19.372  18.590  1.00  0.00     0.120 A 
HETATM    2  N4  UNL     1      11.619  18.279  18.123  1.00  0.00    -0.338 N 
ATOM      3  H4  UNL     1      10.932  17.808  18.711  1.00  0.00     0.168 HD
HETATM    4  C14 UNL     1      11.888  17.752  16.919  1.00  0.00     0.182 A 
HETATM    5  N5  UNL     1      12.793  18.384  16.131  1.00  0.00    -0.351 N 
ATOM      6  H5  UNL     1      13.011  18.008  15.208  1.00  0.00     0.166 HD
HETATM    7  C15 UNL     1      13.410  19.513  16.565  1.00  0.00     0.049 A 
HETATM    8  C16 UNL     1      14.267  20.199  15.713  1.00  0.00     0.042 A 
HETATM    9  C17 UNL     1      14.822  21.372  16.141  1.00  0.00     0.002 A 
HETATM   10  C19 UNL     1      14.586  21.920  17.384  1.00  0.00     0.095 A 
HETATM   11  C23 UNL     1      13.711  21.227  18.242  1.00  0.00     0.061 A 
HETATM   12 BR1  UNL     1      13.277  21.936  19.936  1.00  0.00    -0.047 Br
HETATM   13  C24 UNL     1      13.137  20.039  17.813  1.00  0.00     0.055 A 
ENDROOT
BRANCH   1  14
HETATM   14  N3  UNL     1      11.593  20.166  19.529  1.00  0.00    -0.352 N 
ATOM     15  H3  UNL     1      11.436  21.168  19.422  1.00  0.00     0.166 HD
BRANCH  14  16
HETATM   16  C12 UNL     1      11.221  19.415  20.664  1.00  0.00     0.085 C 
HETATM   17  C11 UNL     1      10.126  19.104  21.439  1.00  0.00    -0.010 C 
BRANCH  17  18
HETATM   18  C10 UNL     1       8.898  18.278  21.076  1.00  0.00     0.030 C 
BRANCH  18  19
HETATM   19  C9  UNL     1       7.806  19.265  21.230  1.00  0.00     0.024 C 
BRANCH  19  20
HETATM   20  C8  UNL     1       7.056  19.908  20.133  1.00  0.00     0.136 C 
BRANCH  20  21
HETATM   21  N2  UNL     1       7.051  18.825  19.080  1.00  0.00    -0.279 N 
HETATM   22  C1  UNL     1       7.972  18.637  18.016  1.00  0.00     0.263 A 
HETATM   23  O1  UNL     1       8.912  19.440  17.753  1.00  0.00    -0.267 OA
HETATM   24  C2  UNL     1       7.641  17.387  17.311  1.00  0.00     0.066 A 
HETATM   25  C3  UNL     1       8.249  16.748  16.254  1.00  0.00     0.045 A 
HETATM   26  C6  UNL     1       6.516  16.821  17.942  1.00  0.00     0.117 A 
HETATM   27  C4  UNL     1       7.759  15.524  15.770  1.00  0.00     0.050 A 
HETATM   28 CL1  UNL     1       8.507  14.718  14.439  1.00  0.00    -0.083 Cl
HETATM   29  C5  UNL     1       6.662  15.016  16.409  1.00  0.00     0.112 A 
HETATM   30  N1  UNL     1       6.080  15.650  17.449  1.00  0.00    -0.359 N 
ATOM     31  H1  UNL     1       5.265  15.217  17.884  1.00  0.00     0.165 HD
HETATM   32  C7  UNL     1       6.159  17.723  19.040  1.00  0.00     0.278 A 
HETATM   33  O2  UNL     1       5.215  17.582  19.851  1.00  0.00    -0.265 OA
ENDBRANCH  20  21
ENDBRANCH  19  20
ENDBRANCH  18  19
ENDBRANCH  17  18
ENDBRANCH  14  16
ENDBRANCH   1  14
BRANCH  10  34
HETATM   34  O4  UNL     1      15.179  23.090  17.717  1.00  0.00    -0.346 OA
BRANCH  34  35
HETATM   35  C20 UNL     1      16.181  23.269  18.679  1.00  0.00     0.209 C 
BRANCH  35  36
HETATM   36  C21 UNL     1      17.446  23.901  18.273  1.00  0.00     0.166 C 
BRANCH  36  37
HETATM   37  O5  UNL     1      18.409  23.042  17.804  1.00  0.00    -0.391 OA
ATOM     38  H5  UNL     1      18.225  22.646  16.960  1.00  0.00     0.210 HD
ENDBRANCH  36  37
BRANCH  36  39
HETATM   39  C22 UNL     1      17.880  25.042  19.116  1.00  0.00     0.198 C 
BRANCH  39  40
HETATM   40  O6  UNL     1      17.893  24.610  20.478  1.00  0.00    -0.398 OA
ATOM     41  H6  UNL     1      18.242  25.316  21.010  1.00  0.00     0.209 HD
ENDBRANCH  39  40
ENDBRANCH  36  39
ENDBRANCH  35  36
ENDBRANCH  34  35
ENDBRANCH  10  34
BRANCH   9  42
HETATM   42  C18 UNL     1      15.751  22.190  15.282  1.00  0.00     0.205 C 
BRANCH  42  43
HETATM   43  O3  UNL     1      17.093  21.820  15.494  1.00  0.00    -0.396 OA
ATOM     44  H3  UNL     1      17.360  22.000  16.388  1.00  0.00     0.209 HD
ENDBRANCH  42  43
ENDBRANCH   9  42
TORSDOF 14
ENDMDL
MODEL 3
REMARK VINA RESULT: -9.110036658      1.000      1.782
REMARK  14 active torsions:
REMARK  status: ('A' for Active; 'I' for Inactive)
REMARK    1  A    between atoms: N2_13  and  C8_14 
REMARK    2  A    between atoms: C8_14  and  C9_15 
REMARK    3  A    between atoms: C9_15  and  C10_16 
REMARK    4  A    between atoms: C10_16  and  C11_17 
REMARK    5  A    between atoms: C12_18  and  N3_19 
REMARK    6  A    between atoms: N3_19  and  C13_21 
REMARK    7  A    between atoms: C17_29  and  C18_30 
REMARK    8  A    between atoms: C18_30  and  O3_31 
REMARK    9  A    between atoms: C19_33  and  O4_34 
REMARK   10  A    between atoms: O4_34  and  C20_35 
REMARK   11  A    between atoms: C20_35  and  C21_36 
REMARK   12  A    between atoms: C21_36  and  O5_37 
REMARK   13  A    between atoms: C21_36  and  C22_39 
REMARK   14  A    between atoms: C22_39  and  O6_40 
ROOT
HETATM    1  C13 UNL     1      12.514  19.352  18.616  1.00  0.00     0.120 A 
HETATM    2  N4  UNL     1      11.882  18.303  18.124  1.00  0.00    -0.338 N 
ATOM      3  H4  UNL     1      11.275  17.772  18.747  1.00  0.00     0.168 HD
HETATM    4  C14 UNL     1      11.992  17.895  16.851  1.00  0.00     0.182 A 
HETATM    5  N5  UNL     1      12.791  18.607  16.017  1.00  0.00    -0.351 N 
ATOM      6  H5  UNL     1      12.887  18.322  15.042  1.00  0.00     0.166 HD
HETATM    7  C15 UNL     1      13.462  19.696  16.473  1.00  0.00     0.049 A 
HETATM    8  C16 UNL     1      14.204  20.468  15.588  1.00  0.00     0.042 A 
HETATM    9  C17 UNL     1      14.814  21.599  16.051  1.00  0.00     0.002 A 
HETATM   10  C19 UNL     1      14.741  22.025  17.361  1.00  0.00     0.095 A 
HETATM   11  C23 UNL     1      13.981  21.245  18.253  1.00  0.00     0.061 A 
HETATM   12 BR1  UNL     1      13.772  21.786  20.049  1.00  0.00    -0.047 Br
HETATM   13  C24 UNL     1      13.354  20.098  17.791  1.00  0.00     0.055 A 
ENDROOT
BRANCH   1  14
HETATM   14  N3  UNL     1      12.044  20.047  19.695  1.00  0.00    -0.352 N 
ATOM     15  H3  UNL     1      12.405  20.950  20.001  1.00  0.00     0.166 HD
BRANCH  14  16
HETATM   16  C12 UNL     1      10.994  19.350  20.328  1.00  0.00     0.085 C 
HETATM   17  C11 UNL     1      10.083  19.471  21.355  1.00  0.00    -0.010 C 
BRANCH  17  18
HETATM   18  C10 UNL     1       8.895  20.417  21.477  1.00  0.00     0.030 C 
BRANCH  18  19
HETATM   19  C9  UNL     1       7.774  19.562  21.030  1.00  0.00     0.024 C 
BRANCH  19  20
HETATM   20  C8  UNL     1       6.749  19.924  20.030  1.00  0.00     0.136 C 
BRANCH  20  21
HETATM   21  N2  UNL     1       6.922  18.834  18.998  1.00  0.00    -0.279 N 
HETATM   22  C1  UNL     1       7.944  18.711  18.020  1.00  0.00     0.263 A 
HETATM   23  O1  UNL     1       8.838  19.583  17.827  1.00  0.00    -0.267 OA
HETATM   24  C2  UNL     1       7.776  17.432  17.310  1.00  0.00     0.066 A 
HETATM   25  C3  UNL     1       8.523  16.834  16.319  1.00  0.00     0.045 A 
HETATM   26  C6  UNL     1       6.649  16.783  17.849  1.00  0.00     0.117 A 
HETATM   27  C4  UNL     1       8.175  15.570  15.814  1.00  0.00     0.050 A 
HETATM   28 CL1  UNL     1       9.097  14.815  14.566  1.00  0.00    -0.083 Cl
HETATM   29  C5  UNL     1       7.070  14.983  16.364  1.00  0.00     0.112 A 
HETATM   30  N1  UNL     1       6.350  15.577  17.340  1.00  0.00    -0.359 N 
ATOM     31  H1  UNL     1       5.537  15.084  17.710  1.00  0.00     0.165 HD
HETATM   32  C7  UNL     1       6.126  17.664  18.898  1.00  0.00     0.278 A 
HETATM   33  O2  UNL     1       5.129  17.455  19.627  1.00  0.00    -0.265 OA
ENDBRANCH  20  21
ENDBRANCH  19  20
ENDBRANCH  18  19
ENDBRANCH  17  18
ENDBRANCH  14  16
ENDBRANCH   1  14
BRANCH  10  34
HETATM   34  O4  UNL     1      15.376  23.163  17.725  1.00  0.00    -0.346 OA
BRANCH  34  35
HETATM   35  C20 UNL     1      16.500  23.259  18.553  1.00  0.00     0.209 C 
BRANCH  35  36
HETATM   36  C21 UNL     1      16.734  24.512  19.288  1.00  0.00     0.166 C 
BRANCH  36  37
HETATM   37  O5  UNL     1      17.729  24.462  20.233  1.00  0.00    -0.391 OA
ATOM     38  H5  UNL     1      18.143  25.294  20.432  1.00  0.00     0.210 HD
ENDBRANCH  36  37
BRANCH  36  39
HETATM   39  C22 UNL     1      15.514  25.298  19.598  1.00  0.00     0.198 C 
BRANCH  39  40
HETATM   40  O6  UNL     1      15.155  26.041  18.433  1.00  0.00    -0.398 OA
ATOM     41  H6  UNL     1      14.365  26.533  18.627  1.00  0.00     0.209 HD
ENDBRANCH  39  40
ENDBRANCH  36  39
ENDBRANCH  35  36
ENDBRANCH  34  35
ENDBRANCH  10  34
BRANCH   9  42
HETATM   42  C18 UNL     1      15.627  22.503  15.161  1.00  0.00     0.205 C 
BRANCH  42  43
HETATM   43  O3  UNL     1      17.000  22.210  15.262  1.00  0.00    -0.396 OA
ATOM     44  H3  UNL     1      17.524  22.999  15.184  1.00  0.00     0.209 HD
ENDBRANCH  42  43
ENDBRANCH   9  42
TORSDOF 14
ENDMDL
MODEL 4
REMARK VINA RESULT: -9.021912829      3.515      9.858
REMARK  14 active torsions:
REMARK  status: ('A' for Active; 'I' for Inactive)
REMARK    1  A    between atoms: N2_13  and  C8_14 
REMARK    2  A    between atoms: C8_14  and  C9_15 
REMARK    3  A    between atoms: C9_15  and  C10_16 
REMARK    4  A    between atoms: C10_16  and  C11_17 
REMARK    5  A    between atoms: C12_18  and  N3_19 
REMARK    6  A    between atoms: N3_19  and  C13_21 
REMARK    7  A    between atoms: C17_29  and  C18_30 
REMARK    8  A    between atoms: C18_30  and  O3_31 
REMARK    9  A    between atoms: C19_33  and  O4_34 
REMARK   10  A    between atoms: O4_34  and  C20_35 
REMARK   11  A    between atoms: C20_35  and  C21_36 
REMARK   12  A    between atoms: C21_36  and  O5_37 
REMARK   13  A    between atoms: C21_36  and  C22_39 
REMARK   14  A    between atoms: C22_39  and  O6_40 
ROOT
HETATM    1  C13 UNL     1      10.940  19.642  18.041  1.00  0.00     0.120 A 
HETATM    2  N4  UNL     1      11.779  20.506  18.581  1.00  0.00    -0.338 N 
ATOM      3  H4  UNL     1      12.740  20.521  18.239  1.00  0.00     0.168 HD
HETATM    4  C14 UNL     1      11.441  21.367  19.552  1.00  0.00     0.182 A 
HETATM    5  N5  UNL     1      10.161  21.358  20.000  1.00  0.00    -0.351 N 
ATOM      6  H5  UNL     1       9.876  22.006  20.733  1.00  0.00     0.166 HD
HETATM    7  C15 UNL     1       9.258  20.488  19.477  1.00  0.00     0.049 A 
HETATM    8  C16 UNL     1       7.930  20.549  19.880  1.00  0.00     0.042 A 
HETATM    9  C17 UNL     1       7.022  19.716  19.291  1.00  0.00     0.002 A 
HETATM   10  C19 UNL     1       7.349  18.801  18.312  1.00  0.00     0.095 A 
HETATM   11  C23 UNL     1       8.694  18.747  17.899  1.00  0.00     0.061 A 
HETATM   12 BR1  UNL     1       9.220  17.572  16.519  1.00  0.00    -0.047 Br
HETATM   13  C24 UNL     1       9.621  19.594  18.487  1.00  0.00     0.055 A 
ENDROOT
BRANCH   1  14
HETATM   14  N3  UNL     1      11.112  19.150  16.777  1.00  0.00    -0.352 N 
ATOM     15  H3  UNL     1      11.137  18.158  16.542  1.00  0.00     0.166 HD
BRANCH  14  16
HETATM   16  C12 UNL     1      11.248  20.196  15.841  1.00  0.00     0.085 C 
HETATM   17  C11 UNL     1      12.204  20.905  15.146  1.00  0.00    -0.010 C 
BRANCH  17  18
HETATM   18  C10 UNL     1      13.133  20.427  14.037  1.00  0.00     0.030 C 
BRANCH  18  19
HETATM   19  C9  UNL     1      14.129  19.634  14.791  1.00  0.00     0.024 C 
BRANCH  19  20
HETATM   20  C8  UNL     1      15.533  20.016  15.043  1.00  0.00     0.136 C 
BRANCH  20  21
HETATM   21  N2  UNL     1      15.388  21.021  16.161  1.00  0.00    -0.279 N 
HETATM   22  C1  UNL     1      15.018  20.780  17.510  1.00  0.00     0.263 A 
HETATM   23  O1  UNL     1      14.667  19.649  17.949  1.00  0.00    -0.267 OA
HETATM   24  C2  UNL     1      15.120  22.040  18.267  1.00  0.00     0.066 A 
HETATM   25  C3  UNL     1      14.915  22.322  19.599  1.00  0.00     0.045 A 
HETATM   26  C6  UNL     1      15.543  23.046  17.377  1.00  0.00     0.117 A 
HETATM   27  C4  UNL     1      15.111  23.619  20.102  1.00  0.00     0.050 A 
HETATM   28 CL1  UNL     1      14.848  23.988  21.768  1.00  0.00    -0.083 Cl
HETATM   29  C5  UNL     1      15.515  24.563  19.200  1.00  0.00     0.112 A 
HETATM   30  N1  UNL     1      15.719  24.271  17.897  1.00  0.00    -0.359 N 
ATOM     31  H1  UNL     1      16.023  25.021  17.276  1.00  0.00     0.165 HD
HETATM   32  C7  UNL     1      15.707  22.401  16.071  1.00  0.00     0.278 A 
HETATM   33  O2  UNL     1      16.075  22.946  15.005  1.00  0.00    -0.265 OA
ENDBRANCH  20  21
ENDBRANCH  19  20
ENDBRANCH  18  19
ENDBRANCH  17  18
ENDBRANCH  14  16
ENDBRANCH   1  14
BRANCH  10  34
HETATM   34  O4  UNL     1       6.379  18.019  17.783  1.00  0.00    -0.346 OA
BRANCH  34  35
HETATM   35  C20 UNL     1       6.142  16.672  18.082  1.00  0.00     0.209 C 
BRANCH  35  36
HETATM   36  C21 UNL     1       4.902  16.047  17.597  1.00  0.00     0.166 C 
BRANCH  36  37
HETATM   37  O5  UNL     1       4.337  15.126  18.445  1.00  0.00    -0.391 OA
ATOM     38  H5  UNL     1       3.646  15.459  19.006  1.00  0.00     0.210 HD
ENDBRANCH  36  37
BRANCH  36  39
HETATM   39  C22 UNL     1       4.863  15.770  16.141  1.00  0.00     0.198 C 
BRANCH  39  40
HETATM   40  O6  UNL     1       5.644  16.764  15.477  1.00  0.00    -0.398 OA
ATOM     41  H6  UNL     1       6.122  16.344  14.771  1.00  0.00     0.209 HD
ENDBRANCH  39  40
ENDBRANCH  36  39
ENDBRANCH  35  36
ENDBRANCH  34  35
ENDBRANCH  10  34
BRANCH   9  42
HETATM   42  C18 UNL     1       5.561  19.721  19.655  1.00  0.00     0.205 C 
BRANCH  42  43
HETATM   43  O3  UNL     1       4.836  20.598  18.825  1.00  0.00    -0.396 OA
ATOM     44  H3  UNL     1       4.427  21.289  19.333  1.00  0.00     0.209 HD
ENDBRANCH  42  43
ENDBRANCH   9  42
TORSDOF 14
ENDMDL
MODEL 5
REMARK VINA RESULT: -8.928945025      3.815     10.287
REMARK  14 active torsions:
REMARK  status: ('A' for Active; 'I' for Inactive)
REMARK    1  A    between atoms: N2_13  and  C8_14 
REMARK    2  A    between atoms: C8_14  and  C9_15 
REMARK    3  A    between atoms: C9_15  and  C10_16 
REMARK    4  A    between atoms: C10_16  and  C11_17 
REMARK    5  A    between atoms: C12_18  and  N3_19 
REMARK    6  A    between atoms: N3_19  and  C13_21 
REMARK    7  A    between atoms: C17_29  and  C18_30 
REMARK    8  A    between atoms: C18_30  and  O3_31 
REMARK    9  A    between atoms: C19_33  and  O4_34 
REMARK   10  A    between atoms: O4_34  and  C20_35 
REMARK   11  A    between atoms: C20_35  and  C21_36 
REMARK   12  A    between atoms: C21_36  and  O5_37 
REMARK   13  A    between atoms: C21_36  and  C22_39 
REMARK   14  A    between atoms: C22_39  and  O6_40 
ROOT
HETATM    1  C13 UNL     1      11.412  19.937  17.853  1.00  0.00     0.120 A 
HETATM    2  N4  UNL     1      12.262  20.777  18.413  1.00  0.00    -0.338 N 
ATOM      3  H4  UNL     1      13.201  20.842  18.021  1.00  0.00     0.168 HD
HETATM    4  C14 UNL     1      11.962  21.550  19.467  1.00  0.00     0.182 A 
HETATM    5  N5  UNL     1      10.710  21.473  19.983  1.00  0.00    -0.351 N 
ATOM      6  H5  UNL     1      10.454  22.054  20.781  1.00  0.00     0.166 HD
HETATM    7  C15 UNL     1       9.797  20.625  19.442  1.00  0.00     0.049 A 
HETATM    8  C16 UNL     1       8.493  20.621  19.922  1.00  0.00     0.042 A 
HETATM    9  C17 UNL     1       7.571  19.814  19.318  1.00  0.00     0.002 A 
HETATM   10  C19 UNL     1       7.860  18.987  18.252  1.00  0.00     0.095 A 
HETATM   11  C23 UNL     1       9.180  19.000  17.764  1.00  0.00     0.061 A 
HETATM   12 BR1  UNL     1       9.651  17.952  16.266  1.00  0.00    -0.047 Br
HETATM   13  C24 UNL     1      10.121  19.821  18.366  1.00  0.00     0.055 A 
ENDROOT
BRANCH   1  14
HETATM   14  N3  UNL     1      11.521  19.551  16.546  1.00  0.00    -0.352 N 
ATOM     15  H3  UNL     1      10.749  19.197  15.982  1.00  0.00     0.166 HD
BRANCH  14  16
HETATM   16  C12 UNL     1      12.844  19.708  16.080  1.00  0.00     0.085 C 
HETATM   17  C11 UNL     1      13.577  19.772  14.916  1.00  0.00    -0.010 C 
BRANCH  17  18
HETATM   18  C10 UNL     1      13.573  20.851  13.839  1.00  0.00     0.030 C 
BRANCH  18  19
HETATM   19  C9  UNL     1      14.739  21.676  14.226  1.00  0.00     0.024 C 
BRANCH  19  20
HETATM   20  C8  UNL     1      16.017  21.173  14.768  1.00  0.00     0.136 C 
BRANCH  20  21
HETATM   21  N2  UNL     1      16.367  22.237  15.782  1.00  0.00    -0.279 N 
HETATM   22  C1  UNL     1      15.713  22.524  17.008  1.00  0.00     0.263 A 
HETATM   23  O1  UNL     1      14.654  21.950  17.389  1.00  0.00    -0.267 OA
HETATM   24  C2  UNL     1      16.471  23.566  17.722  1.00  0.00     0.066 A 
HETATM   25  C3  UNL     1      16.279  24.150  18.955  1.00  0.00     0.045 A 
HETATM   26  C6  UNL     1      17.578  23.917  16.927  1.00  0.00     0.117 A 
HETATM   27  C4  UNL     1      17.172  25.116  19.444  1.00  0.00     0.050 A 
HETATM   28 CL1  UNL     1      16.937  25.863  20.983  1.00  0.00    -0.083 Cl
HETATM   29  C5  UNL     1      18.228  25.429  18.634  1.00  0.00     0.112 A 
HETATM   30  N1  UNL     1      18.409  24.843  17.431  1.00  0.00    -0.359 N 
ATOM     31  H1  UNL     1      19.219  25.120  16.876  1.00  0.00     0.165 HD
HETATM   32  C7  UNL     1      17.504  23.084  15.723  1.00  0.00     0.278 A 
HETATM   33  O2  UNL     1      18.304  23.083  14.760  1.00  0.00    -0.265 OA
ENDBRANCH  20  21
ENDBRANCH  19  20
ENDBRANCH  18  19
ENDBRANCH  17  18
ENDBRANCH  14  16
ENDBRANCH   1  14
BRANCH  10  34
HETATM   34  O4  UNL     1       6.877  18.226  17.717  1.00  0.00    -0.346 OA
BRANCH  34  35
HETATM   35  C20 UNL     1       6.472  16.962  18.159  1.00  0.00     0.209 C 
BRANCH  35  36
HETATM   36  C21 UNL     1       6.891  15.776  17.394  1.00  0.00     0.166 C 
BRANCH  36  37
HETATM   37  O5  UNL     1       8.097  15.234  17.763  1.00  0.00    -0.391 OA
ATOM     38  H5  UNL     1       8.064  14.334  18.064  1.00  0.00     0.210 HD
ENDBRANCH  36  37
BRANCH  36  39
HETATM   39  C22 UNL     1       6.551  15.806  15.950  1.00  0.00     0.198 C 
BRANCH  39  40
HETATM   40  O6  UNL     1       5.535  16.790  15.752  1.00  0.00    -0.398 OA
ATOM     41  H6  UNL     1       5.828  17.386  15.072  1.00  0.00     0.209 HD
ENDBRANCH  39  40
ENDBRANCH  36  39
ENDBRANCH  35  36
ENDBRANCH  34  35
ENDBRANCH  10  34
BRANCH   9  42
HETATM   42  C18 UNL     1       6.132  19.754  19.762  1.00  0.00     0.205 C 
BRANCH  42  43
HETATM   43  O3  UNL     1       5.310  20.526  18.919  1.00  0.00    -0.396 OA
ATOM     44  H3  UNL     1       4.401  20.262  18.993  1.00  0.00     0.209 HD
ENDBRANCH  42  43
ENDBRANCH   9  42
TORSDOF 14
ENDMDL
