MODEL 1
REMARK VINA RESULT: -9.156166793      0.000      0.000
REMARK  13 active torsions:
REMARK  status: ('A' for Active; 'I' for Inactive)
REMARK    1  A    between atoms: C1_2  and  C2_4 
REMARK    2  A    between atoms: C3_8  and  O2_9 
REMARK    3  A    between atoms: C3_8  and  C4_11 
REMARK    4  A    between atoms: C4_11  and  O3_12 
REMARK    5  A    between atoms: C4_11  and  O4_14 
REMARK    6  A    between atoms: C5_16  and  N3_17 
REMARK    7  A    between atoms: C6_20  and  C7_21 
REMARK    8  A    between atoms: C9_26  and  O5_27 
REMARK    9  A    between atoms: C10_29  and  O6_30 
REMARK   10  A    between atoms: C13_38  and  O9_39 
REMARK   11  A    between atoms: C13_38  and  C14_41 
REMARK   12  A    between atoms: C14_41  and  O10_42 
REMARK   13  A    between atoms: O10_42  and  S1_43 
ROOT
HETATM    1  C2  UNL     1     -29.410  10.186  -4.569  1.00  0.00     0.316 C 
HETATM    2  N2  UNL     1     -28.384  11.149  -4.286  1.00  0.00    -0.020 N 
ATOM      3  H21 UNL     1     -28.743  12.073  -4.046  1.00  0.00     0.282 HD
ATOM      4  H22 UNL     1     -27.853  11.436  -5.109  1.00  0.00     0.282 HD
HETATM    5  C3  UNL     1     -27.558  10.542  -3.230  1.00  0.00     0.300 C 
HETATM    6  C5  UNL     1     -27.494   9.084  -3.681  1.00  0.00     0.220 C 
HETATM    7  C13 UNL     1     -28.874   8.875  -4.157  1.00  0.00     0.144 C 
ENDROOT
BRANCH   6   8
HETATM    8  N3  UNL     1     -26.463   8.875  -4.649  1.00  0.00    -0.229 N 
HETATM    9  N4  UNL     1     -26.051   9.774  -5.527  1.00  0.00    -0.291 N 
HETATM   10  C6  UNL     1     -25.087   9.576  -6.430  1.00  0.00     0.127 A 
ATOM     11  H4  UNL     1     -26.504  10.688  -5.514  1.00  0.00     0.187 HD
HETATM   12  C11 UNL     1     -24.455   8.351  -6.474  1.00  0.00     0.275 A 
HETATM   13  O7  UNL     1     -23.556   8.152  -7.311  1.00  0.00    -0.266 OA
HETATM   14  N6  UNL     1     -24.861   7.412  -5.583  1.00  0.00    -0.272 N 
HETATM   15  C12 UNL     1     -25.840   7.684  -4.701  1.00  0.00     0.344 A 
ATOM     16  H6  UNL     1     -24.420   6.493  -5.582  1.00  0.00     0.173 HD
HETATM   17  O8  UNL     1     -26.162   6.754  -3.899  1.00  0.00    -0.245 OA
BRANCH  10  18
HETATM   18  C7  UNL     1     -24.660  10.632  -7.404  1.00  0.00     0.273 C 
HETATM   19  N5  UNL     1     -24.802  10.209  -8.760  1.00  0.00    -0.060 N 
HETATM   20  C8  UNL     1     -23.686  10.704  -9.515  1.00  0.00     0.267 C 
ATOM     21  H52 UNL     1     -24.913   9.199  -8.845  1.00  0.00     0.278 HD
ATOM     22  H51 UNL     1     -25.698  10.483  -9.163  1.00  0.00     0.278 HD
HETATM   23  C9  UNL     1     -22.641  11.181  -8.561  1.00  0.00     0.174 C 
HETATM   24  C10 UNL     1     -23.244  11.050  -7.183  1.00  0.00     0.185 C 
BRANCH  23  25
HETATM   25  O5  UNL     1     -22.285  12.488  -8.870  1.00  0.00    -0.391 OA
ATOM     26  H5  UNL     1     -22.178  12.988  -8.070  1.00  0.00     0.210 HD
ENDBRANCH  23  25
BRANCH  24  27
HETATM   27  O6  UNL     1     -23.122  12.225  -6.442  1.00  0.00    -0.390 OA
ATOM     28  H6  UNL     1     -22.525  12.148  -5.708  1.00  0.00     0.210 HD
ENDBRANCH  24  27
ENDBRANCH  10  18
ENDBRANCH   6   8
BRANCH   5  29
HETATM   29  O2  UNL     1     -28.195  10.592  -2.000  1.00  0.00    -0.359 OA
ATOM     30  H2  UNL     1     -27.580  10.776  -1.299  1.00  0.00     0.212 HD
ENDBRANCH   5  29
BRANCH   5  31
HETATM   31  C4  UNL     1     -26.243  11.238  -3.226  1.00  0.00     0.320 C 
BRANCH  31  32
HETATM   32  O3  UNL     1     -26.062  12.006  -2.052  1.00  0.00    -0.367 OA
ATOM     33  H3  UNL     1     -26.770  12.626  -1.926  1.00  0.00     0.212 HD
ENDBRANCH  31  32
BRANCH  31  34
HETATM   34  O4  UNL     1     -26.267  12.207  -4.260  1.00  0.00    -0.367 OA
ATOM     35  H4  UNL     1     -25.612  12.864  -4.055  1.00  0.00     0.212 HD
ENDBRANCH  31  34
ENDBRANCH   5  31
BRANCH   7  36
HETATM   36  O9  UNL     1     -29.627   8.492  -3.005  1.00  0.00    -0.383 OA
ATOM     37  H9  UNL     1     -29.020   8.525  -2.276  1.00  0.00     0.210 HD
ENDBRANCH   7  36
BRANCH   7  38
HETATM   38  C14 UNL     1     -29.030   7.780  -5.176  1.00  0.00     0.236 C 
BRANCH  38  39
HETATM   39  O10 UNL     1     -30.098   6.945  -4.860  1.00  0.00    -0.254 OA
BRANCH  39  40
HETATM   40  S1  UNL     1     -29.617   5.433  -4.384  1.00  0.00     0.251 S 
HETATM   41  O11 UNL     1     -28.587   4.861  -5.315  1.00  0.00    -0.572 OA
HETATM   42  O12 UNL     1     -29.006   5.496  -3.017  1.00  0.00    -0.572 OA
HETATM   43  O13 UNL     1     -30.894   4.345  -4.314  1.00  0.00    -0.572 OA
ENDBRANCH  39  40
ENDBRANCH  38  39
ENDBRANCH   7  38
BRANCH   1  44
HETATM   44  C1  UNL     1     -30.655  10.570  -3.836  1.00  0.00     0.265 C 
HETATM   45  N1  UNL     1     -31.876   9.986  -4.259  1.00  0.00    -0.060 NA
HETATM   46  O1  UNL     1     -30.667  11.376  -2.874  1.00  0.00    -0.274 OA
ENDBRANCH   1  44
TORSDOF 13
ENDMDL
MODEL 2
REMARK VINA RESULT: -8.931918325      2.781      4.831
REMARK  13 active torsions:
REMARK  status: ('A' for Active; 'I' for Inactive)
REMARK    1  A    between atoms: C1_2  and  C2_4 
REMARK    2  A    between atoms: C3_8  and  O2_9 
REMARK    3  A    between atoms: C3_8  and  C4_11 
REMARK    4  A    between atoms: C4_11  and  O3_12 
REMARK    5  A    between atoms: C4_11  and  O4_14 
REMARK    6  A    between atoms: C5_16  and  N3_17 
REMARK    7  A    between atoms: C6_20  and  C7_21 
REMARK    8  A    between atoms: C9_26  and  O5_27 
REMARK    9  A    between atoms: C10_29  and  O6_30 
REMARK   10  A    between atoms: C13_38  and  O9_39 
REMARK   11  A    between atoms: C13_38  and  C14_41 
REMARK   12  A    between atoms: C14_41  and  O10_42 
REMARK   13  A    between atoms: O10_42  and  S1_43 
ROOT
HETATM    1  C2  UNL     1     -25.711  10.220  -6.117  1.00  0.00     0.316 C 
HETATM    2  N2  UNL     1     -24.928  10.674  -7.230  1.00  0.00    -0.020 N 
ATOM      3  H21 UNL     1     -25.232  11.572  -7.607  1.00  0.00     0.282 HD
ATOM      4  H22 UNL     1     -25.072  10.131  -8.082  1.00  0.00     0.282 HD
HETATM    5  C3  UNL     1     -23.535  10.673  -6.756  1.00  0.00     0.300 C 
HETATM    6  C5  UNL     1     -23.487   9.389  -5.929  1.00  0.00     0.220 C 
HETATM    7  C13 UNL     1     -24.802   9.432  -5.263  1.00  0.00     0.144 C 
ENDROOT
BRANCH   6   8
HETATM    8  N3  UNL     1     -23.240   8.243  -6.747  1.00  0.00    -0.229 N 
HETATM    9  N4  UNL     1     -23.856   7.976  -7.888  1.00  0.00    -0.291 N 
HETATM   10  C6  UNL     1     -23.624   6.904  -8.649  1.00  0.00     0.127 A 
ATOM     11  H4  UNL     1     -24.562   8.639  -8.209  1.00  0.00     0.187 HD
HETATM   12  C11 UNL     1     -22.676   5.988  -8.243  1.00  0.00     0.275 A 
HETATM   13  O7  UNL     1     -22.450   4.985  -8.943  1.00  0.00    -0.266 OA
HETATM   14  N6  UNL     1     -22.031   6.241  -7.077  1.00  0.00    -0.272 N 
HETATM   15  C12 UNL     1     -22.318   7.343  -6.360  1.00  0.00     0.344 A 
ATOM     16  H6  UNL     1     -21.323   5.589  -6.740  1.00  0.00     0.173 HD
HETATM   17  O8  UNL     1     -21.671   7.509  -5.280  1.00  0.00    -0.245 OA
BRANCH  10  18
HETATM   18  C7  UNL     1     -24.352   6.651  -9.934  1.00  0.00     0.273 C 
HETATM   19  N5  UNL     1     -23.539   6.910 -11.079  1.00  0.00    -0.060 N 
HETATM   20  C8  UNL     1     -24.352   7.527 -12.089  1.00  0.00     0.267 C 
ATOM     21  H52 UNL     1     -22.711   7.461 -10.854  1.00  0.00     0.278 HD
ATOM     22  H51 UNL     1     -23.063   6.074 -11.418  1.00  0.00     0.278 HD
HETATM   23  C9  UNL     1     -25.634   7.967 -11.465  1.00  0.00     0.174 C 
HETATM   24  C10 UNL     1     -25.594   7.474 -10.038  1.00  0.00     0.185 C 
BRANCH  23  25
HETATM   25  O5  UNL     1     -26.706   7.451 -12.182  1.00  0.00    -0.391 OA
ATOM     26  H5  UNL     1     -27.473   7.996 -12.049  1.00  0.00     0.210 HD
ENDBRANCH  23  25
BRANCH  24  27
HETATM   27  O6  UNL     1     -26.751   6.776  -9.690  1.00  0.00    -0.390 OA
ATOM     28  H6  UNL     1     -26.891   5.995 -10.212  1.00  0.00     0.210 HD
ENDBRANCH  24  27
ENDBRANCH  10  18
ENDBRANCH   6   8
BRANCH   5  29
HETATM   29  O2  UNL     1     -23.288  11.745  -5.914  1.00  0.00    -0.359 OA
ATOM     30  H2  UNL     1     -22.374  11.777  -5.653  1.00  0.00     0.212 HD
ENDBRANCH   5  29
BRANCH   5  31
HETATM   31  C4  UNL     1     -22.649  10.663  -7.950  1.00  0.00     0.320 C 
BRANCH  31  32
HETATM   32  O3  UNL     1     -22.052  11.927  -8.169  1.00  0.00    -0.367 OA
ATOM     33  H3  UNL     1     -22.336  12.312  -8.990  1.00  0.00     0.212 HD
ENDBRANCH  31  32
BRANCH  31  34
HETATM   34  O4  UNL     1     -23.468  10.478  -9.092  1.00  0.00    -0.367 OA
ATOM     35  H4  UNL     1     -23.319   9.597  -9.414  1.00  0.00     0.212 HD
ENDBRANCH  31  34
ENDBRANCH   5  31
BRANCH   7  36
HETATM   36  O9  UNL     1     -24.610  10.209  -4.079  1.00  0.00    -0.383 OA
ATOM     37  H9  UNL     1     -23.998   9.718  -3.544  1.00  0.00     0.210 HD
ENDBRANCH   7  36
BRANCH   7  38
HETATM   38  C14 UNL     1     -25.337   8.094  -4.836  1.00  0.00     0.236 C 
BRANCH  38  39
HETATM   39  O10 UNL     1     -26.717   8.026  -4.999  1.00  0.00    -0.254 OA
BRANCH  39  40
HETATM   40  S1  UNL     1     -27.189   6.799  -6.008  1.00  0.00     0.251 S 
HETATM   41  O11 UNL     1     -28.173   7.277  -7.036  1.00  0.00    -0.572 OA
HETATM   42  O12 UNL     1     -26.001   6.251  -6.739  1.00  0.00    -0.572 OA
HETATM   43  O13 UNL     1     -27.902   5.524  -5.180  1.00  0.00    -0.572 OA
ENDBRANCH  39  40
ENDBRANCH  38  39
ENDBRANCH   7  38
BRANCH   1  44
HETATM   44  C1  UNL     1     -26.298  11.404  -5.418  1.00  0.00     0.265 C 
HETATM   45  N1  UNL     1     -27.337  11.169  -4.482  1.00  0.00    -0.060 NA
HETATM   46  O1  UNL     1     -25.916  12.582  -5.620  1.00  0.00    -0.274 OA
ENDBRANCH   1  44
TORSDOF 13
ENDMDL
MODEL 3
REMARK VINA RESULT: -8.876572863      2.701      6.687
REMARK  13 active torsions:
REMARK  status: ('A' for Active; 'I' for Inactive)
REMARK    1  A    between atoms: C1_2  and  C2_4 
REMARK    2  A    between atoms: C3_8  and  O2_9 
REMARK    3  A    between atoms: C3_8  and  C4_11 
REMARK    4  A    between atoms: C4_11  and  O3_12 
REMARK    5  A    between atoms: C4_11  and  O4_14 
REMARK    6  A    between atoms: C5_16  and  N3_17 
REMARK    7  A    between atoms: C6_20  and  C7_21 
REMARK    8  A    between atoms: C9_26  and  O5_27 
REMARK    9  A    between atoms: C10_29  and  O6_30 
REMARK   10  A    between atoms: C13_38  and  O9_39 
REMARK   11  A    between atoms: C13_38  and  C14_41 
REMARK   12  A    between atoms: C14_41  and  O10_42 
REMARK   13  A    between atoms: O10_42  and  S1_43 
ROOT
HETATM    1  C2  UNL     1     -26.444   9.956  -5.973  1.00  0.00     0.316 C 
HETATM    2  N2  UNL     1     -26.400   8.849  -6.885  1.00  0.00    -0.020 N 
ATOM      3  H21 UNL     1     -25.902   9.050  -7.752  1.00  0.00     0.282 HD
ATOM      4  H22 UNL     1     -27.302   8.633  -7.312  1.00  0.00     0.282 HD
HETATM    5  C3  UNL     1     -25.827   7.731  -6.119  1.00  0.00     0.300 C 
HETATM    6  C5  UNL     1     -26.497   7.908  -4.758  1.00  0.00     0.220 C 
HETATM    7  C13 UNL     1     -26.470   9.376  -4.617  1.00  0.00     0.144 C 
ENDROOT
BRANCH   6   8
HETATM    8  N3  UNL     1     -27.793   7.304  -4.725  1.00  0.00    -0.229 N 
HETATM    9  N4  UNL     1     -28.875   7.793  -5.309  1.00  0.00    -0.291 N 
HETATM   10  C6  UNL     1     -30.083   7.225  -5.277  1.00  0.00     0.127 A 
ATOM     11  H4  UNL     1     -28.778   8.668  -5.823  1.00  0.00     0.187 HD
HETATM   12  C11 UNL     1     -30.247   6.041  -4.590  1.00  0.00     0.275 A 
HETATM   13  O7  UNL     1     -31.368   5.502  -4.551  1.00  0.00    -0.266 OA
HETATM   14  N6  UNL     1     -29.152   5.521  -3.983  1.00  0.00    -0.272 N 
HETATM   15  C12 UNL     1     -27.964   6.148  -4.058  1.00  0.00     0.344 A 
ATOM     16  H6  UNL     1     -29.229   4.646  -3.464  1.00  0.00     0.173 HD
HETATM   17  O8  UNL     1     -26.986   5.598  -3.464  1.00  0.00    -0.245 OA
BRANCH  10  18
HETATM   18  C7  UNL     1     -31.276   7.824  -5.958  1.00  0.00     0.273 C 
HETATM   19  N5  UNL     1     -32.323   8.141  -5.039  1.00  0.00    -0.060 N 
HETATM   20  C8  UNL     1     -33.582   7.830  -5.652  1.00  0.00     0.267 C 
ATOM     21  H52 UNL     1     -32.203   7.682  -4.136  1.00  0.00     0.278 HD
ATOM     22  H51 UNL     1     -32.276   9.106  -4.712  1.00  0.00     0.278 HD
HETATM   23  C9  UNL     1     -33.329   6.995  -6.863  1.00  0.00     0.174 C 
HETATM   24  C10 UNL     1     -31.828   6.918  -7.009  1.00  0.00     0.185 C 
BRANCH  23  25
HETATM   25  O5  UNL     1     -33.948   7.568  -7.966  1.00  0.00    -0.391 OA
ATOM     26  H5  UNL     1     -34.726   7.072  -8.191  1.00  0.00     0.210 HD
ENDBRANCH  23  25
BRANCH  24  27
HETATM   27  O6  UNL     1     -31.407   7.246  -8.298  1.00  0.00    -0.390 OA
ATOM     28  H6  UNL     1     -31.832   8.021  -8.647  1.00  0.00     0.210 HD
ENDBRANCH  24  27
ENDBRANCH  10  18
ENDBRANCH   6   8
BRANCH   5  29
HETATM   29  O2  UNL     1     -24.459   7.882  -5.955  1.00  0.00    -0.359 OA
ATOM     30  H2  UNL     1     -23.983   7.585  -6.722  1.00  0.00     0.212 HD
ENDBRANCH   5  29
BRANCH   5  31
HETATM   31  C4  UNL     1     -26.187   6.469  -6.817  1.00  0.00     0.320 C 
BRANCH  31  32
HETATM   32  O3  UNL     1     -25.091   5.941  -7.540  1.00  0.00    -0.367 OA
ATOM     33  H3  UNL     1     -25.117   4.991  -7.572  1.00  0.00     0.212 HD
ENDBRANCH  31  32
BRANCH  31  34
HETATM   34  O4  UNL     1     -27.129   6.790  -7.826  1.00  0.00    -0.367 OA
ATOM     35  H4  UNL     1     -27.907   6.267  -7.670  1.00  0.00     0.212 HD
ENDBRANCH  31  34
ENDBRANCH   5  31
BRANCH   7  36
HETATM   36  O9  UNL     1     -25.200   9.685  -4.038  1.00  0.00    -0.383 OA
ATOM     37  H9  UNL     1     -24.600   9.785  -4.767  1.00  0.00     0.210 HD
ENDBRANCH   7  36
BRANCH   7  38
HETATM   38  C14 UNL     1     -27.524   9.942  -3.708  1.00  0.00     0.236 C 
BRANCH  38  39
HETATM   39  O10 UNL     1     -28.371  10.807  -4.394  1.00  0.00    -0.254 OA
BRANCH  39  40
HETATM   40  S1  UNL     1     -29.895  10.868  -3.746  1.00  0.00     0.251 S 
HETATM   41  O11 UNL     1     -30.063  12.051  -2.838  1.00  0.00    -0.572 OA
HETATM   42  O12 UNL     1     -30.912  10.989  -4.840  1.00  0.00    -0.572 OA
HETATM   43  O13 UNL     1     -30.272   9.493  -2.859  1.00  0.00    -0.572 OA
ENDBRANCH  39  40
ENDBRANCH  38  39
ENDBRANCH   7  38
BRANCH   1  44
HETATM   44  C1  UNL     1     -25.258  10.835  -6.216  1.00  0.00     0.265 C 
HETATM   45  N1  UNL     1     -25.337  12.183  -5.783  1.00  0.00    -0.060 NA
HETATM   46  O1  UNL     1     -24.210  10.436  -6.778  1.00  0.00    -0.274 OA
ENDBRANCH   1  44
TORSDOF 13
ENDMDL
MODEL 4
REMARK VINA RESULT: -8.804748874      3.183      5.571
REMARK  13 active torsions:
REMARK  status: ('A' for Active; 'I' for Inactive)
REMARK    1  A    between atoms: C1_2  and  C2_4 
REMARK    2  A    between atoms: C3_8  and  O2_9 
REMARK    3  A    between atoms: C3_8  and  C4_11 
REMARK    4  A    between atoms: C4_11  and  O3_12 
REMARK    5  A    between atoms: C4_11  and  O4_14 
REMARK    6  A    between atoms: C5_16  and  N3_17 
REMARK    7  A    between atoms: C6_20  and  C7_21 
REMARK    8  A    between atoms: C9_26  and  O5_27 
REMARK    9  A    between atoms: C10_29  and  O6_30 
REMARK   10  A    between atoms: C13_38  and  O9_39 
REMARK   11  A    between atoms: C13_38  and  C14_41 
REMARK   12  A    between atoms: C14_41  and  O10_42 
REMARK   13  A    between atoms: O10_42  and  S1_43 
ROOT
HETATM    1  C2  UNL     1     -25.181  10.028  -6.760  1.00  0.00     0.316 C 
HETATM    2  N2  UNL     1     -24.517  10.434  -7.965  1.00  0.00    -0.020 N 
ATOM      3  H21 UNL     1     -24.852  11.321  -8.340  1.00  0.00     0.282 HD
ATOM      4  H22 UNL     1     -24.755   9.862  -8.777  1.00  0.00     0.282 HD
HETATM    5  C3  UNL     1     -23.081  10.433  -7.642  1.00  0.00     0.300 C 
HETATM    6  C5  UNL     1     -22.956   9.179  -6.778  1.00  0.00     0.220 C 
HETATM    7  C13 UNL     1     -24.193   9.261  -5.979  1.00  0.00     0.144 C 
ENDROOT
BRANCH   6   8
HETATM    8  N3  UNL     1     -22.807   8.001  -7.576  1.00  0.00    -0.229 N 
HETATM    9  N4  UNL     1     -23.513   7.723  -8.659  1.00  0.00    -0.291 N 
HETATM   10  C6  UNL     1     -23.371   6.621  -9.402  1.00  0.00     0.127 A 
ATOM     11  H4  UNL     1     -24.219   8.399  -8.949  1.00  0.00     0.187 HD
HETATM   12  C11 UNL     1     -22.425   5.687  -9.037  1.00  0.00     0.275 A 
HETATM   13  O7  UNL     1     -22.283   4.656  -9.719  1.00  0.00    -0.266 OA
HETATM   14  N6  UNL     1     -21.689   5.951  -7.929  1.00  0.00    -0.272 N 
HETATM   15  C12 UNL     1     -21.887   7.083  -7.228  1.00  0.00     0.344 A 
ATOM     16  H6  UNL     1     -20.979   5.286  -7.624  1.00  0.00     0.173 HD
HETATM   17  O8  UNL     1     -21.158   7.258  -6.204  1.00  0.00    -0.245 OA
BRANCH  10  18
HETATM   18  C7  UNL     1     -24.200   6.356 -10.621  1.00  0.00     0.273 C 
HETATM   19  N5  UNL     1     -23.591   6.860 -11.811  1.00  0.00    -0.060 N 
HETATM   20  C8  UNL     1     -24.616   7.407 -12.655  1.00  0.00     0.267 C 
ATOM     21  H52 UNL     1     -22.848   7.530 -11.616  1.00  0.00     0.278 HD
ATOM     22  H51 UNL     1     -23.026   6.158 -12.288  1.00  0.00     0.278 HD
HETATM   23  C9  UNL     1     -25.867   7.549 -11.854  1.00  0.00     0.174 C 
HETATM   24  C10 UNL     1     -25.567   6.945 -10.502  1.00  0.00     0.185 C 
BRANCH  23  25
HETATM   25  O5  UNL     1     -26.916   6.913 -12.505  1.00  0.00    -0.391 OA
ATOM     26  H5  UNL     1     -27.446   6.440 -11.874  1.00  0.00     0.210 HD
ENDBRANCH  23  25
BRANCH  24  27
HETATM   27  O6  UNL     1     -26.536   6.021 -10.112  1.00  0.00    -0.390 OA
ATOM     28  H6  UNL     1     -27.100   6.338  -9.416  1.00  0.00     0.210 HD
ENDBRANCH  24  27
ENDBRANCH  10  18
ENDBRANCH   6   8
BRANCH   5  29
HETATM   29  O2  UNL     1     -22.738  11.531  -6.869  1.00  0.00    -0.359 OA
ATOM     30  H2  UNL     1     -21.997  11.340  -6.306  1.00  0.00     0.212 HD
ENDBRANCH   5  29
BRANCH   5  31
HETATM   31  C4  UNL     1     -22.327  10.370  -8.922  1.00  0.00     0.320 C 
BRANCH  31  32
HETATM   32  O3  UNL     1     -21.694  11.601  -9.216  1.00  0.00    -0.367 OA
ATOM     33  H3  UNL     1     -20.776  11.591  -8.969  1.00  0.00     0.212 HD
ENDBRANCH  31  32
BRANCH  31  34
HETATM   34  O4  UNL     1     -23.270  10.221  -9.969  1.00  0.00    -0.367 OA
ATOM     35  H4  UNL     1     -23.813  11.001  -9.982  1.00  0.00     0.212 HD
ENDBRANCH  31  34
ENDBRANCH   5  31
BRANCH   7  36
HETATM   36  O9  UNL     1     -23.870  10.076  -4.851  1.00  0.00    -0.383 OA
ATOM     37  H9  UNL     1     -24.002   9.527  -4.088  1.00  0.00     0.210 HD
ENDBRANCH   7  36
BRANCH   7  38
HETATM   38  C14 UNL     1     -24.689   7.944  -5.449  1.00  0.00     0.236 C 
BRANCH  38  39
HETATM   39  O10 UNL     1     -26.079   7.891  -5.453  1.00  0.00    -0.254 OA
BRANCH  39  40
HETATM   40  S1  UNL     1     -26.681   6.783  -6.529  1.00  0.00     0.251 S 
HETATM   41  O11 UNL     1     -25.585   5.979  -7.166  1.00  0.00    -0.572 OA
HETATM   42  O12 UNL     1     -27.592   5.825  -5.822  1.00  0.00    -0.572 OA
HETATM   43  O13 UNL     1     -27.565   7.500  -7.764  1.00  0.00    -0.572 OA
ENDBRANCH  39  40
ENDBRANCH  38  39
ENDBRANCH   7  38
BRANCH   1  44
HETATM   44  C1  UNL     1     -25.681  11.243  -6.046  1.00  0.00     0.265 C 
HETATM   45  N1  UNL     1     -26.619  11.053  -4.999  1.00  0.00    -0.060 NA
HETATM   46  O1  UNL     1     -25.312  12.408  -6.328  1.00  0.00    -0.274 OA
ENDBRANCH   1  44
TORSDOF 13
ENDMDL
MODEL 5
REMARK VINA RESULT: -8.795991295      2.797      4.807
REMARK  13 active torsions:
REMARK  status: ('A' for Active; 'I' for Inactive)
REMARK    1  A    between atoms: C1_2  and  C2_4 
REMARK    2  A    between atoms: C3_8  and  O2_9 
REMARK    3  A    between atoms: C3_8  and  C4_11 
REMARK    4  A    between atoms: C4_11  and  O3_12 
REMARK    5  A    between atoms: C4_11  and  O4_14 
REMARK    6  A    between atoms: C5_16  and  N3_17 
REMARK    7  A    between atoms: C6_20  and  C7_21 
REMARK    8  A    between atoms: C9_26  and  O5_27 
REMARK    9  A    between atoms: C10_29  and  O6_30 
REMARK   10  A    between atoms: C13_38  and  O9_39 
REMARK   11  A    between atoms: C13_38  and  C14_41 
REMARK   12  A    between atoms: C14_41  and  O10_42 
REMARK   13  A    between atoms: O10_42  and  S1_43 
ROOT
HETATM    1  C2  UNL     1     -31.952   7.165  -7.031  1.00  0.00     0.316 C 
HETATM    2  N2  UNL     1     -31.956   8.558  -6.688  1.00  0.00    -0.020 N 
ATOM      3  H21 UNL     1     -32.617   9.113  -7.232  1.00  0.00     0.282 HD
ATOM      4  H22 UNL     1     -31.114   9.055  -6.981  1.00  0.00     0.282 HD
HETATM    5  C3  UNL     1     -32.196   8.605  -5.238  1.00  0.00     0.300 C 
HETATM    6  C5  UNL     1     -31.350   7.433  -4.742  1.00  0.00     0.220 C 
HETATM    7  C13 UNL     1     -31.605   6.435  -5.797  1.00  0.00     0.144 C 
ENDROOT
BRANCH   6   8
HETATM    8  N3  UNL     1     -29.983   7.810  -4.558  1.00  0.00    -0.229 N 
HETATM    9  N4  UNL     1     -28.998   7.528  -5.394  1.00  0.00    -0.291 N 
HETATM   10  C6  UNL     1     -27.721   7.881  -5.218  1.00  0.00     0.127 A 
ATOM     11  H4  UNL     1     -29.230   7.001  -6.236  1.00  0.00     0.187 HD
HETATM   12  C11 UNL     1     -27.375   8.594  -4.089  1.00  0.00     0.275 A 
HETATM   13  O7  UNL     1     -26.190   8.929  -3.913  1.00  0.00    -0.266 OA
HETATM   14  N6  UNL     1     -28.369   8.894  -3.217  1.00  0.00    -0.272 N 
HETATM   15  C12 UNL     1     -29.634   8.505  -3.460  1.00  0.00     0.344 A 
ATOM     16  H6  UNL     1     -28.156   9.420  -2.370  1.00  0.00     0.173 HD
HETATM   17  O8  UNL     1     -30.508   8.826  -2.596  1.00  0.00    -0.245 OA
BRANCH  10  18
HETATM   18  C7  UNL     1     -26.644   7.534  -6.199  1.00  0.00     0.273 C 
HETATM   19  N5  UNL     1     -26.014   8.694  -6.746  1.00  0.00    -0.060 N 
HETATM   20  C8  UNL     1     -25.747   8.459  -8.136  1.00  0.00     0.267 C 
ATOM     21  H52 UNL     1     -26.556   9.543  -6.589  1.00  0.00     0.278 HD
ATOM     22  H51 UNL     1     -25.177   8.964  -6.228  1.00  0.00     0.278 HD
HETATM   23  C9  UNL     1     -26.511   7.252  -8.570  1.00  0.00     0.174 C 
HETATM   24  C10 UNL     1     -27.166   6.703  -7.325  1.00  0.00     0.185 C 
BRANCH  23  25
HETATM   25  O5  UNL     1     -25.650   6.343  -9.171  1.00  0.00    -0.391 OA
ATOM     26  H5  UNL     1     -25.396   5.678  -8.541  1.00  0.00     0.210 HD
ENDBRANCH  23  25
BRANCH  24  27
HETATM   27  O6  UNL     1     -26.927   5.339  -7.164  1.00  0.00    -0.390 OA
ATOM     28  H6  UNL     1     -26.028   5.090  -7.343  1.00  0.00     0.210 HD
ENDBRANCH  24  27
ENDBRANCH  10  18
ENDBRANCH   6   8
BRANCH   5  29
HETATM   29  O2  UNL     1     -33.524   8.344  -4.937  1.00  0.00    -0.359 OA
ATOM     30  H2  UNL     1     -33.857   7.615  -5.449  1.00  0.00     0.212 HD
ENDBRANCH   5  29
BRANCH   5  31
HETATM   31  C4  UNL     1     -31.746   9.934  -4.745  1.00  0.00     0.320 C 
BRANCH  31  32
HETATM   32  O3  UNL     1     -32.517  10.372  -3.643  1.00  0.00    -0.367 OA
ATOM     33  H3  UNL     1     -33.270   9.812  -3.497  1.00  0.00     0.212 HD
ENDBRANCH  31  32
BRANCH  31  34
HETATM   34  O4  UNL     1     -32.033  10.886  -5.755  1.00  0.00    -0.367 OA
ATOM     35  H4  UNL     1     -32.421  11.645  -5.334  1.00  0.00     0.212 HD
ENDBRANCH  31  34
ENDBRANCH   5  31
BRANCH   7  36
HETATM   36  O9  UNL     1     -32.795   5.750  -5.402  1.00  0.00    -0.383 OA
ATOM     37  H9  UNL     1     -32.726   5.631  -4.462  1.00  0.00     0.210 HD
ENDBRANCH   7  36
BRANCH   7  38
HETATM   38  C14 UNL     1     -30.527   5.399  -5.958  1.00  0.00     0.236 C 
BRANCH  38  39
HETATM   39  O10 UNL     1     -30.668   4.376  -5.025  1.00  0.00    -0.254 OA
BRANCH  39  40
HETATM   40  S1  UNL     1     -29.309   4.149  -4.104  1.00  0.00     0.251 S 
HETATM   41  O11 UNL     1     -28.058   4.292  -4.921  1.00  0.00    -0.572 OA
HETATM   42  O12 UNL     1     -29.256   5.171  -3.010  1.00  0.00    -0.572 OA
HETATM   43  O13 UNL     1     -29.269   2.634  -3.380  1.00  0.00    -0.572 OA
ENDBRANCH  39  40
ENDBRANCH  38  39
ENDBRANCH   7  38
BRANCH   1  44
HETATM   44  C1  UNL     1     -33.294   6.793  -7.577  1.00  0.00     0.265 C 
HETATM   45  N1  UNL     1     -33.432   5.515  -8.175  1.00  0.00    -0.060 NA
HETATM   46  O1  UNL     1     -34.291   7.554  -7.530  1.00  0.00    -0.274 OA
ENDBRANCH   1  44
TORSDOF 13
ENDMDL
