MODEL 1
REMARK VINA RESULT: -10.151836443      0.000      0.000
REMARK  13 active torsions:
REMARK  status: ('A' for Active; 'I' for Inactive)
REMARK    1  A    between atoms: N3_9  and  C4_10 
REMARK    2  A    between atoms: C5_12  and  N4_13 
REMARK    3  A    between atoms: C6_16  and  N6_17 
REMARK    4  A    between atoms: C9_25  and  N8_26 
REMARK    5  A    between atoms: C11_32  and  O5_33 
REMARK    6  A    between atoms: O5_33  and  C12_34 
REMARK    7  A    between atoms: C12_34  and  C13_35 
REMARK    8  A    between atoms: C12_34  and  C14_38 
REMARK    9  A    between atoms: C13_35  and  O6_36 
REMARK   10  A    between atoms: C14_38  and  N10_39 
REMARK   11  A    between atoms: C14_38  and  C15_43 
REMARK   12  A    between atoms: C15_43  and  O7_44 
REMARK   13  A    between atoms: C16_46  and  O8_47 
ROOT
HETATM    1  C4  UNL     1     -28.136   7.399  -5.494  1.00  0.00     0.271 C 
HETATM    2  O3  UNL     1     -26.870   6.945  -5.944  1.00  0.00    -0.334 OA
HETATM    3  C5  UNL     1     -26.331   8.204  -6.312  1.00  0.00     0.280 C 
HETATM    4  C11 UNL     1     -26.496   9.024  -5.102  1.00  0.00     0.205 C 
HETATM    5  C16 UNL     1     -27.688   8.342  -4.407  1.00  0.00     0.201 C 
ENDROOT
BRANCH   3   6
HETATM    6  N4  UNL     1     -25.024   8.085  -6.851  1.00  0.00    -0.241 N 
HETATM    7  N5  UNL     1     -23.953   7.503  -6.355  1.00  0.00    -0.279 N 
HETATM    8  C6  UNL     1     -22.906   7.607  -7.173  1.00  0.00     0.133 A 
ATOM      9  H5  UNL     1     -23.927   7.029  -5.452  1.00  0.00     0.189 HD
HETATM   10  C7  UNL     1     -23.329   8.308  -8.280  1.00  0.00     0.123 A 
HETATM   11  C8  UNL     1     -22.694   8.715  -9.444  1.00  0.00     0.277 A 
HETATM   12  C10 UNL     1     -24.660   8.590  -8.043  1.00  0.00     0.160 A 
HETATM   13  O4  UNL     1     -21.484   8.452  -9.645  1.00  0.00    -0.266 OA
HETATM   14  N7  UNL     1     -23.387   9.402 -10.366  1.00  0.00    -0.155 N 
HETATM   15  C9  UNL     1     -24.685   9.682 -10.145  1.00  0.00     0.680 A 
ATOM     16  H7  UNL     1     -22.934   9.709 -11.227  1.00  0.00     0.187 HD
HETATM   17  N9  UNL     1     -25.304   9.289  -9.017  1.00  0.00    -0.174 N 
ATOM     18  H9  UNL     1     -26.288   9.522  -8.887  1.00  0.00     0.186 HD
BRANCH   8  19
HETATM   19  N6  UNL     1     -21.706   7.127  -6.946  1.00  0.00    -0.384 N 
ATOM     20  H62 UNL     1     -21.462   6.171  -6.688  1.00  0.00     0.157 HD
ATOM     21  H61 UNL     1     -20.835   7.654  -6.998  1.00  0.00     0.157 HD
ENDBRANCH   8  19
BRANCH  15  22
HETATM   22  N8  UNL     1     -25.340  10.348 -11.055  1.00  0.00    -0.234 N 
ATOM     23  H82 UNL     1     -25.161  11.343 -11.191  1.00  0.00     0.174 HD
ATOM     24  H81 UNL     1     -26.029   9.850 -11.619  1.00  0.00     0.174 HD
ENDBRANCH  15  22
ENDBRANCH   3   6
BRANCH   4  25
HETATM   25  O5  UNL     1     -25.480   9.055  -4.204  1.00  0.00    -0.369 OA
BRANCH  25  26
HETATM   26  C12 UNL     1     -25.183  10.436  -3.961  1.00  0.00     0.178 C 
BRANCH  26  27
HETATM   27  C13 UNL     1     -26.384  11.058  -3.289  1.00  0.00     0.198 C 
BRANCH  27  28
HETATM   28  O6  UNL     1     -26.033  11.980  -2.354  1.00  0.00    -0.398 OA
ATOM     29  H6  UNL     1     -26.712  12.630  -2.214  1.00  0.00     0.209 HD
ENDBRANCH  27  28
ENDBRANCH  26  27
BRANCH  26  30
HETATM   30  C14 UNL     1     -24.900  11.115  -5.264  1.00  0.00     0.237 C 
BRANCH  30  31
HETATM   31  N10 UNL     1     -25.446  12.433  -5.394  1.00  0.00    -0.070 N 
ATOM     32 3H10 UNL     1     -26.463  12.400  -5.330  1.00  0.00     0.274 HD
ATOM     33 2H10 UNL     1     -25.234  12.985  -4.563  1.00  0.00     0.274 HD
ATOM     34 1H10 UNL     1     -25.163  12.938  -6.234  1.00  0.00     0.274 HD
ENDBRANCH  30  31
BRANCH  30  35
HETATM   35  C15 UNL     1     -23.452  11.061  -5.675  1.00  0.00     0.199 C 
BRANCH  35  36
HETATM   36  O7  UNL     1     -23.101  12.207  -6.408  1.00  0.00    -0.399 OA
ATOM     37  H7  UNL     1     -22.338  12.629  -6.028  1.00  0.00     0.209 HD
ENDBRANCH  35  36
ENDBRANCH  30  35
ENDBRANCH  26  30
ENDBRANCH  25  26
ENDBRANCH   4  25
BRANCH   1  38
HETATM   38  N3  UNL     1     -28.990   6.351  -5.090  1.00  0.00    -0.220 N 
HETATM   39  C3  UNL     1     -28.644   5.521  -4.098  1.00  0.00     0.336 A 
HETATM   40  N2  UNL     1     -29.440   4.509  -3.690  1.00  0.00    -0.260 N 
HETATM   41  O2  UNL     1     -27.541   5.665  -3.504  1.00  0.00    -0.246 OA
HETATM   42  C2  UNL     1     -30.622   4.333  -4.307  1.00  0.00     0.334 A 
ATOM     43  H2  UNL     1     -29.152   3.892  -2.930  1.00  0.00     0.175 HD
HETATM   44  N1  UNL     1     -30.991   5.139  -5.292  1.00  0.00    -0.255 N 
HETATM   45  O1  UNL     1     -31.389   3.379  -3.934  1.00  0.00    -0.246 OA
HETATM   46  C1  UNL     1     -32.270   4.959  -5.972  1.00  0.00     0.166 C 
HETATM   47  C17 UNL     1     -30.172   6.155  -5.688  1.00  0.00     0.338 A 
HETATM   48  O9  UNL     1     -30.588   6.884  -6.635  1.00  0.00    -0.246 OA
ENDBRANCH   1  38
BRANCH   5  49
HETATM   49  O8  UNL     1     -28.638   9.236  -3.999  1.00  0.00    -0.388 OA
ATOM     50  H8  UNL     1     -28.310   9.946  -3.460  1.00  0.00     0.210 HD
ENDBRANCH   5  49
TORSDOF 13
ENDMDL
MODEL 2
REMARK VINA RESULT: -10.071604033      1.976      7.126
REMARK  13 active torsions:
REMARK  status: ('A' for Active; 'I' for Inactive)
REMARK    1  A    between atoms: N3_9  and  C4_10 
REMARK    2  A    between atoms: C5_12  and  N4_13 
REMARK    3  A    between atoms: C6_16  and  N6_17 
REMARK    4  A    between atoms: C9_25  and  N8_26 
REMARK    5  A    between atoms: C11_32  and  O5_33 
REMARK    6  A    between atoms: O5_33  and  C12_34 
REMARK    7  A    between atoms: C12_34  and  C13_35 
REMARK    8  A    between atoms: C12_34  and  C14_38 
REMARK    9  A    between atoms: C13_35  and  O6_36 
REMARK   10  A    between atoms: C14_38  and  N10_39 
REMARK   11  A    between atoms: C14_38  and  C15_43 
REMARK   12  A    between atoms: C15_43  and  O7_44 
REMARK   13  A    between atoms: C16_46  and  O8_47 
ROOT
HETATM    1  C4  UNL     1     -24.832   6.903  -7.135  1.00  0.00     0.271 C 
HETATM    2  O3  UNL     1     -26.206   6.836  -7.482  1.00  0.00    -0.334 OA
HETATM    3  C5  UNL     1     -26.729   6.677  -6.174  1.00  0.00     0.280 C 
HETATM    4  C11 UNL     1     -26.154   7.805  -5.426  1.00  0.00     0.205 C 
HETATM    5  C16 UNL     1     -24.867   8.098  -6.219  1.00  0.00     0.201 C 
ENDROOT
BRANCH   3   6
HETATM    6  N4  UNL     1     -28.142   6.546  -6.180  1.00  0.00    -0.241 N 
HETATM    7  N5  UNL     1     -29.059   7.291  -6.759  1.00  0.00    -0.279 N 
HETATM    8  C6  UNL     1     -30.290   6.835  -6.527  1.00  0.00     0.133 A 
ATOM      9  H5  UNL     1     -28.854   8.118  -7.318  1.00  0.00     0.189 HD
HETATM   10  C7  UNL     1     -30.161   5.712  -5.740  1.00  0.00     0.123 A 
HETATM   11  C8  UNL     1     -31.078   4.828  -5.192  1.00  0.00     0.277 A 
HETATM   12  C10 UNL     1     -28.803   5.562  -5.543  1.00  0.00     0.160 A 
HETATM   13  O4  UNL     1     -32.310   4.978  -5.378  1.00  0.00    -0.266 OA
HETATM   14  N7  UNL     1     -30.638   3.799  -4.449  1.00  0.00    -0.155 N 
HETATM   15  C9  UNL     1     -29.316   3.644  -4.252  1.00  0.00     0.680 A 
ATOM     16  H7  UNL     1     -31.301   3.141  -4.039  1.00  0.00     0.187 HD
HETATM   17  N9  UNL     1     -28.423   4.500  -4.782  1.00  0.00    -0.174 N 
ATOM     18  H9  UNL     1     -27.430   4.347  -4.607  1.00  0.00     0.186 HD
BRANCH   8  19
HETATM   19  N6  UNL     1     -31.402   7.370  -6.973  1.00  0.00    -0.384 N 
ATOM     20  H62 UNL     1     -31.775   8.293  -6.751  1.00  0.00     0.157 HD
ATOM     21  H61 UNL     1     -32.058   6.930  -7.617  1.00  0.00     0.157 HD
ENDBRANCH   8  19
BRANCH  15  22
HETATM   22  N8  UNL     1     -28.911   2.637  -3.530  1.00  0.00    -0.234 N 
ATOM     23  H82 UNL     1     -28.014   2.192  -3.726  1.00  0.00     0.174 HD
ATOM     24  H81 UNL     1     -29.510   2.311  -2.771  1.00  0.00     0.174 HD
ENDBRANCH  15  22
ENDBRANCH   3   6
BRANCH   4  25
HETATM   25  O5  UNL     1     -26.856   8.964  -5.371  1.00  0.00    -0.369 OA
BRANCH  25  26
HETATM   26  C12 UNL     1     -26.677   9.495  -4.052  1.00  0.00     0.178 C 
BRANCH  26  27
HETATM   27  C13 UNL     1     -27.941   9.233  -3.269  1.00  0.00     0.198 C 
BRANCH  27  28
HETATM   28  O6  UNL     1     -28.261  10.264  -2.442  1.00  0.00    -0.398 OA
ATOM     29  H6  UNL     1     -29.187  10.285  -2.232  1.00  0.00     0.209 HD
ENDBRANCH  27  28
ENDBRANCH  26  27
BRANCH  26  30
HETATM   30  C14 UNL     1     -26.413  10.966  -4.146  1.00  0.00     0.237 C 
BRANCH  30  31
HETATM   31  N10 UNL     1     -25.466  11.475  -3.199  1.00  0.00    -0.070 N 
ATOM     32 3H10 UNL     1     -24.992  10.705  -2.727  1.00  0.00     0.274 HD
ATOM     33 2H10 UNL     1     -24.676  11.899  -3.686  1.00  0.00     0.274 HD
ATOM     34 1H10 UNL     1     -25.847  12.127  -2.513  1.00  0.00     0.274 HD
ENDBRANCH  30  31
BRANCH  30  35
HETATM   35  C15 UNL     1     -26.127  11.445  -5.544  1.00  0.00     0.199 C 
BRANCH  35  36
HETATM   36  O7  UNL     1     -25.438  12.669  -5.519  1.00  0.00    -0.399 OA
ATOM     37  H7  UNL     1     -25.878  13.313  -6.062  1.00  0.00     0.209 HD
ENDBRANCH  35  36
ENDBRANCH  30  35
ENDBRANCH  26  30
ENDBRANCH  25  26
ENDBRANCH   4  25
BRANCH   1  38
HETATM   38  N3  UNL     1     -23.981   7.008  -8.256  1.00  0.00    -0.220 N 
HETATM   39  C3  UNL     1     -22.971   6.147  -8.438  1.00  0.00     0.336 A 
HETATM   40  N2  UNL     1     -22.140   6.222  -9.501  1.00  0.00    -0.260 N 
HETATM   41  O2  UNL     1     -22.764   5.224  -7.606  1.00  0.00    -0.246 OA
HETATM   42  C2  UNL     1     -22.338   7.198 -10.404  1.00  0.00     0.334 A 
ATOM     43  H2  UNL     1     -21.379   5.553  -9.616  1.00  0.00     0.175 HD
HETATM   44  N1  UNL     1     -23.330   8.064 -10.249  1.00  0.00    -0.255 N 
HETATM   45  O1  UNL     1     -21.561   7.285 -11.417  1.00  0.00    -0.246 OA
HETATM   46  C1  UNL     1     -23.557   9.129 -11.221  1.00  0.00     0.166 C 
HETATM   47  C17 UNL     1     -24.158   7.970  -9.170  1.00  0.00     0.338 A 
HETATM   48  O9  UNL     1     -25.083   8.831  -9.086  1.00  0.00    -0.246 OA
ENDBRANCH   1  38
BRANCH   5  49
HETATM   49  O8  UNL     1     -23.772   8.230  -5.410  1.00  0.00    -0.388 OA
ATOM     50  H8  UNL     1     -23.786   8.994  -4.846  1.00  0.00     0.210 HD
ENDBRANCH   5  49
TORSDOF 13
ENDMDL
MODEL 3
REMARK VINA RESULT: -9.816738821      1.531      1.555
REMARK  13 active torsions:
REMARK  status: ('A' for Active; 'I' for Inactive)
REMARK    1  A    between atoms: N3_9  and  C4_10 
REMARK    2  A    between atoms: C5_12  and  N4_13 
REMARK    3  A    between atoms: C6_16  and  N6_17 
REMARK    4  A    between atoms: C9_25  and  N8_26 
REMARK    5  A    between atoms: C11_32  and  O5_33 
REMARK    6  A    between atoms: O5_33  and  C12_34 
REMARK    7  A    between atoms: C12_34  and  C13_35 
REMARK    8  A    between atoms: C12_34  and  C14_38 
REMARK    9  A    between atoms: C13_35  and  O6_36 
REMARK   10  A    between atoms: C14_38  and  N10_39 
REMARK   11  A    between atoms: C14_38  and  C15_43 
REMARK   12  A    between atoms: C15_43  and  O7_44 
REMARK   13  A    between atoms: C16_46  and  O8_47 
ROOT
HETATM    1  C4  UNL     1     -28.188   6.986  -5.623  1.00  0.00     0.271 C 
HETATM    2  O3  UNL     1     -26.891   6.437  -5.792  1.00  0.00    -0.334 OA
HETATM    3  C5  UNL     1     -26.249   7.603  -6.280  1.00  0.00     0.280 C 
HETATM    4  C11 UNL     1     -26.552   8.623  -5.265  1.00  0.00     0.205 C 
HETATM    5  C16 UNL     1     -27.863   8.093  -4.655  1.00  0.00     0.201 C 
ENDROOT
BRANCH   3   6
HETATM    6  N4  UNL     1     -24.883   7.367  -6.587  1.00  0.00    -0.241 N 
HETATM    7  N5  UNL     1     -23.806   7.562  -5.857  1.00  0.00    -0.279 N 
HETATM    8  C6  UNL     1     -22.695   7.214  -6.506  1.00  0.00     0.133 A 
ATOM      9  H5  UNL     1     -23.819   7.934  -4.907  1.00  0.00     0.189 HD
HETATM   10  C7  UNL     1     -23.081   6.762  -7.748  1.00  0.00     0.123 A 
HETATM   11  C8  UNL     1     -22.377   6.275  -8.839  1.00  0.00     0.277 A 
HETATM   12  C10 UNL     1     -24.457   6.872  -7.762  1.00  0.00     0.160 A 
HETATM   13  O4  UNL     1     -21.126   6.181  -8.812  1.00  0.00    -0.266 OA
HETATM   14  N7  UNL     1     -23.048   5.901  -9.941  1.00  0.00    -0.155 N 
HETATM   15  C9  UNL     1     -24.390   6.004  -9.965  1.00  0.00     0.680 A 
ATOM     16  H7  UNL     1     -22.545   5.541 -10.753  1.00  0.00     0.187 HD
HETATM   17  N9  UNL     1     -25.076   6.477  -8.908  1.00  0.00    -0.174 N 
ATOM     18  H9  UNL     1     -26.091   6.541  -8.968  1.00  0.00     0.186 HD
BRANCH   8  19
HETATM   19  N6  UNL     1     -21.474   7.297  -6.033  1.00  0.00    -0.384 N 
ATOM     20  H62 UNL     1     -20.846   8.099  -6.081  1.00  0.00     0.157 HD
ATOM     21  H61 UNL     1     -20.975   6.557  -5.541  1.00  0.00     0.157 HD
ENDBRANCH   8  19
BRANCH  15  22
HETATM   22  N8  UNL     1     -25.022   5.634 -11.044  1.00  0.00    -0.234 N 
ATOM     23  H82 UNL     1     -24.502   5.276 -11.846  1.00  0.00     0.174 HD
ATOM     24  H81 UNL     1     -26.039   5.711 -11.062  1.00  0.00     0.174 HD
ENDBRANCH  15  22
ENDBRANCH   3   6
BRANCH   4  25
HETATM   25  O5  UNL     1     -25.679   8.789  -4.241  1.00  0.00    -0.369 OA
BRANCH  25  26
HETATM   26  C12 UNL     1     -25.464  10.199  -4.103  1.00  0.00     0.178 C 
BRANCH  26  27
HETATM   27  C13 UNL     1     -26.495  10.734  -3.138  1.00  0.00     0.198 C 
BRANCH  27  28
HETATM   28  O6  UNL     1     -26.051  11.827  -2.462  1.00  0.00    -0.398 OA
ATOM     29  H6  UNL     1     -26.763  12.378  -2.158  1.00  0.00     0.209 HD
ENDBRANCH  27  28
ENDBRANCH  26  27
BRANCH  26  30
HETATM   30  C14 UNL     1     -25.611  10.853  -5.443  1.00  0.00     0.237 C 
BRANCH  30  31
HETATM   31  N10 UNL     1     -26.461  12.005  -5.467  1.00  0.00    -0.070 N 
ATOM     32 3H10 UNL     1     -25.916  12.840  -5.682  1.00  0.00     0.274 HD
ATOM     33 2H10 UNL     1     -27.071  11.976  -6.284  1.00  0.00     0.274 HD
ATOM     34 1H10 UNL     1     -27.013  12.154  -4.621  1.00  0.00     0.274 HD
ENDBRANCH  30  31
BRANCH  30  35
HETATM   35  C15 UNL     1     -24.302  11.101  -6.144  1.00  0.00     0.199 C 
BRANCH  35  36
HETATM   36  O7  UNL     1     -23.247  10.468  -5.466  1.00  0.00    -0.399 OA
ATOM     37  H7  UNL     1     -23.566  10.026  -4.687  1.00  0.00     0.209 HD
ENDBRANCH  35  36
ENDBRANCH  30  35
ENDBRANCH  26  30
ENDBRANCH  25  26
ENDBRANCH   4  25
BRANCH   1  38
HETATM   38  N3  UNL     1     -29.139   6.040  -5.184  1.00  0.00    -0.220 N 
HETATM   39  C3  UNL     1     -28.892   5.253  -4.128  1.00  0.00     0.336 A 
HETATM   40  N2  UNL     1     -29.782   4.338  -3.685  1.00  0.00    -0.260 N 
HETATM   41  O2  UNL     1     -27.800   5.347  -3.506  1.00  0.00    -0.246 OA
HETATM   42  C2  UNL     1     -30.955   4.217  -4.331  1.00  0.00     0.334 A 
ATOM     43  H2  UNL     1     -29.569   3.753  -2.877  1.00  0.00     0.175 HD
HETATM   44  N1  UNL     1     -31.226   4.983  -5.379  1.00  0.00    -0.255 N 
HETATM   45  O1  UNL     1     -31.810   3.356  -3.926  1.00  0.00    -0.246 OA
HETATM   46  C1  UNL     1     -32.494   4.862  -6.090  1.00  0.00     0.166 C 
HETATM   47  C17 UNL     1     -30.314   5.901  -5.810  1.00  0.00     0.338 A 
HETATM   48  O9  UNL     1     -30.639   6.596  -6.816  1.00  0.00    -0.246 OA
ENDBRANCH   1  38
BRANCH   5  49
HETATM   49  O8  UNL     1     -28.822   9.063  -4.552  1.00  0.00    -0.388 OA
ATOM     50  H8  UNL     1     -28.659   9.712  -3.878  1.00  0.00     0.210 HD
ENDBRANCH   5  49
TORSDOF 13
ENDMDL
MODEL 4
REMARK VINA RESULT: -9.709768056      0.821      1.718
REMARK  13 active torsions:
REMARK  status: ('A' for Active; 'I' for Inactive)
REMARK    1  A    between atoms: N3_9  and  C4_10 
REMARK    2  A    between atoms: C5_12  and  N4_13 
REMARK    3  A    between atoms: C6_16  and  N6_17 
REMARK    4  A    between atoms: C9_25  and  N8_26 
REMARK    5  A    between atoms: C11_32  and  O5_33 
REMARK    6  A    between atoms: O5_33  and  C12_34 
REMARK    7  A    between atoms: C12_34  and  C13_35 
REMARK    8  A    between atoms: C12_34  and  C14_38 
REMARK    9  A    between atoms: C13_35  and  O6_36 
REMARK   10  A    between atoms: C14_38  and  N10_39 
REMARK   11  A    between atoms: C14_38  and  C15_43 
REMARK   12  A    between atoms: C15_43  and  O7_44 
REMARK   13  A    between atoms: C16_46  and  O8_47 
ROOT
HETATM    1  C4  UNL     1     -28.233   7.101  -5.843  1.00  0.00     0.271 C 
HETATM    2  O3  UNL     1     -26.988   6.574  -6.273  1.00  0.00    -0.334 OA
HETATM    3  C5  UNL     1     -26.423   7.780  -6.758  1.00  0.00     0.280 C 
HETATM    4  C11 UNL     1     -26.543   8.707  -5.622  1.00  0.00     0.205 C 
HETATM    5  C16 UNL     1     -27.739   8.121  -4.850  1.00  0.00     0.201 C 
ENDROOT
BRANCH   3   6
HETATM    6  N4  UNL     1     -25.130   7.578  -7.307  1.00  0.00    -0.241 N 
HETATM    7  N5  UNL     1     -24.201   6.704  -6.985  1.00  0.00    -0.279 N 
HETATM    8  C6  UNL     1     -23.112   6.833  -7.742  1.00  0.00     0.133 A 
ATOM      9  H5  UNL     1     -24.302   6.009  -6.245  1.00  0.00     0.189 HD
HETATM   10  C7  UNL     1     -23.353   7.868  -8.619  1.00  0.00     0.123 A 
HETATM   11  C8  UNL     1     -22.600   8.450  -9.627  1.00  0.00     0.277 A 
HETATM   12  C10 UNL     1     -24.625   8.309  -8.317  1.00  0.00     0.160 A 
HETATM   13  O4  UNL     1     -21.444   8.038  -9.890  1.00  0.00    -0.266 OA
HETATM   14  N7  UNL     1     -23.118   9.470 -10.330  1.00  0.00    -0.155 N 
HETATM   15  C9  UNL     1     -24.358   9.908 -10.044  1.00  0.00     0.680 A 
ATOM     16  H7  UNL     1     -22.576   9.910 -11.075  1.00  0.00     0.187 HD
HETATM   17  N9  UNL     1     -25.091   9.346  -9.066  1.00  0.00    -0.174 N 
ATOM     18  H9  UNL     1     -26.026   9.708  -8.879  1.00  0.00     0.186 HD
BRANCH   8  19
HETATM   19  N6  UNL     1     -22.025   6.103  -7.651  1.00  0.00    -0.384 N 
ATOM     20  H62 UNL     1     -21.885   5.272  -7.079  1.00  0.00     0.157 HD
ATOM     21  H61 UNL     1     -21.153   6.270  -8.153  1.00  0.00     0.157 HD
ENDBRANCH   8  19
BRANCH  15  22
HETATM   22  N8  UNL     1     -24.842  10.898 -10.740  1.00  0.00    -0.234 N 
ATOM     23  H82 UNL     1     -24.221  11.614 -11.116  1.00  0.00     0.174 HD
ATOM     24  H81 UNL     1     -25.850  10.935 -10.895  1.00  0.00     0.174 HD
ENDBRANCH  15  22
ENDBRANCH   3   6
BRANCH   4  25
HETATM   25  O5  UNL     1     -25.509   8.786  -4.747  1.00  0.00    -0.369 OA
BRANCH  25  26
HETATM   26  C12 UNL     1     -24.941  10.094  -4.895  1.00  0.00     0.178 C 
BRANCH  26  27
HETATM   27  C13 UNL     1     -23.469   9.930  -5.191  1.00  0.00     0.198 C 
BRANCH  27  28
HETATM   28  O6  UNL     1     -23.058  10.719  -6.220  1.00  0.00    -0.398 OA
ATOM     29  H6  UNL     1     -22.771  11.575  -5.926  1.00  0.00     0.209 HD
ENDBRANCH  27  28
ENDBRANCH  26  27
BRANCH  26  30
HETATM   30  C14 UNL     1     -25.138  10.863  -3.626  1.00  0.00     0.237 C 
BRANCH  30  31
HETATM   31  N10 UNL     1     -24.056  11.730  -3.266  1.00  0.00    -0.070 N 
ATOM     32 3H10 UNL     1     -23.371  11.224  -2.705  1.00  0.00     0.274 HD
ATOM     33 2H10 UNL     1     -23.490  11.945  -4.087  1.00  0.00     0.274 HD
ATOM     34 1H10 UNL     1     -24.330  12.591  -2.792  1.00  0.00     0.274 HD
ENDBRANCH  30  31
BRANCH  30  35
HETATM   35  C15 UNL     1     -26.471  11.557  -3.537  1.00  0.00     0.199 C 
BRANCH  35  36
HETATM   36  O7  UNL     1     -27.305  10.913  -2.606  1.00  0.00    -0.399 OA
ATOM     37  H7  UNL     1     -28.218  11.104  -2.785  1.00  0.00     0.209 HD
ENDBRANCH  35  36
ENDBRANCH  30  35
ENDBRANCH  26  30
ENDBRANCH  25  26
ENDBRANCH   4  25
BRANCH   1  38
HETATM   38  N3  UNL     1     -29.107   6.117  -5.335  1.00  0.00    -0.220 N 
HETATM   39  C3  UNL     1     -28.760   5.360  -4.286  1.00  0.00     0.336 A 
HETATM   40  N2  UNL     1     -29.575   4.410  -3.778  1.00  0.00    -0.260 N 
HETATM   41  O2  UNL     1     -27.639   5.518  -3.731  1.00  0.00    -0.246 OA
HETATM   42  C2  UNL     1     -30.777   4.221  -4.351  1.00  0.00     0.334 A 
ATOM     43  H2  UNL     1     -29.286   3.848  -2.977  1.00  0.00     0.175 HD
HETATM   44  N1  UNL     1     -31.147   4.955  -5.391  1.00  0.00    -0.255 N 
HETATM   45  O1  UNL     1     -31.562   3.326  -3.884  1.00  0.00    -0.246 OA
HETATM   46  C1  UNL     1     -32.447   4.761  -6.024  1.00  0.00     0.166 C 
HETATM   47  C17 UNL     1     -30.309   5.910  -5.888  1.00  0.00     0.338 A 
HETATM   48  O9  UNL     1     -30.727   6.572  -6.882  1.00  0.00    -0.246 OA
ENDBRANCH   1  38
BRANCH   5  49
HETATM   49  O8  UNL     1     -28.657   9.075  -4.506  1.00  0.00    -0.388 OA
ATOM     50  H8  UNL     1     -29.458   8.735  -4.125  1.00  0.00     0.210 HD
ENDBRANCH   5  49
TORSDOF 13
ENDMDL
MODEL 5
REMARK VINA RESULT: -9.696350012      0.519      1.496
REMARK  13 active torsions:
REMARK  status: ('A' for Active; 'I' for Inactive)
REMARK    1  A    between atoms: N3_9  and  C4_10 
REMARK    2  A    between atoms: C5_12  and  N4_13 
REMARK    3  A    between atoms: C6_16  and  N6_17 
REMARK    4  A    between atoms: C9_25  and  N8_26 
REMARK    5  A    between atoms: C11_32  and  O5_33 
REMARK    6  A    between atoms: O5_33  and  C12_34 
REMARK    7  A    between atoms: C12_34  and  C13_35 
REMARK    8  A    between atoms: C12_34  and  C14_38 
REMARK    9  A    between atoms: C13_35  and  O6_36 
REMARK   10  A    between atoms: C14_38  and  N10_39 
REMARK   11  A    between atoms: C14_38  and  C15_43 
REMARK   12  A    between atoms: C15_43  and  O7_44 
REMARK   13  A    between atoms: C16_46  and  O8_47 
ROOT
HETATM    1  C4  UNL     1     -28.400   7.581  -5.615  1.00  0.00     0.271 C 
HETATM    2  O3  UNL     1     -27.143   7.085  -6.046  1.00  0.00    -0.334 OA
HETATM    3  C5  UNL     1     -26.525   8.331  -6.317  1.00  0.00     0.280 C 
HETATM    4  C11 UNL     1     -26.693   9.087  -5.066  1.00  0.00     0.205 C 
HETATM    5  C16 UNL     1     -27.946   8.431  -4.458  1.00  0.00     0.201 C 
ENDROOT
BRANCH   3   6
HETATM    6  N4  UNL     1     -25.205   8.172  -6.815  1.00  0.00    -0.241 N 
HETATM    7  N5  UNL     1     -24.163   7.575  -6.277  1.00  0.00    -0.279 N 
HETATM    8  C6  UNL     1     -23.091   7.640  -7.066  1.00  0.00     0.133 A 
ATOM      9  H5  UNL     1     -24.175   7.117  -5.366  1.00  0.00     0.189 HD
HETATM   10  C7  UNL     1     -23.465   8.330  -8.197  1.00  0.00     0.123 A 
HETATM   11  C8  UNL     1     -22.787   8.700  -9.349  1.00  0.00     0.277 A 
HETATM   12  C10 UNL     1     -24.795   8.647  -8.005  1.00  0.00     0.160 A 
HETATM   13  O4  UNL     1     -21.577   8.406  -9.509  1.00  0.00    -0.266 OA
HETATM   14  N7  UNL     1     -23.436   9.385 -10.304  1.00  0.00    -0.155 N 
HETATM   15  C9  UNL     1     -24.733   9.699 -10.126  1.00  0.00     0.680 A 
ATOM     16  H7  UNL     1     -22.951   9.666 -11.157  1.00  0.00     0.187 HD
HETATM   17  N9  UNL     1     -25.394   9.342  -9.010  1.00  0.00    -0.174 N 
ATOM     18  H9  UNL     1     -26.376   9.600  -8.914  1.00  0.00     0.186 HD
BRANCH   8  19
HETATM   19  N6  UNL     1     -21.910   7.136  -6.795  1.00  0.00    -0.384 N 
ATOM     20  H62 UNL     1     -21.488   7.011  -5.875  1.00  0.00     0.157 HD
ATOM     21  H61 UNL     1     -21.238   6.793  -7.480  1.00  0.00     0.157 HD
ENDBRANCH   8  19
BRANCH  15  22
HETATM   22  N8  UNL     1     -25.346  10.363 -11.067  1.00  0.00    -0.234 N 
ATOM     23  H82 UNL     1     -25.962  11.140 -10.828  1.00  0.00     0.174 HD
ATOM     24  H81 UNL     1     -25.192  10.085 -12.036  1.00  0.00     0.174 HD
ENDBRANCH  15  22
ENDBRANCH   3   6
BRANCH   4  25
HETATM   25  O5  UNL     1     -25.713   9.008  -4.132  1.00  0.00    -0.369 OA
BRANCH  25  26
HETATM   26  C12 UNL     1     -25.313  10.352  -3.837  1.00  0.00     0.178 C 
BRANCH  26  27
HETATM   27  C13 UNL     1     -26.471  11.044  -3.159  1.00  0.00     0.198 C 
BRANCH  27  28
HETATM   28  O6  UNL     1     -26.062  12.002  -2.285  1.00  0.00    -0.398 OA
ATOM     29  H6  UNL     1     -26.753  12.619  -2.075  1.00  0.00     0.209 HD
ENDBRANCH  27  28
ENDBRANCH  26  27
BRANCH  26  30
HETATM   30  C14 UNL     1     -24.957  11.051  -5.112  1.00  0.00     0.237 C 
BRANCH  30  31
HETATM   31  N10 UNL     1     -25.494  12.372  -5.252  1.00  0.00    -0.070 N 
ATOM     32 3H10 UNL     1     -26.358  12.458  -4.717  1.00  0.00     0.274 HD
ATOM     33 2H10 UNL     1     -24.910  13.044  -4.755  1.00  0.00     0.274 HD
ATOM     34 1H10 UNL     1     -25.644  12.679  -6.213  1.00  0.00     0.274 HD
ENDBRANCH  30  31
BRANCH  30  35
HETATM   35  C15 UNL     1     -23.489  11.001  -5.444  1.00  0.00     0.199 C 
BRANCH  35  36
HETATM   36  O7  UNL     1     -23.138  12.056  -6.303  1.00  0.00    -0.399 OA
ATOM     37  H7  UNL     1     -23.020  12.862  -5.814  1.00  0.00     0.209 HD
ENDBRANCH  35  36
ENDBRANCH  30  35
ENDBRANCH  26  30
ENDBRANCH  25  26
ENDBRANCH   4  25
BRANCH   1  38
HETATM   38  N3  UNL     1     -29.324   6.560  -5.308  1.00  0.00    -0.220 N 
HETATM   39  C3  UNL     1     -30.619   6.681  -5.629  1.00  0.00     0.336 A 
HETATM   40  N2  UNL     1     -31.526   5.720  -5.348  1.00  0.00    -0.260 N 
HETATM   41  O2  UNL     1     -31.034   7.715  -6.216  1.00  0.00    -0.246 OA
HETATM   42  C2  UNL     1     -31.110   4.606  -4.721  1.00  0.00     0.334 A 
ATOM     43  H2  UNL     1     -32.507   5.838  -5.605  1.00  0.00     0.175 HD
HETATM   44  N1  UNL     1     -29.834   4.459  -4.391  1.00  0.00    -0.255 N 
HETATM   45  O1  UNL     1     -31.955   3.686  -4.446  1.00  0.00    -0.246 OA
HETATM   46  C1  UNL     1     -29.368   3.256  -3.710  1.00  0.00     0.166 C 
HETATM   47  C17 UNL     1     -28.934   5.441  -4.685  1.00  0.00     0.338 A 
HETATM   48  O9  UNL     1     -27.734   5.233  -4.340  1.00  0.00    -0.246 OA
ENDBRANCH   1  38
BRANCH   5  49
HETATM   49  O8  UNL     1     -28.863   9.352  -4.030  1.00  0.00    -0.388 OA
ATOM     50  H8  UNL     1     -28.505  10.212  -3.845  1.00  0.00     0.210 HD
ENDBRANCH   5  49
TORSDOF 13
ENDMDL
