MODEL 1
REMARK VINA RESULT: -8.680098320      0.000      0.000
REMARK  18 active torsions:
REMARK  status: ('A' for Active; 'I' for Inactive)
REMARK    1  A    between atoms: C2_2  and  O1_3 
REMARK    2  A    between atoms: C2_2  and  C3_5 
REMARK    3  A    between atoms: C2_2  and  C6_20 
REMARK    4  A    between atoms: C3_5  and  N1_6 
REMARK    5  A    between atoms: C3_5  and  C4_10 
REMARK    6  A    between atoms: C4_10  and  O2_11 
REMARK    7  A    between atoms: C4_10  and  C5_13 
REMARK       I    between atoms: C5_13  and  N2_15 
REMARK    8  A    between atoms: N2_15  and  N3_17 
REMARK    9  A    between atoms: C6_20  and  O4_21 
REMARK   10  A    between atoms: C6_20  and  C7_23 
REMARK   11  A    between atoms: C7_23  and  O5_24 
REMARK   12  A    between atoms: C7_23  and  C8_26 
REMARK   13  A    between atoms: C8_26  and  O6_27 
REMARK   14  A    between atoms: C8_26  and  C9_29 
REMARK   15  A    between atoms: C10_31  and  O8_32 
REMARK   16  A    between atoms: C11_34  and  O9_35 
REMARK   17  A    between atoms: C12_37  and  N4_38 
REMARK   18  A    between atoms: C15_43  and  N6_44 
ROOT
HETATM    1  C8  UNL     1     -26.872   6.699  -7.318  1.00  0.00     0.204 C 
ENDROOT
BRANCH   1   2
HETATM    2  C7  UNL     1     -26.191   7.952  -7.743  1.00  0.00     0.183 C 
BRANCH   2   3
HETATM    3  C6  UNL     1     -24.701   7.681  -7.796  1.00  0.00     0.185 C 
BRANCH   3   4
HETATM    4  C2  UNL     1     -23.966   8.592  -6.849  1.00  0.00     0.113 C 
HETATM    5  C1  UNL     1     -22.506   8.570  -7.216  1.00  0.00     0.051 C 
BRANCH   4   6
HETATM    6  O1  UNL     1     -24.083   8.141  -5.520  1.00  0.00    -0.385 OA
ATOM      7  H1  UNL     1     -24.859   7.596  -5.465  1.00  0.00     0.210 HD
ENDBRANCH   4   6
BRANCH   4   8
HETATM    8  C3  UNL     1     -24.465   9.994  -6.858  1.00  0.00     0.257 C 
BRANCH   8   9
HETATM    9  N1  UNL     1     -24.473  10.611  -8.164  1.00  0.00    -0.069 N 
ATOM     10  H13 UNL     1     -23.986  10.022  -8.840  1.00  0.00     0.275 HD
ATOM     11  H12 UNL     1     -25.412  10.592  -8.562  1.00  0.00     0.275 HD
ATOM     12  H11 UNL     1     -24.097  11.560  -8.181  1.00  0.00     0.275 HD
ENDBRANCH   8   9
BRANCH   8  13
HETATM   13  C4  UNL     1     -23.872  10.897  -5.816  1.00  0.00     0.245 C 
BRANCH  13  14
HETATM   14  O2  UNL     1     -23.022  11.866  -6.312  1.00  0.00    -0.384 OA
ATOM     15  H2  UNL     1     -23.395  12.403  -7.002  1.00  0.00     0.210 HD
ENDBRANCH  13  14
BRANCH  13  16
HETATM   16  C5  UNL     1     -24.974  11.526  -5.062  1.00  0.00     0.266 C 
HETATM   17  O3  UNL     1     -25.817  12.227  -5.652  1.00  0.00    -0.269 OA
HETATM   18  N2  UNL     1     -25.076  11.335  -3.670  1.00  0.00    -0.274 N 
ATOM     19  H2  UNL     1     -24.382  10.759  -3.192  1.00  0.00     0.189 HD
BRANCH  18  20
HETATM   20  N3  UNL     1     -26.105  11.917  -2.933  1.00  0.00    -0.343 N 
ATOM     21  H32 UNL     1     -26.726  12.575  -3.404  1.00  0.00     0.176 HD
ATOM     22  H31 UNL     1     -26.242  11.695  -1.947  1.00  0.00     0.176 HD
ENDBRANCH  18  20
ENDBRANCH  13  16
ENDBRANCH   8  13
ENDBRANCH   4   8
ENDBRANCH   3   4
BRANCH   3  23
HETATM   23  O4  UNL     1     -24.318   7.810  -9.106  1.00  0.00    -0.390 OA
ATOM     24  H4  UNL     1     -23.757   7.109  -9.417  1.00  0.00     0.210 HD
ENDBRANCH   3  23
ENDBRANCH   2   3
BRANCH   2  25
HETATM   25  O5  UNL     1     -26.675   8.478  -8.928  1.00  0.00    -0.390 OA
ATOM     26  H5  UNL     1     -27.339   9.142  -8.785  1.00  0.00     0.210 HD
ENDBRANCH   2  25
ENDBRANCH   1   2
BRANCH   1  27
HETATM   27  O6  UNL     1     -25.970   5.643  -7.435  1.00  0.00    -0.388 OA
ATOM     28  H6  UNL     1     -26.403   4.924  -7.881  1.00  0.00     0.210 HD
ENDBRANCH   1  27
BRANCH   1  29
HETATM   29  C9  UNL     1     -27.410   6.744  -5.909  1.00  0.00     0.297 C 
HETATM   30  O7  UNL     1     -26.997   7.904  -5.307  1.00  0.00    -0.326 OA
HETATM   31  C10 UNL     1     -27.335   8.000  -3.960  1.00  0.00     0.293 C 
HETATM   32  C11 UNL     1     -28.782   7.482  -3.861  1.00  0.00     0.222 C 
HETATM   33  C12 UNL     1     -29.352   7.652  -5.254  1.00  0.00     0.267 C 
HETATM   34  O10 UNL     1     -28.805   6.622  -6.019  1.00  0.00    -0.331 OA
BRANCH  31  35
HETATM   35  O8  UNL     1     -27.393   9.353  -3.641  1.00  0.00    -0.368 OA
ATOM     36  H8  UNL     1     -28.081   9.463  -2.995  1.00  0.00     0.212 HD
ENDBRANCH  31  35
BRANCH  32  37
HETATM   37  O9  UNL     1     -28.619   6.108  -3.559  1.00  0.00    -0.386 OA
ATOM     38  H9  UNL     1     -29.389   5.904  -3.042  1.00  0.00     0.210 HD
ENDBRANCH  32  37
BRANCH  33  39
HETATM   39  N4  UNL     1     -30.774   7.741  -5.307  1.00  0.00    -0.297 N 
HETATM   40  C13 UNL     1     -31.569   8.150  -4.273  1.00  0.00     0.188 A 
HETATM   41  N5  UNL     1     -32.840   8.124  -4.635  1.00  0.00    -0.346 N 
HETATM   42  C14 UNL     1     -32.931   7.694  -5.927  1.00  0.00     0.122 A 
ATOM     43  H5  UNL     1     -33.628   8.383  -4.042  1.00  0.00     0.167 HD
HETATM   44  C15 UNL     1     -33.995   7.488  -6.777  1.00  0.00     0.131 A 
HETATM   45  C17 UNL     1     -31.622   7.466  -6.309  1.00  0.00     0.142 A 
HETATM   46  N7  UNL     1     -33.725   7.049  -8.015  1.00  0.00    -0.337 N 
HETATM   47  C16 UNL     1     -32.433   6.829  -8.378  1.00  0.00     0.183 A 
ATOM     48  H7  UNL     1     -34.481   6.882  -8.679  1.00  0.00     0.168 HD
HETATM   49  N8  UNL     1     -31.399   7.030  -7.552  1.00  0.00    -0.336 N 
ATOM     50  H8  UNL     1     -30.445   6.851  -7.869  1.00  0.00     0.168 HD
BRANCH  44  51
HETATM   51  N6  UNL     1     -35.194   7.711  -6.386  1.00  0.00    -0.383 N 
ATOM     52  H62 UNL     1     -35.670   8.590  -6.585  1.00  0.00     0.157 HD
ATOM     53  H61 UNL     1     -35.706   7.004  -5.858  1.00  0.00     0.157 HD
ENDBRANCH  44  51
ENDBRANCH  33  39
ENDBRANCH   1  29
TORSDOF 18
ENDMDL
MODEL 2
REMARK VINA RESULT: -8.629672249      2.789      4.552
REMARK  18 active torsions:
REMARK  status: ('A' for Active; 'I' for Inactive)
REMARK    1  A    between atoms: C2_2  and  O1_3 
REMARK    2  A    between atoms: C2_2  and  C3_5 
REMARK    3  A    between atoms: C2_2  and  C6_20 
REMARK    4  A    between atoms: C3_5  and  N1_6 
REMARK    5  A    between atoms: C3_5  and  C4_10 
REMARK    6  A    between atoms: C4_10  and  O2_11 
REMARK    7  A    between atoms: C4_10  and  C5_13 
REMARK       I    between atoms: C5_13  and  N2_15 
REMARK    8  A    between atoms: N2_15  and  N3_17 
REMARK    9  A    between atoms: C6_20  and  O4_21 
REMARK   10  A    between atoms: C6_20  and  C7_23 
REMARK   11  A    between atoms: C7_23  and  O5_24 
REMARK   12  A    between atoms: C7_23  and  C8_26 
REMARK   13  A    between atoms: C8_26  and  O6_27 
REMARK   14  A    between atoms: C8_26  and  C9_29 
REMARK   15  A    between atoms: C10_31  and  O8_32 
REMARK   16  A    between atoms: C11_34  and  O9_35 
REMARK   17  A    between atoms: C12_37  and  N4_38 
REMARK   18  A    between atoms: C15_43  and  N6_44 
ROOT
HETATM    1  C8  UNL     1     -26.182   9.583  -3.864  1.00  0.00     0.204 C 
ENDROOT
BRANCH   1   2
HETATM    2  C7  UNL     1     -26.091   8.432  -4.802  1.00  0.00     0.183 C 
BRANCH   2   3
HETATM    3  C6  UNL     1     -24.882   8.644  -5.690  1.00  0.00     0.185 C 
BRANCH   3   4
HETATM    4  C2  UNL     1     -25.039   7.890  -6.983  1.00  0.00     0.113 C 
HETATM    5  C1  UNL     1     -25.923   8.701  -7.893  1.00  0.00     0.051 C 
BRANCH   4   6
HETATM    6  O1  UNL     1     -25.663   6.646  -6.771  1.00  0.00    -0.385 OA
ATOM      7  H1  UNL     1     -24.988   6.016  -6.546  1.00  0.00     0.210 HD
ENDBRANCH   4   6
BRANCH   4   8
HETATM    8  C3  UNL     1     -23.749   7.597  -7.665  1.00  0.00     0.257 C 
BRANCH   8   9
HETATM    9  N1  UNL     1     -23.649   8.140  -9.000  1.00  0.00    -0.069 N 
ATOM     10  H13 UNL     1     -23.886   7.429  -9.693  1.00  0.00     0.275 HD
ATOM     11  H12 UNL     1     -24.401   8.807  -9.172  1.00  0.00     0.275 HD
ATOM     12  H11 UNL     1     -22.744   8.560  -9.214  1.00  0.00     0.275 HD
ENDBRANCH   8   9
BRANCH   8  13
HETATM   13  C4  UNL     1     -23.299   6.166  -7.608  1.00  0.00     0.245 C 
BRANCH  13  14
HETATM   14  O2  UNL     1     -23.352   5.498  -8.817  1.00  0.00    -0.384 OA
ATOM     15  H2  UNL     1     -22.902   4.662  -8.826  1.00  0.00     0.210 HD
ENDBRANCH  13  14
BRANCH  13  16
HETATM   16  C5  UNL     1     -21.926   6.130  -7.068  1.00  0.00     0.266 C 
HETATM   17  O3  UNL     1     -21.559   6.976  -6.231  1.00  0.00    -0.269 OA
HETATM   18  N2  UNL     1     -21.024   5.137  -7.498  1.00  0.00    -0.274 N 
ATOM     19  H2  UNL     1     -21.330   4.447  -8.184  1.00  0.00     0.189 HD
BRANCH  18  20
HETATM   20  N3  UNL     1     -19.722   5.080  -7.006  1.00  0.00    -0.343 N 
ATOM     21  H32 UNL     1     -19.129   5.904  -7.109  1.00  0.00     0.176 HD
ATOM     22  H31 UNL     1     -19.363   4.240  -6.553  1.00  0.00     0.176 HD
ENDBRANCH  18  20
ENDBRANCH  13  16
ENDBRANCH   8  13
ENDBRANCH   4   8
ENDBRANCH   3   4
BRANCH   3  23
HETATM   23  O4  UNL     1     -23.780   8.279  -4.959  1.00  0.00    -0.390 OA
ATOM     24  H4  UNL     1     -23.870   7.446  -4.513  1.00  0.00     0.210 HD
ENDBRANCH   3  23
ENDBRANCH   2   3
BRANCH   2  25
HETATM   25  O5  UNL     1     -26.075   7.198  -4.174  1.00  0.00    -0.390 OA
ATOM     26  H5  UNL     1     -25.236   7.007  -3.773  1.00  0.00     0.210 HD
ENDBRANCH   2  25
ENDBRANCH   1   2
BRANCH   1  27
HETATM   27  O6  UNL     1     -25.711  10.723  -4.515  1.00  0.00    -0.388 OA
ATOM     28  H6  UNL     1     -25.414  11.343  -3.860  1.00  0.00     0.210 HD
ENDBRANCH   1  27
BRANCH   1  29
HETATM   29  C9  UNL     1     -27.576   9.842  -3.348  1.00  0.00     0.297 C 
HETATM   30  O7  UNL     1     -28.093  10.944  -3.978  1.00  0.00    -0.326 OA
HETATM   31  C10 UNL     1     -29.333  11.349  -3.495  1.00  0.00     0.293 C 
HETATM   32  C11 UNL     1     -30.140  10.052  -3.294  1.00  0.00     0.222 C 
HETATM   33  C12 UNL     1     -29.484   9.039  -4.209  1.00  0.00     0.267 C 
HETATM   34  O10 UNL     1     -28.302   8.661  -3.575  1.00  0.00    -0.331 OA
BRANCH  31  35
HETATM   35  O8  UNL     1     -29.974  12.039  -4.520  1.00  0.00    -0.368 OA
ATOM     36  H8  UNL     1     -30.285  12.860  -4.157  1.00  0.00     0.212 HD
ENDBRANCH  31  35
BRANCH  32  37
HETATM   37  O9  UNL     1     -29.897   9.722  -1.939  1.00  0.00    -0.386 OA
ATOM     38  H9  UNL     1     -30.011  10.550  -1.486  1.00  0.00     0.210 HD
ENDBRANCH  32  37
BRANCH  33  39
HETATM   39  N4  UNL     1     -30.325   7.955  -4.597  1.00  0.00    -0.297 N 
HETATM   40  C13 UNL     1     -31.578   8.092  -5.128  1.00  0.00     0.188 A 
HETATM   41  N5  UNL     1     -32.099   6.904  -5.381  1.00  0.00    -0.346 N 
HETATM   42  C14 UNL     1     -31.205   5.936  -5.025  1.00  0.00     0.122 A 
ATOM     43  H5  UNL     1     -33.023   6.737  -5.779  1.00  0.00     0.167 HD
HETATM   44  C15 UNL     1     -31.239   4.560  -5.076  1.00  0.00     0.131 A 
HETATM   45  C17 UNL     1     -30.114   6.632  -4.541  1.00  0.00     0.142 A 
HETATM   46  N7  UNL     1     -30.162   3.895  -4.634  1.00  0.00    -0.337 N 
HETATM   47  C16 UNL     1     -29.095   4.593  -4.160  1.00  0.00     0.183 A 
ATOM     48  H7  UNL     1     -30.142   2.875  -4.653  1.00  0.00     0.168 HD
HETATM   49  N8  UNL     1     -29.062   5.931  -4.111  1.00  0.00    -0.336 N 
ATOM     50  H8  UNL     1     -28.238   6.411  -3.747  1.00  0.00     0.168 HD
BRANCH  44  51
HETATM   51  N6  UNL     1     -32.269   3.950  -5.531  1.00  0.00    -0.383 N 
ATOM     52  H62 UNL     1     -32.191   3.194  -6.211  1.00  0.00     0.157 HD
ATOM     53  H61 UNL     1     -33.205   4.211  -5.220  1.00  0.00     0.157 HD
ENDBRANCH  44  51
ENDBRANCH  33  39
ENDBRANCH   1  29
TORSDOF 18
ENDMDL
MODEL 3
REMARK VINA RESULT: -8.539177271      1.712      2.577
REMARK  18 active torsions:
REMARK  status: ('A' for Active; 'I' for Inactive)
REMARK    1  A    between atoms: C2_2  and  O1_3 
REMARK    2  A    between atoms: C2_2  and  C3_5 
REMARK    3  A    between atoms: C2_2  and  C6_20 
REMARK    4  A    between atoms: C3_5  and  N1_6 
REMARK    5  A    between atoms: C3_5  and  C4_10 
REMARK    6  A    between atoms: C4_10  and  O2_11 
REMARK    7  A    between atoms: C4_10  and  C5_13 
REMARK       I    between atoms: C5_13  and  N2_15 
REMARK    8  A    between atoms: N2_15  and  N3_17 
REMARK    9  A    between atoms: C6_20  and  O4_21 
REMARK   10  A    between atoms: C6_20  and  C7_23 
REMARK   11  A    between atoms: C7_23  and  O5_24 
REMARK   12  A    between atoms: C7_23  and  C8_26 
REMARK   13  A    between atoms: C8_26  and  O6_27 
REMARK   14  A    between atoms: C8_26  and  C9_29 
REMARK   15  A    between atoms: C10_31  and  O8_32 
REMARK   16  A    between atoms: C11_34  and  O9_35 
REMARK   17  A    between atoms: C12_37  and  N4_38 
REMARK   18  A    between atoms: C15_43  and  N6_44 
ROOT
HETATM    1  C8  UNL     1     -27.048   7.384  -4.624  1.00  0.00     0.204 C 
ENDROOT
BRANCH   1   2
HETATM    2  C7  UNL     1     -26.341   8.091  -5.726  1.00  0.00     0.183 C 
BRANCH   2   3
HETATM    3  C6  UNL     1     -24.856   8.056  -5.429  1.00  0.00     0.185 C 
BRANCH   3   4
HETATM    4  C2  UNL     1     -24.253   9.425  -5.597  1.00  0.00     0.113 C 
HETATM    5  C1  UNL     1     -23.199   9.344  -6.671  1.00  0.00     0.051 C 
BRANCH   4   6
HETATM    6  O1  UNL     1     -23.627   9.852  -4.410  1.00  0.00    -0.385 OA
ATOM      7  H1  UNL     1     -23.153   9.112  -4.048  1.00  0.00     0.210 HD
ENDBRANCH   4   6
BRANCH   4   8
HETATM    8  C3  UNL     1     -25.245  10.478  -5.946  1.00  0.00     0.257 C 
BRANCH   8   9
HETATM    9  N1  UNL     1     -25.179  10.923  -7.318  1.00  0.00    -0.069 N 
ATOM     10  H13 UNL     1     -24.221  11.173  -7.566  1.00  0.00     0.275 HD
ATOM     11  H12 UNL     1     -25.324  10.140  -7.955  1.00  0.00     0.275 HD
ATOM     12  H11 UNL     1     -25.817  11.688  -7.541  1.00  0.00     0.275 HD
ENDBRANCH   8   9
BRANCH   8  13
HETATM   13  C4  UNL     1     -25.328  11.630  -4.986  1.00  0.00     0.245 C 
BRANCH  13  14
HETATM   14  O2  UNL     1     -25.557  12.856  -5.580  1.00  0.00    -0.384 OA
ATOM     15  H2  UNL     1     -25.125  13.588  -5.155  1.00  0.00     0.210 HD
ENDBRANCH  13  14
BRANCH  13  16
HETATM   16  C5  UNL     1     -26.385  11.339  -3.998  1.00  0.00     0.266 C 
HETATM   17  O3  UNL     1     -26.086  11.107  -2.811  1.00  0.00    -0.269 OA
HETATM   18  N2  UNL     1     -27.736  11.323  -4.394  1.00  0.00    -0.274 N 
ATOM     19  H2  UNL     1     -27.974  11.514  -5.368  1.00  0.00     0.189 HD
BRANCH  18  20
HETATM   20  N3  UNL     1     -28.754  11.051  -3.483  1.00  0.00    -0.343 N 
ATOM     21  H32 UNL     1     -29.552  10.498  -3.798  1.00  0.00     0.176 HD
ATOM     22  H31 UNL     1     -28.711  11.392  -2.522  1.00  0.00     0.176 HD
ENDBRANCH  18  20
ENDBRANCH  13  16
ENDBRANCH   8  13
ENDBRANCH   4   8
ENDBRANCH   3   4
BRANCH   3  23
HETATM   23  O4  UNL     1     -24.307   7.099  -6.244  1.00  0.00    -0.390 OA
ATOM     24  H4  UNL     1     -24.918   6.424  -6.514  1.00  0.00     0.210 HD
ENDBRANCH   3  23
ENDBRANCH   2   3
BRANCH   2  25
HETATM   25  O5  UNL     1     -26.639   7.603  -6.987  1.00  0.00    -0.390 OA
ATOM     26  H5  UNL     1     -26.957   8.281  -7.571  1.00  0.00     0.210 HD
ENDBRANCH   2  25
ENDBRANCH   1   2
BRANCH   1  27
HETATM   27  O6  UNL     1     -27.438   8.325  -3.673  1.00  0.00    -0.388 OA
ATOM     28  H6  UNL     1     -27.026   8.106  -2.845  1.00  0.00     0.210 HD
ENDBRANCH   1  27
BRANCH   1  29
HETATM   29  C9  UNL     1     -28.255   6.601  -5.077  1.00  0.00     0.297 C 
HETATM   30  O7  UNL     1     -28.501   5.593  -4.181  1.00  0.00    -0.326 OA
HETATM   31  C10 UNL     1     -29.523   4.729  -4.559  1.00  0.00     0.293 C 
HETATM   32  C11 UNL     1     -30.638   5.631  -5.121  1.00  0.00     0.222 C 
HETATM   33  C12 UNL     1     -30.387   6.991  -4.503  1.00  0.00     0.267 C 
HETATM   34  O10 UNL     1     -29.303   7.529  -5.194  1.00  0.00    -0.331 OA
BRANCH  31  35
HETATM   35  O8  UNL     1     -30.041   4.163  -3.398  1.00  0.00    -0.368 OA
ATOM     36  H8  UNL     1     -30.730   4.737  -3.086  1.00  0.00     0.212 HD
ENDBRANCH  31  35
BRANCH  32  37
HETATM   37  O9  UNL     1     -30.366   5.663  -6.510  1.00  0.00    -0.386 OA
ATOM     38  H9  UNL     1     -30.905   6.379  -6.823  1.00  0.00     0.210 HD
ENDBRANCH  32  37
BRANCH  33  39
HETATM   39  N4  UNL     1     -31.533   7.836  -4.441  1.00  0.00    -0.297 N 
HETATM   40  C13 UNL     1     -31.633   8.959  -3.667  1.00  0.00     0.188 A 
HETATM   41  N5  UNL     1     -32.817   9.523  -3.831  1.00  0.00    -0.346 N 
HETATM   42  C14 UNL     1     -33.545   8.790  -4.723  1.00  0.00     0.122 A 
ATOM     43  H5  UNL     1     -33.137  10.372  -3.364  1.00  0.00     0.167 HD
HETATM   44  C15 UNL     1     -34.814   8.929  -5.240  1.00  0.00     0.131 A 
HETATM   45  C17 UNL     1     -32.709   7.749  -5.079  1.00  0.00     0.142 A 
HETATM   46  N7  UNL     1     -35.230   8.006  -6.120  1.00  0.00    -0.337 N 
HETATM   47  C16 UNL     1     -34.398   6.986  -6.462  1.00  0.00     0.183 A 
ATOM     48  H7  UNL     1     -36.162   8.069  -6.529  1.00  0.00     0.168 HD
HETATM   49  N8  UNL     1     -33.164   6.852  -5.958  1.00  0.00    -0.336 N 
ATOM     50  H8  UNL     1     -32.575   6.070  -6.245  1.00  0.00     0.168 HD
BRANCH  44  51
HETATM   51  N6  UNL     1     -35.559   9.908  -4.885  1.00  0.00    -0.383 N 
ATOM     52  H62 UNL     1     -35.398  10.857  -5.223  1.00  0.00     0.157 HD
ATOM     53  H61 UNL     1     -36.340   9.760  -4.247  1.00  0.00     0.157 HD
ENDBRANCH  44  51
ENDBRANCH  33  39
ENDBRANCH   1  29
TORSDOF 18
ENDMDL
MODEL 4
REMARK VINA RESULT: -8.534249185      1.870      2.197
REMARK  18 active torsions:
REMARK  status: ('A' for Active; 'I' for Inactive)
REMARK    1  A    between atoms: C2_2  and  O1_3 
REMARK    2  A    between atoms: C2_2  and  C3_5 
REMARK    3  A    between atoms: C2_2  and  C6_20 
REMARK    4  A    between atoms: C3_5  and  N1_6 
REMARK    5  A    between atoms: C3_5  and  C4_10 
REMARK    6  A    between atoms: C4_10  and  O2_11 
REMARK    7  A    between atoms: C4_10  and  C5_13 
REMARK       I    between atoms: C5_13  and  N2_15 
REMARK    8  A    between atoms: N2_15  and  N3_17 
REMARK    9  A    between atoms: C6_20  and  O4_21 
REMARK   10  A    between atoms: C6_20  and  C7_23 
REMARK   11  A    between atoms: C7_23  and  O5_24 
REMARK   12  A    between atoms: C7_23  and  C8_26 
REMARK   13  A    between atoms: C8_26  and  O6_27 
REMARK   14  A    between atoms: C8_26  and  C9_29 
REMARK   15  A    between atoms: C10_31  and  O8_32 
REMARK   16  A    between atoms: C11_34  and  O9_35 
REMARK   17  A    between atoms: C12_37  and  N4_38 
REMARK   18  A    between atoms: C15_43  and  N6_44 
ROOT
HETATM    1  C8  UNL     1     -25.444   7.322  -8.020  1.00  0.00     0.204 C 
ENDROOT
BRANCH   1   2
HETATM    2  C7  UNL     1     -25.440   8.691  -8.603  1.00  0.00     0.183 C 
BRANCH   2   3
HETATM    3  C6  UNL     1     -24.124   8.890  -9.326  1.00  0.00     0.185 C 
BRANCH   3   4
HETATM    4  C2  UNL     1     -23.260   9.876  -8.585  1.00  0.00     0.113 C 
HETATM    5  C1  UNL     1     -22.216  10.394  -9.539  1.00  0.00     0.051 C 
BRANCH   4   6
HETATM    6  O1  UNL     1     -22.593   9.257  -7.510  1.00  0.00    -0.385 OA
ATOM      7  H1  UNL     1     -23.183   9.253  -6.765  1.00  0.00     0.210 HD
ENDBRANCH   4   6
BRANCH   4   8
HETATM    8  C3  UNL     1     -24.018  11.016  -8.002  1.00  0.00     0.257 C 
BRANCH   8   9
HETATM    9  N1  UNL     1     -24.300  12.080  -8.938  1.00  0.00    -0.069 N 
ATOM     10  H13 UNL     1     -23.673  12.869  -8.780  1.00  0.00     0.275 HD
ATOM     11  H12 UNL     1     -24.011  11.814  -9.878  1.00  0.00     0.275 HD
ATOM     12  H11 UNL     1     -25.272  12.391  -8.937  1.00  0.00     0.275 HD
ENDBRANCH   8   9
BRANCH   8  13
HETATM   13  C4  UNL     1     -23.491  11.543  -6.698  1.00  0.00     0.245 C 
BRANCH  13  14
HETATM   14  O2  UNL     1     -22.822  12.748  -6.794  1.00  0.00    -0.384 OA
ATOM     15  H2  UNL     1     -22.255  12.824  -7.552  1.00  0.00     0.210 HD
ENDBRANCH  13  14
BRANCH  13  16
HETATM   16  C5  UNL     1     -24.619  11.662  -5.753  1.00  0.00     0.266 C 
HETATM   17  O3  UNL     1     -25.772  11.872  -6.176  1.00  0.00    -0.269 OA
HETATM   18  N2  UNL     1     -24.396  11.538  -4.368  1.00  0.00    -0.274 N 
ATOM     19  H2  UNL     1     -23.449  11.366  -4.028  1.00  0.00     0.189 HD
BRANCH  18  20
HETATM   20  N3  UNL     1     -25.441  11.647  -3.454  1.00  0.00    -0.343 N 
ATOM     21  H32 UNL     1     -26.115  10.884  -3.396  1.00  0.00     0.176 HD
ATOM     22  H31 UNL     1     -25.537  12.466  -2.853  1.00  0.00     0.176 HD
ENDBRANCH  18  20
ENDBRANCH  13  16
ENDBRANCH   8  13
ENDBRANCH   4   8
ENDBRANCH   3   4
BRANCH   3  23
HETATM   23  O4  UNL     1     -24.425   9.265 -10.610  1.00  0.00    -0.390 OA
ATOM     24  H4  UNL     1     -24.240   8.600 -11.261  1.00  0.00     0.210 HD
ENDBRANCH   3  23
ENDBRANCH   2   3
BRANCH   2  25
HETATM   25  O5  UNL     1     -26.532   8.959  -9.411  1.00  0.00    -0.390 OA
ATOM     26  H5  UNL     1     -26.626   9.886  -9.597  1.00  0.00     0.210 HD
ENDBRANCH   2  25
ENDBRANCH   1   2
BRANCH   1  27
HETATM   27  O6  UNL     1     -24.167   6.779  -8.159  1.00  0.00    -0.388 OA
ATOM     28  H6  UNL     1     -24.252   5.877  -8.445  1.00  0.00     0.210 HD
ENDBRANCH   1  27
BRANCH   1  29
HETATM   29  C9  UNL     1     -25.853   7.277  -6.569  1.00  0.00     0.297 C 
HETATM   30  O7  UNL     1     -26.293   8.517  -6.187  1.00  0.00    -0.326 OA
HETATM   31  C10 UNL     1     -26.586   8.626  -4.831  1.00  0.00     0.293 C 
HETATM   32  C11 UNL     1     -27.334   7.330  -4.466  1.00  0.00     0.222 C 
HETATM   33  C12 UNL     1     -27.901   6.825  -5.777  1.00  0.00     0.267 C 
HETATM   34  O10 UNL     1     -26.826   6.269  -6.468  1.00  0.00    -0.331 OA
BRANCH  31  35
HETATM   35  O8  UNL     1     -27.514   9.653  -4.686  1.00  0.00    -0.368 OA
ATOM     36  H8  UNL     1     -27.327  10.300  -5.356  1.00  0.00     0.212 HD
ENDBRANCH  31  35
BRANCH  32  37
HETATM   37  O9  UNL     1     -26.303   6.473  -4.012  1.00  0.00    -0.386 OA
ATOM     38  H9  UNL     1     -26.714   5.616  -4.009  1.00  0.00     0.210 HD
ENDBRANCH  32  37
BRANCH  33  39
HETATM   39  N4  UNL     1     -29.032   5.967  -5.644  1.00  0.00    -0.297 N 
HETATM   40  C13 UNL     1     -29.079   4.857  -4.848  1.00  0.00     0.188 A 
HETATM   41  N5  UNL     1     -30.263   4.277  -4.943  1.00  0.00    -0.346 N 
HETATM   42  C14 UNL     1     -31.044   4.986  -5.808  1.00  0.00     0.122 A 
ATOM     43  H5  UNL     1     -30.548   3.432  -4.447  1.00  0.00     0.167 HD
HETATM   44  C15 UNL     1     -32.335   4.825  -6.259  1.00  0.00     0.131 A 
HETATM   45  C17 UNL     1     -30.240   6.031  -6.223  1.00  0.00     0.142 A 
HETATM   46  N7  UNL     1     -32.807   5.728  -7.130  1.00  0.00    -0.337 N 
HETATM   47  C16 UNL     1     -32.005   6.751  -7.530  1.00  0.00     0.183 A 
ATOM     48  H7  UNL     1     -33.758   5.649  -7.490  1.00  0.00     0.168 HD
HETATM   49  N8  UNL     1     -30.749   6.908  -7.092  1.00  0.00    -0.336 N 
ATOM     50  H8  UNL     1     -30.185   7.693  -7.421  1.00  0.00     0.168 HD
BRANCH  44  51
HETATM   51  N6  UNL     1     -33.049   3.843  -5.851  1.00  0.00    -0.383 N 
ATOM     52  H62 UNL     1     -32.658   2.910  -5.721  1.00  0.00     0.157 HD
ATOM     53  H61 UNL     1     -34.039   3.973  -5.643  1.00  0.00     0.157 HD
ENDBRANCH  44  51
ENDBRANCH  33  39
ENDBRANCH   1  29
TORSDOF 18
ENDMDL
MODEL 5
REMARK VINA RESULT: -8.496828463      3.168      7.557
REMARK  18 active torsions:
REMARK  status: ('A' for Active; 'I' for Inactive)
REMARK    1  A    between atoms: C2_2  and  O1_3 
REMARK    2  A    between atoms: C2_2  and  C3_5 
REMARK    3  A    between atoms: C2_2  and  C6_20 
REMARK    4  A    between atoms: C3_5  and  N1_6 
REMARK    5  A    between atoms: C3_5  and  C4_10 
REMARK    6  A    between atoms: C4_10  and  O2_11 
REMARK    7  A    between atoms: C4_10  and  C5_13 
REMARK       I    between atoms: C5_13  and  N2_15 
REMARK    8  A    between atoms: N2_15  and  N3_17 
REMARK    9  A    between atoms: C6_20  and  O4_21 
REMARK   10  A    between atoms: C6_20  and  C7_23 
REMARK   11  A    between atoms: C7_23  and  O5_24 
REMARK   12  A    between atoms: C7_23  and  C8_26 
REMARK   13  A    between atoms: C8_26  and  O6_27 
REMARK   14  A    between atoms: C8_26  and  C9_29 
REMARK   15  A    between atoms: C10_31  and  O8_32 
REMARK   16  A    between atoms: C11_34  and  O9_35 
REMARK   17  A    between atoms: C12_37  and  N4_38 
REMARK   18  A    between atoms: C15_43  and  N6_44 
ROOT
HETATM    1  C8  UNL     1     -31.453   6.344  -6.450  1.00  0.00     0.204 C 
ENDROOT
BRANCH   1   2
HETATM    2  C7  UNL     1     -32.861   6.538  -6.009  1.00  0.00     0.183 C 
BRANCH   2   3
HETATM    3  C6  UNL     1     -33.503   7.561  -6.925  1.00  0.00     0.185 C 
BRANCH   3   4
HETATM    4  C2  UNL     1     -34.393   8.486  -6.139  1.00  0.00     0.113 C 
HETATM    5  C1  UNL     1     -35.660   7.744  -5.802  1.00  0.00     0.051 C 
BRANCH   4   6
HETATM    6  O1  UNL     1     -34.746   9.617  -6.900  1.00  0.00    -0.385 OA
ATOM      7  H1  UNL     1     -35.681   9.754  -6.802  1.00  0.00     0.210 HD
ENDBRANCH   4   6
BRANCH   4   8
HETATM    8  C3  UNL     1     -33.768   9.003  -4.892  1.00  0.00     0.257 C 
BRANCH   8   9
HETATM    9  N1  UNL     1     -34.655   9.789  -4.067  1.00  0.00    -0.069 N 
ATOM     10  H13 UNL     1     -35.624   9.507  -4.215  1.00  0.00     0.275 HD
ATOM     11  H12 UNL     1     -34.549   9.535  -3.085  1.00  0.00     0.275 HD
ATOM     12  H11 UNL     1     -34.554  10.798  -4.187  1.00  0.00     0.275 HD
ENDBRANCH   8   9
BRANCH   8  13
HETATM   13  C4  UNL     1     -32.431   9.666  -5.066  1.00  0.00     0.245 C 
BRANCH  13  14
HETATM   14  O2  UNL     1     -32.474  10.878  -5.726  1.00  0.00    -0.384 OA
ATOM     15  H2  UNL     1     -31.960  10.911  -6.525  1.00  0.00     0.210 HD
ENDBRANCH  13  14
BRANCH  13  16
HETATM   16  C5  UNL     1     -31.817   9.833  -3.734  1.00  0.00     0.266 C 
HETATM   17  O3  UNL     1     -32.456  10.374  -2.813  1.00  0.00    -0.269 OA
HETATM   18  N2  UNL     1     -30.503   9.382  -3.502  1.00  0.00    -0.274 N 
ATOM     19  H2  UNL     1     -29.984   8.939  -4.261  1.00  0.00     0.189 HD
BRANCH  18  20
HETATM   20  N3  UNL     1     -29.898   9.528  -2.256  1.00  0.00    -0.343 N 
ATOM     21  H32 UNL     1     -30.221  10.279  -1.645  1.00  0.00     0.176 HD
ATOM     22  H31 UNL     1     -29.150   8.903  -1.953  1.00  0.00     0.176 HD
ENDBRANCH  18  20
ENDBRANCH  13  16
ENDBRANCH   8  13
ENDBRANCH   4   8
ENDBRANCH   3   4
BRANCH   3  23
HETATM   23  O4  UNL     1     -34.152   6.864  -7.911  1.00  0.00    -0.390 OA
ATOM     24  H4  UNL     1     -35.098   6.874  -7.835  1.00  0.00     0.210 HD
ENDBRANCH   3  23
ENDBRANCH   2   3
BRANCH   2  25
HETATM   25  O5  UNL     1     -33.591   5.365  -5.934  1.00  0.00    -0.390 OA
ATOM     26  H5  UNL     1     -33.340   4.828  -5.191  1.00  0.00     0.210 HD
ENDBRANCH   2  25
ENDBRANCH   1   2
BRANCH   1  27
HETATM   27  O6  UNL     1     -31.102   7.402  -7.287  1.00  0.00    -0.388 OA
ATOM     28  H6  UNL     1     -30.667   8.067  -6.766  1.00  0.00     0.210 HD
ENDBRANCH   1  27
BRANCH   1  29
HETATM   29  C9  UNL     1     -30.465   6.254  -5.314  1.00  0.00     0.297 C 
HETATM   30  O7  UNL     1     -29.986   4.973  -5.234  1.00  0.00    -0.326 OA
HETATM   31  C10 UNL     1     -29.153   4.742  -4.144  1.00  0.00     0.293 C 
HETATM   32  C11 UNL     1     -28.238   5.978  -4.055  1.00  0.00     0.222 C 
HETATM   33  C12 UNL     1     -28.250   6.572  -5.449  1.00  0.00     0.267 C 
HETATM   34  O10 UNL     1     -29.478   7.219  -5.577  1.00  0.00    -0.331 OA
BRANCH  31  35
HETATM   35  O8  UNL     1     -28.320   3.677  -4.474  1.00  0.00    -0.368 OA
ATOM     36  H8  UNL     1     -27.427   3.999  -4.456  1.00  0.00     0.212 HD
ENDBRANCH  31  35
BRANCH  32  37
HETATM   37  O9  UNL     1     -28.921   6.827  -3.151  1.00  0.00    -0.386 OA
ATOM     38  H9  UNL     1     -29.827   6.556  -3.236  1.00  0.00     0.210 HD
ENDBRANCH  32  37
BRANCH  33  39
HETATM   39  N4  UNL     1     -27.116   7.378  -5.761  1.00  0.00    -0.297 N 
HETATM   40  C13 UNL     1     -26.273   7.164  -6.816  1.00  0.00     0.188 A 
HETATM   41  N5  UNL     1     -25.323   8.082  -6.834  1.00  0.00    -0.346 N 
HETATM   42  C14 UNL     1     -25.504   8.939  -5.789  1.00  0.00     0.122 A 
ATOM     43  H5  UNL     1     -24.571   8.140  -7.522  1.00  0.00     0.167 HD
HETATM   44  C15 UNL     1     -24.816  10.050  -5.352  1.00  0.00     0.131 A 
HETATM   45  C17 UNL     1     -26.632   8.467  -5.145  1.00  0.00     0.142 A 
HETATM   46  N7  UNL     1     -25.278  10.678  -4.261  1.00  0.00    -0.337 N 
HETATM   47  C16 UNL     1     -26.388  10.202  -3.637  1.00  0.00     0.183 A 
ATOM     48  H7  UNL     1     -24.800  11.504  -3.902  1.00  0.00     0.168 HD
HETATM   49  N8  UNL     1     -27.057   9.122  -4.061  1.00  0.00    -0.336 N 
ATOM     50  H8  UNL     1     -27.886   8.802  -3.560  1.00  0.00     0.168 HD
BRANCH  44  51
HETATM   51  N6  UNL     1     -23.775  10.457  -5.976  1.00  0.00    -0.383 N 
ATOM     52  H62 UNL     1     -23.089  11.070  -5.536  1.00  0.00     0.157 HD
ATOM     53  H61 UNL     1     -23.605  10.174  -6.942  1.00  0.00     0.157 HD
ENDBRANCH  44  51
ENDBRANCH  33  39
ENDBRANCH   1  29
TORSDOF 18
ENDMDL
