MODEL 1
REMARK VINA RESULT: -8.624808390      0.000      0.000
REMARK  17 active torsions:
REMARK  status: ('A' for Active; 'I' for Inactive)
REMARK    1  A    between atoms: N1_2  and  C2_3 
REMARK    2  A    between atoms: N1_2  and  S1_18 
REMARK    3  A    between atoms: C2_3  and  O1_4 
REMARK    4  A    between atoms: C2_3  and  C3_6 
REMARK    5  A    between atoms: C3_6  and  N2_7 
REMARK    6  A    between atoms: C3_6  and  C4_11 
REMARK    7  A    between atoms: C4_11  and  O2_12 
REMARK    8  A    between atoms: C4_11  and  N3_14 
REMARK    9  A    between atoms: N3_14  and  N4_15 
REMARK   10  A    between atoms: S1_18  and  O5_21 
REMARK   11  A    between atoms: O5_21  and  C5_22 
REMARK   12  A    between atoms: C6_24  and  N5_25 
REMARK   13  A    between atoms: C9_30  and  N7_31 
REMARK   14  A    between atoms: C10_36  and  N9_37 
REMARK   15  A    between atoms: C12_43  and  O7_44 
REMARK   16  A    between atoms: C13_46  and  O8_47 
REMARK   17  A    between atoms: C14_49  and  N11_50 
ROOT
HETATM    1  C5  UNL     1     -24.730   9.901  -6.519  1.00  0.00     0.316 C 
HETATM    2  O6  UNL     1     -24.704   9.222  -5.365  1.00  0.00    -0.330 OA
HETATM    3  C6  UNL     1     -25.320   9.663  -4.257  1.00  0.00     0.265 C 
HETATM    4  C12 UNL     1     -25.184  11.154  -4.102  1.00  0.00     0.198 C 
HETATM    5  C13 UNL     1     -25.876  11.765  -5.274  1.00  0.00     0.186 C 
HETATM    6  C14 UNL     1     -25.172  11.311  -6.522  1.00  0.00     0.270 C 
ENDROOT
BRANCH   1   7
HETATM    7  O5  UNL     1     -23.428   9.860  -7.078  1.00  0.00    -0.224 OA
BRANCH   7   8
HETATM    8  S1  UNL     1     -23.402   9.291  -8.631  1.00  0.00     0.364 S 
HETATM    9  O3  UNL     1     -24.293  10.204  -9.461  1.00  0.00    -0.175 OA
HETATM   10  O4  UNL     1     -22.020   9.355  -9.247  1.00  0.00    -0.175 OA
BRANCH   8  11
HETATM   11  N1  UNL     1     -23.989   7.726  -8.730  1.00  0.00    -0.263 N 
HETATM   12  C1  UNL     1     -24.646   7.332  -9.898  1.00  0.00     0.168 C 
BRANCH  11  13
HETATM   13  C2  UNL     1     -23.520   6.767  -7.834  1.00  0.00     0.266 C 
BRANCH  13  14
HETATM   14  O1  UNL     1     -24.345   6.512  -6.736  1.00  0.00    -0.374 OA
ATOM     15  H1  UNL     1     -24.293   7.144  -6.029  1.00  0.00     0.212 HD
ENDBRANCH  13  14
BRANCH  13  16
HETATM   16  C3  UNL     1     -22.095   7.054  -7.394  1.00  0.00     0.278 C 
BRANCH  16  17
HETATM   17  N2  UNL     1     -22.089   7.289  -5.986  1.00  0.00    -0.067 N 
ATOM     18  H23 UNL     1     -22.586   6.565  -5.468  1.00  0.00     0.275 HD
ATOM     19  H22 UNL     1     -21.167   7.151  -5.572  1.00  0.00     0.275 HD
ATOM     20  H21 UNL     1     -22.461   8.221  -5.808  1.00  0.00     0.275 HD
ENDBRANCH  16  17
BRANCH  16  21
HETATM   21  C4  UNL     1     -21.135   5.988  -7.791  1.00  0.00     0.265 C 
BRANCH  21  22
HETATM   22  O2  UNL     1     -21.593   4.775  -7.215  1.00  0.00    -0.376 OA
ATOM     23  H2  UNL     1     -20.865   4.400  -6.733  1.00  0.00     0.211 HD
ENDBRANCH  21  22
BRANCH  21  24
HETATM   24  N3  UNL     1     -21.142   5.861  -9.234  1.00  0.00    -0.114 NA
BRANCH  24  25
HETATM   25  N4  UNL     1     -20.347   6.789  -9.848  1.00  0.00    -0.346 N 
ATOM     26  H42 UNL     1     -19.571   7.253  -9.376  1.00  0.00     0.172 HD
ATOM     27  H41 UNL     1     -20.619   6.959 -10.816  1.00  0.00     0.172 HD
ENDBRANCH  24  25
ENDBRANCH  21  24
ENDBRANCH  16  21
ENDBRANCH  13  16
ENDBRANCH  11  13
ENDBRANCH   8  11
ENDBRANCH   7   8
ENDBRANCH   1   7
BRANCH   6  28
HETATM   28  N11 UNL     1     -24.033  12.218  -6.702  1.00  0.00    -0.068 N 
ATOM     29 3H11 UNL     1     -24.196  13.118  -6.252  1.00  0.00     0.275 HD
ATOM     30 2H11 UNL     1     -23.223  11.917  -6.161  1.00  0.00     0.275 HD
ATOM     31 1H11 UNL     1     -23.806  12.329  -7.690  1.00  0.00     0.275 HD
ENDBRANCH   6  28
BRANCH   3  32
HETATM   32  N5  UNL     1     -26.700   9.251  -4.098  1.00  0.00    -0.297 N 
HETATM   33  C7  UNL     1     -27.625   9.665  -3.235  1.00  0.00     0.188 A 
HETATM   34  N6  UNL     1     -28.764   8.992  -3.468  1.00  0.00    -0.346 N 
HETATM   35  C8  UNL     1     -28.570   8.132  -4.497  1.00  0.00     0.123 A 
ATOM     36  H6  UNL     1     -29.637   9.110  -2.952  1.00  0.00     0.167 HD
HETATM   37  C9  UNL     1     -29.395   7.223  -5.129  1.00  0.00     0.145 A 
HETATM   38  C11 UNL     1     -27.272   8.312  -4.874  1.00  0.00     0.157 A 
HETATM   39  N8  UNL     1     -28.873   6.501  -6.151  1.00  0.00    -0.175 N 
HETATM   40  C10 UNL     1     -27.598   6.663  -6.538  1.00  0.00     0.679 A 
ATOM     41  H8  UNL     1     -29.460   5.822  -6.635  1.00  0.00     0.186 HD
HETATM   42  N10 UNL     1     -26.812   7.551  -5.911  1.00  0.00    -0.174 N 
ATOM     43  H10 UNL     1     -25.845   7.661  -6.216  1.00  0.00     0.186 HD
BRANCH  37  44
HETATM   44  N7  UNL     1     -30.600   7.095  -4.735  1.00  0.00    -0.383 N 
ATOM     45  H72 UNL     1     -31.189   7.889  -4.485  1.00  0.00     0.157 HD
ATOM     46  H71 UNL     1     -31.005   6.162  -4.663  1.00  0.00     0.157 HD
ENDBRANCH  37  44
BRANCH  40  47
HETATM   47  N9  UNL     1     -27.140   5.945  -7.528  1.00  0.00    -0.234 N 
ATOM     48  H92 UNL     1     -27.559   5.045  -7.760  1.00  0.00     0.174 HD
ATOM     49  H91 UNL     1     -26.351   6.296  -8.072  1.00  0.00     0.174 HD
ENDBRANCH  40  47
ENDBRANCH   3  32
BRANCH   5  50
HETATM   50  O8  UNL     1     -25.919  13.149  -5.184  1.00  0.00    -0.391 OA
ATOM     51  H8  UNL     1     -25.917  13.559  -6.041  1.00  0.00     0.210 HD
ENDBRANCH   5  50
BRANCH   4  52
HETATM   52  O7  UNL     1     -23.822  11.452  -4.144  1.00  0.00    -0.389 OA
ATOM     53  H7  UNL     1     -23.740  12.350  -4.442  1.00  0.00     0.210 HD
ENDBRANCH   4  52
TORSDOF 17
ENDMDL
MODEL 2
REMARK VINA RESULT: -8.462166136      1.346      1.806
REMARK  17 active torsions:
REMARK  status: ('A' for Active; 'I' for Inactive)
REMARK    1  A    between atoms: N1_2  and  C2_3 
REMARK    2  A    between atoms: N1_2  and  S1_18 
REMARK    3  A    between atoms: C2_3  and  O1_4 
REMARK    4  A    between atoms: C2_3  and  C3_6 
REMARK    5  A    between atoms: C3_6  and  N2_7 
REMARK    6  A    between atoms: C3_6  and  C4_11 
REMARK    7  A    between atoms: C4_11  and  O2_12 
REMARK    8  A    between atoms: C4_11  and  N3_14 
REMARK    9  A    between atoms: N3_14  and  N4_15 
REMARK   10  A    between atoms: S1_18  and  O5_21 
REMARK   11  A    between atoms: O5_21  and  C5_22 
REMARK   12  A    between atoms: C6_24  and  N5_25 
REMARK   13  A    between atoms: C9_30  and  N7_31 
REMARK   14  A    between atoms: C10_36  and  N9_37 
REMARK   15  A    between atoms: C12_43  and  O7_44 
REMARK   16  A    between atoms: C13_46  and  O8_47 
REMARK   17  A    between atoms: C14_49  and  N11_50 
ROOT
HETATM    1  C5  UNL     1     -24.498  10.039  -7.057  1.00  0.00     0.316 C 
HETATM    2  O6  UNL     1     -24.338   9.237  -5.996  1.00  0.00    -0.330 OA
HETATM    3  C6  UNL     1     -24.884   9.508  -4.800  1.00  0.00     0.265 C 
HETATM    4  C12 UNL     1     -24.820  10.978  -4.481  1.00  0.00     0.198 C 
HETATM    5  C13 UNL     1     -25.641  11.670  -5.518  1.00  0.00     0.186 C 
HETATM    6  C14 UNL     1     -25.018  11.408  -6.860  1.00  0.00     0.270 C 
ENDROOT
BRANCH   1   7
HETATM    7  O5  UNL     1     -23.247  10.147  -7.714  1.00  0.00    -0.224 OA
BRANCH   7   8
HETATM    8  S1  UNL     1     -23.362  10.035  -9.360  1.00  0.00     0.364 S 
HETATM    9  O3  UNL     1     -24.758   9.519  -9.681  1.00  0.00    -0.175 OA
HETATM   10  O4  UNL     1     -23.229  11.382 -10.041  1.00  0.00    -0.175 OA
BRANCH   8  11
HETATM   11  N1  UNL     1     -22.234   8.971  -9.992  1.00  0.00    -0.263 N 
HETATM   12  C1  UNL     1     -21.541   9.342 -11.147  1.00  0.00     0.168 C 
BRANCH  11  13
HETATM   13  C2  UNL     1     -21.759   7.932  -9.193  1.00  0.00     0.266 C 
BRANCH  13  14
HETATM   14  O1  UNL     1     -20.541   7.375  -9.590  1.00  0.00    -0.374 OA
ATOM     15  H1  UNL     1     -19.832   7.452  -8.964  1.00  0.00     0.212 HD
ENDBRANCH  13  14
BRANCH  13  16
HETATM   16  C3  UNL     1     -22.811   6.857  -8.979  1.00  0.00     0.278 C 
BRANCH  16  17
HETATM   17  N2  UNL     1     -22.754   5.938 -10.069  1.00  0.00    -0.067 N 
ATOM     18  H23 UNL     1     -21.809   5.595 -10.241  1.00  0.00     0.275 HD
ATOM     19  H22 UNL     1     -23.191   5.043  -9.848  1.00  0.00     0.275 HD
ATOM     20  H21 UNL     1     -23.164   6.380 -10.892  1.00  0.00     0.275 HD
ENDBRANCH  16  17
BRANCH  16  21
HETATM   21  C4  UNL     1     -22.690   6.177  -7.662  1.00  0.00     0.265 C 
BRANCH  21  22
HETATM   22  O2  UNL     1     -23.940   5.563  -7.390  1.00  0.00    -0.376 OA
ATOM     23  H2  UNL     1     -23.843   4.635  -7.568  1.00  0.00     0.211 HD
ENDBRANCH  21  22
BRANCH  21  24
HETATM   24  N3  UNL     1     -21.668   5.154  -7.750  1.00  0.00    -0.114 NA
BRANCH  24  25
HETATM   25  N4  UNL     1     -20.460   5.574  -7.265  1.00  0.00    -0.346 N 
ATOM     26  H42 UNL     1     -20.279   6.539  -6.992  1.00  0.00     0.172 HD
ATOM     27  H41 UNL     1     -19.776   4.819  -7.210  1.00  0.00     0.172 HD
ENDBRANCH  24  25
ENDBRANCH  21  24
ENDBRANCH  16  21
ENDBRANCH  13  16
ENDBRANCH  11  13
ENDBRANCH   8  11
ENDBRANCH   7   8
ENDBRANCH   1   7
BRANCH   6  28
HETATM   28  N11 UNL     1     -23.952  12.403  -7.018  1.00  0.00    -0.068 N 
ATOM     29 3H11 UNL     1     -23.302  12.143  -7.759  1.00  0.00     0.275 HD
ATOM     30 2H11 UNL     1     -24.306  13.272  -7.420  1.00  0.00     0.275 HD
ATOM     31 1H11 UNL     1     -23.470  12.565  -6.135  1.00  0.00     0.275 HD
ENDBRANCH   6  28
BRANCH   3  32
HETATM   32  N5  UNL     1     -26.220   8.991  -4.587  1.00  0.00    -0.297 N 
HETATM   33  C7  UNL     1     -27.100   9.258  -3.623  1.00  0.00     0.188 A 
HETATM   34  N6  UNL     1     -28.211   8.535  -3.842  1.00  0.00    -0.346 N 
HETATM   35  C8  UNL     1     -28.044   7.791  -4.962  1.00  0.00     0.123 A 
ATOM     36  H6  UNL     1     -29.047   8.544  -3.257  1.00  0.00     0.167 HD
HETATM   37  C9  UNL     1     -28.858   6.892  -5.622  1.00  0.00     0.145 A 
HETATM   38  C11 UNL     1     -26.792   8.093  -5.410  1.00  0.00     0.157 A 
HETATM   39  N8  UNL     1     -28.373   6.307  -6.745  1.00  0.00    -0.175 N 
HETATM   40  C10 UNL     1     -27.144   6.591  -7.203  1.00  0.00     0.679 A 
ATOM     41  H8  UNL     1     -28.954   5.639  -7.252  1.00  0.00     0.186 HD
HETATM   42  N10 UNL     1     -26.367   7.467  -6.547  1.00  0.00    -0.174 N 
ATOM     43  H10 UNL     1     -25.435   7.671  -6.907  1.00  0.00     0.186 HD
BRANCH  37  44
HETATM   44  N7  UNL     1     -30.020   6.646  -5.160  1.00  0.00    -0.383 N 
ATOM     45  H72 UNL     1     -30.186   5.989  -4.397  1.00  0.00     0.157 HD
ATOM     46  H71 UNL     1     -30.828   7.121  -5.561  1.00  0.00     0.157 HD
ENDBRANCH  37  44
BRANCH  40  47
HETATM   47  N9  UNL     1     -26.720   6.002  -8.289  1.00  0.00    -0.234 N 
ATOM     48  H92 UNL     1     -26.213   5.119  -8.241  1.00  0.00     0.174 HD
ATOM     49  H91 UNL     1     -26.903   6.438  -9.192  1.00  0.00     0.174 HD
ENDBRANCH  40  47
ENDBRANCH   3  32
BRANCH   5  50
HETATM   50  O8  UNL     1     -25.755  13.030  -5.262  1.00  0.00    -0.391 OA
ATOM     51  H8  UNL     1     -26.402  13.442  -5.823  1.00  0.00     0.210 HD
ENDBRANCH   5  50
BRANCH   4  52
HETATM   52  O7  UNL     1     -23.486  11.369  -4.591  1.00  0.00    -0.389 OA
ATOM     53  H7  UNL     1     -23.470  12.318  -4.600  1.00  0.00     0.210 HD
ENDBRANCH   4  52
TORSDOF 17
ENDMDL
MODEL 3
REMARK VINA RESULT: -8.403097873      1.373      1.911
REMARK  17 active torsions:
REMARK  status: ('A' for Active; 'I' for Inactive)
REMARK    1  A    between atoms: N1_2  and  C2_3 
REMARK    2  A    between atoms: N1_2  and  S1_18 
REMARK    3  A    between atoms: C2_3  and  O1_4 
REMARK    4  A    between atoms: C2_3  and  C3_6 
REMARK    5  A    between atoms: C3_6  and  N2_7 
REMARK    6  A    between atoms: C3_6  and  C4_11 
REMARK    7  A    between atoms: C4_11  and  O2_12 
REMARK    8  A    between atoms: C4_11  and  N3_14 
REMARK    9  A    between atoms: N3_14  and  N4_15 
REMARK   10  A    between atoms: S1_18  and  O5_21 
REMARK   11  A    between atoms: O5_21  and  C5_22 
REMARK   12  A    between atoms: C6_24  and  N5_25 
REMARK   13  A    between atoms: C9_30  and  N7_31 
REMARK   14  A    between atoms: C10_36  and  N9_37 
REMARK   15  A    between atoms: C12_43  and  O7_44 
REMARK   16  A    between atoms: C13_46  and  O8_47 
REMARK   17  A    between atoms: C14_49  and  N11_50 
ROOT
HETATM    1  C5  UNL     1     -25.391   9.154  -6.719  1.00  0.00     0.316 C 
HETATM    2  O6  UNL     1     -25.348   8.610  -5.496  1.00  0.00    -0.330 OA
HETATM    3  C6  UNL     1     -25.480   9.341  -4.378  1.00  0.00     0.265 C 
HETATM    4  C12 UNL     1     -24.772  10.664  -4.492  1.00  0.00     0.198 C 
HETATM    5  C13 UNL     1     -25.444  11.408  -5.598  1.00  0.00     0.186 C 
HETATM    6  C14 UNL     1     -25.269  10.619  -6.866  1.00  0.00     0.270 C 
ENDROOT
BRANCH   1   7
HETATM    7  O5  UNL     1     -24.365   8.559  -7.496  1.00  0.00    -0.224 OA
BRANCH   7   8
HETATM    8  S1  UNL     1     -24.891   8.022  -8.969  1.00  0.00     0.364 S 
HETATM    9  O3  UNL     1     -26.248   7.368  -8.753  1.00  0.00    -0.175 OA
HETATM   10  O4  UNL     1     -25.105   9.153  -9.953  1.00  0.00    -0.175 OA
BRANCH   8  11
HETATM   11  N1  UNL     1     -23.846   6.892  -9.629  1.00  0.00    -0.263 N 
HETATM   12  C1  UNL     1     -23.339   7.120 -10.910  1.00  0.00     0.168 C 
BRANCH  11  13
HETATM   13  C2  UNL     1     -23.235   5.962  -8.790  1.00  0.00     0.266 C 
BRANCH  13  14
HETATM   14  O1  UNL     1     -23.946   5.634  -7.634  1.00  0.00    -0.374 OA
ATOM     15  H1  UNL     1     -24.800   5.243  -7.774  1.00  0.00     0.212 HD
ENDBRANCH  13  14
BRANCH  13  16
HETATM   16  C3  UNL     1     -21.803   6.350  -8.463  1.00  0.00     0.278 C 
BRANCH  16  17
HETATM   17  N2  UNL     1     -21.625   7.734  -8.761  1.00  0.00    -0.067 N 
ATOM     18  H23 UNL     1     -20.970   7.887  -9.527  1.00  0.00     0.275 HD
ATOM     19  H22 UNL     1     -22.450   8.149  -9.195  1.00  0.00     0.275 HD
ATOM     20  H21 UNL     1     -21.348   8.220  -7.908  1.00  0.00     0.275 HD
ENDBRANCH  16  17
BRANCH  16  21
HETATM   21  C4  UNL     1     -21.415   6.020  -7.064  1.00  0.00     0.265 C 
BRANCH  21  22
HETATM   22  O2  UNL     1     -20.118   5.446  -7.113  1.00  0.00    -0.376 OA
ATOM     23  H2  UNL     1     -19.701   5.622  -6.278  1.00  0.00     0.211 HD
ENDBRANCH  21  22
BRANCH  21  24
HETATM   24  N3  UNL     1     -21.364   7.243  -6.288  1.00  0.00    -0.114 NA
BRANCH  24  25
HETATM   25  N4  UNL     1     -22.487   7.431  -5.529  1.00  0.00    -0.346 N 
ATOM     26  H42 UNL     1     -22.498   8.011  -4.691  1.00  0.00     0.172 HD
ATOM     27  H41 UNL     1     -23.296   6.930  -5.897  1.00  0.00     0.172 HD
ENDBRANCH  24  25
ENDBRANCH  21  24
ENDBRANCH  16  21
ENDBRANCH  13  16
ENDBRANCH  11  13
ENDBRANCH   8  11
ENDBRANCH   7   8
ENDBRANCH   1   7
BRANCH   6  28
HETATM   28  N11 UNL     1     -23.952  10.986  -7.398  1.00  0.00    -0.068 N 
ATOM     29 3H11 UNL     1     -23.243  10.294  -7.158  1.00  0.00     0.275 HD
ATOM     30 2H11 UNL     1     -23.919  10.897  -8.414  1.00  0.00     0.275 HD
ATOM     31 1H11 UNL     1     -23.682  11.921  -7.093  1.00  0.00     0.275 HD
ENDBRANCH   6  28
BRANCH   3  32
HETATM   32  N5  UNL     1     -26.837   9.521  -3.901  1.00  0.00    -0.297 N 
HETATM   33  C7  UNL     1     -27.340  10.430  -3.068  1.00  0.00     0.188 A 
HETATM   34  N6  UNL     1     -28.655  10.199  -2.921  1.00  0.00    -0.346 N 
HETATM   35  C8  UNL     1     -29.004   9.126  -3.672  1.00  0.00     0.123 A 
ATOM     36  H6  UNL     1     -29.290  10.745  -2.338  1.00  0.00     0.167 HD
HETATM   37  C9  UNL     1     -30.205   8.477  -3.879  1.00  0.00     0.145 A 
HETATM   38  C11 UNL     1     -27.851   8.719  -4.274  1.00  0.00     0.157 A 
HETATM   39  N8  UNL     1     -30.209   7.406  -4.712  1.00  0.00    -0.175 N 
HETATM   40  C10 UNL     1     -29.084   6.990  -5.316  1.00  0.00     0.679 A 
ATOM     41  H8  UNL     1     -31.082   6.908  -4.883  1.00  0.00     0.186 HD
HETATM   42  N10 UNL     1     -27.927   7.634  -5.100  1.00  0.00    -0.174 N 
ATOM     43  H10 UNL     1     -27.081   7.304  -5.565  1.00  0.00     0.186 HD
BRANCH  37  44
HETATM   44  N7  UNL     1     -31.253   8.899  -3.290  1.00  0.00    -0.383 N 
ATOM     45  H72 UNL     1     -31.547   8.563  -2.373  1.00  0.00     0.157 HD
ATOM     46  H71 UNL     1     -31.833   9.604  -3.745  1.00  0.00     0.157 HD
ENDBRANCH  37  44
BRANCH  40  47
HETATM   47  N9  UNL     1     -29.137   5.954  -6.109  1.00  0.00    -0.234 N 
ATOM     48  H92 UNL     1     -29.252   5.013  -5.734  1.00  0.00     0.174 HD
ATOM     49  H91 UNL     1     -29.061   6.098  -7.116  1.00  0.00     0.174 HD
ENDBRANCH  40  47
ENDBRANCH   3  32
BRANCH   5  50
HETATM   50  O8  UNL     1     -24.950  12.699  -5.726  1.00  0.00    -0.391 OA
ATOM     51  H8  UNL     1     -24.546  12.841  -6.574  1.00  0.00     0.210 HD
ENDBRANCH   5  50
BRANCH   4  52
HETATM   52  O7  UNL     1     -23.447  10.396  -4.834  1.00  0.00    -0.389 OA
ATOM     53  H7  UNL     1     -23.098  11.178  -5.245  1.00  0.00     0.210 HD
ENDBRANCH   4  52
TORSDOF 17
ENDMDL
MODEL 4
REMARK VINA RESULT: -8.299726077      1.652      2.469
REMARK  17 active torsions:
REMARK  status: ('A' for Active; 'I' for Inactive)
REMARK    1  A    between atoms: N1_2  and  C2_3 
REMARK    2  A    between atoms: N1_2  and  S1_18 
REMARK    3  A    between atoms: C2_3  and  O1_4 
REMARK    4  A    between atoms: C2_3  and  C3_6 
REMARK    5  A    between atoms: C3_6  and  N2_7 
REMARK    6  A    between atoms: C3_6  and  C4_11 
REMARK    7  A    between atoms: C4_11  and  O2_12 
REMARK    8  A    between atoms: C4_11  and  N3_14 
REMARK    9  A    between atoms: N3_14  and  N4_15 
REMARK   10  A    between atoms: S1_18  and  O5_21 
REMARK   11  A    between atoms: O5_21  and  C5_22 
REMARK   12  A    between atoms: C6_24  and  N5_25 
REMARK   13  A    between atoms: C9_30  and  N7_31 
REMARK   14  A    between atoms: C10_36  and  N9_37 
REMARK   15  A    between atoms: C12_43  and  O7_44 
REMARK   16  A    between atoms: C13_46  and  O8_47 
REMARK   17  A    between atoms: C14_49  and  N11_50 
ROOT
HETATM    1  C5  UNL     1     -25.300   9.327  -5.734  1.00  0.00     0.316 C 
HETATM    2  O6  UNL     1     -25.644   9.049  -4.470  1.00  0.00    -0.330 OA
HETATM    3  C6  UNL     1     -26.235   9.951  -3.670  1.00  0.00     0.265 C 
HETATM    4  C12 UNL     1     -25.663  11.329  -3.868  1.00  0.00     0.198 C 
HETATM    5  C13 UNL     1     -25.965  11.712  -5.279  1.00  0.00     0.186 C 
HETATM    6  C14 UNL     1     -25.275  10.733  -6.187  1.00  0.00     0.270 C 
ENDROOT
BRANCH   1   7
HETATM    7  O5  UNL     1     -24.013   8.780  -5.965  1.00  0.00    -0.224 OA
BRANCH   7   8
HETATM    8  S1  UNL     1     -23.985   7.674  -7.195  1.00  0.00     0.364 S 
HETATM    9  O3  UNL     1     -25.038   6.621  -6.878  1.00  0.00    -0.175 OA
HETATM   10  O4  UNL     1     -24.367   8.283  -8.528  1.00  0.00    -0.175 OA
BRANCH   8  11
HETATM   11  N1  UNL     1     -22.493   6.925  -7.325  1.00  0.00    -0.263 N 
HETATM   12  C1  UNL     1     -21.534   7.174  -6.342  1.00  0.00     0.168 C 
BRANCH  11  13
HETATM   13  C2  UNL     1     -22.356   5.830  -8.176  1.00  0.00     0.266 C 
BRANCH  13  14
HETATM   14  O1  UNL     1     -21.613   4.761  -7.669  1.00  0.00    -0.374 OA
ATOM     15  H1  UNL     1     -22.001   3.902  -7.782  1.00  0.00     0.212 HD
ENDBRANCH  13  14
BRANCH  13  16
HETATM   16  C3  UNL     1     -21.857   6.241  -9.551  1.00  0.00     0.278 C 
BRANCH  16  17
HETATM   17  N2  UNL     1     -20.430   6.238  -9.539  1.00  0.00    -0.067 N 
ATOM     18  H23 UNL     1     -20.040   7.149  -9.297  1.00  0.00     0.275 HD
ATOM     19  H22 UNL     1     -20.047   5.707  -8.756  1.00  0.00     0.275 HD
ATOM     20  H21 UNL     1     -20.096   5.899 -10.441  1.00  0.00     0.275 HD
ENDBRANCH  16  17
BRANCH  16  21
HETATM   21  C4  UNL     1     -22.413   5.403 -10.648  1.00  0.00     0.265 C 
BRANCH  21  22
HETATM   22  O2  UNL     1     -22.117   4.051 -10.335  1.00  0.00    -0.376 OA
ATOM     23  H2  UNL     1     -21.973   3.597 -11.157  1.00  0.00     0.211 HD
ENDBRANCH  21  22
BRANCH  21  24
HETATM   24  N3  UNL     1     -23.851   5.576 -10.692  1.00  0.00    -0.114 NA
BRANCH  24  25
HETATM   25  N4  UNL     1     -24.218   6.810 -11.156  1.00  0.00    -0.346 N 
ATOM     26  H42 UNL     1     -23.671   7.652 -10.981  1.00  0.00     0.172 HD
ATOM     27  H41 UNL     1     -25.088   6.785 -11.688  1.00  0.00     0.172 HD
ENDBRANCH  24  25
ENDBRANCH  21  24
ENDBRANCH  16  21
ENDBRANCH  13  16
ENDBRANCH  11  13
ENDBRANCH   8  11
ENDBRANCH   7   8
ENDBRANCH   1   7
BRANCH   6  28
HETATM   28  N11 UNL     1     -23.897  11.213  -6.336  1.00  0.00    -0.068 N 
ATOM     29 3H11 UNL     1     -23.260  10.726  -5.707  1.00  0.00     0.275 HD
ATOM     30 2H11 UNL     1     -23.491  10.922  -7.226  1.00  0.00     0.275 HD
ATOM     31 1H11 UNL     1     -23.847  12.224  -6.212  1.00  0.00     0.275 HD
ENDBRANCH   6  28
BRANCH   3  32
HETATM   32  N5  UNL     1     -27.683   9.981  -3.719  1.00  0.00    -0.297 N 
HETATM   33  C7  UNL     1     -28.523  11.011  -3.636  1.00  0.00     0.188 A 
HETATM   34  N6  UNL     1     -29.781  10.549  -3.731  1.00  0.00    -0.346 N 
HETATM   35  C8  UNL     1     -29.751   9.202  -3.879  1.00  0.00     0.123 A 
ATOM     36  H6  UNL     1     -30.625  11.122  -3.698  1.00  0.00     0.167 HD
HETATM   37  C9  UNL     1     -30.742   8.251  -4.019  1.00  0.00     0.145 A 
HETATM   38  C11 UNL     1     -28.428   8.870  -3.867  1.00  0.00     0.157 A 
HETATM   39  N8  UNL     1     -30.360   6.956  -4.147  1.00  0.00    -0.175 N 
HETATM   40  C10 UNL     1     -29.063   6.608  -4.139  1.00  0.00     0.679 A 
ATOM     41  H8  UNL     1     -31.071   6.233  -4.252  1.00  0.00     0.186 HD
HETATM   42  N10 UNL     1     -28.115   7.548  -4.001  1.00  0.00    -0.174 N 
ATOM     43  H10 UNL     1     -27.135   7.267  -3.995  1.00  0.00     0.186 HD
BRANCH  37  44
HETATM   44  N7  UNL     1     -31.962   8.617  -4.022  1.00  0.00    -0.383 N 
ATOM     45  H72 UNL     1     -32.351   9.243  -4.727  1.00  0.00     0.157 HD
ATOM     46  H71 UNL     1     -32.588   8.275  -3.293  1.00  0.00     0.157 HD
ENDBRANCH  37  44
BRANCH  40  47
HETATM   47  N9  UNL     1     -28.744   5.348  -4.266  1.00  0.00    -0.234 N 
ATOM     48  H92 UNL     1     -29.404   4.613  -4.013  1.00  0.00     0.174 HD
ATOM     49  H91 UNL     1     -27.821   5.105  -4.624  1.00  0.00     0.174 HD
ENDBRANCH  40  47
ENDBRANCH   3  32
BRANCH   5  50
HETATM   50  O8  UNL     1     -25.585  13.019  -5.551  1.00  0.00    -0.391 OA
ATOM     51  H8  UNL     1     -26.235  13.474  -6.074  1.00  0.00     0.210 HD
ENDBRANCH   5  50
BRANCH   4  52
HETATM   52  O7  UNL     1     -24.284  11.235  -3.685  1.00  0.00    -0.389 OA
ATOM     53  H7  UNL     1     -23.880  11.319  -4.540  1.00  0.00     0.210 HD
ENDBRANCH   4  52
TORSDOF 17
ENDMDL
MODEL 5
REMARK VINA RESULT: -8.295257713      1.823      2.406
REMARK  17 active torsions:
REMARK  status: ('A' for Active; 'I' for Inactive)
REMARK    1  A    between atoms: N1_2  and  C2_3 
REMARK    2  A    between atoms: N1_2  and  S1_18 
REMARK    3  A    between atoms: C2_3  and  O1_4 
REMARK    4  A    between atoms: C2_3  and  C3_6 
REMARK    5  A    between atoms: C3_6  and  N2_7 
REMARK    6  A    between atoms: C3_6  and  C4_11 
REMARK    7  A    between atoms: C4_11  and  O2_12 
REMARK    8  A    between atoms: C4_11  and  N3_14 
REMARK    9  A    between atoms: N3_14  and  N4_15 
REMARK   10  A    between atoms: S1_18  and  O5_21 
REMARK   11  A    between atoms: O5_21  and  C5_22 
REMARK   12  A    between atoms: C6_24  and  N5_25 
REMARK   13  A    between atoms: C9_30  and  N7_31 
REMARK   14  A    between atoms: C10_36  and  N9_37 
REMARK   15  A    between atoms: C12_43  and  O7_44 
REMARK   16  A    between atoms: C13_46  and  O8_47 
REMARK   17  A    between atoms: C14_49  and  N11_50 
ROOT
HETATM    1  C5  UNL     1     -26.263   9.082  -5.969  1.00  0.00     0.316 C 
HETATM    2  O6  UNL     1     -26.493   8.726  -4.698  1.00  0.00    -0.330 OA
HETATM    3  C6  UNL     1     -26.686   9.627  -3.722  1.00  0.00     0.265 C 
HETATM    4  C12 UNL     1     -25.778  10.817  -3.877  1.00  0.00     0.198 C 
HETATM    5  C13 UNL     1     -26.151  11.466  -5.169  1.00  0.00     0.186 C 
HETATM    6  C14 UNL     1     -25.901  10.481  -6.276  1.00  0.00     0.270 C 
ENDROOT
BRANCH   1   7
HETATM    7  O5  UNL     1     -25.230   8.252  -6.473  1.00  0.00    -0.224 OA
BRANCH   7   8
HETATM    8  S1  UNL     1     -25.715   7.302  -7.736  1.00  0.00     0.364 S 
HETATM    9  O3  UNL     1     -26.237   5.999  -7.147  1.00  0.00    -0.175 OA
HETATM   10  O4  UNL     1     -26.859   7.916  -8.515  1.00  0.00    -0.175 OA
BRANCH   8  11
HETATM   11  N1  UNL     1     -24.449   6.956  -8.777  1.00  0.00    -0.263 N 
HETATM   12  C1  UNL     1     -24.347   7.679  -9.967  1.00  0.00     0.168 C 
BRANCH  11  13
HETATM   13  C2  UNL     1     -23.355   6.236  -8.299  1.00  0.00     0.266 C 
BRANCH  13  14
HETATM   14  O1  UNL     1     -23.652   5.230  -7.376  1.00  0.00    -0.374 OA
ATOM     15  H1  UNL     1     -23.171   4.418  -7.486  1.00  0.00     0.212 HD
ENDBRANCH  13  14
BRANCH  13  16
HETATM   16  C3  UNL     1     -22.260   7.151  -7.779  1.00  0.00     0.278 C 
BRANCH  16  17
HETATM   17  N2  UNL     1     -22.419   7.301  -6.369  1.00  0.00    -0.067 N 
ATOM     18  H23 UNL     1     -23.387   7.485  -6.103  1.00  0.00     0.275 HD
ATOM     19  H22 UNL     1     -22.300   6.420  -5.867  1.00  0.00     0.275 HD
ATOM     20  H21 UNL     1     -21.780   8.025  -6.042  1.00  0.00     0.275 HD
ENDBRANCH  16  17
BRANCH  16  21
HETATM   21  C4  UNL     1     -20.893   6.690  -8.145  1.00  0.00     0.265 C 
BRANCH  21  22
HETATM   22  O2  UNL     1     -20.459   5.806  -7.123  1.00  0.00    -0.376 OA
ATOM     23  H2  UNL     1     -19.845   6.285  -6.579  1.00  0.00     0.211 HD
ENDBRANCH  21  22
BRANCH  21  24
HETATM   24  N3  UNL     1     -20.957   5.969  -9.400  1.00  0.00    -0.114 NA
BRANCH  24  25
HETATM   25  N4  UNL     1     -20.093   6.466 -10.337  1.00  0.00    -0.346 N 
ATOM     26  H42 UNL     1     -19.376   7.158 -10.117  1.00  0.00     0.172 HD
ATOM     27  H41 UNL     1     -20.247   6.067 -11.263  1.00  0.00     0.172 HD
ENDBRANCH  24  25
ENDBRANCH  21  24
ENDBRANCH  16  21
ENDBRANCH  13  16
ENDBRANCH  11  13
ENDBRANCH   8  11
ENDBRANCH   7   8
ENDBRANCH   1   7
BRANCH   6  28
HETATM   28  N11 UNL     1     -24.478  10.595  -6.612  1.00  0.00    -0.068 N 
ATOM     29 3H11 UNL     1     -23.895  10.610  -5.776  1.00  0.00     0.275 HD
ATOM     30 2H11 UNL     1     -24.122   9.737  -7.035  1.00  0.00     0.275 HD
ATOM     31 1H11 UNL     1     -24.306  11.406  -7.205  1.00  0.00     0.275 HD
ENDBRANCH   6  28
BRANCH   3  32
HETATM   32  N5  UNL     1     -28.058  10.047  -3.517  1.00  0.00    -0.297 N 
HETATM   33  C7  UNL     1     -28.543  11.205  -3.072  1.00  0.00     0.188 A 
HETATM   34  N6  UNL     1     -29.884  11.129  -3.049  1.00  0.00    -0.346 N 
HETATM   35  C8  UNL     1     -30.268   9.905  -3.486  1.00  0.00     0.123 A 
ATOM     36  H6  UNL     1     -30.514  11.875  -2.751  1.00  0.00     0.167 HD
HETATM   37  C9  UNL     1     -31.505   9.315  -3.657  1.00  0.00     0.145 A 
HETATM   38  C11 UNL     1     -29.109   9.247  -3.771  1.00  0.00     0.157 A 
HETATM   39  N8  UNL     1     -31.538   8.042  -4.124  1.00  0.00    -0.175 N 
HETATM   40  C10 UNL     1     -30.408   7.376  -4.411  1.00  0.00     0.679 A 
ATOM     41  H8  UNL     1     -32.438   7.582  -4.259  1.00  0.00     0.186 HD
HETATM   42  N10 UNL     1     -29.216   7.968  -4.237  1.00  0.00    -0.174 N 
ATOM     43  H10 UNL     1     -28.367   7.448  -4.459  1.00  0.00     0.186 HD
BRANCH  37  44
HETATM   44  N7  UNL     1     -32.556   9.976  -3.374  1.00  0.00    -0.383 N 
ATOM     45  H72 UNL     1     -33.106  10.471  -4.076  1.00  0.00     0.157 HD
ATOM     46  H71 UNL     1     -32.874  10.020  -2.406  1.00  0.00     0.157 HD
ENDBRANCH  37  44
BRANCH  40  47
HETATM   47  N9  UNL     1     -30.490   6.152  -4.858  1.00  0.00    -0.234 N 
ATOM     48  H92 UNL     1     -31.386   5.666  -4.891  1.00  0.00     0.174 HD
ATOM     49  H91 UNL     1     -29.642   5.684  -5.177  1.00  0.00     0.174 HD
ENDBRANCH  40  47
ENDBRANCH   3  32
BRANCH   5  50
HETATM   50  O8  UNL     1     -25.455  12.651  -5.370  1.00  0.00    -0.391 OA
ATOM     51  H8  UNL     1     -24.536  12.494  -5.552  1.00  0.00     0.210 HD
ENDBRANCH   5  50
BRANCH   4  52
HETATM   52  O7  UNL     1     -24.472  10.336  -3.946  1.00  0.00    -0.389 OA
ATOM     53  H7  UNL     1     -24.147  10.273  -3.056  1.00  0.00     0.210 HD
ENDBRANCH   4  52
TORSDOF 17
ENDMDL
