MODEL 1
REMARK VINA RESULT: -9.457777746      0.000      0.000
REMARK  16 active torsions:
REMARK  status: ('A' for Active; 'I' for Inactive)
REMARK    1  A    between atoms: N1_1  and  C1_4 
REMARK    2  A    between atoms: C2_7  and  C3_8 
REMARK       I    between atoms: C3_8  and  N3_10 
REMARK    3  A    between atoms: N3_10  and  C4_12 
REMARK    4  A    between atoms: C4_12  and  C5_13 
REMARK    5  A    between atoms: C5_13  and  N4_14 
REMARK    6  A    between atoms: C5_13  and  C6_18 
REMARK    7  A    between atoms: C6_18  and  O2_19 
REMARK    8  A    between atoms: C6_18  and  C7_21 
REMARK    9  A    between atoms: C7_21  and  O3_22 
REMARK   10  A    between atoms: C7_21  and  O4_24 
REMARK   11  A    between atoms: N7_35  and  C12_36 
REMARK   12  A    between atoms: C13_38  and  O7_39 
REMARK   13  A    between atoms: C14_41  and  O8_42 
REMARK   14  A    between atoms: O8_42  and  S1_43 
REMARK   15  A    between atoms: S1_43  and  N8_44 
REMARK   16  A    between atoms: C15_49  and  O11_50 
ROOT
HETATM    1  C1  UNL     1     -30.352  10.038  -2.831  1.00  0.00     0.130 C 
HETATM    2  N2  UNL     1     -29.018  10.134  -2.572  1.00  0.00    -0.322 N 
ATOM      3  H2  UNL     1     -28.764  10.591  -1.696  1.00  0.00     0.169 HD
HETATM    4  C2  UNL     1     -27.992   9.699  -3.334  1.00  0.00     0.179 C 
HETATM    5  N5  UNL     1     -28.028   8.639  -4.183  1.00  0.00    -0.303 N 
ATOM      6  H5  UNL     1     -27.166   8.101  -4.275  1.00  0.00     0.171 HD
HETATM    7  C8  UNL     1     -29.084   8.216  -4.922  1.00  0.00     0.276 C 
HETATM    8  O5  UNL     1     -28.777   7.656  -5.975  1.00  0.00    -0.266 OA
HETATM    9  C9  UNL     1     -30.425   8.329  -4.657  1.00  0.00     0.137 A 
HETATM   10  C10 UNL     1     -30.979   9.160  -3.710  1.00  0.00     0.110 A 
HETATM   11  N6  UNL     1     -32.299   8.957  -3.793  1.00  0.00    -0.347 N 
ATOM     12  H6  UNL     1     -33.006   9.422  -3.225  1.00  0.00     0.167 HD
HETATM   13  C11 UNL     1     -32.547   8.026  -4.764  1.00  0.00     0.186 A 
HETATM   14  N7  UNL     1     -31.390   7.626  -5.310  1.00  0.00    -0.306 N 
ENDROOT
BRANCH   4  15
HETATM   15  C3  UNL     1     -26.771  10.456  -3.187  1.00  0.00     0.285 C 
HETATM   16  O1  UNL     1     -26.727  11.372  -2.329  1.00  0.00    -0.264 OA
HETATM   17  N3  UNL     1     -25.640  10.195  -3.977  1.00  0.00    -0.352 N 
ATOM     18  H3  UNL     1     -25.719   9.447  -4.666  1.00  0.00     0.162 HD
BRANCH  17  19
HETATM   19  C4  UNL     1     -24.378  10.886  -3.905  1.00  0.00     0.158 C 
BRANCH  19  20
HETATM   20  C5  UNL     1     -23.730  11.098  -5.242  1.00  0.00     0.234 C 
BRANCH  20  21
HETATM   21  N4  UNL     1     -23.237   9.813  -5.745  1.00  0.00    -0.071 N 
ATOM     22  H43 UNL     1     -23.545   9.028  -5.170  1.00  0.00     0.274 HD
ATOM     23  H42 UNL     1     -23.689   9.538  -6.617  1.00  0.00     0.274 HD
ATOM     24  H41 UNL     1     -22.222   9.856  -5.831  1.00  0.00     0.274 HD
ENDBRANCH  20  21
BRANCH  20  25
HETATM   25  C6  UNL     1     -24.653  11.676  -6.282  1.00  0.00     0.204 C 
BRANCH  25  26
HETATM   26  O2  UNL     1     -25.365  12.707  -5.659  1.00  0.00    -0.388 OA
ATOM     27  H2  UNL     1     -26.257  12.396  -5.551  1.00  0.00     0.210 HD
ENDBRANCH  25  26
BRANCH  25  28
HETATM   28  C7  UNL     1     -23.852  12.165  -7.459  1.00  0.00     0.284 C 
BRANCH  28  29
HETATM   29  O3  UNL     1     -22.741  12.834  -7.008  1.00  0.00    -0.369 OA
ATOM     30  H3  UNL     1     -22.069  12.821  -7.680  1.00  0.00     0.212 HD
ENDBRANCH  28  29
BRANCH  28  31
HETATM   31  O4  UNL     1     -24.651  12.985  -8.285  1.00  0.00    -0.369 OA
ATOM     32  H4  UNL     1     -24.225  13.823  -8.423  1.00  0.00     0.212 HD
ENDBRANCH  28  31
ENDBRANCH  25  28
ENDBRANCH  20  25
ENDBRANCH  19  20
ENDBRANCH  17  19
ENDBRANCH   4  15
BRANCH   1  33
HETATM   33  N1  UNL     1     -31.160  10.816  -2.227  1.00  0.00    -0.384 N 
ATOM     34  H12 UNL     1     -30.715  11.652  -1.852  1.00  0.00     0.157 HD
ATOM     35  H11 UNL     1     -32.146  10.560  -2.166  1.00  0.00     0.157 HD
ENDBRANCH   1  33
BRANCH  14  36
HETATM   36  C12 UNL     1     -31.241   6.663  -6.352  1.00  0.00     0.264 C 
HETATM   37  O6  UNL     1     -31.741   7.207  -7.511  1.00  0.00    -0.331 OA
HETATM   38  C13 UNL     1     -32.737   6.448  -8.033  1.00  0.00     0.292 C 
HETATM   39  C14 UNL     1     -33.183   5.420  -7.060  1.00  0.00     0.232 C 
HETATM   40  C15 UNL     1     -32.090   5.451  -6.020  1.00  0.00     0.202 C 
BRANCH  38  41
HETATM   41  O7  UNL     1     -32.359   5.889  -9.272  1.00  0.00    -0.368 OA
ATOM     42  H7  UNL     1     -32.210   4.953  -9.198  1.00  0.00     0.212 HD
ENDBRANCH  38  41
BRANCH  39  43
HETATM   43  O8  UNL     1     -34.434   5.730  -6.588  1.00  0.00    -0.246 OA
BRANCH  43  44
HETATM   44  S1  UNL     1     -35.481   4.446  -6.526  1.00  0.00     0.356 S 
HETATM   45  O9  UNL     1     -34.751   3.277  -5.914  1.00  0.00    -0.176 OA
HETATM   46  O10 UNL     1     -35.861   4.078  -7.936  1.00  0.00    -0.176 OA
BRANCH  44  47
HETATM   47  N8  UNL     1     -36.862   4.749  -5.543  1.00  0.00    -0.306 N 
ATOM     48  H82 UNL     1     -36.790   5.107  -4.591  1.00  0.00     0.171 HD
ATOM     49  H81 UNL     1     -37.741   4.533  -6.012  1.00  0.00     0.171 HD
ENDBRANCH  44  47
ENDBRANCH  43  44
ENDBRANCH  39  43
BRANCH  40  50
HETATM   50  O11 UNL     1     -31.368   4.245  -6.208  1.00  0.00    -0.388 OA
ATOM     51  H11 UNL     1     -31.207   3.804  -5.382  1.00  0.00     0.210 HD
ENDBRANCH  40  50
ENDBRANCH  14  36
TORSDOF 16
ENDMDL
MODEL 2
REMARK VINA RESULT: -9.342803957      4.663      9.404
REMARK  16 active torsions:
REMARK  status: ('A' for Active; 'I' for Inactive)
REMARK    1  A    between atoms: N1_1  and  C1_4 
REMARK    2  A    between atoms: C2_7  and  C3_8 
REMARK       I    between atoms: C3_8  and  N3_10 
REMARK    3  A    between atoms: N3_10  and  C4_12 
REMARK    4  A    between atoms: C4_12  and  C5_13 
REMARK    5  A    between atoms: C5_13  and  N4_14 
REMARK    6  A    between atoms: C5_13  and  C6_18 
REMARK    7  A    between atoms: C6_18  and  O2_19 
REMARK    8  A    between atoms: C6_18  and  C7_21 
REMARK    9  A    between atoms: C7_21  and  O3_22 
REMARK   10  A    between atoms: C7_21  and  O4_24 
REMARK   11  A    between atoms: N7_35  and  C12_36 
REMARK   12  A    between atoms: C13_38  and  O7_39 
REMARK   13  A    between atoms: C14_41  and  O8_42 
REMARK   14  A    between atoms: O8_42  and  S1_43 
REMARK   15  A    between atoms: S1_43  and  N8_44 
REMARK   16  A    between atoms: C15_49  and  O11_50 
ROOT
HETATM    1  C1  UNL     1     -25.851  11.415  -5.192  1.00  0.00     0.130 C 
HETATM    2  N2  UNL     1     -27.120  11.067  -4.841  1.00  0.00    -0.322 N 
ATOM      3  H2  UNL     1     -27.815  11.814  -4.875  1.00  0.00     0.169 HD
HETATM    4  C2  UNL     1     -27.571   9.855  -4.453  1.00  0.00     0.179 C 
HETATM    5  N5  UNL     1     -27.057   8.657  -4.839  1.00  0.00    -0.303 N 
ATOM      6  H5  UNL     1     -27.722   7.890  -4.942  1.00  0.00     0.171 HD
HETATM    7  C8  UNL     1     -25.758   8.368  -5.101  1.00  0.00     0.276 C 
HETATM    8  O5  UNL     1     -25.441   7.199  -4.878  1.00  0.00    -0.266 OA
HETATM    9  C9  UNL     1     -24.768   9.193  -5.572  1.00  0.00     0.137 A 
HETATM   10  C10 UNL     1     -24.827  10.566  -5.602  1.00  0.00     0.110 A 
HETATM   11  N6  UNL     1     -23.660  10.957  -6.128  1.00  0.00    -0.347 N 
ATOM     12  H6  UNL     1     -23.378  11.924  -6.290  1.00  0.00     0.167 HD
HETATM   13  C11 UNL     1     -22.907   9.853  -6.413  1.00  0.00     0.186 A 
HETATM   14  N7  UNL     1     -23.583   8.747  -6.073  1.00  0.00    -0.306 N 
ENDROOT
BRANCH   4  15
HETATM   15  C3  UNL     1     -28.704   9.892  -3.558  1.00  0.00     0.285 C 
HETATM   16  O1  UNL     1     -28.546  10.358  -2.403  1.00  0.00    -0.264 OA
HETATM   17  N3  UNL     1     -29.968   9.422  -3.947  1.00  0.00    -0.352 N 
ATOM     18  H3  UNL     1     -30.052   9.046  -4.892  1.00  0.00     0.162 HD
BRANCH  17  19
HETATM   19  C4  UNL     1     -31.158   9.421  -3.135  1.00  0.00     0.158 C 
BRANCH  19  20
HETATM   20  C5  UNL     1     -32.379   9.913  -3.856  1.00  0.00     0.234 C 
BRANCH  20  21
HETATM   21  N4  UNL     1     -32.079  11.205  -4.480  1.00  0.00    -0.071 N 
ATOM     22  H43 UNL     1     -32.612  11.969  -4.065  1.00  0.00     0.274 HD
ATOM     23  H42 UNL     1     -31.143  11.539  -4.248  1.00  0.00     0.274 HD
ATOM     24  H41 UNL     1     -32.226  11.131  -5.487  1.00  0.00     0.274 HD
ENDBRANCH  20  21
BRANCH  20  25
HETATM   25  C6  UNL     1     -32.867   8.982  -4.935  1.00  0.00     0.204 C 
BRANCH  25  26
HETATM   26  O2  UNL     1     -32.544   7.685  -4.522  1.00  0.00    -0.388 OA
ATOM     27  H2  UNL     1     -33.345   7.299  -4.186  1.00  0.00     0.210 HD
ENDBRANCH  25  26
BRANCH  25  28
HETATM   28  C7  UNL     1     -34.347   9.167  -5.137  1.00  0.00     0.284 C 
BRANCH  28  29
HETATM   29  O3  UNL     1     -34.579   9.647  -6.403  1.00  0.00    -0.369 OA
ATOM     30  H3  UNL     1     -35.499   9.868  -6.493  1.00  0.00     0.212 HD
ENDBRANCH  28  29
BRANCH  28  31
HETATM   31  O4  UNL     1     -34.867  10.035  -4.152  1.00  0.00    -0.369 OA
ATOM     32  H4  UNL     1     -34.992   9.565  -3.335  1.00  0.00     0.212 HD
ENDBRANCH  28  31
ENDBRANCH  25  28
ENDBRANCH  20  25
ENDBRANCH  19  20
ENDBRANCH  17  19
ENDBRANCH   4  15
BRANCH   1  33
HETATM   33  N1  UNL     1     -25.511  12.642  -5.159  1.00  0.00    -0.384 N 
ATOM     34  H12 UNL     1     -26.263  13.264  -4.863  1.00  0.00     0.157 HD
ATOM     35  H11 UNL     1     -24.560  12.903  -5.418  1.00  0.00     0.157 HD
ENDBRANCH   1  33
BRANCH  14  36
HETATM   36  C12 UNL     1     -23.126   7.403  -6.220  1.00  0.00     0.264 C 
HETATM   37  O6  UNL     1     -21.752   7.414  -6.204  1.00  0.00    -0.331 OA
HETATM   38  C13 UNL     1     -21.232   6.877  -7.335  1.00  0.00     0.292 C 
HETATM   39  C14 UNL     1     -22.283   6.702  -8.368  1.00  0.00     0.232 C 
HETATM   40  C15 UNL     1     -23.556   6.890  -7.581  1.00  0.00     0.202 C 
BRANCH  38  41
HETATM   41  O7  UNL     1     -20.539   5.679  -7.062  1.00  0.00    -0.368 OA
ATOM     42  H7  UNL     1     -19.599   5.818  -7.053  1.00  0.00     0.212 HD
ENDBRANCH  38  41
BRANCH  39  43
HETATM   43  O8  UNL     1     -22.098   7.603  -9.386  1.00  0.00    -0.246 OA
BRANCH  43  44
HETATM   44  S1  UNL     1     -21.200   7.029 -10.655  1.00  0.00     0.356 S 
HETATM   45  O9  UNL     1     -21.952   7.320 -11.930  1.00  0.00    -0.176 OA
HETATM   46  O10 UNL     1     -21.078   5.535 -10.511  1.00  0.00    -0.176 OA
BRANCH  44  47
HETATM   47  N8  UNL     1     -19.661   7.791 -10.793  1.00  0.00    -0.306 N 
ATOM     48  H82 UNL     1     -18.956   7.740 -10.059  1.00  0.00     0.171 HD
ATOM     49  H81 UNL     1     -19.540   8.289 -11.675  1.00  0.00     0.171 HD
ENDBRANCH  44  47
ENDBRANCH  43  44
ENDBRANCH  39  43
BRANCH  40  50
HETATM   50  O11 UNL     1     -24.129   5.595  -7.490  1.00  0.00    -0.388 OA
ATOM     51  H11 UNL     1     -24.952   5.545  -7.962  1.00  0.00     0.210 HD
ENDBRANCH  40  50
ENDBRANCH  14  36
TORSDOF 16
ENDMDL
MODEL 3
REMARK VINA RESULT: -8.852977023      2.034      2.862
REMARK  16 active torsions:
REMARK  status: ('A' for Active; 'I' for Inactive)
REMARK    1  A    between atoms: N1_1  and  C1_4 
REMARK    2  A    between atoms: C2_7  and  C3_8 
REMARK       I    between atoms: C3_8  and  N3_10 
REMARK    3  A    between atoms: N3_10  and  C4_12 
REMARK    4  A    between atoms: C4_12  and  C5_13 
REMARK    5  A    between atoms: C5_13  and  N4_14 
REMARK    6  A    between atoms: C5_13  and  C6_18 
REMARK    7  A    between atoms: C6_18  and  O2_19 
REMARK    8  A    between atoms: C6_18  and  C7_21 
REMARK    9  A    between atoms: C7_21  and  O3_22 
REMARK   10  A    between atoms: C7_21  and  O4_24 
REMARK   11  A    between atoms: N7_35  and  C12_36 
REMARK   12  A    between atoms: C13_38  and  O7_39 
REMARK   13  A    between atoms: C14_41  and  O8_42 
REMARK   14  A    between atoms: O8_42  and  S1_43 
REMARK   15  A    between atoms: S1_43  and  N8_44 
REMARK   16  A    between atoms: C15_49  and  O11_50 
ROOT
HETATM    1  C1  UNL     1     -27.191   9.486  -3.616  1.00  0.00     0.130 C 
HETATM    2  N2  UNL     1     -25.908   9.261  -4.012  1.00  0.00    -0.322 N 
ATOM      3  H2  UNL     1     -25.179   9.658  -3.419  1.00  0.00     0.169 HD
HETATM    4  C2  UNL     1     -25.483   8.575  -5.095  1.00  0.00     0.179 C 
HETATM    5  N5  UNL     1     -26.137   7.540  -5.685  1.00  0.00    -0.303 N 
ATOM      6  H5  UNL     1     -25.554   6.807  -6.091  1.00  0.00     0.171 HD
HETATM    7  C8  UNL     1     -27.479   7.373  -5.795  1.00  0.00     0.276 C 
HETATM    8  O5  UNL     1     -27.833   6.736  -6.788  1.00  0.00    -0.266 OA
HETATM    9  C9  UNL     1     -28.475   7.814  -4.962  1.00  0.00     0.137 A 
HETATM   10  C10 UNL     1     -28.326   8.771  -3.985  1.00  0.00     0.110 A 
HETATM   11  N6  UNL     1     -29.536   8.893  -3.426  1.00  0.00    -0.347 N 
ATOM     12  H6  UNL     1     -29.774   9.526  -2.663  1.00  0.00     0.167 HD
HETATM   13  C11 UNL     1     -30.402   8.033  -4.042  1.00  0.00     0.186 A 
HETATM   14  N7  UNL     1     -29.756   7.354  -5.001  1.00  0.00    -0.306 N 
ENDROOT
BRANCH   4  15
HETATM   15  C3  UNL     1     -24.214   9.016  -5.626  1.00  0.00     0.285 C 
HETATM   16  O1  UNL     1     -23.276   9.257  -4.827  1.00  0.00    -0.264 OA
HETATM   17  N3  UNL     1     -24.008   9.180  -7.005  1.00  0.00    -0.352 N 
ATOM     18  H3  UNL     1     -24.797   8.978  -7.619  1.00  0.00     0.162 HD
BRANCH  17  19
HETATM   19  C4  UNL     1     -22.783   9.607  -7.632  1.00  0.00     0.158 C 
BRANCH  19  20
HETATM   20  C5  UNL     1     -22.908  10.906  -8.375  1.00  0.00     0.234 C 
BRANCH  20  21
HETATM   21  N4  UNL     1     -23.668  10.682  -9.607  1.00  0.00    -0.071 N 
ATOM     22  H43 UNL     1     -24.010  11.553 -10.016  1.00  0.00     0.274 HD
ATOM     23  H42 UNL     1     -23.074  10.383 -10.381  1.00  0.00     0.274 HD
ATOM     24  H41 UNL     1     -24.421  10.020  -9.419  1.00  0.00     0.274 HD
ENDBRANCH  20  21
BRANCH  20  25
HETATM   25  C6  UNL     1     -23.605  11.989  -7.594  1.00  0.00     0.204 C 
BRANCH  25  26
HETATM   26  O2  UNL     1     -23.000  12.027  -6.333  1.00  0.00    -0.388 OA
ATOM     27  H2  UNL     1     -23.434  12.716  -5.843  1.00  0.00     0.210 HD
ENDBRANCH  25  26
BRANCH  25  28
HETATM   28  C7  UNL     1     -23.486  13.300  -8.325  1.00  0.00     0.284 C 
BRANCH  28  29
HETATM   29  O3  UNL     1     -24.590  13.481  -9.121  1.00  0.00    -0.369 OA
ATOM     30  H3  UNL     1     -24.602  14.374  -9.447  1.00  0.00     0.212 HD
ENDBRANCH  28  29
BRANCH  28  31
HETATM   31  O4  UNL     1     -22.293  13.329  -9.081  1.00  0.00    -0.369 OA
ATOM     32  H4  UNL     1     -22.138  12.480  -9.479  1.00  0.00     0.212 HD
ENDBRANCH  28  31
ENDBRANCH  25  28
ENDBRANCH  20  25
ENDBRANCH  19  20
ENDBRANCH  17  19
ENDBRANCH   4  15
BRANCH   1  33
HETATM   33  N1  UNL     1     -27.435  10.448  -2.816  1.00  0.00    -0.384 N 
ATOM     34  H12 UNL     1     -28.116  10.214  -2.095  1.00  0.00     0.157 HD
ATOM     35  H11 UNL     1     -26.955  11.339  -2.948  1.00  0.00     0.157 HD
ENDBRANCH   1  33
BRANCH  14  36
HETATM   36  C12 UNL     1     -30.323   6.365  -5.859  1.00  0.00     0.264 C 
HETATM   37  O6  UNL     1     -30.738   6.987  -7.012  1.00  0.00    -0.331 OA
HETATM   38  C13 UNL     1     -32.062   6.800  -7.234  1.00  0.00     0.292 C 
HETATM   39  C14 UNL     1     -32.725   6.231  -6.034  1.00  0.00     0.232 C 
HETATM   40  C15 UNL     1     -31.555   5.789  -5.189  1.00  0.00     0.202 C 
BRANCH  38  41
HETATM   41  O7  UNL     1     -32.284   6.023  -8.391  1.00  0.00    -0.368 OA
ATOM     42  H7  UNL     1     -32.883   6.457  -8.988  1.00  0.00     0.212 HD
ENDBRANCH  38  41
BRANCH  39  43
HETATM   43  O8  UNL     1     -33.531   7.174  -5.449  1.00  0.00    -0.246 OA
BRANCH  43  44
HETATM   44  S1  UNL     1     -34.964   7.437  -6.242  1.00  0.00     0.356 S 
HETATM   45  O9  UNL     1     -34.659   8.151  -7.535  1.00  0.00    -0.176 OA
HETATM   46  O10 UNL     1     -35.815   8.343  -5.392  1.00  0.00    -0.176 OA
BRANCH  44  47
HETATM   47  N8  UNL     1     -35.784   5.980  -6.653  1.00  0.00    -0.306 N 
ATOM     48  H82 UNL     1     -35.664   5.517  -7.554  1.00  0.00     0.171 HD
ATOM     49  H81 UNL     1     -36.391   5.639  -5.907  1.00  0.00     0.171 HD
ENDBRANCH  44  47
ENDBRANCH  43  44
ENDBRANCH  39  43
BRANCH  40  50
HETATM   50  O11 UNL     1     -31.567   4.372  -5.255  1.00  0.00    -0.388 OA
ATOM     51  H11 UNL     1     -31.843   3.988  -4.431  1.00  0.00     0.210 HD
ENDBRANCH  40  50
ENDBRANCH  14  36
TORSDOF 16
ENDMDL
MODEL 4
REMARK VINA RESULT: -8.789254248      3.496      4.194
REMARK  16 active torsions:
REMARK  status: ('A' for Active; 'I' for Inactive)
REMARK    1  A    between atoms: N1_1  and  C1_4 
REMARK    2  A    between atoms: C2_7  and  C3_8 
REMARK       I    between atoms: C3_8  and  N3_10 
REMARK    3  A    between atoms: N3_10  and  C4_12 
REMARK    4  A    between atoms: C4_12  and  C5_13 
REMARK    5  A    between atoms: C5_13  and  N4_14 
REMARK    6  A    between atoms: C5_13  and  C6_18 
REMARK    7  A    between atoms: C6_18  and  O2_19 
REMARK    8  A    between atoms: C6_18  and  C7_21 
REMARK    9  A    between atoms: C7_21  and  O3_22 
REMARK   10  A    between atoms: C7_21  and  O4_24 
REMARK   11  A    between atoms: N7_35  and  C12_36 
REMARK   12  A    between atoms: C13_38  and  O7_39 
REMARK   13  A    between atoms: C14_41  and  O8_42 
REMARK   14  A    between atoms: O8_42  and  S1_43 
REMARK   15  A    between atoms: S1_43  and  N8_44 
REMARK   16  A    between atoms: C15_49  and  O11_50 
ROOT
HETATM    1  C1  UNL     1     -27.115   9.227  -3.891  1.00  0.00     0.130 C 
HETATM    2  N2  UNL     1     -25.894   8.869  -4.376  1.00  0.00    -0.322 N 
ATOM      3  H2  UNL     1     -25.088   9.180  -3.833  1.00  0.00     0.169 HD
HETATM    4  C2  UNL     1     -25.621   8.151  -5.486  1.00  0.00     0.179 C 
HETATM    5  N5  UNL     1     -26.421   7.198  -6.032  1.00  0.00    -0.303 N 
ATOM      6  H5  UNL     1     -25.950   6.410  -6.478  1.00  0.00     0.171 HD
HETATM    7  C8  UNL     1     -27.777   7.177  -6.049  1.00  0.00     0.276 C 
HETATM    8  O5  UNL     1     -28.265   6.591  -7.017  1.00  0.00    -0.266 OA
HETATM    9  C9  UNL     1     -28.661   7.715  -5.149  1.00  0.00     0.137 A 
HETATM   10  C10 UNL     1     -28.344   8.642  -4.183  1.00  0.00     0.110 A 
HETATM   11  N6  UNL     1     -29.492   8.888  -3.542  1.00  0.00    -0.347 N 
ATOM     12  H6  UNL     1     -29.608   9.536  -2.764  1.00  0.00     0.167 HD
HETATM   13  C11 UNL     1     -30.485   8.132  -4.099  1.00  0.00     0.186 A 
HETATM   14  N7  UNL     1     -29.983   7.396  -5.100  1.00  0.00    -0.306 N 
ENDROOT
BRANCH   4  15
HETATM   15  C3  UNL     1     -24.351   8.458  -6.102  1.00  0.00     0.285 C 
HETATM   16  O1  UNL     1     -23.409   8.862  -5.377  1.00  0.00    -0.264 OA
HETATM   17  N3  UNL     1     -24.147   8.316  -7.484  1.00  0.00    -0.352 N 
ATOM     18  H3  UNL     1     -24.939   7.990  -8.038  1.00  0.00     0.162 HD
BRANCH  17  19
HETATM   19  C4  UNL     1     -22.922   8.588  -8.191  1.00  0.00     0.158 C 
BRANCH  19  20
HETATM   20  C5  UNL     1     -22.293   7.367  -8.799  1.00  0.00     0.234 C 
BRANCH  20  21
HETATM   21  N4  UNL     1     -20.975   7.721  -9.332  1.00  0.00    -0.071 N 
ATOM     22  H43 UNL     1     -20.593   8.560  -8.894  1.00  0.00     0.274 HD
ATOM     23  H42 UNL     1     -20.250   7.065  -9.042  1.00  0.00     0.274 HD
ATOM     24  H41 UNL     1     -21.038   7.807 -10.346  1.00  0.00     0.274 HD
ENDBRANCH  20  21
BRANCH  20  25
HETATM   25  C6  UNL     1     -22.107   6.230  -7.829  1.00  0.00     0.204 C 
BRANCH  25  26
HETATM   26  O2  UNL     1     -21.839   5.089  -8.594  1.00  0.00    -0.388 OA
ATOM     27  H2  UNL     1     -20.898   4.960  -8.571  1.00  0.00     0.210 HD
ENDBRANCH  25  26
BRANCH  25  28
HETATM   28  C7  UNL     1     -20.989   6.554  -6.874  1.00  0.00     0.284 C 
BRANCH  28  29
HETATM   29  O3  UNL     1     -20.066   5.537  -6.890  1.00  0.00    -0.369 OA
ATOM     30  H3  UNL     1     -19.792   5.345  -6.001  1.00  0.00     0.212 HD
ENDBRANCH  28  29
BRANCH  28  31
HETATM   31  O4  UNL     1     -21.504   6.765  -5.576  1.00  0.00    -0.369 OA
ATOM     32  H4  UNL     1     -21.099   7.530  -5.185  1.00  0.00     0.212 HD
ENDBRANCH  28  31
ENDBRANCH  25  28
ENDBRANCH  20  25
ENDBRANCH  19  20
ENDBRANCH  17  19
ENDBRANCH   4  15
BRANCH   1  33
HETATM   33  N1  UNL     1     -27.199  10.203  -3.076  1.00  0.00    -0.384 N 
ATOM     34  H12 UNL     1     -26.314  10.689  -2.932  1.00  0.00     0.157 HD
ATOM     35  H11 UNL     1     -28.099  10.417  -2.646  1.00  0.00     0.157 HD
ENDBRANCH   1  33
BRANCH  14  36
HETATM   36  C12 UNL     1     -30.711   6.482  -5.919  1.00  0.00     0.264 C 
HETATM   37  O6  UNL     1     -31.042   7.124  -7.088  1.00  0.00    -0.331 OA
HETATM   38  C13 UNL     1     -32.382   7.141  -7.290  1.00  0.00     0.292 C 
HETATM   39  C14 UNL     1     -33.107   6.720  -6.065  1.00  0.00     0.232 C 
HETATM   40  C15 UNL     1     -32.008   6.127  -5.217  1.00  0.00     0.202 C 
BRANCH  38  41
HETATM   41  O7  UNL     1     -32.740   6.372  -8.418  1.00  0.00    -0.368 OA
ATOM     42  H7  UNL     1     -32.720   6.894  -9.212  1.00  0.00     0.212 HD
ENDBRANCH  38  41
BRANCH  39  43
HETATM   43  O8  UNL     1     -33.747   7.796  -5.504  1.00  0.00    -0.246 OA
BRANCH  43  44
HETATM   44  S1  UNL     1     -35.191   8.183  -6.221  1.00  0.00     0.356 S 
HETATM   45  O9  UNL     1     -34.981   9.421  -7.057  1.00  0.00    -0.176 OA
HETATM   46  O10 UNL     1     -36.184   8.510  -5.136  1.00  0.00    -0.176 OA
BRANCH  44  47
HETATM   47  N8  UNL     1     -35.771   6.954  -7.278  1.00  0.00    -0.306 N 
ATOM     48  H82 UNL     1     -35.159   6.441  -7.912  1.00  0.00     0.171 HD
ATOM     49  H81 UNL     1     -36.777   6.801  -7.198  1.00  0.00     0.171 HD
ENDBRANCH  44  47
ENDBRANCH  43  44
ENDBRANCH  39  43
BRANCH  40  50
HETATM   50  O11 UNL     1     -32.242   4.728  -5.236  1.00  0.00    -0.388 OA
ATOM     51  H11 UNL     1     -32.683   4.439  -4.445  1.00  0.00     0.210 HD
ENDBRANCH  40  50
ENDBRANCH  14  36
TORSDOF 16
ENDMDL
MODEL 5
REMARK VINA RESULT: -8.774027413      4.919      9.377
REMARK  16 active torsions:
REMARK  status: ('A' for Active; 'I' for Inactive)
REMARK    1  A    between atoms: N1_1  and  C1_4 
REMARK    2  A    between atoms: C2_7  and  C3_8 
REMARK       I    between atoms: C3_8  and  N3_10 
REMARK    3  A    between atoms: N3_10  and  C4_12 
REMARK    4  A    between atoms: C4_12  and  C5_13 
REMARK    5  A    between atoms: C5_13  and  N4_14 
REMARK    6  A    between atoms: C5_13  and  C6_18 
REMARK    7  A    between atoms: C6_18  and  O2_19 
REMARK    8  A    between atoms: C6_18  and  C7_21 
REMARK    9  A    between atoms: C7_21  and  O3_22 
REMARK   10  A    between atoms: C7_21  and  O4_24 
REMARK   11  A    between atoms: N7_35  and  C12_36 
REMARK   12  A    between atoms: C13_38  and  O7_39 
REMARK   13  A    between atoms: C14_41  and  O8_42 
REMARK   14  A    between atoms: O8_42  and  S1_43 
REMARK   15  A    between atoms: S1_43  and  N8_44 
REMARK   16  A    between atoms: C15_49  and  O11_50 
ROOT
HETATM    1  C1  UNL     1     -25.216  11.461  -5.880  1.00  0.00     0.130 C 
HETATM    2  N2  UNL     1     -26.421  11.249  -5.282  1.00  0.00    -0.322 N 
ATOM      3  H2  UNL     1     -27.062  12.044  -5.271  1.00  0.00     0.169 HD
HETATM    4  C2  UNL     1     -26.871  10.116  -4.701  1.00  0.00     0.179 C 
HETATM    5  N5  UNL     1     -26.513   8.852  -5.046  1.00  0.00    -0.303 N 
ATOM      6  H5  UNL     1     -27.233   8.135  -4.954  1.00  0.00     0.171 HD
HETATM    7  C8  UNL     1     -25.303   8.437  -5.498  1.00  0.00     0.276 C 
HETATM    8  O5  UNL     1     -25.027   7.270  -5.215  1.00  0.00    -0.266 OA
HETATM    9  C9  UNL     1     -24.363   9.133  -6.214  1.00  0.00     0.137 A 
HETATM   10  C10 UNL     1     -24.339  10.499  -6.373  1.00  0.00     0.110 A 
HETATM   11  N6  UNL     1     -23.263  10.746  -7.129  1.00  0.00    -0.347 N 
ATOM     12  H6  UNL     1     -22.953  11.669  -7.434  1.00  0.00     0.167 HD
HETATM   13  C11 UNL     1     -22.645   9.564  -7.426  1.00  0.00     0.186 A 
HETATM   14  N7  UNL     1     -23.318   8.550  -6.863  1.00  0.00    -0.306 N 
ENDROOT
BRANCH   4  15
HETATM   15  C3  UNL     1     -27.821  10.325  -3.633  1.00  0.00     0.285 C 
HETATM   16  O1  UNL     1     -27.650  11.294  -2.853  1.00  0.00    -0.264 OA
HETATM   17  N3  UNL     1     -28.922   9.474  -3.447  1.00  0.00    -0.352 N 
ATOM     18  H3  UNL     1     -29.021   8.696  -4.099  1.00  0.00     0.162 HD
BRANCH  17  19
HETATM   19  C4  UNL     1     -29.925   9.599  -2.421  1.00  0.00     0.158 C 
BRANCH  19  20
HETATM   20  C5  UNL     1     -31.132  10.381  -2.850  1.00  0.00     0.234 C 
BRANCH  20  21
HETATM   21  N4  UNL     1     -30.697  11.552  -3.616  1.00  0.00    -0.071 N 
ATOM     22  H43 UNL     1     -30.526  11.332  -4.597  1.00  0.00     0.274 HD
ATOM     23  H42 UNL     1     -31.448  12.230  -3.749  1.00  0.00     0.274 HD
ATOM     24  H41 UNL     1     -29.881  11.963  -3.162  1.00  0.00     0.274 HD
ENDBRANCH  20  21
BRANCH  20  25
HETATM   25  C6  UNL     1     -32.091   9.600  -3.710  1.00  0.00     0.204 C 
BRANCH  25  26
HETATM   26  O2  UNL     1     -33.374  10.071  -3.411  1.00  0.00    -0.388 OA
ATOM     27  H2  UNL     1     -33.920   9.306  -3.270  1.00  0.00     0.210 HD
ENDBRANCH  25  26
BRANCH  25  28
HETATM   28  C7  UNL     1     -31.738   9.783  -5.162  1.00  0.00     0.284 C 
BRANCH  28  29
HETATM   29  O3  UNL     1     -32.497  10.797  -5.691  1.00  0.00    -0.369 OA
ATOM     30  H3  UNL     1     -32.387  11.582  -5.166  1.00  0.00     0.212 HD
ENDBRANCH  28  29
BRANCH  28  31
HETATM   31  O4  UNL     1     -31.928   8.573  -5.865  1.00  0.00    -0.369 OA
ATOM     32  H4  UNL     1     -32.352   7.933  -5.305  1.00  0.00     0.212 HD
ENDBRANCH  28  31
ENDBRANCH  25  28
ENDBRANCH  20  25
ENDBRANCH  19  20
ENDBRANCH  17  19
ENDBRANCH   4  15
BRANCH   1  33
HETATM   33  N1  UNL     1     -24.798  12.655  -6.031  1.00  0.00    -0.384 N 
ATOM     34  H12 UNL     1     -23.988  12.878  -5.453  1.00  0.00     0.157 HD
ATOM     35  H11 UNL     1     -25.279  13.272  -6.686  1.00  0.00     0.157 HD
ENDBRANCH   1  33
BRANCH  14  36
HETATM   36  C12 UNL     1     -22.982   7.167  -6.950  1.00  0.00     0.264 C 
HETATM   37  O6  UNL     1     -21.695   7.009  -6.495  1.00  0.00    -0.331 OA
HETATM   38  C13 UNL     1     -20.895   6.449  -7.435  1.00  0.00     0.292 C 
HETATM   39  C14 UNL     1     -21.565   6.436  -8.760  1.00  0.00     0.232 C 
HETATM   40  C15 UNL     1     -22.998   6.753  -8.409  1.00  0.00     0.202 C 
BRANCH  38  41
HETATM   41  O7  UNL     1     -20.458   5.167  -7.039  1.00  0.00    -0.368 OA
ATOM     42  H7  UNL     1     -20.673   4.512  -7.693  1.00  0.00     0.212 HD
ENDBRANCH  38  41
BRANCH  39  43
HETATM   43  O8  UNL     1     -20.965   7.339  -9.600  1.00  0.00    -0.246 OA
BRANCH  43  44
HETATM   44  S1  UNL     1     -20.687   6.771 -11.132  1.00  0.00     0.356 S 
HETATM   45  O9  UNL     1     -19.228   6.984 -11.452  1.00  0.00    -0.176 OA
HETATM   46  O10 UNL     1     -21.505   7.590 -12.095  1.00  0.00    -0.176 OA
BRANCH  44  47
HETATM   47  N8  UNL     1     -20.997   5.085 -11.293  1.00  0.00    -0.306 N 
ATOM     48  H82 UNL     1     -21.435   4.534 -10.555  1.00  0.00     0.171 HD
ATOM     49  H81 UNL     1     -20.699   4.708 -12.192  1.00  0.00     0.171 HD
ENDBRANCH  44  47
ENDBRANCH  43  44
ENDBRANCH  39  43
BRANCH  40  50
HETATM   50  O11 UNL     1     -23.702   5.535  -8.596  1.00  0.00    -0.388 OA
ATOM     51  H11 UNL     1     -23.430   4.877  -7.967  1.00  0.00     0.210 HD
ENDBRANCH  40  50
ENDBRANCH  14  36
TORSDOF 16
ENDMDL
