MODEL 1
REMARK VINA RESULT: -9.162388129      0.000      0.000
REMARK  15 active torsions:
REMARK  status: ('A' for Active; 'I' for Inactive)
REMARK    1  A    between atoms: N1_1  and  C1_5 
REMARK    2  A    between atoms: C3_7  and  N2_8 
REMARK    3  A    between atoms: C4_12  and  O1_13 
REMARK    4  A    between atoms: O1_13  and  C5_14 
REMARK    5  A    between atoms: C5_14  and  C6_15 
REMARK    6  A    between atoms: C7_17  and  N3_18 
REMARK    7  A    between atoms: C13_31  and  O4_32 
REMARK    8  A    between atoms: N7_34  and  N8_35 
REMARK    9  A    between atoms: C14_38  and  N9_39 
REMARK       I    between atoms: N9_39  and  C15_41 
REMARK   10  A    between atoms: C15_41  and  C16_43 
REMARK   11  A    between atoms: C16_43  and  O6_44 
REMARK   12  A    between atoms: C16_43  and  C17_46 
REMARK   13  A    between atoms: C17_46  and  O7_47 
REMARK   14  A    between atoms: C17_46  and  O8_49 
REMARK   15  A    between atoms: C18_51  and  O9_52 
ROOT
HETATM    1  C1  UNL     1     -34.939   6.354 -10.127  1.00  0.00     0.216 C 
HETATM    2  C2  UNL     1     -34.489   4.925  -9.940  1.00  0.00     0.070 C 
HETATM    3  C3  UNL     1     -33.445   4.985  -8.819  1.00  0.00     0.216 C 
HETATM    4  C4  UNL     1     -33.988   5.482  -7.529  1.00  0.00     0.177 C 
HETATM    5  C14 UNL     1     -35.026   6.544  -7.603  1.00  0.00     0.146 C 
HETATM    6  C18 UNL     1     -35.684   6.766  -8.910  1.00  0.00     0.173 C 
ENDROOT
BRANCH   4   7
HETATM    7  O1  UNL     1     -32.890   6.021  -6.822  1.00  0.00    -0.378 OA
BRANCH   7   8
HETATM    8  C5  UNL     1     -32.415   5.183  -5.845  1.00  0.00     0.217 C 
BRANCH   8   9
HETATM    9  C6  UNL     1     -30.910   5.251  -5.885  1.00  0.00     0.244 C 
HETATM   10  O2  UNL     1     -30.425   6.464  -5.397  1.00  0.00    -0.338 OA
HETATM   11  C7  UNL     1     -29.041   6.153  -5.422  1.00  0.00     0.277 C 
HETATM   12  C13 UNL     1     -29.032   4.889  -4.600  1.00  0.00     0.263 C 
HETATM   13  N7  UNL     1     -30.261   4.234  -5.081  1.00  0.00    -0.174 NA
BRANCH  11  14
HETATM   14  N3  UNL     1     -28.253   7.217  -4.882  1.00  0.00    -0.296 N 
HETATM   15  C8  UNL     1     -26.959   7.506  -5.063  1.00  0.00     0.188 A 
HETATM   16  N4  UNL     1     -26.626   8.612  -4.349  1.00  0.00    -0.345 N 
HETATM   17  C9  UNL     1     -27.709   9.044  -3.702  1.00  0.00     0.146 A 
ATOM     18  H4  UNL     1     -25.701   9.042  -4.314  1.00  0.00     0.167 HD
HETATM   19  C10 UNL     1     -27.923  10.107  -2.851  1.00  0.00     0.277 A 
HETATM   20  C12 UNL     1     -28.728   8.157  -4.045  1.00  0.00     0.144 A 
HETATM   21  O3  UNL     1     -27.043  10.929  -2.513  1.00  0.00    -0.266 OA
HETATM   22  N5  UNL     1     -29.170  10.263  -2.356  1.00  0.00    -0.318 N 
HETATM   23  C11 UNL     1     -30.168   9.425  -2.670  1.00  0.00     0.185 A 
ATOM     24  H5  UNL     1     -29.358  11.041  -1.724  1.00  0.00     0.169 HD
HETATM   25  N6  UNL     1     -29.938   8.404  -3.493  1.00  0.00    -0.336 N 
ATOM     26  H6  UNL     1     -30.712   7.778  -3.718  1.00  0.00     0.168 HD
ENDBRANCH  11  14
BRANCH  12  27
HETATM   27  O4  UNL     1     -29.150   5.232  -3.267  1.00  0.00    -0.375 OA
ATOM     28  H4  UNL     1     -29.459   4.473  -2.786  1.00  0.00     0.211 HD
ENDBRANCH  12  27
BRANCH  13  29
HETATM   29  N8  UNL     1     -31.045   3.803  -4.017  1.00  0.00    -0.359 NA
ATOM     30  H82 UNL     1     -30.475   3.343  -3.307  1.00  0.00     0.171 HD
ATOM     31  H81 UNL     1     -31.493   4.570  -3.516  1.00  0.00     0.171 HD
ENDBRANCH  13  29
ENDBRANCH   8   9
ENDBRANCH   7   8
ENDBRANCH   4   7
BRANCH   3  32
HETATM   32  N2  UNL     1     -32.912   3.649  -8.697  1.00  0.00    -0.072 N 
ATOM     33  H23 UNL     1     -33.187   3.178  -7.835  1.00  0.00     0.274 HD
ATOM     34  H22 UNL     1     -33.335   2.981  -9.342  1.00  0.00     0.274 HD
ATOM     35  H21 UNL     1     -31.902   3.736  -8.807  1.00  0.00     0.274 HD
ENDBRANCH   3  32
BRANCH   5  36
HETATM   36  N9  UNL     1     -34.534   7.813  -7.049  1.00  0.00    -0.349 N 
HETATM   37  C15 UNL     1     -35.110   8.439  -5.917  1.00  0.00     0.251 C 
HETATM   38  O5  UNL     1     -36.086   7.873  -5.372  1.00  0.00    -0.270 OA
ATOM     39  H9  UNL     1     -33.739   8.265  -7.501  1.00  0.00     0.163 HD
BRANCH  37  40
HETATM   40  C16 UNL     1     -34.591   9.718  -5.383  1.00  0.00     0.264 C 
BRANCH  40  41
HETATM   41  O6  UNL     1     -35.424  10.275  -4.433  1.00  0.00    -0.381 OA
ATOM     42  H6  UNL     1     -35.098  10.161  -3.548  1.00  0.00     0.210 HD
ENDBRANCH  40  41
BRANCH  40  43
HETATM   43  C17 UNL     1     -33.172   9.490  -4.847  1.00  0.00     0.291 C 
BRANCH  43  44
HETATM   44  O7  UNL     1     -32.317  10.276  -5.627  1.00  0.00    -0.368 OA
ATOM     45  H7  UNL     1     -31.460   9.867  -5.589  1.00  0.00     0.212 HD
ENDBRANCH  43  44
BRANCH  43  46
HETATM   46  O8  UNL     1     -32.825   8.163  -4.846  1.00  0.00    -0.368 OA
ATOM     47  H8  UNL     1     -31.888   8.037  -4.939  1.00  0.00     0.212 HD
ENDBRANCH  43  46
ENDBRANCH  40  43
ENDBRANCH  37  40
ENDBRANCH   5  36
BRANCH   6  48
HETATM   48  O9  UNL     1     -36.949   6.188  -8.930  1.00  0.00    -0.391 OA
ATOM     49  H9  UNL     1     -37.206   5.968  -8.042  1.00  0.00     0.210 HD
ENDBRANCH   6  48
BRANCH   1  50
HETATM   50  N1  UNL     1     -33.813   7.163 -10.472  1.00  0.00    -0.072 N 
ATOM     51  H13 UNL     1     -33.714   7.277 -11.481  1.00  0.00     0.274 HD
ATOM     52  H12 UNL     1     -33.954   8.144 -10.229  1.00  0.00     0.274 HD
ATOM     53  H11 UNL     1     -32.973   6.776 -10.043  1.00  0.00     0.274 HD
ENDBRANCH   1  50
TORSDOF 15
ENDMDL
MODEL 2
REMARK VINA RESULT: -9.148403664      2.079      4.932
REMARK  15 active torsions:
REMARK  status: ('A' for Active; 'I' for Inactive)
REMARK    1  A    between atoms: N1_1  and  C1_5 
REMARK    2  A    between atoms: C3_7  and  N2_8 
REMARK    3  A    between atoms: C4_12  and  O1_13 
REMARK    4  A    between atoms: O1_13  and  C5_14 
REMARK    5  A    between atoms: C5_14  and  C6_15 
REMARK    6  A    between atoms: C7_17  and  N3_18 
REMARK    7  A    between atoms: C13_31  and  O4_32 
REMARK    8  A    between atoms: N7_34  and  N8_35 
REMARK    9  A    between atoms: C14_38  and  N9_39 
REMARK       I    between atoms: N9_39  and  C15_41 
REMARK   10  A    between atoms: C15_41  and  C16_43 
REMARK   11  A    between atoms: C16_43  and  O6_44 
REMARK   12  A    between atoms: C16_43  and  C17_46 
REMARK   13  A    between atoms: C17_46  and  O7_47 
REMARK   14  A    between atoms: C17_46  and  O8_49 
REMARK   15  A    between atoms: C18_51  and  O9_52 
ROOT
HETATM    1  C1  UNL     1     -35.084   6.213  -7.461  1.00  0.00     0.216 C 
HETATM    2  C2  UNL     1     -35.176   7.714  -7.596  1.00  0.00     0.070 C 
HETATM    3  C3  UNL     1     -34.537   8.263  -6.316  1.00  0.00     0.216 C 
HETATM    4  C4  UNL     1     -33.107   7.890  -6.161  1.00  0.00     0.177 C 
HETATM    5  C14 UNL     1     -32.711   6.540  -6.640  1.00  0.00     0.146 C 
HETATM    6  C18 UNL     1     -33.651   5.830  -7.536  1.00  0.00     0.173 C 
ENDROOT
BRANCH   4   7
HETATM    7  O1  UNL     1     -32.838   7.934  -4.774  1.00  0.00    -0.378 OA
BRANCH   7   8
HETATM    8  C5  UNL     1     -32.203   9.088  -4.386  1.00  0.00     0.217 C 
BRANCH   8   9
HETATM    9  C6  UNL     1     -30.919   8.688  -3.707  1.00  0.00     0.244 C 
HETATM   10  O2  UNL     1     -29.819   8.789  -4.558  1.00  0.00    -0.338 OA
HETATM   11  C7  UNL     1     -28.802   8.510  -3.610  1.00  0.00     0.277 C 
HETATM   12  C13 UNL     1     -29.113   9.551  -2.565  1.00  0.00     0.263 C 
HETATM   13  N7  UNL     1     -30.586   9.513  -2.561  1.00  0.00    -0.174 NA
BRANCH  11  14
HETATM   14  N3  UNL     1     -27.499   8.621  -4.189  1.00  0.00    -0.296 N 
HETATM   15  C8  UNL     1     -26.453   9.368  -3.814  1.00  0.00     0.188 A 
HETATM   16  N4  UNL     1     -25.410   9.163  -4.660  1.00  0.00    -0.345 N 
HETATM   17  C9  UNL     1     -25.781   8.279  -5.587  1.00  0.00     0.146 A 
ATOM     18  H4  UNL     1     -24.496   9.610  -4.596  1.00  0.00     0.167 HD
HETATM   19  C10 UNL     1     -25.121   7.728  -6.664  1.00  0.00     0.277 A 
HETATM   20  C12 UNL     1     -27.099   7.945  -5.280  1.00  0.00     0.144 A 
HETATM   21  O3  UNL     1     -23.940   7.995  -6.982  1.00  0.00    -0.266 OA
HETATM   22  N5  UNL     1     -25.803   6.842  -7.422  1.00  0.00    -0.318 N 
HETATM   23  C11 UNL     1     -27.071   6.504  -7.149  1.00  0.00     0.185 A 
ATOM     24  H5  UNL     1     -25.340   6.419  -8.226  1.00  0.00     0.169 HD
HETATM   25  N6  UNL     1     -27.689   7.048  -6.103  1.00  0.00    -0.336 N 
ATOM     26  H6  UNL     1     -28.654   6.777  -5.914  1.00  0.00     0.168 HD
ENDBRANCH  11  14
BRANCH  12  27
HETATM   27  O4  UNL     1     -28.656  10.775  -3.015  1.00  0.00    -0.375 OA
ATOM     28  H4  UNL     1     -28.151  11.182  -2.321  1.00  0.00     0.211 HD
ENDBRANCH  12  27
BRANCH  13  29
HETATM   29  N8  UNL     1     -31.117  10.794  -2.645  1.00  0.00    -0.359 NA
ATOM     30  H82 UNL     1     -32.033  10.840  -2.197  1.00  0.00     0.171 HD
ATOM     31  H81 UNL     1     -30.563  11.489  -2.144  1.00  0.00     0.171 HD
ENDBRANCH  13  29
ENDBRANCH   8   9
ENDBRANCH   7   8
ENDBRANCH   4   7
BRANCH   3  32
HETATM   32  N2  UNL     1     -34.714   9.695  -6.363  1.00  0.00    -0.072 N 
ATOM     33  H23 UNL     1     -34.091  10.161  -7.023  1.00  0.00     0.274 HD
ATOM     34  H22 UNL     1     -35.592   9.982  -6.797  1.00  0.00     0.274 HD
ATOM     35  H21 UNL     1     -34.609  10.024  -5.403  1.00  0.00     0.274 HD
ENDBRANCH   3  32
BRANCH   5  36
HETATM   36  N9  UNL     1     -32.304   5.673  -5.526  1.00  0.00    -0.349 N 
HETATM   37  C15 UNL     1     -30.970   5.242  -5.327  1.00  0.00     0.251 C 
HETATM   38  O5  UNL     1     -30.104   5.626  -6.148  1.00  0.00    -0.270 OA
ATOM     39  H9  UNL     1     -33.017   5.366  -4.864  1.00  0.00     0.163 HD
BRANCH  37  40
HETATM   40  C16 UNL     1     -30.592   4.369  -4.193  1.00  0.00     0.264 C 
BRANCH  40  41
HETATM   41  O6  UNL     1     -31.494   3.344  -3.988  1.00  0.00    -0.381 OA
ATOM     42  H6  UNL     1     -31.292   2.570  -4.500  1.00  0.00     0.210 HD
ENDBRANCH  40  41
BRANCH  40  43
HETATM   43  C17 UNL     1     -29.167   3.849  -4.423  1.00  0.00     0.291 C 
BRANCH  43  44
HETATM   44  O7  UNL     1     -29.029   2.698  -3.639  1.00  0.00    -0.368 OA
ATOM     45  H7  UNL     1     -29.642   2.059  -3.984  1.00  0.00     0.212 HD
ENDBRANCH  43  44
BRANCH  43  46
HETATM   46  O8  UNL     1     -28.218   4.800  -4.147  1.00  0.00    -0.368 OA
ATOM     47  H8  UNL     1     -27.362   4.560  -4.481  1.00  0.00     0.212 HD
ENDBRANCH  43  46
ENDBRANCH  40  43
ENDBRANCH  37  40
ENDBRANCH   5  36
BRANCH   6  48
HETATM   48  O9  UNL     1     -33.225   5.907  -8.859  1.00  0.00    -0.391 OA
ATOM     49  H9  UNL     1     -32.280   5.813  -8.889  1.00  0.00     0.210 HD
ENDBRANCH   6  48
BRANCH   1  50
HETATM   50  N1  UNL     1     -35.778   5.799  -6.283  1.00  0.00    -0.072 N 
ATOM     51  H13 UNL     1     -35.473   6.313  -5.456  1.00  0.00     0.274 HD
ATOM     52  H12 UNL     1     -36.754   6.094  -6.285  1.00  0.00     0.274 HD
ATOM     53  H11 UNL     1     -35.680   4.790  -6.168  1.00  0.00     0.274 HD
ENDBRANCH   1  50
TORSDOF 15
ENDMDL
MODEL 3
REMARK VINA RESULT: -9.141351467      3.130      8.615
REMARK  15 active torsions:
REMARK  status: ('A' for Active; 'I' for Inactive)
REMARK    1  A    between atoms: N1_1  and  C1_5 
REMARK    2  A    between atoms: C3_7  and  N2_8 
REMARK    3  A    between atoms: C4_12  and  O1_13 
REMARK    4  A    between atoms: O1_13  and  C5_14 
REMARK    5  A    between atoms: C5_14  and  C6_15 
REMARK    6  A    between atoms: C7_17  and  N3_18 
REMARK    7  A    between atoms: C13_31  and  O4_32 
REMARK    8  A    between atoms: N7_34  and  N8_35 
REMARK    9  A    between atoms: C14_38  and  N9_39 
REMARK       I    between atoms: N9_39  and  C15_41 
REMARK   10  A    between atoms: C15_41  and  C16_43 
REMARK   11  A    between atoms: C16_43  and  O6_44 
REMARK   12  A    between atoms: C16_43  and  C17_46 
REMARK   13  A    between atoms: C17_46  and  O7_47 
REMARK   14  A    between atoms: C17_46  and  O8_49 
REMARK   15  A    between atoms: C18_51  and  O9_52 
ROOT
HETATM    1  C1  UNL     1     -25.886  11.696  -4.435  1.00  0.00     0.216 C 
HETATM    2  C2  UNL     1     -26.732  11.306  -3.247  1.00  0.00     0.070 C 
HETATM    3  C3  UNL     1     -27.490  10.052  -3.699  1.00  0.00     0.216 C 
HETATM    4  C4  UNL     1     -26.600   8.913  -4.040  1.00  0.00     0.177 C 
HETATM    5  C14 UNL     1     -25.305   9.245  -4.691  1.00  0.00     0.146 C 
HETATM    6  C18 UNL     1     -24.849  10.651  -4.626  1.00  0.00     0.173 C 
ENDROOT
BRANCH   4   7
HETATM    7  O1  UNL     1     -27.326   8.104  -4.944  1.00  0.00    -0.378 OA
BRANCH   7   8
HETATM    8  C5  UNL     1     -27.442   6.802  -4.527  1.00  0.00     0.217 C 
BRANCH   8   9
HETATM    9  C6  UNL     1     -28.888   6.408  -4.680  1.00  0.00     0.244 C 
HETATM   10  O2  UNL     1     -29.752   7.479  -4.458  1.00  0.00    -0.338 OA
HETATM   11  C7  UNL     1     -30.965   6.840  -4.822  1.00  0.00     0.277 C 
HETATM   12  C13 UNL     1     -30.614   6.359  -6.206  1.00  0.00     0.263 C 
HETATM   13  N7  UNL     1     -29.220   5.923  -6.006  1.00  0.00    -0.174 NA
BRANCH  11  14
HETATM   14  N3  UNL     1     -32.072   7.745  -4.771  1.00  0.00    -0.296 N 
HETATM   15  C8  UNL     1     -32.188   8.927  -4.154  1.00  0.00     0.188 A 
HETATM   16  N4  UNL     1     -33.425   9.444  -4.371  1.00  0.00    -0.345 N 
HETATM   17  C9  UNL     1     -34.115   8.593  -5.132  1.00  0.00     0.146 A 
ATOM     18  H4  UNL     1     -33.769  10.334  -4.012  1.00  0.00     0.167 HD
HETATM   19  C10 UNL     1     -35.397   8.625  -5.638  1.00  0.00     0.277 A 
HETATM   20  C12 UNL     1     -33.252   7.526  -5.378  1.00  0.00     0.144 A 
HETATM   21  O3  UNL     1     -36.209   9.558  -5.446  1.00  0.00    -0.266 OA
HETATM   22  N5  UNL     1     -35.793   7.575  -6.389  1.00  0.00    -0.318 N 
HETATM   23  C11 UNL     1     -34.983   6.537  -6.641  1.00  0.00     0.185 A 
ATOM     24  H5  UNL     1     -36.737   7.572  -6.776  1.00  0.00     0.169 HD
HETATM   25  N6  UNL     1     -33.749   6.527  -6.142  1.00  0.00    -0.336 N 
ATOM     26  H6  UNL     1     -33.150   5.727  -6.345  1.00  0.00     0.168 HD
ENDBRANCH  11  14
BRANCH  12  27
HETATM   27  O4  UNL     1     -30.671   7.434  -7.072  1.00  0.00    -0.375 OA
ATOM     28  H4  UNL     1     -29.922   7.392  -7.655  1.00  0.00     0.211 HD
ENDBRANCH  12  27
BRANCH  13  29
HETATM   29  N8  UNL     1     -28.391   6.439  -6.994  1.00  0.00    -0.359 NA
ATOM     30  H82 UNL     1     -27.826   7.207  -6.632  1.00  0.00     0.171 HD
ATOM     31  H81 UNL     1     -27.704   5.763  -7.331  1.00  0.00     0.171 HD
ENDBRANCH  13  29
ENDBRANCH   8   9
ENDBRANCH   7   8
ENDBRANCH   4   7
BRANCH   3  32
HETATM   32  N2  UNL     1     -28.395   9.723  -2.623  1.00  0.00    -0.072 N 
ATOM     33  H23 UNL     1     -28.067   8.955  -2.037  1.00  0.00     0.274 HD
ATOM     34  H22 UNL     1     -28.431  10.432  -1.890  1.00  0.00     0.274 HD
ATOM     35  H21 UNL     1     -29.299   9.543  -3.060  1.00  0.00     0.274 HD
ENDBRANCH   3  32
BRANCH   5  36
HETATM   36  N9  UNL     1     -25.258   8.748  -6.073  1.00  0.00    -0.349 N 
HETATM   37  C15 UNL     1     -24.105   8.157  -6.645  1.00  0.00     0.251 C 
HETATM   38  O5  UNL     1     -23.083   8.059  -5.927  1.00  0.00    -0.270 OA
ATOM     39  H9  UNL     1     -26.096   8.834  -6.649  1.00  0.00     0.163 HD
BRANCH  37  40
HETATM   40  C16 UNL     1     -24.091   7.666  -8.041  1.00  0.00     0.264 C 
BRANCH  40  41
HETATM   41  O6  UNL     1     -22.916   7.972  -8.700  1.00  0.00    -0.381 OA
ATOM     42  H6  UNL     1     -23.065   8.334  -9.566  1.00  0.00     0.210 HD
ENDBRANCH  40  41
BRANCH  40  43
HETATM   43  C17 UNL     1     -24.378   6.159  -8.039  1.00  0.00     0.291 C 
BRANCH  43  44
HETATM   44  O7  UNL     1     -25.634   5.991  -7.445  1.00  0.00    -0.368 OA
ATOM     45  H7  UNL     1     -25.485   5.557  -6.613  1.00  0.00     0.212 HD
ENDBRANCH  43  44
BRANCH  43  46
HETATM   46  O8  UNL     1     -23.390   5.444  -7.411  1.00  0.00    -0.368 OA
ATOM     47  H8  UNL     1     -22.550   5.537  -7.844  1.00  0.00     0.212 HD
ENDBRANCH  43  46
ENDBRANCH  40  43
ENDBRANCH  37  40
ENDBRANCH   5  36
BRANCH   6  48
HETATM   48  O9  UNL     1     -23.860  10.804  -3.659  1.00  0.00    -0.391 OA
ATOM     49  H9  UNL     1     -24.169  10.442  -2.836  1.00  0.00     0.210 HD
ENDBRANCH   6  48
BRANCH   1  50
HETATM   50  N1  UNL     1     -26.733  11.945  -5.559  1.00  0.00    -0.072 N 
ATOM     51  H13 UNL     1     -27.705  12.092  -5.285  1.00  0.00     0.274 HD
ATOM     52  H12 UNL     1     -26.560  12.858  -5.979  1.00  0.00     0.274 HD
ATOM     53  H11 UNL     1     -26.634  11.185  -6.233  1.00  0.00     0.274 HD
ENDBRANCH   1  50
TORSDOF 15
ENDMDL
MODEL 4
REMARK VINA RESULT: -9.139085457      1.956      4.572
REMARK  15 active torsions:
REMARK  status: ('A' for Active; 'I' for Inactive)
REMARK    1  A    between atoms: N1_1  and  C1_5 
REMARK    2  A    between atoms: C3_7  and  N2_8 
REMARK    3  A    between atoms: C4_12  and  O1_13 
REMARK    4  A    between atoms: O1_13  and  C5_14 
REMARK    5  A    between atoms: C5_14  and  C6_15 
REMARK    6  A    between atoms: C7_17  and  N3_18 
REMARK    7  A    between atoms: C13_31  and  O4_32 
REMARK    8  A    between atoms: N7_34  and  N8_35 
REMARK    9  A    between atoms: C14_38  and  N9_39 
REMARK       I    between atoms: N9_39  and  C15_41 
REMARK   10  A    between atoms: C15_41  and  C16_43 
REMARK   11  A    between atoms: C16_43  and  O6_44 
REMARK   12  A    between atoms: C16_43  and  C17_46 
REMARK   13  A    between atoms: C17_46  and  O7_47 
REMARK   14  A    between atoms: C17_46  and  O8_49 
REMARK   15  A    between atoms: C18_51  and  O9_52 
ROOT
HETATM    1  C1  UNL     1     -35.242   4.841  -8.266  1.00  0.00     0.216 C 
HETATM    2  C2  UNL     1     -35.502   6.274  -8.664  1.00  0.00     0.070 C 
HETATM    3  C3  UNL     1     -35.082   7.103  -7.444  1.00  0.00     0.216 C 
HETATM    4  C4  UNL     1     -33.644   6.962  -7.099  1.00  0.00     0.177 C 
HETATM    5  C14 UNL     1     -33.034   5.621  -7.303  1.00  0.00     0.146 C 
HETATM    6  C18 UNL     1     -33.774   4.655  -8.145  1.00  0.00     0.173 C 
ENDROOT
BRANCH   4   7
HETATM    7  O1  UNL     1     -33.539   7.262  -5.722  1.00  0.00    -0.378 OA
BRANCH   7   8
HETATM    8  C5  UNL     1     -33.163   8.560  -5.482  1.00  0.00     0.217 C 
BRANCH   8   9
HETATM    9  C6  UNL     1     -32.180   8.539  -4.339  1.00  0.00     0.244 C 
HETATM   10  O2  UNL     1     -30.862   8.652  -4.778  1.00  0.00    -0.338 OA
HETATM   11  C7  UNL     1     -30.235   8.757  -3.510  1.00  0.00     0.277 C 
HETATM   12  C13 UNL     1     -30.995   9.922  -2.928  1.00  0.00     0.263 C 
HETATM   13  N7  UNL     1     -32.360   9.629  -3.399  1.00  0.00    -0.174 NA
BRANCH  11  14
HETATM   14  N3  UNL     1     -28.826   8.971  -3.635  1.00  0.00    -0.296 N 
HETATM   15  C8  UNL     1     -28.018   9.792  -2.954  1.00  0.00     0.188 A 
HETATM   16  N4  UNL     1     -26.745   9.673  -3.411  1.00  0.00    -0.345 N 
HETATM   17  C9  UNL     1     -26.727   8.771  -4.394  1.00  0.00     0.146 A 
ATOM     18  H4  UNL     1     -25.936  10.187  -3.061  1.00  0.00     0.167 HD
HETATM   19  C10 UNL     1     -25.713   8.281  -5.189  1.00  0.00     0.277 A 
HETATM   20  C12 UNL     1     -28.045   8.337  -4.526  1.00  0.00     0.144 A 
HETATM   21  O3  UNL     1     -24.517   8.639  -5.110  1.00  0.00    -0.266 OA
HETATM   22  N5  UNL     1     -26.044   7.354  -6.113  1.00  0.00    -0.318 N 
HETATM   23  C11 UNL     1     -27.303   6.918  -6.261  1.00  0.00     0.185 A 
ATOM     24  H5  UNL     1     -25.315   6.973  -6.716  1.00  0.00     0.169 HD
HETATM   25  N6  UNL     1     -28.267   7.405  -5.482  1.00  0.00    -0.336 N 
ATOM     26  H6  UNL     1     -29.218   7.060  -5.612  1.00  0.00     0.168 HD
ENDBRANCH  11  14
BRANCH  12  27
HETATM   27  O4  UNL     1     -30.519  11.086  -3.499  1.00  0.00    -0.375 OA
ATOM     28  H4  UNL     1     -30.803  11.821  -2.968  1.00  0.00     0.211 HD
ENDBRANCH  12  27
BRANCH  13  29
HETATM   29  N8  UNL     1     -32.938  10.753  -3.977  1.00  0.00    -0.359 NA
ATOM     30  H82 UNL     1     -32.232  11.456  -4.193  1.00  0.00     0.171 HD
ATOM     31  H81 UNL     1     -33.376  10.557  -4.878  1.00  0.00     0.171 HD
ENDBRANCH  13  29
ENDBRANCH   8   9
ENDBRANCH   7   8
ENDBRANCH   4   7
BRANCH   3  32
HETATM   32  N2  UNL     1     -35.428   8.470  -7.752  1.00  0.00    -0.072 N 
ATOM     33  H23 UNL     1     -36.419   8.676  -7.632  1.00  0.00     0.274 HD
ATOM     34  H22 UNL     1     -35.078   9.142  -7.068  1.00  0.00     0.274 HD
ATOM     35  H21 UNL     1     -35.090   8.641  -8.699  1.00  0.00     0.274 HD
ENDBRANCH   3  32
BRANCH   5  36
HETATM   36  N9  UNL     1     -32.651   5.007  -6.024  1.00  0.00    -0.349 N 
HETATM   37  C15 UNL     1     -31.320   4.988  -5.542  1.00  0.00     0.251 C 
HETATM   38  O5  UNL     1     -30.436   5.524  -6.250  1.00  0.00    -0.270 OA
ATOM     39  H9  UNL     1     -33.379   4.573  -5.457  1.00  0.00     0.163 HD
BRANCH  37  40
HETATM   40  C16 UNL     1     -30.967   4.361  -4.249  1.00  0.00     0.264 C 
BRANCH  40  41
HETATM   41  O6  UNL     1     -31.711   3.228  -3.986  1.00  0.00    -0.381 OA
ATOM     42  H6  UNL     1     -31.470   2.813  -3.165  1.00  0.00     0.210 HD
ENDBRANCH  40  41
BRANCH  40  43
HETATM   43  C17 UNL     1     -29.458   4.080  -4.230  1.00  0.00     0.291 C 
BRANCH  43  44
HETATM   44  O7  UNL     1     -29.288   2.844  -3.597  1.00  0.00    -0.368 OA
ATOM     45  H7  UNL     1     -28.385   2.587  -3.740  1.00  0.00     0.212 HD
ENDBRANCH  43  44
BRANCH  43  46
HETATM   46  O8  UNL     1     -28.751   5.089  -3.630  1.00  0.00    -0.368 OA
ATOM     47  H8  UNL     1     -28.434   5.728  -4.258  1.00  0.00     0.212 HD
ENDBRANCH  43  46
ENDBRANCH  40  43
ENDBRANCH  37  40
ENDBRANCH   5  36
BRANCH   6  48
HETATM   48  O9  UNL     1     -33.215   4.580  -9.417  1.00  0.00    -0.391 OA
ATOM     49  H9  UNL     1     -32.296   4.814  -9.369  1.00  0.00     0.210 HD
ENDBRANCH   6  48
BRANCH   1  50
HETATM   50  N1  UNL     1     -36.008   4.526  -7.101  1.00  0.00    -0.072 N 
ATOM     51  H13 UNL     1     -36.988   4.350  -7.320  1.00  0.00     0.274 HD
ATOM     52  H12 UNL     1     -35.776   3.608  -6.723  1.00  0.00     0.274 HD
ATOM     53  H11 UNL     1     -35.894   5.268  -6.410  1.00  0.00     0.274 HD
ENDBRANCH   1  50
TORSDOF 15
ENDMDL
MODEL 5
REMARK VINA RESULT: -8.992981530      1.742      2.556
REMARK  15 active torsions:
REMARK  status: ('A' for Active; 'I' for Inactive)
REMARK    1  A    between atoms: N1_1  and  C1_5 
REMARK    2  A    between atoms: C3_7  and  N2_8 
REMARK    3  A    between atoms: C4_12  and  O1_13 
REMARK    4  A    between atoms: O1_13  and  C5_14 
REMARK    5  A    between atoms: C5_14  and  C6_15 
REMARK    6  A    between atoms: C7_17  and  N3_18 
REMARK    7  A    between atoms: C13_31  and  O4_32 
REMARK    8  A    between atoms: N7_34  and  N8_35 
REMARK    9  A    between atoms: C14_38  and  N9_39 
REMARK       I    between atoms: N9_39  and  C15_41 
REMARK   10  A    between atoms: C15_41  and  C16_43 
REMARK   11  A    between atoms: C16_43  and  O6_44 
REMARK   12  A    between atoms: C16_43  and  C17_46 
REMARK   13  A    between atoms: C17_46  and  O7_47 
REMARK   14  A    between atoms: C17_46  and  O8_49 
REMARK   15  A    between atoms: C18_51  and  O9_52 
ROOT
HETATM    1  C1  UNL     1     -33.106   6.929  -8.530  1.00  0.00     0.216 C 
HETATM    2  C2  UNL     1     -33.266   5.428  -8.522  1.00  0.00     0.070 C 
HETATM    3  C3  UNL     1     -32.507   4.958  -7.275  1.00  0.00     0.216 C 
HETATM    4  C4  UNL     1     -33.060   5.499  -6.006  1.00  0.00     0.177 C 
HETATM    5  C14 UNL     1     -33.591   6.887  -6.045  1.00  0.00     0.146 C 
HETATM    6  C18 UNL     1     -33.858   7.480  -7.374  1.00  0.00     0.173 C 
ENDROOT
BRANCH   4   7
HETATM    7  O1  UNL     1     -31.994   5.486  -5.078  1.00  0.00    -0.378 OA
BRANCH   7   8
HETATM    8  C5  UNL     1     -30.881   4.835  -5.545  1.00  0.00     0.217 C 
BRANCH   8   9
HETATM    9  C6  UNL     1     -29.798   5.868  -5.724  1.00  0.00     0.244 C 
HETATM   10  O2  UNL     1     -29.815   6.829  -4.714  1.00  0.00    -0.338 OA
HETATM   11  C7  UNL     1     -28.631   7.521  -5.073  1.00  0.00     0.277 C 
HETATM   12  C13 UNL     1     -27.644   6.381  -5.088  1.00  0.00     0.263 C 
HETATM   13  N7  UNL     1     -28.458   5.315  -5.697  1.00  0.00    -0.174 NA
BRANCH  11  14
HETATM   14  N3  UNL     1     -28.324   8.559  -4.138  1.00  0.00    -0.296 N 
HETATM   15  C8  UNL     1     -28.928   8.887  -2.989  1.00  0.00     0.188 A 
HETATM   16  N4  UNL     1     -28.301   9.949  -2.422  1.00  0.00    -0.345 N 
HETATM   17  C9  UNL     1     -27.285  10.313  -3.206  1.00  0.00     0.146 A 
ATOM     18  H4  UNL     1     -28.562  10.395  -1.543  1.00  0.00     0.167 HD
HETATM   19  C10 UNL     1     -26.342  11.313  -3.105  1.00  0.00     0.277 A 
HETATM   20  C12 UNL     1     -27.310   9.430  -4.285  1.00  0.00     0.144 A 
HETATM   21  O3  UNL     1     -26.278  12.130  -2.159  1.00  0.00    -0.266 OA
HETATM   22  N5  UNL     1     -25.432  11.410  -4.098  1.00  0.00    -0.318 N 
HETATM   23  C11 UNL     1     -25.434  10.574  -5.145  1.00  0.00     0.185 A 
ATOM     24  H5  UNL     1     -24.723  12.142  -4.049  1.00  0.00     0.169 HD
HETATM   25  N6  UNL     1     -26.354   9.615  -5.223  1.00  0.00    -0.336 N 
ATOM     26  H6  UNL     1     -26.336   8.990  -6.029  1.00  0.00     0.168 HD
ENDBRANCH  11  14
BRANCH  12  27
HETATM   27  O4  UNL     1     -27.319   6.065  -3.783  1.00  0.00    -0.375 OA
ATOM     28  H4  UNL     1     -26.439   6.377  -3.607  1.00  0.00     0.211 HD
ENDBRANCH  12  27
BRANCH  13  29
HETATM   29  N8  UNL     1     -28.372   4.141  -4.958  1.00  0.00    -0.359 NA
ATOM     30  H82 UNL     1     -29.300   3.775  -4.745  1.00  0.00     0.171 HD
ATOM     31  H81 UNL     1     -27.918   3.382  -5.468  1.00  0.00     0.171 HD
ENDBRANCH  13  29
ENDBRANCH   8   9
ENDBRANCH   7   8
ENDBRANCH   4   7
BRANCH   3  32
HETATM   32  N2  UNL     1     -32.546   3.515  -7.304  1.00  0.00    -0.072 N 
ATOM     33  H23 UNL     1     -33.027   3.105  -6.504  1.00  0.00     0.274 HD
ATOM     34  H22 UNL     1     -33.162   3.138  -8.025  1.00  0.00     0.274 HD
ATOM     35  H21 UNL     1     -31.577   3.209  -7.396  1.00  0.00     0.274 HD
ENDBRANCH   3  32
BRANCH   5  36
HETATM   36  N9  UNL     1     -32.776   7.795  -5.227  1.00  0.00    -0.349 N 
HETATM   37  C15 UNL     1     -33.312   8.914  -4.543  1.00  0.00     0.251 C 
HETATM   38  O5  UNL     1     -34.542   9.127  -4.649  1.00  0.00    -0.270 OA
ATOM     39  H9  UNL     1     -31.776   7.612  -5.148  1.00  0.00     0.163 HD
BRANCH  37  40
HETATM   40  C16 UNL     1     -32.463   9.810  -3.727  1.00  0.00     0.264 C 
BRANCH  40  41
HETATM   41  O6  UNL     1     -31.399   9.150  -3.144  1.00  0.00    -0.381 OA
ATOM     42  H6  UNL     1     -30.854   9.725  -2.620  1.00  0.00     0.210 HD
ENDBRANCH  40  41
BRANCH  40  43
HETATM   43  C17 UNL     1     -32.007  10.988  -4.597  1.00  0.00     0.291 C 
BRANCH  43  44
HETATM   44  O7  UNL     1     -32.488  10.743  -5.888  1.00  0.00    -0.368 OA
ATOM     45  H7  UNL     1     -31.938  11.241  -6.482  1.00  0.00     0.212 HD
ENDBRANCH  43  44
BRANCH  43  46
HETATM   46  O8  UNL     1     -30.647  11.165  -4.558  1.00  0.00    -0.368 OA
ATOM     47  H8  UNL     1     -30.344  11.426  -3.697  1.00  0.00     0.212 HD
ENDBRANCH  43  46
ENDBRANCH  40  43
ENDBRANCH  37  40
ENDBRANCH   5  36
BRANCH   6  48
HETATM   48  O9  UNL     1     -35.220   7.455  -7.660  1.00  0.00    -0.391 OA
ATOM     49  H9  UNL     1     -35.712   7.513  -6.849  1.00  0.00     0.210 HD
ENDBRANCH   6  48
BRANCH   1  50
HETATM   50  N1  UNL     1     -31.716   7.256  -8.580  1.00  0.00    -0.072 N 
ATOM     51  H13 UNL     1     -31.528   8.194  -8.224  1.00  0.00     0.274 HD
ATOM     52  H12 UNL     1     -31.170   6.730  -7.899  1.00  0.00     0.274 HD
ATOM     53  H11 UNL     1     -31.372   7.129  -9.532  1.00  0.00     0.274 HD
ENDBRANCH   1  50
TORSDOF 15
ENDMDL
