MODEL 1
REMARK VINA RESULT: -7.011061892      0.000      0.000
REMARK  5 active torsions:
REMARK  status: ('A' for Active; 'I' for Inactive)
REMARK    1  A    between atoms: N1_1  and  N2_4 
REMARK    2  A    between atoms: C1_6  and  N3_7 
REMARK    3  A    between atoms: C1_6  and  C2_12 
REMARK    4  A    between atoms: N3_7  and  N4_9 
REMARK    5  A    between atoms: C5_21  and  N7_22 
ROOT
HETATM    1  C2  UNL     1      -7.081  13.116  49.131  1.00  0.00     0.122 A 
HETATM    2  N5  UNL     1      -7.392  12.229  48.146  1.00  0.00    -0.303 N 
ATOM      3  H5  UNL     1      -6.667  11.958  47.481  1.00  0.00     0.171 HD
HETATM    4  C3  UNL     1      -8.617  11.700  48.019  1.00  0.00     0.327 A 
HETATM    5  O1  UNL     1      -8.865  10.865  47.071  1.00  0.00    -0.247 OA
HETATM    6  N6  UNL     1      -9.562  12.067  48.899  1.00  0.00    -0.273 N 
ATOM      7  H6  UNL     1     -10.495  11.666  48.805  1.00  0.00     0.173 HD
HETATM    8  C4  UNL     1      -9.337  12.932  49.891  1.00  0.00     0.284 A 
HETATM    9  O2  UNL     1     -10.198  13.288  50.719  1.00  0.00    -0.265 OA
HETATM   10  C5  UNL     1      -8.043  13.481  50.013  1.00  0.00     0.201 A 
ENDROOT
BRANCH   1  11
HETATM   11  C1  UNL     1      -5.726  13.583  49.222  1.00  0.00     0.164 C 
HETATM   12  N2  UNL     1      -5.046  14.007  48.194  1.00  0.00    -0.289 N 
ATOM     13  H2  UNL     1      -4.098  14.342  48.363  1.00  0.00     0.188 HD
BRANCH  12  14
HETATM   14  N1  UNL     1      -5.508  14.037  46.905  1.00  0.00    -0.344 N 
ATOM     15  H12 UNL     1      -5.318  13.213  46.335  1.00  0.00     0.176 HD
ATOM     16  H11 UNL     1      -6.021  14.813  46.486  1.00  0.00     0.176 HD
ENDBRANCH  12  14
BRANCH  11  17
HETATM   17  N3  UNL     1      -4.951  13.677  50.433  1.00  0.00    -0.289 N 
ATOM     18  H3  UNL     1      -4.792  12.833  50.983  1.00  0.00     0.188 HD
BRANCH  17  19
HETATM   19  N4  UNL     1      -4.420  14.861  50.871  1.00  0.00    -0.344 N 
ATOM     20  H42 UNL     1      -4.655  15.709  50.354  1.00  0.00     0.176 HD
ATOM     21  H41 UNL     1      -3.807  14.915  51.686  1.00  0.00     0.176 HD
ENDBRANCH  17  19
ENDBRANCH  11  17
ENDBRANCH   1  11
BRANCH  10  22
HETATM   22  N7  UNL     1      -7.776  14.391  51.060  1.00  0.00    -0.107 N 
HETATM   23  O3  UNL     1      -8.087  15.589  50.879  1.00  0.00    -0.531 OA
HETATM   24  O4  UNL     1      -7.256  14.083  52.286  1.00  0.00    -0.531 OA
ENDBRANCH  10  22
TORSDOF 5
ENDMDL
MODEL 2
REMARK VINA RESULT: -6.492223072      1.893      3.974
REMARK  5 active torsions:
REMARK  status: ('A' for Active; 'I' for Inactive)
REMARK    1  A    between atoms: N1_1  and  N2_4 
REMARK    2  A    between atoms: C1_6  and  N3_7 
REMARK    3  A    between atoms: C1_6  and  C2_12 
REMARK    4  A    between atoms: N3_7  and  N4_9 
REMARK    5  A    between atoms: C5_21  and  N7_22 
ROOT
HETATM    1  C2  UNL     1      -7.402  13.143  49.399  1.00  0.00     0.122 A 
HETATM    2  N5  UNL     1      -6.302  13.378  48.632  1.00  0.00    -0.303 N 
ATOM      3  H5  UNL     1      -6.324  13.116  47.646  1.00  0.00     0.171 HD
HETATM    4  C3  UNL     1      -5.191  13.941  49.128  1.00  0.00     0.327 A 
HETATM    5  O1  UNL     1      -4.175  14.144  48.365  1.00  0.00    -0.247 OA
HETATM    6  N6  UNL     1      -5.175  14.279  50.427  1.00  0.00    -0.273 N 
ATOM      7  H6  UNL     1      -4.332  14.708  50.807  1.00  0.00     0.173 HD
HETATM    8  C4  UNL     1      -6.211  14.079  51.245  1.00  0.00     0.284 A 
HETATM    9  O2  UNL     1      -6.220  14.385  52.453  1.00  0.00    -0.265 OA
HETATM   10  C5  UNL     1      -7.375  13.485  50.710  1.00  0.00     0.201 A 
ENDROOT
BRANCH   1  11
HETATM   11  C1  UNL     1      -8.566  12.588  48.766  1.00  0.00     0.164 C 
HETATM   12  N2  UNL     1      -9.566  13.312  48.348  1.00  0.00    -0.289 N 
ATOM     13  H2  UNL     1     -10.337  12.829  47.887  1.00  0.00     0.188 HD
BRANCH  12  14
HETATM   14  N1  UNL     1      -9.659  14.673  48.480  1.00  0.00    -0.344 N 
ATOM     15  H12 UNL     1     -10.094  15.017  49.336  1.00  0.00     0.176 HD
ATOM     16  H11 UNL     1      -9.328  15.351  47.794  1.00  0.00     0.176 HD
ENDBRANCH  12  14
BRANCH  11  17
HETATM   17  N3  UNL     1      -8.779  11.193  48.479  1.00  0.00    -0.289 N 
ATOM     18  H3  UNL     1      -8.241  10.755  47.731  1.00  0.00     0.188 HD
BRANCH  17  19
HETATM   19  N4  UNL     1      -9.680  10.432  49.176  1.00  0.00    -0.344 N 
ATOM     20  H42 UNL     1      -9.323   9.835  49.922  1.00  0.00     0.176 HD
ATOM     21  H41 UNL     1     -10.680  10.447  48.971  1.00  0.00     0.176 HD
ENDBRANCH  17  19
ENDBRANCH  11  17
ENDBRANCH   1  11
BRANCH  10  22
HETATM   22  N7  UNL     1      -8.490  13.273  51.551  1.00  0.00    -0.107 N 
HETATM   23  O3  UNL     1      -9.436  14.088  51.474  1.00  0.00    -0.531 OA
HETATM   24  O4  UNL     1      -8.665  12.226  52.412  1.00  0.00    -0.531 OA
ENDBRANCH  10  22
TORSDOF 5
ENDMDL
MODEL 3
REMARK VINA RESULT: -5.989124650      1.696      3.558
REMARK  5 active torsions:
REMARK  status: ('A' for Active; 'I' for Inactive)
REMARK    1  A    between atoms: N1_1  and  N2_4 
REMARK    2  A    between atoms: C1_6  and  N3_7 
REMARK    3  A    between atoms: C1_6  and  C2_12 
REMARK    4  A    between atoms: N3_7  and  N4_9 
REMARK    5  A    between atoms: C5_21  and  N7_22 
ROOT
HETATM    1  C2  UNL     1      -7.205  13.542  50.587  1.00  0.00     0.122 A 
HETATM    2  N5  UNL     1      -7.706  13.741  51.838  1.00  0.00    -0.303 N 
ATOM      3  H5  UNL     1      -7.075  14.052  52.577  1.00  0.00     0.171 HD
HETATM    4  C3  UNL     1      -8.998  13.542  52.132  1.00  0.00     0.327 A 
HETATM    5  O1  UNL     1      -9.427  13.742  53.328  1.00  0.00    -0.247 OA
HETATM    6  N6  UNL     1      -9.817  13.130  51.150  1.00  0.00    -0.273 N 
ATOM      7  H6  UNL     1     -10.801  12.978  51.370  1.00  0.00     0.173 HD
HETATM    8  C4  UNL     1      -9.403  12.910  49.900  1.00  0.00     0.284 A 
HETATM    9  O2  UNL     1     -10.144  12.529  48.973  1.00  0.00    -0.265 OA
HETATM   10  C5  UNL     1      -8.040  13.124  49.604  1.00  0.00     0.201 A 
ENDROOT
BRANCH   1  11
HETATM   11  C1  UNL     1      -5.819  13.838  50.356  1.00  0.00     0.164 C 
HETATM   12  N2  UNL     1      -5.130  14.659  51.097  1.00  0.00    -0.289 N 
ATOM     13  H2  UNL     1      -4.144  14.786  50.868  1.00  0.00     0.188 HD
BRANCH  12  14
HETATM   14  N1  UNL     1      -5.629  15.365  52.160  1.00  0.00    -0.344 N 
ATOM     15  H12 UNL     1      -6.440  15.954  51.973  1.00  0.00     0.176 HD
ATOM     16  H11 UNL     1      -5.252  15.339  53.107  1.00  0.00     0.176 HD
ENDBRANCH  12  14
BRANCH  11  17
HETATM   17  N3  UNL     1      -5.001  13.264  49.318  1.00  0.00    -0.289 N 
ATOM     18  H3  UNL     1      -4.953  12.248  49.234  1.00  0.00     0.188 HD
BRANCH  17  19
HETATM   19  N4  UNL     1      -4.286  14.034  48.439  1.00  0.00    -0.344 N 
ATOM     20  H42 UNL     1      -4.274  15.043  48.592  1.00  0.00     0.176 HD
ATOM     21  H41 UNL     1      -3.775  13.632  47.653  1.00  0.00     0.176 HD
ENDBRANCH  17  19
ENDBRANCH  11  17
ENDBRANCH   1  11
BRANCH  10  22
HETATM   22  N7  UNL     1      -7.578  12.910  48.287  1.00  0.00    -0.107 N 
HETATM   23  O3  UNL     1      -7.536  11.730  47.874  1.00  0.00    -0.531 OA
HETATM   24  O4  UNL     1      -7.219  13.875  47.388  1.00  0.00    -0.531 OA
ENDBRANCH  10  22
TORSDOF 5
ENDMDL
MODEL 4
REMARK VINA RESULT: -5.918587026      2.396      4.245
REMARK  5 active torsions:
REMARK  status: ('A' for Active; 'I' for Inactive)
REMARK    1  A    between atoms: N1_1  and  N2_4 
REMARK    2  A    between atoms: C1_6  and  N3_7 
REMARK    3  A    between atoms: C1_6  and  C2_12 
REMARK    4  A    between atoms: N3_7  and  N4_9 
REMARK    5  A    between atoms: C5_21  and  N7_22 
ROOT
HETATM    1  C2  UNL     1      -8.780  11.937  49.359  1.00  0.00     0.122 A 
HETATM    2  N5  UNL     1      -8.572  12.042  50.701  1.00  0.00    -0.303 N 
ATOM      3  H5  UNL     1      -7.904  12.733  51.043  1.00  0.00     0.171 HD
HETATM    4  C3  UNL     1      -9.214  11.268  51.587  1.00  0.00     0.327 A 
HETATM    5  O1  UNL     1      -8.986  11.401  52.846  1.00  0.00    -0.247 OA
HETATM    6  N6  UNL     1     -10.088  10.360  51.122  1.00  0.00    -0.273 N 
ATOM      7  H6  UNL     1     -10.578   9.770  51.794  1.00  0.00     0.173 HD
HETATM    8  C4  UNL     1     -10.345  10.194  49.823  1.00  0.00     0.284 A 
HETATM    9  O2  UNL     1     -11.152   9.359  49.369  1.00  0.00    -0.265 OA
HETATM   10  C5  UNL     1      -9.662  11.017  48.901  1.00  0.00     0.201 A 
ENDROOT
BRANCH   1  11
HETATM   11  C1  UNL     1      -8.089  12.850  48.492  1.00  0.00     0.164 C 
HETATM   12  N2  UNL     1      -8.586  13.996  48.119  1.00  0.00    -0.289 N 
ATOM     13  H2  UNL     1      -8.008  14.587  47.521  1.00  0.00     0.188 HD
BRANCH  12  14
HETATM   14  N1  UNL     1      -9.824  14.466  48.468  1.00  0.00    -0.344 N 
ATOM     15  H12 UNL     1     -10.020  15.441  48.244  1.00  0.00     0.176 HD
ATOM     16  H11 UNL     1     -10.550  13.916  48.928  1.00  0.00     0.176 HD
ENDBRANCH  12  14
BRANCH  11  17
HETATM   17  N3  UNL     1      -6.770  12.653  47.947  1.00  0.00    -0.289 N 
ATOM     18  H3  UNL     1      -6.464  11.705  47.728  1.00  0.00     0.188 HD
BRANCH  17  19
HETATM   19  N4  UNL     1      -5.912  13.695  47.714  1.00  0.00    -0.344 N 
ATOM     20  H42 UNL     1      -6.252  14.641  47.890  1.00  0.00     0.176 HD
ATOM     21  H41 UNL     1      -4.960  13.552  47.375  1.00  0.00     0.176 HD
ENDBRANCH  17  19
ENDBRANCH  11  17
ENDBRANCH   1  11
BRANCH  10  22
HETATM   22  N7  UNL     1      -9.924  10.869  47.521  1.00  0.00    -0.107 N 
HETATM   23  O3  UNL     1     -10.762  11.642  47.006  1.00  0.00    -0.531 OA
HETATM   24  O4  UNL     1      -9.309   9.994  46.669  1.00  0.00    -0.531 OA
ENDBRANCH  10  22
TORSDOF 5
ENDMDL
MODEL 5
REMARK VINA RESULT: -5.880560526      1.997      3.887
REMARK  5 active torsions:
REMARK  status: ('A' for Active; 'I' for Inactive)
REMARK    1  A    between atoms: N1_1  and  N2_4 
REMARK    2  A    between atoms: C1_6  and  N3_7 
REMARK    3  A    between atoms: C1_6  and  C2_12 
REMARK    4  A    between atoms: N3_7  and  N4_9 
REMARK    5  A    between atoms: C5_21  and  N7_22 
ROOT
HETATM    1  C2  UNL     1      -8.673  12.328  50.158  1.00  0.00     0.122 A 
HETATM    2  N5  UNL     1      -8.964  11.493  49.123  1.00  0.00    -0.303 N 
ATOM      3  H5  UNL     1      -9.712  10.808  49.238  1.00  0.00     0.171 HD
HETATM    4  C3  UNL     1      -8.303  11.538  47.958  1.00  0.00     0.327 A 
HETATM    5  O1  UNL     1      -8.613  10.729  47.007  1.00  0.00    -0.247 OA
HETATM    6  N6  UNL     1      -7.320  12.443  47.820  1.00  0.00    -0.273 N 
ATOM      7  H6  UNL     1      -6.815  12.481  46.935  1.00  0.00     0.173 HD
HETATM    8  C4  UNL     1      -6.973  13.295  48.788  1.00  0.00     0.284 A 
HETATM    9  O2  UNL     1      -6.065  14.142  48.683  1.00  0.00    -0.265 OA
HETATM   10  C5  UNL     1      -7.678  13.236  50.009  1.00  0.00     0.201 A 
ENDROOT
BRANCH   1  11
HETATM   11  C1  UNL     1      -9.476  12.243  51.345  1.00  0.00     0.164 C 
HETATM   12  N2  UNL     1     -10.690  12.710  51.423  1.00  0.00    -0.289 N 
ATOM     13  H2  UNL     1     -11.189  12.580  52.303  1.00  0.00     0.188 HD
BRANCH  12  14
HETATM   14  N1  UNL     1     -11.346  13.362  50.412  1.00  0.00    -0.344 N 
ATOM     15  H12 UNL     1     -12.344  13.524  50.549  1.00  0.00     0.176 HD
ATOM     16  H11 UNL     1     -10.912  13.691  49.550  1.00  0.00     0.176 HD
ENDBRANCH  12  14
BRANCH  11  17
HETATM   17  N3  UNL     1      -9.079  11.620  52.582  1.00  0.00    -0.289 N 
ATOM     18  H3  UNL     1      -8.425  12.109  53.193  1.00  0.00     0.188 HD
BRANCH  17  19
HETATM   19  N4  UNL     1      -9.550  10.392  52.967  1.00  0.00    -0.344 N 
ATOM     20  H42 UNL     1     -10.555  10.292  53.112  1.00  0.00     0.176 HD
ATOM     21  H41 UNL     1      -8.933   9.592  53.109  1.00  0.00     0.176 HD
ENDBRANCH  17  19
ENDBRANCH  11  17
ENDBRANCH   1  11
BRANCH  10  22
HETATM   22  N7  UNL     1      -7.337  14.133  51.045  1.00  0.00    -0.107 N 
HETATM   23  O3  UNL     1      -6.380  13.823  51.788  1.00  0.00    -0.531 OA
HETATM   24  O4  UNL     1      -7.920  15.346  51.289  1.00  0.00    -0.531 OA
ENDBRANCH  10  22
TORSDOF 5
ENDMDL
