MODEL 1
REMARK VINA RESULT: -6.418432202      0.000      0.000
REMARK  4 active torsions:
REMARK  status: ('A' for Active; 'I' for Inactive)
REMARK    1  A    between atoms: C2_5  and  O1_6 
REMARK    2  A    between atoms: O1_6  and  C3_7 
REMARK    3  A    between atoms: C6_13  and  N3_14 
REMARK    4  A    between atoms: N5_21  and  N6_22 
ROOT
HETATM    1  C3  UNL     1      -7.649  13.515  50.231  1.00  0.00     0.165 A 
HETATM    2  C4  UNL     1      -6.741  13.306  49.192  1.00  0.00     0.131 A 
HETATM    3  C5  UNL     1      -5.458  13.766  49.302  1.00  0.00     0.263 A 
HETATM    4  O2  UNL     1      -4.653  13.566  48.349  1.00  0.00    -0.268 OA
HETATM    5  N2  UNL     1      -5.032  14.420  50.388  1.00  0.00    -0.156 N 
ATOM      6  H2  UNL     1      -4.073  14.759  50.461  1.00  0.00     0.187 HD
HETATM    7  C6  UNL     1      -5.924  14.614  51.388  1.00  0.00     0.680 A 
HETATM    8  N4  UNL     1      -7.190  14.170  51.297  1.00  0.00    -0.171 N 
ATOM      9  H4  UNL     1      -7.826  14.342  52.077  1.00  0.00     0.186 HD
ENDROOT
BRANCH   1  10
HETATM   10  O1  UNL     1      -8.944  13.045  50.110  1.00  0.00    -0.296 OA
BRANCH  10  11
HETATM   11  C2  UNL     1      -9.970  13.660  49.443  1.00  0.00     0.339 C 
HETATM   12  C1  UNL     1     -10.269  13.029  48.108  1.00  0.00     0.150 C 
HETATM   13  N1  UNL     1     -10.015  11.828  47.724  1.00  0.00    -0.384 N 
HETATM   14  N5  UNL     1     -10.897  14.075  47.377  1.00  0.00    -0.259 N 
ATOM     15  H12 UNL     1      -9.564  11.078  48.248  1.00  0.00     0.157 HD
ATOM     16  H11 UNL     1     -10.217  11.401  46.821  1.00  0.00     0.157 HD
HETATM   17  C7  UNL     1     -10.474  15.302  48.009  1.00  0.00     0.321 C 
HETATM   18  O3  UNL     1      -9.734  14.987  49.106  1.00  0.00    -0.333 OA
BRANCH  14  19
HETATM   19  N6  UNL     1     -11.743  13.896  46.279  1.00  0.00    -0.340 N 
ATOM     20  H62 UNL     1     -11.909  13.055  45.727  1.00  0.00     0.177 HD
ATOM     21  H61 UNL     1     -12.332  14.619  45.866  1.00  0.00     0.177 HD
ENDBRANCH  14  19
ENDBRANCH  10  11
ENDBRANCH   1  10
BRANCH   7  22
HETATM   22  N3  UNL     1      -5.522  15.255  52.462  1.00  0.00    -0.234 N 
ATOM     23  H32 UNL     1      -5.165  16.207  52.389  1.00  0.00     0.174 HD
ATOM     24  H31 UNL     1      -5.578  14.774  53.360  1.00  0.00     0.174 HD
ENDBRANCH   7  22
TORSDOF 4
ENDMDL
MODEL 2
REMARK VINA RESULT: -6.308486427      2.135      2.707
REMARK  4 active torsions:
REMARK  status: ('A' for Active; 'I' for Inactive)
REMARK    1  A    between atoms: C2_5  and  O1_6 
REMARK    2  A    between atoms: O1_6  and  C3_7 
REMARK    3  A    between atoms: C6_13  and  N3_14 
REMARK    4  A    between atoms: N5_21  and  N6_22 
ROOT
HETATM    1  C3  UNL     1      -7.556  12.835  48.660  1.00  0.00     0.165 A 
HETATM    2  C4  UNL     1      -7.843  13.088  50.003  1.00  0.00     0.131 A 
HETATM    3  C5  UNL     1      -6.893  13.650  50.810  1.00  0.00     0.263 A 
HETATM    4  O2  UNL     1      -7.174  13.870  52.022  1.00  0.00    -0.268 OA
HETATM    5  N2  UNL     1      -5.678  13.971  50.353  1.00  0.00    -0.156 N 
ATOM      6  H2  UNL     1      -4.976  14.390  50.964  1.00  0.00     0.187 HD
HETATM    7  C6  UNL     1      -5.415  13.720  49.050  1.00  0.00     0.680 A 
HETATM    8  N4  UNL     1      -6.336  13.168  48.240  1.00  0.00    -0.171 N 
ATOM      9  H4  UNL     1      -6.090  12.997  47.265  1.00  0.00     0.186 HD
ENDROOT
BRANCH   1  10
HETATM   10  O1  UNL     1      -8.524  12.267  47.851  1.00  0.00    -0.296 OA
BRANCH  10  11
HETATM   11  C2  UNL     1      -9.879  12.407  47.989  1.00  0.00     0.339 C 
HETATM   12  C1  UNL     1     -10.639  11.148  47.659  1.00  0.00     0.150 C 
HETATM   13  N1  UNL     1     -10.214   9.935  47.685  1.00  0.00    -0.384 N 
HETATM   14  N5  UNL     1     -11.935  11.622  47.313  1.00  0.00    -0.259 N 
ATOM     15  H12 UNL     1      -9.284   9.596  47.933  1.00  0.00     0.157 HD
ATOM     16  H11 UNL     1     -10.728   9.083  47.462  1.00  0.00     0.157 HD
HETATM   17  C7  UNL     1     -11.757  13.002  46.929  1.00  0.00     0.321 C 
HETATM   18  O3  UNL     1     -10.458  13.342  47.140  1.00  0.00    -0.333 OA
BRANCH  14  19
HETATM   19  N6  UNL     1     -13.108  10.863  47.357  1.00  0.00    -0.340 N 
ATOM     20  H62 UNL     1     -13.594  10.386  46.598  1.00  0.00     0.177 HD
ATOM     21  H61 UNL     1     -13.659  10.680  48.195  1.00  0.00     0.177 HD
ENDBRANCH  14  19
ENDBRANCH  10  11
ENDBRANCH   1  10
BRANCH   7  22
HETATM   22  N3  UNL     1      -4.225  14.030  48.585  1.00  0.00    -0.234 N 
ATOM     23  H32 UNL     1      -3.624  13.308  48.190  1.00  0.00     0.174 HD
ATOM     24  H31 UNL     1      -3.928  15.005  48.633  1.00  0.00     0.174 HD
ENDBRANCH   7  22
TORSDOF 4
ENDMDL
MODEL 3
REMARK VINA RESULT: -6.302483070      1.438      1.977
REMARK  4 active torsions:
REMARK  status: ('A' for Active; 'I' for Inactive)
REMARK    1  A    between atoms: C2_5  and  O1_6 
REMARK    2  A    between atoms: O1_6  and  C3_7 
REMARK    3  A    between atoms: C6_13  and  N3_14 
REMARK    4  A    between atoms: N5_21  and  N6_22 
ROOT
HETATM    1  C3  UNL     1      -7.646  13.492  50.160  1.00  0.00     0.165 A 
HETATM    2  C4  UNL     1      -7.283  14.182  51.318  1.00  0.00     0.131 A 
HETATM    3  C5  UNL     1      -6.005  14.645  51.465  1.00  0.00     0.263 A 
HETATM    4  O2  UNL     1      -5.698  15.267  52.521  1.00  0.00    -0.268 OA
HETATM    5  N2  UNL     1      -5.073  14.458  50.524  1.00  0.00    -0.156 N 
ATOM      6  H2  UNL     1      -4.122  14.808  50.643  1.00  0.00     0.187 HD
HETATM    7  C6  UNL     1      -5.440  13.788  49.407  1.00  0.00     0.680 A 
HETATM    8  N4  UNL     1      -6.692  13.324  49.245  1.00  0.00    -0.171 N 
ATOM      9  H4  UNL     1      -6.920  12.823  48.385  1.00  0.00     0.186 HD
ENDROOT
BRANCH   1  10
HETATM   10  O1  UNL     1      -8.942  13.027  50.021  1.00  0.00    -0.296 OA
BRANCH  10  11
HETATM   11  C2  UNL     1      -9.964  13.662  49.367  1.00  0.00     0.339 C 
HETATM   12  C1  UNL     1     -10.332  13.001  48.064  1.00  0.00     0.150 C 
HETATM   13  N1  UNL     1     -10.138  11.780  47.711  1.00  0.00    -0.384 N 
HETATM   14  N5  UNL     1     -10.942  14.048  47.319  1.00  0.00    -0.259 N 
ATOM     15  H12 UNL     1      -9.700  11.029  48.246  1.00  0.00     0.157 HD
ATOM     16  H11 UNL     1     -10.388  11.333  46.830  1.00  0.00     0.157 HD
HETATM   17  C7  UNL     1     -10.451  15.277  47.897  1.00  0.00     0.321 C 
HETATM   18  O3  UNL     1      -9.687  14.967  48.979  1.00  0.00    -0.333 OA
BRANCH  14  19
HETATM   19  N6  UNL     1     -11.831  13.868  46.256  1.00  0.00    -0.340 N 
ATOM     20  H62 UNL     1     -12.802  13.559  46.275  1.00  0.00     0.177 HD
ATOM     21  H61 UNL     1     -11.612  14.030  45.273  1.00  0.00     0.177 HD
ENDBRANCH  14  19
ENDBRANCH  10  11
ENDBRANCH   1  10
BRANCH   7  22
HETATM   22  N3  UNL     1      -4.536  13.596  48.473  1.00  0.00    -0.234 N 
ATOM     23  H32 UNL     1      -3.624  13.209  48.713  1.00  0.00     0.174 HD
ATOM     24  H31 UNL     1      -4.774  13.844  47.513  1.00  0.00     0.174 HD
ENDBRANCH   7  22
TORSDOF 4
ENDMDL
MODEL 4
REMARK VINA RESULT: -6.293229732      2.593      5.584
REMARK  4 active torsions:
REMARK  status: ('A' for Active; 'I' for Inactive)
REMARK    1  A    between atoms: C2_5  and  O1_6 
REMARK    2  A    between atoms: O1_6  and  C3_7 
REMARK    3  A    between atoms: C6_13  and  N3_14 
REMARK    4  A    between atoms: N5_21  and  N6_22 
ROOT
HETATM    1  C3  UNL     1      -8.538  11.631  48.548  1.00  0.00     0.165 A 
HETATM    2  C4  UNL     1      -9.032  10.911  47.459  1.00  0.00     0.131 A 
HETATM    3  C5  UNL     1     -10.044  10.010  47.637  1.00  0.00     0.263 A 
HETATM    4  O2  UNL     1     -10.475   9.369  46.636  1.00  0.00    -0.268 OA
HETATM    5  N2  UNL     1     -10.589   9.787  48.838  1.00  0.00    -0.156 N 
ATOM      6  H2  UNL     1     -11.345   9.112  48.960  1.00  0.00     0.187 HD
HETATM    7  C6  UNL     1     -10.101  10.493  49.884  1.00  0.00     0.680 A 
HETATM    8  N4  UNL     1      -9.105  11.383  49.729  1.00  0.00    -0.171 N 
ATOM      9  H4  UNL     1      -8.770  11.890  50.549  1.00  0.00     0.186 HD
ENDROOT
BRANCH   1  10
HETATM   10  O1  UNL     1      -7.514  12.540  48.358  1.00  0.00    -0.296 OA
BRANCH  10  11
HETATM   11  C2  UNL     1      -7.104  13.497  49.248  1.00  0.00     0.339 C 
HETATM   12  C1  UNL     1      -5.611  13.700  49.250  1.00  0.00     0.150 C 
HETATM   13  N1  UNL     1      -4.773  13.439  48.311  1.00  0.00    -0.384 N 
HETATM   14  N5  UNL     1      -5.351  14.247  50.538  1.00  0.00    -0.259 N 
ATOM     15  H12 UNL     1      -4.960  13.047  47.388  1.00  0.00     0.157 HD
ATOM     16  H11 UNL     1      -3.763  13.577  48.312  1.00  0.00     0.157 HD
HETATM   17  C7  UNL     1      -6.468  13.853  51.363  1.00  0.00     0.321 C 
HETATM   18  O3  UNL     1      -7.374  13.209  50.580  1.00  0.00    -0.333 OA
BRANCH  14  19
HETATM   19  N6  UNL     1      -4.228  15.006  50.879  1.00  0.00    -0.340 N 
ATOM     20  H62 UNL     1      -4.182  15.931  51.304  1.00  0.00     0.177 HD
ATOM     21  H61 UNL     1      -3.259  14.718  50.738  1.00  0.00     0.177 HD
ENDBRANCH  14  19
ENDBRANCH  10  11
ENDBRANCH   1  10
BRANCH   7  22
HETATM   22  N3  UNL     1     -10.626  10.286  51.071  1.00  0.00    -0.234 N 
ATOM     23  H32 UNL     1     -11.630  10.144  51.171  1.00  0.00     0.174 HD
ATOM     24  H31 UNL     1     -10.002  10.273  51.879  1.00  0.00     0.174 HD
ENDBRANCH   7  22
TORSDOF 4
ENDMDL
MODEL 5
REMARK VINA RESULT: -6.182639633      2.335      3.191
REMARK  4 active torsions:
REMARK  status: ('A' for Active; 'I' for Inactive)
REMARK    1  A    between atoms: C2_5  and  O1_6 
REMARK    2  A    between atoms: O1_6  and  C3_7 
REMARK    3  A    between atoms: C6_13  and  N3_14 
REMARK    4  A    between atoms: N5_21  and  N6_22 
ROOT
HETATM    1  C3  UNL     1      -7.822  13.909  49.601  1.00  0.00     0.165 A 
HETATM    2  C4  UNL     1      -7.535  14.269  50.919  1.00  0.00     0.131 A 
HETATM    3  C5  UNL     1      -6.237  14.376  51.331  1.00  0.00     0.263 A 
HETATM    4  O2  UNL     1      -6.000  14.703  52.529  1.00  0.00    -0.268 OA
HETATM    5  N2  UNL     1      -5.211  14.143  50.505  1.00  0.00    -0.156 N 
ATOM      6  H2  UNL     1      -4.245  14.225  50.823  1.00  0.00     0.187 HD
HETATM    7  C6  UNL     1      -5.504  13.795  49.230  1.00  0.00     0.680 A 
HETATM    8  N4  UNL     1      -6.775  13.685  48.806  1.00  0.00    -0.171 N 
ATOM      9  H4  UNL     1      -6.946  13.419  47.836  1.00  0.00     0.186 HD
ENDROOT
BRANCH   1  10
HETATM   10  O1  UNL     1      -9.139  13.805  49.193  1.00  0.00    -0.296 OA
BRANCH  10  11
HETATM   11  C2  UNL     1      -9.737  12.694  48.660  1.00  0.00     0.339 C 
HETATM   12  C1  UNL     1     -10.154  11.690  49.703  1.00  0.00     0.150 C 
HETATM   13  N1  UNL     1     -10.404  11.896  50.948  1.00  0.00    -0.384 N 
HETATM   14  N5  UNL     1     -10.203  10.463  48.985  1.00  0.00    -0.259 N 
ATOM     15  H12 UNL     1     -10.369  12.776  51.462  1.00  0.00     0.157 HD
ATOM     16  H11 UNL     1     -10.687  11.217  51.654  1.00  0.00     0.157 HD
HETATM   17  C7  UNL     1      -9.355  10.650  47.832  1.00  0.00     0.321 C 
HETATM   18  O3  UNL     1      -8.925  11.940  47.820  1.00  0.00    -0.333 OA
BRANCH  14  19
HETATM   19  N6  UNL     1     -10.940   9.337  49.364  1.00  0.00    -0.340 N 
ATOM     20  H62 UNL     1     -10.671   8.570  49.979  1.00  0.00     0.177 HD
ATOM     21  H61 UNL     1     -11.890   9.125  49.057  1.00  0.00     0.177 HD
ENDBRANCH  14  19
ENDBRANCH  10  11
ENDBRANCH   1  10
BRANCH   7  22
HETATM   22  N3  UNL     1      -4.508  13.564  48.405  1.00  0.00    -0.234 N 
ATOM     23  H32 UNL     1      -3.561  13.853  48.649  1.00  0.00     0.174 HD
ATOM     24  H31 UNL     1      -4.711  13.091  47.524  1.00  0.00     0.174 HD
ENDBRANCH   7  22
TORSDOF 4
ENDMDL
