MODEL 1
REMARK VINA RESULT: -6.532406881      0.000      0.000
REMARK  4 active torsions:
REMARK  status: ('A' for Active; 'I' for Inactive)
REMARK    1  A    between atoms: N1_2  and  C2_4 
REMARK    2  A    between atoms: C5_10  and  C6_11 
REMARK    3  A    between atoms: C6_11  and  N3_12 
REMARK    4  A    between atoms: C7_18  and  N5_19 
REMARK       I    between atoms: N5_19  and  C8_21 
REMARK       I    between atoms: C8_21  and  N6_22 
REMARK       I    between atoms: C8_21  and  N7_26 
ROOT
HETATM    1  C2  UNL     1      -7.046  13.025  48.692  1.00  0.00     0.148 C 
HETATM    2  N2  UNL     1      -7.707  12.294  47.770  1.00  0.00    -0.307 N 
ATOM      3  H2  UNL     1      -7.497  12.517  46.796  1.00  0.00     0.170 HD
HETATM    4  C3  UNL     1      -8.616  11.299  47.964  1.00  0.00     0.248 C 
HETATM    5  O1  UNL     1      -8.800  10.555  46.985  1.00  0.00    -0.268 OA
HETATM    6  C4  UNL     1      -9.350  11.028  49.127  1.00  0.00     0.101 C 
HETATM    7  C5  UNL     1      -9.148  11.529  50.391  1.00  0.00     0.041 C 
HETATM    8  N4  UNL     1      -8.192  12.402  50.788  1.00  0.00    -0.341 N 
ATOM      9  H4  UNL     1      -8.040  12.470  51.794  1.00  0.00     0.167 HD
HETATM   10  C7  UNL     1      -7.419  13.190  50.021  1.00  0.00     0.149 C 
ENDROOT
BRANCH  10  11
HETATM   11  N5  UNL     1      -6.966  14.229  50.584  1.00  0.00    -0.324 N 
HETATM   12  C8  UNL     1      -5.903  14.328  51.539  1.00  0.00     0.481 C 
HETATM   13  N6  UNL     1      -6.119  15.592  52.263  1.00  0.00    -0.033 N 
HETATM   14  N7  UNL     1      -4.647  14.395  50.810  1.00  0.00    -0.033 N 
ATOM     15  H63 UNL     1      -6.191  16.404  51.650  1.00  0.00     0.278 HD
ATOM     16  H62 UNL     1      -7.047  15.667  52.679  1.00  0.00     0.278 HD
ATOM     17  H61 UNL     1      -5.362  15.662  52.943  1.00  0.00     0.278 HD
ATOM     18  H73 UNL     1      -4.524  13.616  50.163  1.00  0.00     0.278 HD
ATOM     19  H72 UNL     1      -4.629  15.149  50.123  1.00  0.00     0.278 HD
ATOM     20  H71 UNL     1      -3.889  14.466  51.490  1.00  0.00     0.278 HD
ATOM     21  H5  UNL     1      -7.415  15.107  50.325  1.00  0.00     0.165 HD
ENDBRANCH  10  11
BRANCH   1  22
HETATM   22  N1  UNL     1      -5.972  13.620  48.299  1.00  0.00    -0.378 N 
HETATM   23  C1  UNL     1      -5.857  14.099  46.958  1.00  0.00     0.148 C 
ATOM     24  H1  UNL     1      -5.199  13.751  48.950  1.00  0.00     0.160 HD
ENDBRANCH   1  22
BRANCH   7  25
HETATM   25  C6  UNL     1     -10.076  11.067  51.443  1.00  0.00     0.286 C 
BRANCH  25  26
HETATM   26  N3  UNL     1      -9.417  10.967  52.740  1.00  0.00    -0.074 N 
ATOM     27  H33 UNL     1      -9.325   9.996  53.037  1.00  0.00     0.274 HD
ATOM     28  H32 UNL     1      -8.428  11.208  52.673  1.00  0.00     0.274 HD
ATOM     29  H31 UNL     1      -9.889  11.530  53.448  1.00  0.00     0.274 HD
ENDBRANCH  25  26
ENDBRANCH   7  25
TORSDOF 4
ENDMDL
MODEL 2
REMARK VINA RESULT: -6.468531620      1.572      4.472
REMARK  4 active torsions:
REMARK  status: ('A' for Active; 'I' for Inactive)
REMARK    1  A    between atoms: N1_2  and  C2_4 
REMARK    2  A    between atoms: C5_10  and  C6_11 
REMARK    3  A    between atoms: C6_11  and  N3_12 
REMARK    4  A    between atoms: C7_18  and  N5_19 
REMARK       I    between atoms: N5_19  and  C8_21 
REMARK       I    between atoms: C8_21  and  N6_22 
REMARK       I    between atoms: C8_21  and  N7_26 
ROOT
HETATM    1  C2  UNL     1      -8.883  11.484  49.322  1.00  0.00     0.148 C 
HETATM    2  N2  UNL     1      -8.015  11.900  48.377  1.00  0.00    -0.307 N 
ATOM      3  H2  UNL     1      -7.978  11.332  47.530  1.00  0.00     0.170 HD
HETATM    4  C3  UNL     1      -7.181  12.977  48.401  1.00  0.00     0.248 C 
HETATM    5  O1  UNL     1      -6.760  13.342  47.290  1.00  0.00    -0.268 OA
HETATM    6  C4  UNL     1      -6.757  13.703  49.523  1.00  0.00     0.101 C 
HETATM    7  C5  UNL     1      -7.265  13.661  50.800  1.00  0.00     0.041 C 
HETATM    8  N4  UNL     1      -8.290  12.903  51.254  1.00  0.00    -0.341 N 
ATOM      9  H4  UNL     1      -8.686  13.179  52.152  1.00  0.00     0.167 HD
HETATM   10  C7  UNL     1      -8.851  11.830  50.668  1.00  0.00     0.149 C 
ENDROOT
BRANCH  10  11
HETATM   11  N5  UNL     1      -9.430  11.020  51.449  1.00  0.00    -0.324 N 
HETATM   12  C8  UNL     1     -10.362  11.310  52.496  1.00  0.00     0.481 C 
HETATM   13  N6  UNL     1     -10.317  10.161  53.416  1.00  0.00    -0.033 N 
HETATM   14  N7  UNL     1     -11.687  11.407  51.907  1.00  0.00    -0.033 N 
ATOM     15  H63 UNL     1     -10.488   9.267  52.957  1.00  0.00     0.278 HD
ATOM     16  H62 UNL     1      -9.378   9.950  53.755  1.00  0.00     0.278 HD
ATOM     17  H61 UNL     1     -10.981  10.369  54.162  1.00  0.00     0.278 HD
ATOM     18  H73 UNL     1     -11.731  12.081  51.143  1.00  0.00     0.278 HD
ATOM     19  H72 UNL     1     -11.943  10.577  51.372  1.00  0.00     0.278 HD
ATOM     20  H71 UNL     1     -12.352  11.615  52.652  1.00  0.00     0.278 HD
ATOM     21  H5  UNL     1      -9.204  10.034  51.315  1.00  0.00     0.165 HD
ENDBRANCH  10  11
BRANCH   1  22
HETATM   22  N1  UNL     1      -9.828  10.696  48.935  1.00  0.00    -0.378 N 
HETATM   23  C1  UNL     1      -9.905  10.270  47.574  1.00  0.00     0.148 C 
ATOM     24  H1  UNL     1     -10.524  10.373  49.606  1.00  0.00     0.160 HD
ENDBRANCH   1  22
BRANCH   7  25
HETATM   25  C6  UNL     1      -6.625  14.544  51.796  1.00  0.00     0.286 C 
BRANCH  25  26
HETATM   26  N3  UNL     1      -5.270  14.911  51.400  1.00  0.00    -0.074 N 
ATOM     27  H33 UNL     1      -4.904  14.276  50.691  1.00  0.00     0.274 HD
ATOM     28  H32 UNL     1      -5.263  15.775  50.859  1.00  0.00     0.274 HD
ATOM     29  H31 UNL     1      -4.645  14.971  52.204  1.00  0.00     0.274 HD
ENDBRANCH  25  26
ENDBRANCH   7  25
TORSDOF 4
ENDMDL
MODEL 3
REMARK VINA RESULT: -6.303436986      1.972      3.910
REMARK  4 active torsions:
REMARK  status: ('A' for Active; 'I' for Inactive)
REMARK    1  A    between atoms: N1_2  and  C2_4 
REMARK    2  A    between atoms: C5_10  and  C6_11 
REMARK    3  A    between atoms: C6_11  and  N3_12 
REMARK    4  A    between atoms: C7_18  and  N5_19 
REMARK       I    between atoms: N5_19  and  C8_21 
REMARK       I    between atoms: C8_21  and  N6_22 
REMARK       I    between atoms: C8_21  and  N7_26 
ROOT
HETATM    1  C2  UNL     1      -8.634  12.074  49.127  1.00  0.00     0.148 C 
HETATM    2  N2  UNL     1      -9.742  12.158  49.893  1.00  0.00    -0.307 N 
ATOM      3  H2  UNL     1     -10.592  11.770  49.484  1.00  0.00     0.170 HD
HETATM    4  C3  UNL     1      -9.877  12.691  51.139  1.00  0.00     0.248 C 
HETATM    5  O1  UNL     1     -10.890  12.327  51.761  1.00  0.00    -0.268 OA
HETATM    6  C4  UNL     1      -9.011  13.587  51.783  1.00  0.00     0.101 C 
HETATM    7  C5  UNL     1      -7.731  13.933  51.422  1.00  0.00     0.041 C 
HETATM    8  N4  UNL     1      -7.024  13.484  50.358  1.00  0.00    -0.341 N 
ATOM      9  H4  UNL     1      -6.019  13.655  50.385  1.00  0.00     0.167 HD
HETATM   10  C7  UNL     1      -7.483  12.840  49.270  1.00  0.00     0.149 C 
ENDROOT
BRANCH  10  11
HETATM   11  N5  UNL     1      -6.771  12.945  48.230  1.00  0.00    -0.324 N 
HETATM   12  C8  UNL     1      -5.781  13.935  47.931  1.00  0.00     0.481 C 
HETATM   13  N6  UNL     1      -5.645  13.949  46.465  1.00  0.00    -0.033 N 
HETATM   14  N7  UNL     1      -4.525  13.513  48.530  1.00  0.00    -0.033 N 
ATOM     15  H63 UNL     1      -5.436  13.033  46.068  1.00  0.00     0.278 HD
ATOM     16  H62 UNL     1      -6.528  14.098  45.977  1.00  0.00     0.278 HD
ATOM     17  H61 UNL     1      -4.939  14.654  46.252  1.00  0.00     0.278 HD
ATOM     18  H73 UNL     1      -4.606  13.328  49.529  1.00  0.00     0.278 HD
ATOM     19  H72 UNL     1      -4.244  12.576  48.240  1.00  0.00     0.278 HD
ATOM     20  H71 UNL     1      -3.819  14.218  48.317  1.00  0.00     0.278 HD
ATOM     21  H5  UNL     1      -6.920  12.234  47.515  1.00  0.00     0.165 HD
ENDBRANCH  10  11
BRANCH   1  22
HETATM   22  N1  UNL     1      -8.651  11.200  48.178  1.00  0.00    -0.378 N 
HETATM   23  C1  UNL     1      -9.848  10.483  47.874  1.00  0.00     0.148 C 
ATOM     24  H1  UNL     1      -7.803  11.021  47.641  1.00  0.00     0.160 HD
ENDBRANCH   1  22
BRANCH   7  25
HETATM   25  C6  UNL     1      -7.039  14.907  52.291  1.00  0.00     0.286 C 
BRANCH  25  26
HETATM   26  N3  UNL     1      -5.646  15.087  51.897  1.00  0.00    -0.074 N 
ATOM     27  H33 UNL     1      -5.366  14.403  51.194  1.00  0.00     0.274 HD
ATOM     28  H32 UNL     1      -5.522  15.938  51.349  1.00  0.00     0.274 HD
ATOM     29  H31 UNL     1      -5.021  15.070  52.703  1.00  0.00     0.274 HD
ENDBRANCH  25  26
ENDBRANCH   7  25
TORSDOF 4
ENDMDL
MODEL 4
REMARK VINA RESULT: -6.208617309      1.527      1.736
REMARK  4 active torsions:
REMARK  status: ('A' for Active; 'I' for Inactive)
REMARK    1  A    between atoms: N1_2  and  C2_4 
REMARK    2  A    between atoms: C5_10  and  C6_11 
REMARK    3  A    between atoms: C6_11  and  N3_12 
REMARK    4  A    between atoms: C7_18  and  N5_19 
REMARK       I    between atoms: N5_19  and  C8_21 
REMARK       I    between atoms: C8_21  and  N6_22 
REMARK       I    between atoms: C8_21  and  N7_26 
ROOT
HETATM    1  C2  UNL     1      -7.375  13.131  48.700  1.00  0.00     0.148 C 
HETATM    2  N2  UNL     1      -8.522  13.246  47.999  1.00  0.00    -0.307 N 
ATOM      3  H2  UNL     1      -8.417  13.525  47.023  1.00  0.00     0.170 HD
HETATM    4  C3  UNL     1      -9.801  13.039  48.419  1.00  0.00     0.248 C 
HETATM    5  O1  UNL     1     -10.631  12.859  47.511  1.00  0.00    -0.268 OA
HETATM    6  C4  UNL     1     -10.271  13.006  49.739  1.00  0.00     0.101 C 
HETATM    7  C5  UNL     1      -9.535  12.925  50.898  1.00  0.00     0.041 C 
HETATM    8  N4  UNL     1      -8.188  12.862  51.016  1.00  0.00    -0.341 N 
ATOM      9  H4  UNL     1      -7.833  12.560  51.923  1.00  0.00     0.167 HD
HETATM   10  C7  UNL     1      -7.260  13.148  50.085  1.00  0.00     0.149 C 
ENDROOT
BRANCH  10  11
HETATM   11  N5  UNL     1      -6.124  13.481  50.530  1.00  0.00    -0.324 N 
HETATM   12  C8  UNL     1      -5.655  14.790  50.873  1.00  0.00     0.481 C 
HETATM   13  N6  UNL     1      -4.185  14.728  50.812  1.00  0.00    -0.033 N 
HETATM   14  N7  UNL     1      -6.072  15.076  52.237  1.00  0.00    -0.033 N 
ATOM     15  H63 UNL     1      -3.785  13.990  51.391  1.00  0.00     0.278 HD
ATOM     16  H62 UNL     1      -3.830  14.392  49.918  1.00  0.00     0.278 HD
ATOM     17  H61 UNL     1      -3.851  15.661  51.057  1.00  0.00     0.278 HD
ATOM     18  H73 UNL     1      -7.077  14.970  52.372  1.00  0.00     0.278 HD
ATOM     19  H72 UNL     1      -5.768  14.363  52.900  1.00  0.00     0.278 HD
ATOM     20  H71 UNL     1      -5.738  16.008  52.482  1.00  0.00     0.278 HD
ATOM     21  H5  UNL     1      -5.457  12.721  50.661  1.00  0.00     0.165 HD
ENDBRANCH  10  11
BRANCH   1  22
HETATM   22  N1  UNL     1      -6.290  12.991  48.017  1.00  0.00    -0.378 N 
HETATM   23  C1  UNL     1      -5.793  14.064  47.217  1.00  0.00     0.148 C 
ATOM     24  H1  UNL     1      -5.782  12.107  48.049  1.00  0.00     0.160 HD
ENDBRANCH   1  22
BRANCH   7  25
HETATM   25  C6  UNL     1     -10.295  12.903  52.164  1.00  0.00     0.286 C 
BRANCH  25  26
HETATM   26  N3  UNL     1      -9.612  13.647  53.217  1.00  0.00    -0.074 N 
ATOM     27  H33 UNL     1      -9.217  13.020  53.918  1.00  0.00     0.274 HD
ATOM     28  H32 UNL     1      -8.749  14.068  52.874  1.00  0.00     0.274 HD
ATOM     29  H31 UNL     1     -10.222  14.344  53.643  1.00  0.00     0.274 HD
ENDBRANCH  25  26
ENDBRANCH   7  25
TORSDOF 4
ENDMDL
MODEL 5
REMARK VINA RESULT: -5.952648900      2.600      4.368
REMARK  4 active torsions:
REMARK  status: ('A' for Active; 'I' for Inactive)
REMARK    1  A    between atoms: N1_2  and  C2_4 
REMARK    2  A    between atoms: C5_10  and  C6_11 
REMARK    3  A    between atoms: C6_11  and  N3_12 
REMARK    4  A    between atoms: C7_18  and  N5_19 
REMARK       I    between atoms: N5_19  and  C8_21 
REMARK       I    between atoms: C8_21  and  N6_22 
REMARK       I    between atoms: C8_21  and  N7_26 
ROOT
HETATM    1  C2  UNL     1      -7.254  13.171  49.149  1.00  0.00     0.148 C 
HETATM    2  N2  UNL     1      -6.487  13.739  50.102  1.00  0.00    -0.307 N 
ATOM      3  H2  UNL     1      -5.495  13.822  49.879  1.00  0.00     0.170 HD
HETATM    4  C3  UNL     1      -6.860  14.217  51.322  1.00  0.00     0.248 C 
HETATM    5  O1  UNL     1      -6.053  15.003  51.849  1.00  0.00    -0.268 OA
HETATM    6  C4  UNL     1      -8.033  13.925  52.031  1.00  0.00     0.101 C 
HETATM    7  C5  UNL     1      -9.170  13.305  51.568  1.00  0.00     0.041 C 
HETATM    8  N4  UNL     1      -9.402  12.836  50.320  1.00  0.00    -0.341 N 
ATOM      9  H4  UNL     1     -10.376  12.635  50.092  1.00  0.00     0.167 HD
HETATM   10  C7  UNL     1      -8.508  12.604  49.342  1.00  0.00     0.149 C 
ENDROOT
BRANCH  10  11
HETATM   11  N5  UNL     1      -8.855  11.749  48.476  1.00  0.00    -0.324 N 
HETATM   12  C8  UNL     1     -10.157  11.201  48.243  1.00  0.00     0.481 C 
HETATM   13  N6  UNL     1      -9.944   9.920  47.548  1.00  0.00    -0.033 N 
HETATM   14  N7  UNL     1     -10.880  12.111  47.370  1.00  0.00    -0.033 N 
ATOM     15  H63 UNL     1      -9.383  10.006  46.701  1.00  0.00     0.278 HD
ATOM     16  H62 UNL     1      -9.321   9.286  48.047  1.00  0.00     0.278 HD
ATOM     17  H61 UNL     1     -10.872   9.530  47.382  1.00  0.00     0.278 HD
ATOM     18  H73 UNL     1     -10.914  13.063  47.733  1.00  0.00     0.278 HD
ATOM     19  H72 UNL     1     -10.377  12.312  46.505  1.00  0.00     0.278 HD
ATOM     20  H71 UNL     1     -11.808  11.721  47.204  1.00  0.00     0.278 HD
ATOM     21  H5  UNL     1      -8.112  11.407  47.866  1.00  0.00     0.165 HD
ENDBRANCH  10  11
BRANCH   1  22
HETATM   22  N1  UNL     1      -6.775  13.156  47.951  1.00  0.00    -0.378 N 
HETATM   23  C1  UNL     1      -5.613  13.920  47.626  1.00  0.00     0.148 C 
ATOM     24  H1  UNL     1      -7.229  12.595  47.231  1.00  0.00     0.160 HD
ENDBRANCH   1  22
BRANCH   7  25
HETATM   25  C6  UNL     1     -10.268  13.127  52.538  1.00  0.00     0.286 C 
BRANCH  25  26
HETATM   26  N3  UNL     1     -10.085  13.962  53.720  1.00  0.00    -0.074 N 
ATOM     27  H33 UNL     1     -10.305  13.450  54.575  1.00  0.00     0.274 HD
ATOM     28  H32 UNL     1      -9.098  14.148  53.895  1.00  0.00     0.274 HD
ATOM     29  H31 UNL     1     -10.621  14.828  53.658  1.00  0.00     0.274 HD
ENDBRANCH  25  26
ENDBRANCH   7  25
TORSDOF 4
ENDMDL
