MODEL 1
REMARK VINA RESULT: -6.341533293      0.000      0.000
REMARK  7 active torsions:
REMARK  status: ('A' for Active; 'I' for Inactive)
REMARK    1  A    between atoms: N1_1  and  N2_4 
REMARK    2  A    between atoms: N2_4  and  C1_6 
REMARK    3  A    between atoms: C1_6  and  C2_7 
REMARK    4  A    between atoms: C1_6  and  N8_23 
REMARK    5  A    between atoms: C2_7  and  N3_8 
REMARK    6  A    between atoms: N3_8  and  C3_10 
REMARK    7  A    between atoms: N8_23  and  N9_25 
ROOT
HETATM    1  N3  UNL     1      -7.495  12.964  50.349  1.00  0.00    -0.367 N 
ATOM      2  H3  UNL     1      -7.242  12.742  51.312  1.00  0.00     0.161 HD
ENDROOT
BRANCH   1   3
HETATM    3  C2  UNL     1      -6.881  14.146  49.861  1.00  0.00     0.200 C 
BRANCH   3   4
HETATM    4  C1  UNL     1      -5.406  14.169  49.913  1.00  0.00     0.127 C 
BRANCH   4   5
HETATM    5  N2  UNL     1      -4.788  14.517  50.974  1.00  0.00    -0.293 N 
ATOM      6  H2  UNL     1      -3.803  14.271  51.068  1.00  0.00     0.187 HD
BRANCH   5   7
HETATM    7  N1  UNL     1      -5.390  15.208  51.994  1.00  0.00    -0.344 N 
ATOM      8  H12 UNL     1      -6.129  15.866  51.745  1.00  0.00     0.176 HD
ATOM      9  H11 UNL     1      -5.130  15.090  52.974  1.00  0.00     0.176 HD
ENDBRANCH   5   7
ENDBRANCH   4   5
BRANCH   4  10
HETATM   10  N8  UNL     1      -4.667  13.823  48.773  1.00  0.00    -0.293 N 
ATOM     11  H8  UNL     1      -3.691  13.542  48.863  1.00  0.00     0.187 HD
BRANCH  10  12
HETATM   12  N9  UNL     1      -5.265  13.864  47.523  1.00  0.00    -0.344 N 
ATOM     13  H92 UNL     1      -6.250  13.616  47.437  1.00  0.00     0.176 HD
ATOM     14  H91 UNL     1      -4.719  14.139  46.706  1.00  0.00     0.176 HD
ENDBRANCH  10  12
ENDBRANCH   4  10
ENDBRANCH   3   4
ENDBRANCH   1   3
BRANCH   1  15
HETATM   15  C3  UNL     1      -8.281  12.142  49.837  1.00  0.00     0.133 A 
HETATM   16  N4  UNL     1      -8.361  11.910  48.525  1.00  0.00    -0.337 N 
HETATM   17  C4  UNL     1      -9.239  11.000  48.029  1.00  0.00     0.183 A 
ATOM     18  H4  UNL     1      -7.755  12.423  47.885  1.00  0.00     0.168 HD
HETATM   19  N5  UNL     1     -10.046  10.318  48.868  1.00  0.00    -0.337 N 
HETATM   20  C5  UNL     1     -10.013  10.510  50.207  1.00  0.00     0.138 A 
ATOM     21  H5  UNL     1     -10.701   9.638  48.482  1.00  0.00     0.168 HD
HETATM   22  N6  UNL     1     -10.657  10.011  51.273  1.00  0.00    -0.337 N 
HETATM   23  C7  UNL     1      -9.121  11.432  50.705  1.00  0.00     0.122 A 
HETATM   24  C6  UNL     1     -10.208  10.581  52.405  1.00  0.00     0.182 A 
ATOM     25  H6  UNL     1     -11.386   9.299  51.230  1.00  0.00     0.168 HD
HETATM   26  N7  UNL     1      -9.263  11.453  52.040  1.00  0.00    -0.346 N 
ATOM     27  H7  UNL     1      -8.730  12.044  52.678  1.00  0.00     0.167 HD
ENDBRANCH   1  15
TORSDOF 7
ENDMDL
MODEL 2
REMARK VINA RESULT: -6.285104459      0.071      1.844
REMARK  7 active torsions:
REMARK  status: ('A' for Active; 'I' for Inactive)
REMARK    1  A    between atoms: N1_1  and  N2_4 
REMARK    2  A    between atoms: N2_4  and  C1_6 
REMARK    3  A    between atoms: C1_6  and  C2_7 
REMARK    4  A    between atoms: C1_6  and  N8_23 
REMARK    5  A    between atoms: C2_7  and  N3_8 
REMARK    6  A    between atoms: N3_8  and  C3_10 
REMARK    7  A    between atoms: N8_23  and  N9_25 
ROOT
HETATM    1  N3  UNL     1      -7.496  12.964  50.284  1.00  0.00    -0.367 N 
ATOM      2  H3  UNL     1      -7.227  12.754  51.246  1.00  0.00     0.161 HD
ENDROOT
BRANCH   1   3
HETATM    3  C2  UNL     1      -6.890  14.138  49.771  1.00  0.00     0.200 C 
BRANCH   3   4
HETATM    4  C1  UNL     1      -5.414  14.144  49.760  1.00  0.00     0.127 C 
BRANCH   4   5
HETATM    5  N2  UNL     1      -4.759  13.794  48.722  1.00  0.00    -0.293 N 
ATOM      6  H2  UNL     1      -3.802  13.463  48.839  1.00  0.00     0.187 HD
BRANCH   5   7
HETATM    7  N1  UNL     1      -5.285  13.844  47.457  1.00  0.00    -0.344 N 
ATOM      8  H12 UNL     1      -4.664  13.622  46.679  1.00  0.00     0.176 HD
ATOM      9  H11 UNL     1      -6.258  14.091  47.271  1.00  0.00     0.176 HD
ENDBRANCH   5   7
ENDBRANCH   4   5
BRANCH   4  10
HETATM   10  N8  UNL     1      -4.716  14.521  50.916  1.00  0.00    -0.293 N 
ATOM     11  H8  UNL     1      -3.723  14.304  51.006  1.00  0.00     0.187 HD
BRANCH  10  12
HETATM   12  N9  UNL     1      -5.375  15.187  51.937  1.00  0.00    -0.344 N 
ATOM     13  H92 UNL     1      -4.919  15.980  52.387  1.00  0.00     0.176 HD
ATOM     14  H91 UNL     1      -6.305  14.882  52.226  1.00  0.00     0.176 HD
ENDBRANCH  10  12
ENDBRANCH   4  10
ENDBRANCH   3   4
ENDBRANCH   1   3
BRANCH   1  15
HETATM   15  C3  UNL     1      -8.292  12.136  49.797  1.00  0.00     0.133 A 
HETATM   16  N4  UNL     1      -8.397  11.889  48.489  1.00  0.00    -0.337 N 
HETATM   17  C4  UNL     1      -9.283  10.974  48.020  1.00  0.00     0.183 A 
ATOM     18  H4  UNL     1      -7.803  12.395  47.832  1.00  0.00     0.168 HD
HETATM   19  N5  UNL     1     -10.074  10.300  48.882  1.00  0.00    -0.337 N 
HETATM   20  C5  UNL     1     -10.015  10.507  50.217  1.00  0.00     0.138 A 
ATOM     21  H5  UNL     1     -10.735   9.615  48.515  1.00  0.00     0.168 HD
HETATM   22  N6  UNL     1     -10.638  10.020  51.301  1.00  0.00    -0.337 N 
HETATM   23  C7  UNL     1      -9.114  11.435  50.688  1.00  0.00     0.122 A 
HETATM   24  C6  UNL     1     -10.168  10.602  52.418  1.00  0.00     0.182 A 
ATOM     25  H6  UNL     1     -11.367   9.306  51.280  1.00  0.00     0.168 HD
HETATM   26  N7  UNL     1      -9.231  11.470  52.025  1.00  0.00    -0.346 N 
ATOM     27  H7  UNL     1      -8.686  12.068  52.647  1.00  0.00     0.167 HD
ENDBRANCH   1  15
TORSDOF 7
ENDMDL
MODEL 3
REMARK VINA RESULT: -6.204600486      0.774      2.199
REMARK  7 active torsions:
REMARK  status: ('A' for Active; 'I' for Inactive)
REMARK    1  A    between atoms: N1_1  and  N2_4 
REMARK    2  A    between atoms: N2_4  and  C1_6 
REMARK    3  A    between atoms: C1_6  and  C2_7 
REMARK    4  A    between atoms: C1_6  and  N8_23 
REMARK    5  A    between atoms: C2_7  and  N3_8 
REMARK    6  A    between atoms: N3_8  and  C3_10 
REMARK    7  A    between atoms: N8_23  and  N9_25 
ROOT
HETATM    1  N3  UNL     1      -7.446  12.847  49.523  1.00  0.00    -0.367 N 
ATOM      2  H3  UNL     1      -7.074  12.402  48.683  1.00  0.00     0.161 HD
ENDROOT
BRANCH   1   3
HETATM    3  C2  UNL     1      -6.877  14.117  49.789  1.00  0.00     0.200 C 
BRANCH   3   4
HETATM    4  C1  UNL     1      -5.403  14.157  49.854  1.00  0.00     0.127 C 
BRANCH   4   5
HETATM    5  N2  UNL     1      -4.798  14.503  50.924  1.00  0.00    -0.293 N 
ATOM      6  H2  UNL     1      -3.807  14.280  51.017  1.00  0.00     0.187 HD
BRANCH   5   7
HETATM    7  N1  UNL     1      -5.421  15.161  51.953  1.00  0.00    -0.344 N 
ATOM      8  H12 UNL     1      -6.427  15.024  52.058  1.00  0.00     0.176 HD
ATOM      9  H11 UNL     1      -4.924  15.769  52.604  1.00  0.00     0.176 HD
ENDBRANCH   5   7
ENDBRANCH   4   5
BRANCH   4  10
HETATM   10  N8  UNL     1      -4.650  13.830  48.717  1.00  0.00    -0.293 N 
ATOM     11  H8  UNL     1      -3.693  13.494  48.818  1.00  0.00     0.187 HD
BRANCH  10  12
HETATM   12  N9  UNL     1      -5.209  13.964  47.456  1.00  0.00    -0.344 N 
ATOM     13  H92 UNL     1      -6.108  14.435  47.361  1.00  0.00     0.176 HD
ATOM     14  H91 UNL     1      -4.721  13.594  46.641  1.00  0.00     0.176 HD
ENDBRANCH  10  12
ENDBRANCH   4  10
ENDBRANCH   3   4
ENDBRANCH   1   3
BRANCH   1  15
HETATM   15  C3  UNL     1      -8.309  12.163  50.108  1.00  0.00     0.133 A 
HETATM   16  N4  UNL     1      -8.523  12.208  51.426  1.00  0.00    -0.337 N 
HETATM   17  C4  UNL     1      -9.480  11.438  52.005  1.00  0.00     0.183 A 
ATOM     18  H4  UNL     1      -7.959  12.829  52.006  1.00  0.00     0.168 HD
HETATM   19  N5  UNL     1     -10.230  10.613  51.245  1.00  0.00    -0.337 N 
HETATM   20  C5  UNL     1     -10.060  10.522  49.906  1.00  0.00     0.138 A 
ATOM     21  H5  UNL     1     -10.945  10.040  51.693  1.00  0.00     0.168 HD
HETATM   22  N6  UNL     1     -10.620   9.827  48.904  1.00  0.00    -0.337 N 
HETATM   23  C7  UNL     1      -9.090  11.304  49.324  1.00  0.00     0.122 A 
HETATM   24  C6  UNL     1     -10.042  10.140  47.731  1.00  0.00     0.182 A 
ATOM     25  H6  UNL     1     -11.379   9.154  49.017  1.00  0.00     0.168 HD
HETATM   26  N7  UNL     1      -9.102  11.051  48.005  1.00  0.00    -0.346 N 
ATOM     27  H7  UNL     1      -8.489  11.487  47.317  1.00  0.00     0.167 HD
ENDBRANCH   1  15
TORSDOF 7
ENDMDL
MODEL 4
REMARK VINA RESULT: -6.164593722      0.800      2.865
REMARK  7 active torsions:
REMARK  status: ('A' for Active; 'I' for Inactive)
REMARK    1  A    between atoms: N1_1  and  N2_4 
REMARK    2  A    between atoms: N2_4  and  C1_6 
REMARK    3  A    between atoms: C1_6  and  C2_7 
REMARK    4  A    between atoms: C1_6  and  N8_23 
REMARK    5  A    between atoms: C2_7  and  N3_8 
REMARK    6  A    between atoms: N3_8  and  C3_10 
REMARK    7  A    between atoms: N8_23  and  N9_25 
ROOT
HETATM    1  N3  UNL     1      -7.474  12.859  49.460  1.00  0.00    -0.367 N 
ATOM      2  H3  UNL     1      -7.146  12.432  48.593  1.00  0.00     0.161 HD
ENDROOT
BRANCH   1   3
HETATM    3  C2  UNL     1      -6.886  14.122  49.726  1.00  0.00     0.200 C 
BRANCH   3   4
HETATM    4  C1  UNL     1      -5.411  14.148  49.751  1.00  0.00     0.127 C 
BRANCH   4   5
HETATM    5  N2  UNL     1      -4.726  13.810  48.729  1.00  0.00    -0.293 N 
ATOM      6  H2  UNL     1      -3.799  13.409  48.874  1.00  0.00     0.187 HD
BRANCH   5   7
HETATM    7  N1  UNL     1      -5.180  13.962  47.444  1.00  0.00    -0.344 N 
ATOM      8  H12 UNL     1      -5.677  13.175  47.025  1.00  0.00     0.176 HD
ATOM      9  H11 UNL     1      -5.042  14.816  46.905  1.00  0.00     0.176 HD
ENDBRANCH   5   7
ENDBRANCH   4   5
BRANCH   4  10
HETATM   10  N8  UNL     1      -4.746  14.531  50.925  1.00  0.00    -0.293 N 
ATOM     11  H8  UNL     1      -3.742  14.376  51.017  1.00  0.00     0.187 HD
BRANCH  10  12
HETATM   12  N9  UNL     1      -5.454  15.120  51.960  1.00  0.00    -0.344 N 
ATOM     13  H92 UNL     1      -6.469  15.029  51.981  1.00  0.00     0.176 HD
ATOM     14  H91 UNL     1      -4.958  15.637  52.687  1.00  0.00     0.176 HD
ENDBRANCH  10  12
ENDBRANCH   4  10
ENDBRANCH   3   4
ENDBRANCH   1   3
BRANCH   1  15
HETATM   15  C3  UNL     1      -8.310  12.166  50.072  1.00  0.00     0.133 A 
HETATM   16  N4  UNL     1      -8.490  12.215  51.394  1.00  0.00    -0.337 N 
HETATM   17  C4  UNL     1      -9.419  11.434  52.003  1.00  0.00     0.183 A 
ATOM     18  H4  UNL     1      -7.921  12.849  51.955  1.00  0.00     0.168 HD
HETATM   19  N5  UNL     1     -10.175  10.592  51.268  1.00  0.00    -0.337 N 
HETATM   20  C5  UNL     1     -10.039  10.496  49.925  1.00  0.00     0.138 A 
ATOM     21  H5  UNL     1     -10.869  10.011  51.738  1.00  0.00     0.168 HD
HETATM   22  N6  UNL     1     -10.614   9.786  48.943  1.00  0.00    -0.337 N 
HETATM   23  C7  UNL     1      -9.097  11.290  49.313  1.00  0.00     0.122 A 
HETATM   24  C6  UNL     1     -10.072  10.101  47.753  1.00  0.00     0.182 A 
ATOM     25  H6  UNL     1     -11.359   9.102  49.079  1.00  0.00     0.168 HD
HETATM   26  N7  UNL     1      -9.141  11.028  47.997  1.00  0.00    -0.346 N 
ATOM     27  H7  UNL     1      -8.553  11.470  47.290  1.00  0.00     0.167 HD
ENDBRANCH   1  15
TORSDOF 7
ENDMDL
MODEL 5
REMARK VINA RESULT: -5.979249333      1.247      2.316
REMARK  7 active torsions:
REMARK  status: ('A' for Active; 'I' for Inactive)
REMARK    1  A    between atoms: N1_1  and  N2_4 
REMARK    2  A    between atoms: N2_4  and  C1_6 
REMARK    3  A    between atoms: C1_6  and  C2_7 
REMARK    4  A    between atoms: C1_6  and  N8_23 
REMARK    5  A    between atoms: C2_7  and  N3_8 
REMARK    6  A    between atoms: N3_8  and  C3_10 
REMARK    7  A    between atoms: N8_23  and  N9_25 
ROOT
HETATM    1  N3  UNL     1      -7.470  12.962  50.382  1.00  0.00    -0.367 N 
ATOM      2  H3  UNL     1      -7.031  12.070  50.152  1.00  0.00     0.161 HD
ENDROOT
BRANCH   1   3
HETATM    3  C2  UNL     1      -6.862  14.073  49.746  1.00  0.00     0.200 C 
BRANCH   3   4
HETATM    4  C1  UNL     1      -5.391  14.143  49.847  1.00  0.00     0.127 C 
BRANCH   4   5
HETATM    5  N2  UNL     1      -4.819  14.476  50.938  1.00  0.00    -0.293 N 
ATOM      6  H2  UNL     1      -3.848  14.199  51.084  1.00  0.00     0.187 HD
BRANCH   5   7
HETATM    7  N1  UNL     1      -5.451  15.191  51.923  1.00  0.00    -0.344 N 
ATOM      8  H12 UNL     1      -4.879  15.540  52.693  1.00  0.00     0.176 HD
ATOM      9  H11 UNL     1      -6.454  15.381  51.914  1.00  0.00     0.176 HD
ENDBRANCH   5   7
ENDBRANCH   4   5
BRANCH   4  10
HETATM   10  N8  UNL     1      -4.606  13.859  48.721  1.00  0.00    -0.293 N 
ATOM     11  H8  UNL     1      -3.611  13.663  48.829  1.00  0.00     0.187 HD
BRANCH  10  12
HETATM   12  N9  UNL     1      -5.183  13.846  47.461  1.00  0.00    -0.344 N 
ATOM     13  H92 UNL     1      -4.968  13.078  46.826  1.00  0.00     0.176 HD
ATOM     14  H91 UNL     1      -5.813  14.599  47.182  1.00  0.00     0.176 HD
ENDBRANCH  10  12
ENDBRANCH   4  10
ENDBRANCH   3   4
ENDBRANCH   1   3
BRANCH   1  15
HETATM   15  C3  UNL     1      -8.433  12.855  51.168  1.00  0.00     0.133 A 
HETATM   16  N4  UNL     1      -8.624  13.652  52.221  1.00  0.00    -0.337 N 
HETATM   17  C4  UNL     1      -9.694  13.485  53.040  1.00  0.00     0.183 A 
ATOM     18  H4  UNL     1      -7.956  14.399  52.414  1.00  0.00     0.168 HD
HETATM   19  N5  UNL     1     -10.582  12.499  52.792  1.00  0.00    -0.337 N 
HETATM   20  C5  UNL     1     -10.442  11.658  51.742  1.00  0.00     0.138 A 
ATOM     21  H5  UNL     1     -11.381  12.385  53.416  1.00  0.00     0.168 HD
HETATM   22  N6  UNL     1     -11.123  10.617  51.239  1.00  0.00    -0.337 N 
HETATM   23  C7  UNL     1      -9.357  11.832  50.915  1.00  0.00     0.122 A 
HETATM   24  C6  UNL     1     -10.510  10.138  50.141  1.00  0.00     0.182 A 
ATOM     25  H6  UNL     1     -11.985  10.241  51.633  1.00  0.00     0.168 HD
HETATM   26  N7  UNL     1      -9.425  10.896  49.954  1.00  0.00    -0.346 N 
ATOM     27  H7  UNL     1      -8.752  10.782  49.197  1.00  0.00     0.167 HD
ENDBRANCH   1  15
TORSDOF 7
ENDMDL
