MODEL 1
REMARK VINA RESULT: -6.389943875      0.000      0.000
REMARK  6 active torsions:
REMARK  status: ('A' for Active; 'I' for Inactive)
REMARK    1  A    between atoms: C4_4  and  C5_5 
REMARK    2  A    between atoms: N3_13  and  C9_14 
REMARK    3  A    between atoms: C12_17  and  N4_18 
REMARK    4  A    between atoms: N4_18  and  C13_20 
REMARK    5  A    between atoms: C13_20  and  C14_21 
REMARK    6  A    between atoms: C14_21  and  C15_22 
ROOT
HETATM    1  C5  UNL     1     -22.618  13.377 -21.390  1.00  0.00     0.108 A 
HETATM    2  N1  UNL     1     -22.794  12.196 -22.032  1.00  0.00    -0.326 N 
ATOM      3  H1  UNL     1     -23.708  11.937 -22.402  1.00  0.00     0.169 HD
HETATM    4  C6  UNL     1     -21.738  11.373 -22.173  1.00  0.00     0.141 A 
HETATM    5  C7  UNL     1     -20.500  11.728 -21.670  1.00  0.00     0.122 A 
HETATM    6  N2  UNL     1     -19.691  10.712 -21.967  1.00  0.00    -0.346 N 
ATOM      7  H2  UNL     1     -18.701  10.681 -21.723  1.00  0.00     0.167 HD
HETATM    8  C8  UNL     1     -20.328   9.743 -22.619  1.00  0.00     0.185 A 
HETATM    9  N3  UNL     1     -21.598  10.150 -22.746  1.00  0.00    -0.323 N 
HETATM   10  C12 UNL     1     -20.326  12.950 -21.007  1.00  0.00     0.137 A 
HETATM   11  N5  UNL     1     -21.420  13.728 -20.900  1.00  0.00    -0.327 N 
ATOM     12  H5  UNL     1     -21.334  14.625 -20.424  1.00  0.00     0.169 HD
ENDROOT
BRANCH  10  13
HETATM   13  N4  UNL     1     -19.200  13.283 -20.541  1.00  0.00    -0.354 N 
ATOM     14  H4  UNL     1     -18.907  12.719 -19.744  1.00  0.00     0.166 HD
BRANCH  13  15
HETATM   15  C13 UNL     1     -18.269  14.274 -20.898  1.00  0.00     0.071 C 
BRANCH  15  16
HETATM   16  C14 UNL     1     -18.691  15.661 -20.430  1.00  0.00     0.162 C 
BRANCH  16  17
HETATM   17  C15 UNL     1     -17.654  16.676 -20.902  1.00  0.00     0.392 C 
HETATM   18  F1  UNL     1     -16.920  17.055 -19.782  1.00  0.00    -0.171 F 
HETATM   19  F2  UNL     1     -16.836  16.161 -21.864  1.00  0.00    -0.171 F 
HETATM   20  F3  UNL     1     -18.356  17.797 -21.307  1.00  0.00    -0.171 F 
ENDBRANCH  16  17
ENDBRANCH  15  16
ENDBRANCH  13  15
ENDBRANCH  10  13
BRANCH   1  21
HETATM   21  C4  UNL     1     -23.712  14.308 -21.203  1.00  0.00     0.050 C 
HETATM   22  C2  UNL     1     -24.340  14.976 -22.122  1.00  0.00    -0.084 C 
HETATM   23  C1  UNL     1     -24.026  14.888 -23.560  1.00  0.00     0.043 C 
HETATM   24  C3  UNL     1     -25.469  15.905 -21.722  1.00  0.00     0.043 C 
ENDBRANCH   1  21
BRANCH   9  25
HETATM   25  C9  UNL     1     -22.672   9.413 -23.381  1.00  0.00     0.084 C 
HETATM   26  C10 UNL     1     -22.021   8.451 -24.360  1.00  0.00     0.032 C 
HETATM   27  C11 UNL     1     -23.474   8.600 -22.413  1.00  0.00     0.032 C 
ENDBRANCH   9  25
TORSDOF 6
ENDMDL
MODEL 2
REMARK VINA RESULT: -6.253292600      9.776     12.141
REMARK  6 active torsions:
REMARK  status: ('A' for Active; 'I' for Inactive)
REMARK    1  A    between atoms: C4_4  and  C5_5 
REMARK    2  A    between atoms: N3_13  and  C9_14 
REMARK    3  A    between atoms: C12_17  and  N4_18 
REMARK    4  A    between atoms: N4_18  and  C13_20 
REMARK    5  A    between atoms: C13_20  and  C14_21 
REMARK    6  A    between atoms: C14_21  and  C15_22 
ROOT
HETATM    1  C5  UNL     1     -15.831  17.732 -12.550  1.00  0.00     0.108 A 
HETATM    2  N1  UNL     1     -17.000  18.336 -12.874  1.00  0.00    -0.326 N 
ATOM      3  H1  UNL     1     -17.066  19.353 -12.914  1.00  0.00     0.169 HD
HETATM    4  C6  UNL     1     -18.073  17.568 -13.143  1.00  0.00     0.141 A 
HETATM    5  C7  UNL     1     -17.979  16.189 -13.087  1.00  0.00     0.122 A 
HETATM    6  N2  UNL     1     -19.194  15.738 -13.395  1.00  0.00    -0.346 N 
ATOM      7  H2  UNL     1     -19.441  14.750 -13.438  1.00  0.00     0.167 HD
HETATM    8  C8  UNL     1     -20.046  16.731 -13.641  1.00  0.00     0.185 A 
HETATM    9  N3  UNL     1     -19.352  17.866 -13.483  1.00  0.00    -0.323 N 
HETATM   10  C12 UNL     1     -16.768  15.572 -12.750  1.00  0.00     0.137 A 
HETATM   11  N5  UNL     1     -15.734  16.396 -12.493  1.00  0.00    -0.327 N 
ATOM     12  H5  UNL     1     -14.834  15.984 -12.244  1.00  0.00     0.169 HD
ENDROOT
BRANCH  10  13
HETATM   13  N4  UNL     1     -16.672  14.313 -12.692  1.00  0.00    -0.354 N 
ATOM     14  H4  UNL     1     -17.523  13.856 -12.366  1.00  0.00     0.166 HD
BRANCH  13  15
HETATM   15  C13 UNL     1     -15.631  13.416 -12.986  1.00  0.00     0.071 C 
BRANCH  15  16
HETATM   16  C14 UNL     1     -15.547  12.276 -11.978  1.00  0.00     0.162 C 
BRANCH  16  17
HETATM   17  C15 UNL     1     -16.502  11.167 -12.409  1.00  0.00     0.392 C 
HETATM   18  F1  UNL     1     -15.899   9.959 -12.066  1.00  0.00    -0.171 F 
HETATM   19  F2  UNL     1     -17.723  11.283 -11.814  1.00  0.00    -0.171 F 
HETATM   20  F3  UNL     1     -16.548  11.201 -13.791  1.00  0.00    -0.171 F 
ENDBRANCH  16  17
ENDBRANCH  15  16
ENDBRANCH  13  15
ENDBRANCH  10  13
BRANCH   1  21
HETATM   21  C4  UNL     1     -14.639  18.499 -12.247  1.00  0.00     0.050 C 
HETATM   22  C2  UNL     1     -14.246  18.909 -11.081  1.00  0.00    -0.084 C 
HETATM   23  C1  UNL     1     -14.979  18.649  -9.828  1.00  0.00     0.043 C 
HETATM   24  C3  UNL     1     -12.959  19.702 -10.969  1.00  0.00     0.043 C 
ENDBRANCH   1  21
BRANCH   9  25
HETATM   25  C9  UNL     1     -19.870  19.211 -13.635  1.00  0.00     0.084 C 
HETATM   26  C10 UNL     1     -19.405  19.706 -14.994  1.00  0.00     0.032 C 
HETATM   27  C11 UNL     1     -21.366  19.266 -13.620  1.00  0.00     0.032 C 
ENDBRANCH   9  25
TORSDOF 6
ENDMDL
MODEL 3
REMARK VINA RESULT: -6.177492724      9.597     12.140
REMARK  6 active torsions:
REMARK  status: ('A' for Active; 'I' for Inactive)
REMARK    1  A    between atoms: C4_4  and  C5_5 
REMARK    2  A    between atoms: N3_13  and  C9_14 
REMARK    3  A    between atoms: C12_17  and  N4_18 
REMARK    4  A    between atoms: N4_18  and  C13_20 
REMARK    5  A    between atoms: C13_20  and  C14_21 
REMARK    6  A    between atoms: C14_21  and  C15_22 
ROOT
HETATM    1  C5  UNL     1     -15.974  17.535 -12.523  1.00  0.00     0.108 A 
HETATM    2  N1  UNL     1     -16.988  18.275 -13.034  1.00  0.00    -0.326 N 
ATOM      3  H1  UNL     1     -16.881  19.280 -13.170  1.00  0.00     0.169 HD
HETATM    4  C6  UNL     1     -18.140  17.658 -13.359  1.00  0.00     0.141 A 
HETATM    5  C7  UNL     1     -18.281  16.294 -13.173  1.00  0.00     0.122 A 
HETATM    6  N2  UNL     1     -19.516  16.006 -13.581  1.00  0.00    -0.346 N 
ATOM      7  H2  UNL     1     -19.917  15.069 -13.567  1.00  0.00     0.167 HD
HETATM    8  C8  UNL     1     -20.163  17.087 -14.011  1.00  0.00     0.185 A 
HETATM    9  N3  UNL     1     -19.311  18.112 -13.872  1.00  0.00    -0.323 N 
HETATM   10  C12 UNL     1     -17.229  15.536 -12.643  1.00  0.00     0.137 A 
HETATM   11  N5  UNL     1     -16.105  16.214 -12.340  1.00  0.00    -0.327 N 
ATOM     12  H5  UNL     1     -15.316  15.697 -11.952  1.00  0.00     0.169 HD
ENDROOT
BRANCH  10  13
HETATM   13  N4  UNL     1     -17.348  14.292 -12.465  1.00  0.00    -0.354 N 
ATOM     14  H4  UNL     1     -17.712  13.797 -13.280  1.00  0.00     0.166 HD
BRANCH  13  15
HETATM   15  C13 UNL     1     -17.082  13.449 -11.372  1.00  0.00     0.071 C 
BRANCH  15  16
HETATM   16  C14 UNL     1     -17.403  11.990 -11.673  1.00  0.00     0.162 C 
BRANCH  16  17
HETATM   17  C15 UNL     1     -16.222  11.369 -12.414  1.00  0.00     0.392 C 
HETATM   18  F1  UNL     1     -16.134  10.045 -11.994  1.00  0.00    -0.171 F 
HETATM   19  F2  UNL     1     -16.374  11.438 -13.767  1.00  0.00    -0.171 F 
HETATM   20  F3  UNL     1     -15.086  12.004 -11.946  1.00  0.00    -0.171 F 
ENDBRANCH  16  17
ENDBRANCH  15  16
ENDBRANCH  13  15
ENDBRANCH  10  13
BRANCH   1  21
HETATM   21  C4  UNL     1     -14.710  18.137 -12.151  1.00  0.00     0.050 C 
HETATM   22  C2  UNL     1     -14.367  18.581 -10.981  1.00  0.00    -0.084 C 
HETATM   23  C1  UNL     1     -15.246  18.543  -9.798  1.00  0.00     0.043 C 
HETATM   24  C3  UNL     1     -12.987  19.178 -10.790  1.00  0.00     0.043 C 
ENDBRANCH   1  21
BRANCH   9  25
HETATM   25  C9  UNL     1     -19.582  19.497 -14.200  1.00  0.00     0.084 C 
HETATM   26  C10 UNL     1     -20.602  19.487 -15.327  1.00  0.00     0.032 C 
HETATM   27  C11 UNL     1     -20.176  20.262 -13.059  1.00  0.00     0.032 C 
ENDBRANCH   9  25
TORSDOF 6
ENDMDL
MODEL 4
REMARK VINA RESULT: -6.174842958      3.549      5.939
REMARK  6 active torsions:
REMARK  status: ('A' for Active; 'I' for Inactive)
REMARK    1  A    between atoms: C4_4  and  C5_5 
REMARK    2  A    between atoms: N3_13  and  C9_14 
REMARK    3  A    between atoms: C12_17  and  N4_18 
REMARK    4  A    between atoms: N4_18  and  C13_20 
REMARK    5  A    between atoms: C13_20  and  C14_21 
REMARK    6  A    between atoms: C14_21  and  C15_22 
ROOT
HETATM    1  C5  UNL     1     -22.804  14.204 -20.715  1.00  0.00     0.108 A 
HETATM    2  N1  UNL     1     -21.767  15.062 -20.553  1.00  0.00    -0.326 N 
ATOM      3  H1  UNL     1     -21.932  16.061 -20.434  1.00  0.00     0.169 HD
HETATM    4  C6  UNL     1     -20.514  14.568 -20.552  1.00  0.00     0.141 A 
HETATM    5  C7  UNL     1     -20.294  13.212 -20.714  1.00  0.00     0.122 A 
HETATM    6  N2  UNL     1     -18.972  13.058 -20.670  1.00  0.00    -0.346 N 
ATOM      7  H2  UNL     1     -18.499  12.160 -20.761  1.00  0.00     0.167 HD
HETATM    8  C8  UNL     1     -18.341  14.218 -20.493  1.00  0.00     0.185 A 
HETATM    9  N3  UNL     1     -19.297  15.155 -20.421  1.00  0.00    -0.323 N 
HETATM   10  C12 UNL     1     -21.372  12.332 -20.881  1.00  0.00     0.137 A 
HETATM   11  N5  UNL     1     -22.598  12.889 -20.873  1.00  0.00    -0.327 N 
ATOM     12  H5  UNL     1     -23.409  12.282 -20.993  1.00  0.00     0.169 HD
ENDROOT
BRANCH  10  13
HETATM   13  N4  UNL     1     -21.183  11.093 -21.034  1.00  0.00    -0.354 N 
ATOM     14  H4  UNL     1     -21.026  10.595 -20.158  1.00  0.00     0.166 HD
BRANCH  13  15
HETATM   15  C13 UNL     1     -21.145  10.260 -22.166  1.00  0.00     0.071 C 
BRANCH  15  16
HETATM   16  C14 UNL     1     -19.751  10.175 -22.775  1.00  0.00     0.162 C 
BRANCH  16  17
HETATM   17  C15 UNL     1     -19.594   8.818 -23.456  1.00  0.00     0.392 C 
HETATM   18  F1  UNL     1     -20.733   8.077 -23.147  1.00  0.00    -0.171 F 
HETATM   19  F2  UNL     1     -19.448   8.938 -24.807  1.00  0.00    -0.171 F 
HETATM   20  F3  UNL     1     -18.535   8.184 -22.833  1.00  0.00    -0.171 F 
ENDBRANCH  16  17
ENDBRANCH  15  16
ENDBRANCH  13  15
ENDBRANCH  10  13
BRANCH   1  21
HETATM   21  C4  UNL     1     -24.176  14.670 -20.729  1.00  0.00     0.050 C 
HETATM   22  C2  UNL     1     -24.864  15.054 -21.760  1.00  0.00    -0.084 C 
HETATM   23  C1  UNL     1     -24.337  15.079 -23.136  1.00  0.00     0.043 C 
HETATM   24  C3  UNL     1     -26.298  15.506 -21.568  1.00  0.00     0.043 C 
ENDBRANCH   1  21
BRANCH   9  25
HETATM   25  C9  UNL     1     -19.086  16.577 -20.245  1.00  0.00     0.084 C 
HETATM   26  C10 UNL     1     -19.357  16.880 -18.781  1.00  0.00     0.032 C 
HETATM   27  C11 UNL     1     -17.680  17.000 -20.542  1.00  0.00     0.032 C 
ENDBRANCH   9  25
TORSDOF 6
ENDMDL
MODEL 5
REMARK VINA RESULT: -6.054054964      3.636      6.084
REMARK  6 active torsions:
REMARK  status: ('A' for Active; 'I' for Inactive)
REMARK    1  A    between atoms: C4_4  and  C5_5 
REMARK    2  A    between atoms: N3_13  and  C9_14 
REMARK    3  A    between atoms: C12_17  and  N4_18 
REMARK    4  A    between atoms: N4_18  and  C13_20 
REMARK    5  A    between atoms: C13_20  and  C14_21 
REMARK    6  A    between atoms: C14_21  and  C15_22 
ROOT
HETATM    1  C5  UNL     1     -22.785  14.225 -20.624  1.00  0.00     0.108 A 
HETATM    2  N1  UNL     1     -21.743  15.081 -20.486  1.00  0.00    -0.326 N 
ATOM      3  H1  UNL     1     -21.904  16.077 -20.341  1.00  0.00     0.169 HD
HETATM    4  C6  UNL     1     -20.490  14.589 -20.544  1.00  0.00     0.141 A 
HETATM    5  C7  UNL     1     -20.276  13.237 -20.741  1.00  0.00     0.122 A 
HETATM    6  N2  UNL     1     -18.953  13.085 -20.753  1.00  0.00    -0.346 N 
ATOM      7  H2  UNL     1     -18.483  12.189 -20.880  1.00  0.00     0.167 HD
HETATM    8  C8  UNL     1     -18.317  14.241 -20.578  1.00  0.00     0.185 A 
HETATM    9  N3  UNL     1     -19.270  15.175 -20.450  1.00  0.00    -0.323 N 
HETATM   10  C12 UNL     1     -21.359  12.359 -20.884  1.00  0.00     0.137 A 
HETATM   11  N5  UNL     1     -22.584  12.914 -20.816  1.00  0.00    -0.327 N 
ATOM     12  H5  UNL     1     -23.398  12.307 -20.916  1.00  0.00     0.169 HD
ENDROOT
BRANCH  10  13
HETATM   13  N4  UNL     1     -21.175  11.123 -21.068  1.00  0.00    -0.354 N 
ATOM     14  H4  UNL     1     -21.031  10.600 -20.205  1.00  0.00     0.166 HD
BRANCH  13  15
HETATM   15  C13 UNL     1     -21.129  10.322 -22.223  1.00  0.00     0.071 C 
BRANCH  15  16
HETATM   16  C14 UNL     1     -19.718  10.199 -22.786  1.00  0.00     0.162 C 
BRANCH  16  17
HETATM   17  C15 UNL     1     -19.574   8.837 -23.458  1.00  0.00     0.392 C 
HETATM   18  F1  UNL     1     -20.717   8.107 -23.141  1.00  0.00    -0.171 F 
HETATM   19  F2  UNL     1     -19.431   8.947 -24.810  1.00  0.00    -0.171 F 
HETATM   20  F3  UNL     1     -18.517   8.199 -22.834  1.00  0.00    -0.171 F 
ENDBRANCH  16  17
ENDBRANCH  15  16
ENDBRANCH  13  15
ENDBRANCH  10  13
BRANCH   1  21
HETATM   21  C4  UNL     1     -24.157  14.688 -20.574  1.00  0.00     0.050 C 
HETATM   22  C2  UNL     1     -24.891  14.852 -19.517  1.00  0.00    -0.084 C 
HETATM   23  C1  UNL     1     -24.427  14.582 -18.144  1.00  0.00     0.043 C 
HETATM   24  C3  UNL     1     -26.313  15.353 -19.672  1.00  0.00     0.043 C 
ENDBRANCH   1  21
BRANCH   9  25
HETATM   25  C9  UNL     1     -19.053  16.594 -20.253  1.00  0.00     0.084 C 
HETATM   26  C10 UNL     1     -19.331  16.879 -18.787  1.00  0.00     0.032 C 
HETATM   27  C11 UNL     1     -17.644  17.014 -20.537  1.00  0.00     0.032 C 
ENDBRANCH   9  25
TORSDOF 6
ENDMDL
