MODEL 1
REMARK VINA RESULT: -6.232056367      0.000      0.000
REMARK  5 active torsions:
REMARK  status: ('A' for Active; 'I' for Inactive)
REMARK    1  A    between atoms: C1_2  and  C2_4 
REMARK    2  A    between atoms: C2_4  and  C3_5 
REMARK    3  A    between atoms: C3_5  and  O1_6 
REMARK    4  A    between atoms: O1_6  and  C4_7 
REMARK    5  A    between atoms: C8_17  and  C9_18 
ROOT
HETATM    1  C4  UNL     1     -17.888  15.658 -12.763  1.00  0.00     0.158 A 
HETATM    2  N1  UNL     1     -18.871  16.164 -13.524  1.00  0.00    -0.332 N 
ATOM      3  H1  UNL     1     -19.679  15.577 -13.732  1.00  0.00     0.168 HD
HETATM    4  C5  UNL     1     -18.835  17.405 -14.021  1.00  0.00     0.184 A 
HETATM    5  N2  UNL     1     -17.800  18.238 -13.791  1.00  0.00    -0.338 N 
ATOM      6  H2  UNL     1     -17.799  19.179 -14.183  1.00  0.00     0.168 HD
HETATM    7  C6  UNL     1     -16.769  17.815 -13.038  1.00  0.00     0.121 A 
HETATM    8  N3  UNL     1     -15.610  18.422 -12.657  1.00  0.00    -0.351 N 
ATOM      9  H3  UNL     1     -15.313  19.370 -12.890  1.00  0.00     0.166 HD
HETATM   10  C7  UNL     1     -14.935  17.531 -11.916  1.00  0.00     0.098 A 
HETATM   11  C8  UNL     1     -15.648  16.354 -11.814  1.00  0.00    -0.019 A 
HETATM   12  C13 UNL     1     -16.804  16.535 -12.525  1.00  0.00     0.067 A 
ENDROOT
BRANCH   1  13
HETATM   13  O1  UNL     1     -17.808  14.441 -12.219  1.00  0.00    -0.334 OA
BRANCH  13  14
HETATM   14  C3  UNL     1     -18.469  13.295 -12.321  1.00  0.00     0.192 C 
BRANCH  14  15
HETATM   15  C2  UNL     1     -17.875  11.956 -12.472  1.00  0.00     0.041 C 
HETATM   16  C14 UNL     1     -16.530  11.923 -13.190  1.00  0.00     0.017 C 
HETATM   17  C15 UNL     1     -16.130  10.778 -12.300  1.00  0.00     0.002 C 
HETATM   18  C16 UNL     1     -17.349  11.114 -11.416  1.00  0.00     0.017 C 
BRANCH  15  19
HETATM   19  C1  UNL     1     -18.865  11.125 -13.355  1.00  0.00     0.363 C 
HETATM   20  F1  UNL     1     -20.079  11.764 -13.447  1.00  0.00    -0.214 F 
HETATM   21  F2  UNL     1     -18.343  10.847 -14.576  1.00  0.00    -0.214 F 
ENDBRANCH  15  19
ENDBRANCH  14  15
ENDBRANCH  13  14
ENDBRANCH   1  13
BRANCH  11  22
HETATM   22  C9  UNL     1     -15.248  15.152 -11.072  1.00  0.00     0.048 C 
HETATM   23  C10 UNL     1     -14.267  14.299 -11.910  1.00  0.00     0.038 C 
HETATM   24  C11 UNL     1     -13.744  13.400 -10.782  1.00  0.00     0.233 C 
HETATM   25  N4  UNL     1     -13.532  14.303  -9.669  1.00  0.00    -0.074 N 
HETATM   26  C12 UNL     1     -14.241  15.528  -9.965  1.00  0.00     0.241 C 
ATOM     27  H42 UNL     1     -13.795  13.897  -8.771  1.00  0.00     0.277 HD
ATOM     28  H41 UNL     1     -12.545  14.454  -9.462  1.00  0.00     0.277 HD
ENDBRANCH  11  22
TORSDOF 5
ENDMDL
MODEL 2
REMARK VINA RESULT: -6.102694255      5.762      8.445
REMARK  5 active torsions:
REMARK  status: ('A' for Active; 'I' for Inactive)
REMARK    1  A    between atoms: C1_2  and  C2_4 
REMARK    2  A    between atoms: C2_4  and  C3_5 
REMARK    3  A    between atoms: C3_5  and  O1_6 
REMARK    4  A    between atoms: O1_6  and  C4_7 
REMARK    5  A    between atoms: C8_17  and  C9_18 
ROOT
HETATM    1  C4  UNL     1     -21.269  18.000 -17.176  1.00  0.00     0.158 A 
HETATM    2  N1  UNL     1     -22.175  18.670 -16.448  1.00  0.00    -0.332 N 
ATOM      3  H1  UNL     1     -22.035  18.743 -15.440  1.00  0.00     0.168 HD
HETATM    4  C5  UNL     1     -23.254  19.247 -16.987  1.00  0.00     0.184 A 
HETATM    5  N2  UNL     1     -23.508  19.192 -18.311  1.00  0.00    -0.338 N 
ATOM      6  H2  UNL     1     -24.340  19.640 -18.695  1.00  0.00     0.168 HD
HETATM    7  C6  UNL     1     -22.653  18.540 -19.119  1.00  0.00     0.121 A 
HETATM    8  N3  UNL     1     -22.660  18.318 -20.464  1.00  0.00    -0.351 N 
ATOM      9  H3  UNL     1     -23.362  18.639 -21.131  1.00  0.00     0.166 HD
HETATM   10  C7  UNL     1     -21.565  17.596 -20.740  1.00  0.00     0.098 A 
HETATM   11  C8  UNL     1     -20.849  17.349 -19.586  1.00  0.00    -0.019 A 
HETATM   12  C13 UNL     1     -21.539  17.945 -18.565  1.00  0.00     0.067 A 
ENDROOT
BRANCH   1  13
HETATM   13  O1  UNL     1     -20.162  17.382 -16.754  1.00  0.00    -0.334 OA
BRANCH  13  14
HETATM   14  C3  UNL     1     -19.095  17.702 -16.034  1.00  0.00     0.192 C 
BRANCH  14  15
HETATM   15  C2  UNL     1     -19.039  17.838 -14.569  1.00  0.00     0.041 C 
HETATM   16  C14 UNL     1     -20.106  17.057 -13.808  1.00  0.00     0.017 C 
HETATM   17  C15 UNL     1     -19.102  16.839 -12.709  1.00  0.00     0.002 C 
HETATM   18  C16 UNL     1     -18.011  17.323 -13.687  1.00  0.00     0.017 C 
BRANCH  15  19
HETATM   19  C1  UNL     1     -19.289  19.349 -14.250  1.00  0.00     0.363 C 
HETATM   20  F1  UNL     1     -18.954  20.131 -15.331  1.00  0.00    -0.214 F 
HETATM   21  F2  UNL     1     -20.560  19.576 -13.834  1.00  0.00    -0.214 F 
ENDBRANCH  15  19
ENDBRANCH  14  15
ENDBRANCH  13  14
ENDBRANCH   1  13
BRANCH  11  22
HETATM   22  C9  UNL     1     -19.586  16.609 -19.483  1.00  0.00     0.048 C 
HETATM   23  C10 UNL     1     -19.727  15.205 -20.118  1.00  0.00     0.038 C 
HETATM   24  C11 UNL     1     -18.235  14.864 -20.223  1.00  0.00     0.233 C 
HETATM   25  N4  UNL     1     -17.619  16.085 -20.703  1.00  0.00    -0.074 N 
HETATM   26  C12 UNL     1     -18.571  17.155 -20.508  1.00  0.00     0.241 C 
ATOM     27  H42 UNL     1     -16.714  16.272 -20.270  1.00  0.00     0.277 HD
ATOM     28  H41 UNL     1     -17.292  16.013 -21.667  1.00  0.00     0.277 HD
ENDBRANCH  11  22
TORSDOF 5
ENDMDL
MODEL 3
REMARK VINA RESULT: -5.992920460      5.986      8.822
REMARK  5 active torsions:
REMARK  status: ('A' for Active; 'I' for Inactive)
REMARK    1  A    between atoms: C1_2  and  C2_4 
REMARK    2  A    between atoms: C2_4  and  C3_5 
REMARK    3  A    between atoms: C3_5  and  O1_6 
REMARK    4  A    between atoms: O1_6  and  C4_7 
REMARK    5  A    between atoms: C8_17  and  C9_18 
ROOT
HETATM    1  C4  UNL     1     -19.645  18.081 -15.870  1.00  0.00     0.158 A 
HETATM    2  N1  UNL     1     -18.567  18.040 -15.072  1.00  0.00    -0.332 N 
ATOM      3  H1  UNL     1     -17.781  17.449 -15.343  1.00  0.00     0.168 HD
HETATM    4  C5  UNL     1     -18.479  18.741 -13.936  1.00  0.00     0.184 A 
HETATM    5  N2  UNL     1     -19.478  19.542 -13.511  1.00  0.00    -0.338 N 
ATOM      6  H2  UNL     1     -19.384  20.064 -12.641  1.00  0.00     0.168 HD
HETATM    7  C6  UNL     1     -20.598  19.644 -14.248  1.00  0.00     0.121 A 
HETATM    8  N3  UNL     1     -21.748  20.352 -14.064  1.00  0.00    -0.351 N 
ATOM      9  H3  UNL     1     -21.963  20.973 -13.283  1.00  0.00     0.166 HD
HETATM   10  C7  UNL     1     -22.542  20.075 -15.107  1.00  0.00     0.098 A 
HETATM   11  C8  UNL     1     -21.917  19.194 -15.966  1.00  0.00    -0.019 A 
HETATM   12  C13 UNL     1     -20.691  18.923 -15.420  1.00  0.00     0.067 A 
ENDROOT
BRANCH   1  13
HETATM   13  O1  UNL     1     -19.851  17.427 -17.016  1.00  0.00    -0.334 OA
BRANCH  13  14
HETATM   14  C3  UNL     1     -19.174  17.212 -18.136  1.00  0.00     0.192 C 
BRANCH  14  15
HETATM   15  C2  UNL     1     -19.747  17.008 -19.477  1.00  0.00     0.041 C 
HETATM   16  C14 UNL     1     -20.644  15.781 -19.615  1.00  0.00     0.017 C 
HETATM   17  C15 UNL     1     -21.481  16.556 -20.596  1.00  0.00     0.002 C 
HETATM   18  C16 UNL     1     -20.746  17.830 -20.131  1.00  0.00     0.017 C 
BRANCH  15  19
HETATM   19  C1  UNL     1     -18.542  16.782 -20.450  1.00  0.00     0.363 C 
HETATM   20  F1  UNL     1     -18.413  17.847 -21.310  1.00  0.00    -0.214 F 
HETATM   21  F2  UNL     1     -17.390  16.529 -19.780  1.00  0.00    -0.214 F 
ENDBRANCH  15  19
ENDBRANCH  14  15
ENDBRANCH  13  14
ENDBRANCH   1  13
BRANCH  11  22
HETATM   22  C9  UNL     1     -22.457  18.669 -17.225  1.00  0.00     0.048 C 
HETATM   23  C10 UNL     1     -23.392  17.466 -16.954  1.00  0.00     0.038 C 
HETATM   24  C11 UNL     1     -24.078  17.412 -18.326  1.00  0.00     0.233 C 
HETATM   25  N4  UNL     1     -24.353  18.798 -18.647  1.00  0.00    -0.074 N 
HETATM   26  C12 UNL     1     -23.550  19.614 -17.763  1.00  0.00     0.241 C 
ATOM     27  H42 UNL     1     -24.207  19.015 -19.633  1.00  0.00     0.277 HD
ATOM     28  H41 UNL     1     -25.346  19.026 -18.607  1.00  0.00     0.277 HD
ENDBRANCH  11  22
TORSDOF 5
ENDMDL
MODEL 4
REMARK VINA RESULT: -5.983580461      8.804     10.169
REMARK  5 active torsions:
REMARK  status: ('A' for Active; 'I' for Inactive)
REMARK    1  A    between atoms: C1_2  and  C2_4 
REMARK    2  A    between atoms: C2_4  and  C3_5 
REMARK    3  A    between atoms: C3_5  and  O1_6 
REMARK    4  A    between atoms: O1_6  and  C4_7 
REMARK    5  A    between atoms: C8_17  and  C9_18 
ROOT
HETATM    1  C4  UNL     1     -19.373  14.451 -20.457  1.00  0.00     0.158 A 
HETATM    2  N1  UNL     1     -18.065  14.659 -20.671  1.00  0.00    -0.332 N 
ATOM      3  H1  UNL     1     -17.468  13.855 -20.866  1.00  0.00     0.168 HD
HETATM    4  C5  UNL     1     -17.510  15.875 -20.640  1.00  0.00     0.184 A 
HETATM    5  N2  UNL     1     -18.234  16.985 -20.388  1.00  0.00    -0.338 N 
ATOM      6  H2  UNL     1     -17.785  17.900 -20.370  1.00  0.00     0.168 HD
HETATM    7  C6  UNL     1     -19.555  16.872 -20.161  1.00  0.00     0.121 A 
HETATM    8  N3  UNL     1     -20.513  17.798 -19.875  1.00  0.00    -0.351 N 
ATOM      9  H3  UNL     1     -20.379  18.806 -19.787  1.00  0.00     0.166 HD
HETATM   10  C7  UNL     1     -21.665  17.129 -19.733  1.00  0.00     0.098 A 
HETATM   11  C8  UNL     1     -21.462  15.777 -19.924  1.00  0.00    -0.019 A 
HETATM   12  C13 UNL     1     -20.129  15.618 -20.193  1.00  0.00     0.067 A 
ENDROOT
BRANCH   1  13
HETATM   13  O1  UNL     1     -20.037  13.292 -20.456  1.00  0.00    -0.334 OA
BRANCH  13  14
HETATM   14  C3  UNL     1     -19.995  12.158 -21.144  1.00  0.00     0.192 C 
BRANCH  14  15
HETATM   15  C2  UNL     1     -21.150  11.423 -21.686  1.00  0.00     0.041 C 
HETATM   16  C14 UNL     1     -22.192  11.005 -20.653  1.00  0.00     0.017 C 
HETATM   17  C15 UNL     1     -23.252  11.217 -21.699  1.00  0.00     0.002 C 
HETATM   18  C16 UNL     1     -22.191  11.951 -22.545  1.00  0.00     0.017 C 
BRANCH  15  19
HETATM   19  C1  UNL     1     -20.588  10.099 -22.303  1.00  0.00     0.363 C 
HETATM   20  F1  UNL     1     -19.238  10.213 -22.537  1.00  0.00    -0.214 F 
HETATM   21  F2  UNL     1     -20.882   9.019 -21.538  1.00  0.00    -0.214 F 
ENDBRANCH  15  19
ENDBRANCH  14  15
ENDBRANCH  13  14
ENDBRANCH   1  13
BRANCH  11  22
HETATM   22  C9  UNL     1     -22.482  14.723 -19.869  1.00  0.00     0.048 C 
HETATM   23  C10 UNL     1     -23.461  14.978 -18.698  1.00  0.00     0.038 C 
HETATM   24  C11 UNL     1     -24.572  14.013 -19.132  1.00  0.00     0.233 C 
HETATM   25  N4  UNL     1     -24.698  14.225 -20.560  1.00  0.00    -0.074 N 
HETATM   26  C12 UNL     1     -23.513  14.929 -20.998  1.00  0.00     0.241 C 
ATOM     27  H42 UNL     1     -24.862  13.361 -21.078  1.00  0.00     0.277 HD
ATOM     28  H41 UNL     1     -25.562  14.701 -20.817  1.00  0.00     0.277 HD
ENDBRANCH  11  22
TORSDOF 5
ENDMDL
MODEL 5
REMARK VINA RESULT: -5.816241663      8.607     11.328
REMARK  5 active torsions:
REMARK  status: ('A' for Active; 'I' for Inactive)
REMARK    1  A    between atoms: C1_2  and  C2_4 
REMARK    2  A    between atoms: C2_4  and  C3_5 
REMARK    3  A    between atoms: C3_5  and  O1_6 
REMARK    4  A    between atoms: O1_6  and  C4_7 
REMARK    5  A    between atoms: C8_17  and  C9_18 
ROOT
HETATM    1  C4  UNL     1     -20.442  12.848 -21.056  1.00  0.00     0.158 A 
HETATM    2  N1  UNL     1     -19.599  11.840 -21.327  1.00  0.00    -0.332 N 
ATOM      3  H1  UNL     1     -18.646  11.890 -20.968  1.00  0.00     0.168 HD
HETATM    4  C5  UNL     1     -19.956  10.772 -22.048  1.00  0.00     0.184 A 
HETATM    5  N2  UNL     1     -21.198  10.635 -22.557  1.00  0.00    -0.338 N 
ATOM      6  H2  UNL     1     -21.442   9.810 -23.104  1.00  0.00     0.168 HD
HETATM    7  C6  UNL     1     -22.110  11.599 -22.336  1.00  0.00     0.121 A 
HETATM    8  N3  UNL     1     -23.409  11.731 -22.727  1.00  0.00    -0.351 N 
ATOM      9  H3  UNL     1     -23.947  11.070 -23.288  1.00  0.00     0.166 HD
HETATM   10  C7  UNL     1     -23.843  12.898 -22.232  1.00  0.00     0.098 A 
HETATM   11  C8  UNL     1     -22.836  13.523 -21.523  1.00  0.00    -0.019 A 
HETATM   12  C13 UNL     1     -21.744  12.701 -21.592  1.00  0.00     0.067 A 
ENDROOT
BRANCH   1  13
HETATM   13  O1  UNL     1     -20.202  13.961 -20.357  1.00  0.00    -0.334 OA
BRANCH  13  14
HETATM   14  C3  UNL     1     -19.284  14.919 -20.357  1.00  0.00     0.192 C 
BRANCH  14  15
HETATM   15  C2  UNL     1     -19.449  16.286 -19.835  1.00  0.00     0.041 C 
HETATM   16  C14 UNL     1     -20.527  17.114 -20.527  1.00  0.00     0.017 C 
HETATM   17  C15 UNL     1     -20.810  17.773 -19.204  1.00  0.00     0.002 C 
HETATM   18  C16 UNL     1     -19.970  16.664 -18.537  1.00  0.00     0.017 C 
BRANCH  15  19
HETATM   19  C1  UNL     1     -18.094  17.028 -20.089  1.00  0.00     0.363 C 
HETATM   20  F1  UNL     1     -17.044  16.141 -20.040  1.00  0.00    -0.214 F 
HETATM   21  F2  UNL     1     -18.111  17.731 -21.248  1.00  0.00    -0.214 F 
ENDBRANCH  15  19
ENDBRANCH  14  15
ENDBRANCH  13  14
ENDBRANCH   1  13
BRANCH  11  22
HETATM   22  C9  UNL     1     -22.931  14.807 -20.820  1.00  0.00     0.048 C 
HETATM   23  C10 UNL     1     -24.143  15.620 -21.335  1.00  0.00     0.038 C 
HETATM   24  C11 UNL     1     -24.214  16.647 -20.197  1.00  0.00     0.233 C 
HETATM   25  N4  UNL     1     -24.015  15.866 -18.993  1.00  0.00    -0.074 N 
HETATM   26  C12 UNL     1     -23.471  14.587 -19.392  1.00  0.00     0.241 C 
ATOM     27  H42 UNL     1     -23.441  16.344 -18.298  1.00  0.00     0.277 HD
ATOM     28  H41 UNL     1     -24.861  15.781 -18.430  1.00  0.00     0.277 HD
ENDBRANCH  11  22
TORSDOF 5
ENDMDL
