MODEL 1
REMARK VINA RESULT: -6.167234021      0.000      0.000
REMARK  5 active torsions:
REMARK  status: ('A' for Active; 'I' for Inactive)
REMARK    1  A    between atoms: C2_2  and  C3_3 
REMARK    2  A    between atoms: C3_3  and  N1_4 
REMARK    3  A    between atoms: N1_4  and  C4_6 
REMARK    4  A    between atoms: C6_8  and  C7_9 
REMARK    5  A    between atoms: C11_15  and  C12_16 
ROOT
HETATM    1  C4  UNL     1     -21.221  15.388 -20.173  1.00  0.00     0.132 A 
HETATM    2  C5  UNL     1     -22.582  15.527 -20.467  1.00  0.00     0.075 A 
HETATM    3  C6  UNL     1     -23.338  14.552 -21.062  1.00  0.00     0.018 A 
HETATM    4  N2  UNL     1     -22.709  13.397 -21.371  1.00  0.00    -0.342 N 
ATOM      5  H2  UNL     1     -23.222  12.635 -21.813  1.00  0.00     0.167 HD
HETATM    6  C10 UNL     1     -21.404  13.260 -21.090  1.00  0.00     0.160 A 
HETATM    7  C11 UNL     1     -20.591  12.178 -21.322  1.00  0.00     0.141 A 
HETATM    8  N4  UNL     1     -19.389  12.538 -20.865  1.00  0.00    -0.281 N 
ATOM      9  H4  UNL     1     -18.562  11.942 -20.895  1.00  0.00     0.188 HD
HETATM   10  N5  UNL     1     -19.406  13.747 -20.375  1.00  0.00    -0.232 N 
ATOM     11  H5  UNL     1     -18.617  14.248 -19.967  1.00  0.00     0.209 HD
HETATM   12  N6  UNL     1     -20.649  14.203 -20.510  1.00  0.00    -0.207 N 
ENDROOT
BRANCH   7  13
HETATM   13  C12 UNL     1     -20.883  10.879 -21.926  1.00  0.00     0.315 C 
HETATM   14  F1  UNL     1     -21.772  10.988 -22.971  1.00  0.00    -0.204 F 
HETATM   15  C13 UNL     1     -21.483   9.973 -20.878  1.00  0.00     0.086 C 
HETATM   16  C14 UNL     1     -21.319   8.609 -21.528  1.00  0.00     0.072 C 
HETATM   17  C15 UNL     1     -20.323   8.824 -22.651  1.00  0.00     0.372 C 
HETATM   18  F2  UNL     1     -19.373   7.842 -22.698  1.00  0.00    -0.219 F 
HETATM   19  N3  UNL     1     -19.746  10.133 -22.361  1.00  0.00    -0.001 N 
ATOM     20  H32 UNL     1     -19.225  10.553 -23.131  1.00  0.00     0.285 HD
ATOM     21  H31 UNL     1     -18.964  10.123 -21.707  1.00  0.00     0.285 HD
ENDBRANCH   7  13
BRANCH   3  22
HETATM   22  C7  UNL     1     -24.770  14.820 -21.322  1.00  0.00     0.036 A 
HETATM   23  C8  UNL     1     -25.572  13.927 -22.186  1.00  0.00     0.011 A 
HETATM   24  C9  UNL     1     -25.098  15.238 -22.733  1.00  0.00     0.011 A 
ENDBRANCH   3  22
BRANCH   1  25
HETATM   25  N1  UNL     1     -20.580  16.333 -19.621  1.00  0.00    -0.354 N 
ATOM     26  H1  UNL     1     -20.759  16.397 -18.620  1.00  0.00     0.166 HD
BRANCH  25  27
HETATM   27  C3  UNL     1     -19.688  17.304 -20.071  1.00  0.00     0.062 C 
BRANCH  27  28
HETATM   28  C2  UNL     1     -18.232  17.042 -19.733  1.00  0.00     0.040 C 
HETATM   29  C1  UNL     1     -17.452  16.630 -20.967  1.00  0.00     0.010 C 
ENDBRANCH  27  28
ENDBRANCH  25  27
ENDBRANCH   1  25
TORSDOF 5
ENDMDL
MODEL 2
REMARK VINA RESULT: -6.110680915      1.810      2.495
REMARK  5 active torsions:
REMARK  status: ('A' for Active; 'I' for Inactive)
REMARK    1  A    between atoms: C2_2  and  C3_3 
REMARK    2  A    between atoms: C3_3  and  N1_4 
REMARK    3  A    between atoms: N1_4  and  C4_6 
REMARK    4  A    between atoms: C6_8  and  C7_9 
REMARK    5  A    between atoms: C11_15  and  C12_16 
ROOT
HETATM    1  C4  UNL     1     -20.154  13.697 -20.711  1.00  0.00     0.132 A 
HETATM    2  C5  UNL     1     -21.363  14.387 -20.562  1.00  0.00     0.075 A 
HETATM    3  C6  UNL     1     -22.584  13.867 -20.898  1.00  0.00     0.018 A 
HETATM    4  N2  UNL     1     -22.596  12.613 -21.399  1.00  0.00    -0.342 N 
ATOM      5  H2  UNL     1     -23.477  12.174 -21.665  1.00  0.00     0.167 HD
HETATM    6  C10 UNL     1     -21.440  11.948 -21.543  1.00  0.00     0.160 A 
HETATM    7  C11 UNL     1     -21.239  10.679 -22.027  1.00  0.00     0.141 A 
HETATM    8  N4  UNL     1     -19.920  10.484 -21.967  1.00  0.00    -0.281 N 
ATOM      9  H4  UNL     1     -19.453   9.625 -22.260  1.00  0.00     0.188 HD
HETATM   10  N5  UNL     1     -19.304  11.528 -21.486  1.00  0.00    -0.232 N 
ATOM     11  H5  UNL     1     -18.299  11.627 -21.341  1.00  0.00     0.209 HD
HETATM   12  N6  UNL     1     -20.236  12.440 -21.220  1.00  0.00    -0.207 N 
ENDROOT
BRANCH   7  13
HETATM   13  C12 UNL     1     -22.193   9.687 -22.521  1.00  0.00     0.315 C 
HETATM   14  F1  UNL     1     -22.769   8.974 -21.494  1.00  0.00    -0.204 F 
HETATM   15  C13 UNL     1     -21.470   8.719 -23.428  1.00  0.00     0.086 C 
HETATM   16  C14 UNL     1     -22.631   8.066 -24.160  1.00  0.00     0.072 C 
HETATM   17  C15 UNL     1     -23.821   8.970 -23.899  1.00  0.00     0.372 C 
HETATM   18  F2  UNL     1     -24.555   9.202 -25.028  1.00  0.00    -0.219 F 
HETATM   19  N3  UNL     1     -23.223  10.192 -23.370  1.00  0.00    -0.001 N 
ATOM     20  H32 UNL     1     -23.878  10.830 -22.918  1.00  0.00     0.285 HD
ATOM     21  H31 UNL     1     -22.909  10.857 -24.077  1.00  0.00     0.285 HD
ENDBRANCH   7  13
BRANCH   3  22
HETATM   22  C7  UNL     1     -23.792  14.697 -20.695  1.00  0.00     0.036 A 
HETATM   23  C8  UNL     1     -25.072  14.364 -21.356  1.00  0.00     0.011 A 
HETATM   24  C9  UNL     1     -24.240  15.484 -21.900  1.00  0.00     0.011 A 
ENDBRANCH   3  22
BRANCH   1  25
HETATM   25  N1  UNL     1     -19.057  14.239 -20.380  1.00  0.00    -0.354 N 
ATOM     26  H1  UNL     1     -18.861  14.153 -19.383  1.00  0.00     0.166 HD
BRANCH  25  27
HETATM   27  C3  UNL     1     -18.057  14.926 -21.066  1.00  0.00     0.062 C 
BRANCH  27  28
HETATM   28  C2  UNL     1     -17.684  16.272 -20.476  1.00  0.00     0.040 C 
HETATM   29  C1  UNL     1     -18.914  17.133 -20.259  1.00  0.00     0.010 C 
ENDBRANCH  27  28
ENDBRANCH  25  27
ENDBRANCH   1  25
TORSDOF 5
ENDMDL
MODEL 3
REMARK VINA RESULT: -6.049250537      9.444     10.929
REMARK  5 active torsions:
REMARK  status: ('A' for Active; 'I' for Inactive)
REMARK    1  A    between atoms: C2_2  and  C3_3 
REMARK    2  A    between atoms: C3_3  and  N1_4 
REMARK    3  A    between atoms: N1_4  and  C4_6 
REMARK    4  A    between atoms: C6_8  and  C7_9 
REMARK    5  A    between atoms: C11_15  and  C12_16 
ROOT
HETATM    1  C4  UNL     1     -14.855  17.549 -11.686  1.00  0.00     0.132 A 
HETATM    2  C5  UNL     1     -15.958  18.077 -12.366  1.00  0.00     0.075 A 
HETATM    3  C6  UNL     1     -16.909  17.311 -12.986  1.00  0.00     0.018 A 
HETATM    4  N2  UNL     1     -16.752  15.971 -12.921  1.00  0.00    -0.342 N 
ATOM      5  H2  UNL     1     -17.431  15.352 -13.363  1.00  0.00     0.167 HD
HETATM    6  C10 UNL     1     -15.696  15.462 -12.269  1.00  0.00     0.160 A 
HETATM    7  C11 UNL     1     -15.359  14.143 -12.090  1.00  0.00     0.141 A 
HETATM    8  N4  UNL     1     -14.230  14.161 -11.378  1.00  0.00    -0.281 N 
ATOM      9  H4  UNL     1     -13.724  13.327 -11.081  1.00  0.00     0.188 HD
HETATM   10  N5  UNL     1     -13.854  15.382 -11.110  1.00  0.00    -0.232 N 
ATOM     11  H5  UNL     1     -13.027  15.661 -10.582  1.00  0.00     0.209 HD
HETATM   12  N6  UNL     1     -14.755  16.194 -11.657  1.00  0.00    -0.207 N 
ENDROOT
BRANCH   7  13
HETATM   13  C12 UNL     1     -16.024  12.920 -12.538  1.00  0.00     0.315 C 
HETATM   14  F1  UNL     1     -15.785  12.665 -13.869  1.00  0.00    -0.204 F 
HETATM   15  C13 UNL     1     -17.514  13.070 -12.340  1.00  0.00     0.086 C 
HETATM   16  C14 UNL     1     -17.979  11.627 -12.435  1.00  0.00     0.072 C 
HETATM   17  C15 UNL     1     -16.719  10.796 -12.282  1.00  0.00     0.372 C 
HETATM   18  F2  UNL     1     -16.894   9.739 -11.433  1.00  0.00    -0.219 F 
HETATM   19  N3  UNL     1     -15.732  11.747 -11.781  1.00  0.00    -0.001 N 
ATOM     20  H32 UNL     1     -14.764  11.429 -11.837  1.00  0.00     0.285 HD
ATOM     21  H31 UNL     1     -15.736  11.876 -10.769  1.00  0.00     0.285 HD
ENDBRANCH   7  13
BRANCH   3  22
HETATM   22  C7  UNL     1     -18.030  17.988 -13.676  1.00  0.00     0.036 A 
HETATM   23  C8  UNL     1     -18.886  18.967 -12.970  1.00  0.00     0.011 A 
HETATM   24  C9  UNL     1     -19.406  17.584 -13.212  1.00  0.00     0.011 A 
ENDBRANCH   3  22
BRANCH   1  25
HETATM   25  N1  UNL     1     -14.009  18.316 -11.134  1.00  0.00    -0.354 N 
ATOM     26  H1  UNL     1     -13.225  17.808 -10.726  1.00  0.00     0.166 HD
BRANCH  25  27
HETATM   27  C3  UNL     1     -13.907  19.694 -10.956  1.00  0.00     0.062 C 
BRANCH  27  28
HETATM   28  C2  UNL     1     -12.904  20.384 -11.861  1.00  0.00     0.040 C 
HETATM   29  C1  UNL     1     -13.150  21.879 -11.910  1.00  0.00     0.010 C 
ENDBRANCH  27  28
ENDBRANCH  25  27
ENDBRANCH   1  25
TORSDOF 5
ENDMDL
MODEL 4
REMARK VINA RESULT: -6.033898160      8.239     10.433
REMARK  5 active torsions:
REMARK  status: ('A' for Active; 'I' for Inactive)
REMARK    1  A    between atoms: C2_2  and  C3_3 
REMARK    2  A    between atoms: C3_3  and  N1_4 
REMARK    3  A    between atoms: N1_4  and  C4_6 
REMARK    4  A    between atoms: C6_8  and  C7_9 
REMARK    5  A    between atoms: C11_15  and  C12_16 
ROOT
HETATM    1  C4  UNL     1     -18.717  17.458 -13.351  1.00  0.00     0.132 A 
HETATM    2  C5  UNL     1     -17.527  18.113 -13.016  1.00  0.00     0.075 A 
HETATM    3  C6  UNL     1     -16.450  17.492 -12.442  1.00  0.00     0.018 A 
HETATM    4  N2  UNL     1     -16.569  16.169 -12.196  1.00  0.00    -0.342 N 
ATOM      5  H2  UNL     1     -15.798  15.654 -11.771  1.00  0.00     0.167 HD
HETATM    6  C10 UNL     1     -17.709  15.538 -12.516  1.00  0.00     0.160 A 
HETATM    7  C11 UNL     1     -18.025  14.212 -12.350  1.00  0.00     0.141 A 
HETATM    8  N4  UNL     1     -19.267  14.085 -12.823  1.00  0.00    -0.281 N 
ATOM      9  H4  UNL     1     -19.789  13.209 -12.838  1.00  0.00     0.188 HD
HETATM   10  N5  UNL     1     -19.729  15.223 -13.262  1.00  0.00    -0.232 N 
ATOM     11  H5  UNL     1     -20.649  15.388 -13.671  1.00  0.00     0.209 HD
HETATM   12  N6  UNL     1     -18.772  16.129 -13.077  1.00  0.00    -0.207 N 
ENDROOT
BRANCH   7  13
HETATM   13  C12 UNL     1     -17.245  13.109 -11.790  1.00  0.00     0.315 C 
HETATM   14  F1  UNL     1     -16.679  13.443 -10.581  1.00  0.00    -0.204 F 
HETATM   15  C13 UNL     1     -16.139  12.752 -12.754  1.00  0.00     0.086 C 
HETATM   16  C14 UNL     1     -15.730  11.378 -12.249  1.00  0.00     0.072 C 
HETATM   17  C15 UNL     1     -16.862  10.938 -11.341  1.00  0.00     0.372 C 
HETATM   18  F2  UNL     1     -17.227   9.639 -11.558  1.00  0.00    -0.219 F 
HETATM   19  N3  UNL     1     -17.941  11.871 -11.651  1.00  0.00    -0.001 N 
ATOM     20  H32 UNL     1     -18.706  11.882 -10.976  1.00  0.00     0.285 HD
ATOM     21  H31 UNL     1     -18.518  11.610 -12.451  1.00  0.00     0.285 HD
ENDBRANCH   7  13
BRANCH   3  22
HETATM   22  C7  UNL     1     -15.245  18.294 -12.133  1.00  0.00     0.036 A 
HETATM   23  C8  UNL     1     -14.120  17.723 -11.361  1.00  0.00     0.011 A 
HETATM   24  C9  UNL     1     -15.072  18.658 -10.681  1.00  0.00     0.011 A 
ENDBRANCH   3  22
BRANCH   1  25
HETATM   25  N1  UNL     1     -19.677  18.096 -13.880  1.00  0.00    -0.354 N 
ATOM     26  H1  UNL     1     -20.330  18.467 -13.190  1.00  0.00     0.166 HD
BRANCH  25  27
HETATM   27  C3  UNL     1     -20.044  18.405 -15.188  1.00  0.00     0.062 C 
BRANCH  27  28
HETATM   28  C2  UNL     1     -19.095  17.897 -16.257  1.00  0.00     0.040 C 
HETATM   29  C1  UNL     1     -19.849  17.495 -17.510  1.00  0.00     0.010 C 
ENDBRANCH  27  28
ENDBRANCH  25  27
ENDBRANCH   1  25
TORSDOF 5
ENDMDL
MODEL 5
REMARK VINA RESULT: -5.989593834      1.896      3.890
REMARK  5 active torsions:
REMARK  status: ('A' for Active; 'I' for Inactive)
REMARK    1  A    between atoms: C2_2  and  C3_3 
REMARK    2  A    between atoms: C3_3  and  N1_4 
REMARK    3  A    between atoms: N1_4  and  C4_6 
REMARK    4  A    between atoms: C6_8  and  C7_9 
REMARK    5  A    between atoms: C11_15  and  C12_16 
ROOT
HETATM    1  C4  UNL     1     -21.658  15.818 -19.640  1.00  0.00     0.132 A 
HETATM    2  C5  UNL     1     -20.274  16.029 -19.644  1.00  0.00     0.075 A 
HETATM    3  C6  UNL     1     -19.370  15.150 -20.179  1.00  0.00     0.018 A 
HETATM    4  N2  UNL     1     -19.869  14.022 -20.731  1.00  0.00    -0.342 N 
ATOM      5  H2  UNL     1     -19.243  13.333 -21.145  1.00  0.00     0.167 HD
HETATM    6  C10 UNL     1     -21.195  13.816 -20.728  1.00  0.00     0.160 A 
HETATM    7  C11 UNL     1     -21.894  12.747 -21.232  1.00  0.00     0.141 A 
HETATM    8  N4  UNL     1     -23.177  13.017 -20.984  1.00  0.00    -0.281 N 
ATOM      9  H4  UNL     1     -23.953  12.406 -21.240  1.00  0.00     0.188 HD
HETATM   10  N5  UNL     1     -23.315  14.161 -20.372  1.00  0.00    -0.232 N 
ATOM     11  H5  UNL     1     -24.192  14.589 -20.075  1.00  0.00     0.209 HD
HETATM   12  N6  UNL     1     -22.094  14.664 -20.209  1.00  0.00    -0.207 N 
ENDROOT
BRANCH   7  13
HETATM   13  C12 UNL     1     -21.427  11.537 -21.908  1.00  0.00     0.315 C 
HETATM   14  F1  UNL     1     -20.445  11.812 -22.832  1.00  0.00    -0.204 F 
HETATM   15  C13 UNL     1     -22.590  10.893 -22.622  1.00  0.00     0.086 C 
HETATM   16  C14 UNL     1     -22.051   9.496 -22.880  1.00  0.00     0.072 C 
HETATM   17  C15 UNL     1     -20.843   9.365 -21.972  1.00  0.00     0.372 C 
HETATM   18  F2  UNL     1     -20.811   8.165 -21.320  1.00  0.00    -0.219 F 
HETATM   19  N3  UNL     1     -20.976  10.489 -21.050  1.00  0.00    -0.001 N 
ATOM     20  H32 UNL     1     -20.135  10.705 -20.513  1.00  0.00     0.285 HD
ATOM     21  H31 UNL     1     -21.569  10.312 -20.240  1.00  0.00     0.285 HD
ENDBRANCH   7  13
BRANCH   3  22
HETATM   22  C7  UNL     1     -17.930  15.486 -20.122  1.00  0.00     0.036 A 
HETATM   23  C8  UNL     1     -17.466  16.888 -20.192  1.00  0.00     0.011 A 
HETATM   24  C9  UNL     1     -17.345  16.018 -21.405  1.00  0.00     0.011 A 
ENDBRANCH   3  22
BRANCH   1  25
HETATM   25  N1  UNL     1     -22.439  16.674 -19.126  1.00  0.00    -0.354 N 
ATOM     26  H1  UNL     1     -23.365  16.293 -18.930  1.00  0.00     0.166 HD
BRANCH  25  27
HETATM   27  C3  UNL     1     -22.323  18.015 -18.766  1.00  0.00     0.062 C 
BRANCH  27  28
HETATM   28  C2  UNL     1     -22.362  18.284 -17.274  1.00  0.00     0.040 C 
HETATM   29  C1  UNL     1     -20.993  18.099 -16.650  1.00  0.00     0.010 C 
ENDBRANCH  27  28
ENDBRANCH  25  27
ENDBRANCH   1  25
TORSDOF 5
ENDMDL
