MODEL 1
REMARK VINA RESULT: -5.488086410      0.000      0.000
REMARK  2 active torsions:
REMARK  status: ('A' for Active; 'I' for Inactive)
REMARK    1  A    between atoms: N1_1  and  N2_4 
REMARK       I    between atoms: N2_4  and  C1_6 
REMARK    2  A    between atoms: C1_6  and  C2_8 
REMARK       I    between atoms: N4_10  and  C3_12 
ROOT
HETATM    1  N2  UNL     1      76.231  88.628  18.727  1.00  0.00    -0.270 N 
ATOM      2  H2  UNL     1      75.777  88.895  17.852  1.00  0.00     0.189 HD
HETATM    3  C1  UNL     1      77.017  87.444  18.731  1.00  0.00     0.300 C 
HETATM    4  O1  UNL     1      77.571  87.129  19.818  1.00  0.00    -0.263 OA
ENDROOT
BRANCH   3   5
HETATM    5  C2  UNL     1      77.183  86.628  17.546  1.00  0.00     0.190 C 
HETATM    6  N3  UNL     1      78.303  85.779  17.418  1.00  0.00    -0.076 NA
HETATM    7  N4  UNL     1      76.319  86.666  16.606  1.00  0.00    -0.295 N 
HETATM    8  C3  UNL     1      76.475  85.871  15.444  1.00  0.00     0.334 C 
ATOM      9  H4  UNL     1      75.506  87.277  16.693  1.00  0.00     0.171 HD
HETATM   10  N5  UNL     1      76.077  86.463  14.194  1.00  0.00    -0.040 NA
HETATM   11  O2  UNL     1      76.938  84.691  15.467  1.00  0.00    -0.251 OA
ENDBRANCH   3   5
BRANCH   1  12
HETATM   12  N1  UNL     1      76.040  89.439  19.820  1.00  0.00    -0.342 N 
ATOM     13  H12 UNL     1      76.470  90.364  19.785  1.00  0.00     0.176 HD
ATOM     14  H11 UNL     1      75.504  89.177  20.648  1.00  0.00     0.176 HD
ENDBRANCH   1  12
TORSDOF 2
ENDMDL
MODEL 2
REMARK VINA RESULT: -5.478336838      2.695      2.820
REMARK  2 active torsions:
REMARK  status: ('A' for Active; 'I' for Inactive)
REMARK    1  A    between atoms: N1_1  and  N2_4 
REMARK       I    between atoms: N2_4  and  C1_6 
REMARK    2  A    between atoms: C1_6  and  C2_8 
REMARK       I    between atoms: N4_10  and  C3_12 
ROOT
HETATM    1  N2  UNL     1      77.259  89.865  20.067  1.00  0.00    -0.270 N 
ATOM      2  H2  UNL     1      77.872  90.180  19.315  1.00  0.00     0.189 HD
HETATM    3  C1  UNL     1      77.129  88.464  20.273  1.00  0.00     0.300 C 
HETATM    4  O1  UNL     1      76.369  88.091  21.207  1.00  0.00    -0.263 OA
ENDROOT
BRANCH   3   5
HETATM    5  C2  UNL     1      77.832  87.498  19.454  1.00  0.00     0.190 C 
HETATM    6  N3  UNL     1      77.960  86.161  19.883  1.00  0.00    -0.076 NA
HETATM    7  N4  UNL     1      78.344  87.846  18.336  1.00  0.00    -0.295 N 
HETATM    8  C3  UNL     1      79.033  86.907  17.530  1.00  0.00     0.334 C 
ATOM      9  H4  UNL     1      78.254  88.812  18.020  1.00  0.00     0.171 HD
HETATM   10  N5  UNL     1      80.198  87.383  16.832  1.00  0.00    -0.040 NA
HETATM   11  O2  UNL     1      78.670  85.699  17.406  1.00  0.00    -0.251 OA
ENDBRANCH   3   5
BRANCH   1  12
HETATM   12  N1  UNL     1      76.617  90.824  20.814  1.00  0.00    -0.342 N 
ATOM     13  H12 UNL     1      75.692  91.111  20.491  1.00  0.00     0.176 HD
ATOM     14  H11 UNL     1      77.001  91.256  21.654  1.00  0.00     0.176 HD
ENDBRANCH   1  12
TORSDOF 2
ENDMDL
MODEL 3
REMARK VINA RESULT: -5.451384781      1.463      4.351
REMARK  2 active torsions:
REMARK  status: ('A' for Active; 'I' for Inactive)
REMARK    1  A    between atoms: N1_1  and  N2_4 
REMARK       I    between atoms: N2_4  and  C1_6 
REMARK    2  A    between atoms: C1_6  and  C2_8 
REMARK       I    between atoms: N4_10  and  C3_12 
ROOT
HETATM    1  N2  UNL     1      76.259  86.067  16.196  1.00  0.00    -0.270 N 
ATOM      2  H2  UNL     1      75.476  86.701  16.354  1.00  0.00     0.189 HD
HETATM    3  C1  UNL     1      77.223  85.933  17.233  1.00  0.00     0.300 C 
HETATM    4  O1  UNL     1      78.183  85.145  17.023  1.00  0.00    -0.263 OA
ENDROOT
BRANCH   3   5
HETATM    5  C2  UNL     1      77.116  86.663  18.479  1.00  0.00     0.190 C 
HETATM    6  N3  UNL     1      77.652  86.123  19.667  1.00  0.00    -0.076 NA
HETATM    7  N4  UNL     1      76.539  87.802  18.516  1.00  0.00    -0.295 N 
HETATM    8  C3  UNL     1      76.431  88.521  19.732  1.00  0.00     0.334 C 
ATOM      9  H4  UNL     1      76.150  88.198  17.660  1.00  0.00     0.171 HD
HETATM   10  N5  UNL     1      75.208  89.247  19.951  1.00  0.00    -0.040 NA
HETATM   11  O2  UNL     1      77.348  88.547  20.607  1.00  0.00    -0.251 OA
ENDBRANCH   3   5
BRANCH   1  12
HETATM   12  N1  UNL     1      76.310  85.399  14.995  1.00  0.00    -0.342 N 
ATOM     13  H12 UNL     1      77.226  85.321  14.553  1.00  0.00     0.176 HD
ATOM     14  H11 UNL     1      75.502  84.985  14.530  1.00  0.00     0.176 HD
ENDBRANCH   1  12
TORSDOF 2
ENDMDL
MODEL 4
REMARK VINA RESULT: -5.444534837      2.427      4.614
REMARK  2 active torsions:
REMARK  status: ('A' for Active; 'I' for Inactive)
REMARK    1  A    between atoms: N1_1  and  N2_4 
REMARK       I    between atoms: N2_4  and  C1_6 
REMARK    2  A    between atoms: C1_6  and  C2_8 
REMARK       I    between atoms: N4_10  and  C3_12 
ROOT
HETATM    1  N2  UNL     1      77.803  84.792  18.005  1.00  0.00    -0.270 N 
ATOM      2  H2  UNL     1      77.156  84.563  18.760  1.00  0.00     0.189 HD
HETATM    3  C1  UNL     1      78.353  86.103  17.977  1.00  0.00     0.300 C 
HETATM    4  O1  UNL     1      79.150  86.370  17.039  1.00  0.00    -0.263 OA
ENDROOT
BRANCH   3   5
HETATM    5  C2  UNL     1      78.019  87.097  18.978  1.00  0.00     0.190 C 
HETATM    6  N3  UNL     1      78.785  87.202  20.157  1.00  0.00    -0.076 NA
HETATM    7  N4  UNL     1      77.031  87.887  18.802  1.00  0.00    -0.295 N 
HETATM    8  C3  UNL     1      76.700  88.861  19.776  1.00  0.00     0.334 C 
ATOM      9  H4  UNL     1      76.474  87.816  17.950  1.00  0.00     0.171 HD
HETATM   10  N5  UNL     1      75.299  89.109  19.995  1.00  0.00    -0.040 NA
HETATM   11  O2  UNL     1      77.568  89.502  20.441  1.00  0.00    -0.251 OA
ENDBRANCH   3   5
BRANCH   1  12
HETATM   12  N1  UNL     1      78.084  83.811  17.083  1.00  0.00    -0.342 N 
ATOM     13  H12 UNL     1      78.096  84.094  16.103  1.00  0.00     0.176 HD
ATOM     14  H11 UNL     1      78.277  82.837  17.317  1.00  0.00     0.176 HD
ENDBRANCH   1  12
TORSDOF 2
ENDMDL
MODEL 5
REMARK VINA RESULT: -5.411967266      2.178      2.289
REMARK  2 active torsions:
REMARK  status: ('A' for Active; 'I' for Inactive)
REMARK    1  A    between atoms: N1_1  and  N2_4 
REMARK       I    between atoms: N2_4  and  C1_6 
REMARK    2  A    between atoms: C1_6  and  C2_8 
REMARK       I    between atoms: N4_10  and  C3_12 
ROOT
HETATM    1  N2  UNL     1      76.031  88.501  19.010  1.00  0.00    -0.270 N 
ATOM      2  H2  UNL     1      75.759  88.088  18.118  1.00  0.00     0.189 HD
HETATM    3  C1  UNL     1      77.011  87.821  19.784  1.00  0.00     0.300 C 
HETATM    4  O1  UNL     1      77.336  88.344  20.883  1.00  0.00    -0.263 OA
ENDROOT
BRANCH   3   5
HETATM    5  C2  UNL     1      77.616  86.582  19.340  1.00  0.00     0.190 C 
HETATM    6  N3  UNL     1      78.714  86.037  20.038  1.00  0.00    -0.076 NA
HETATM    7  N4  UNL     1      77.162  85.969  18.315  1.00  0.00    -0.295 N 
HETATM    8  C3  UNL     1      77.749  84.757  17.875  1.00  0.00     0.334 C 
ATOM      9  H4  UNL     1      76.367  86.358  17.807  1.00  0.00     0.171 HD
HETATM   10  N5  UNL     1      77.836  84.557  16.453  1.00  0.00    -0.040 NA
HETATM   11  O2  UNL     1      78.186  83.870  18.668  1.00  0.00    -0.251 OA
ENDBRANCH   3   5
BRANCH   1  12
HETATM   12  N1  UNL     1      75.425  89.678  19.382  1.00  0.00    -0.342 N 
ATOM     13  H12 UNL     1      75.278  89.821  20.381  1.00  0.00     0.176 HD
ATOM     14  H11 UNL     1      75.120  90.401  18.731  1.00  0.00     0.176 HD
ENDBRANCH   1  12
TORSDOF 2
ENDMDL
