MODEL 1
REMARK VINA RESULT: -6.382673339      0.000      0.000
REMARK  2 active torsions:
REMARK  status: ('A' for Active; 'I' for Inactive)
REMARK    1  A    between atoms: N3_4  and  N4_6 
REMARK    2  A    between atoms: N4_6  and  C2_8 
ROOT
HETATM    1  C2  UNL     1      76.546  88.358  18.863  1.00  0.00     0.722 A 
HETATM    2  N5  UNL     1      75.605  89.222  19.304  1.00  0.00    -0.115 N 
ATOM      3  H5  UNL     1      75.018  89.811  18.713  1.00  0.00     0.202 HD
HETATM    4  N6  UNL     1      75.568  89.179  20.626  1.00  0.00     0.006 NA
HETATM    5  N7  UNL     1      76.469  88.306  21.039  1.00  0.00     0.006 NA
HETATM    6  N8  UNL     1      77.065  87.804  19.973  1.00  0.00    -0.115 N 
ATOM      7  H8  UNL     1      77.805  87.102  19.990  1.00  0.00     0.202 HD
ENDROOT
BRANCH   1   8
HETATM    8  N4  UNL     1      76.870  88.123  17.629  1.00  0.00    -0.128 N 
ATOM      9  H4  UNL     1      76.144  87.871  16.959  1.00  0.00     0.205 HD
BRANCH   8  10
HETATM   10  N3  UNL     1      78.174  88.207  17.210  1.00  0.00    -0.262 N 
HETATM   11  C1  UNL     1      79.011  87.230  17.176  1.00  0.00     0.216 C 
HETATM   12  N1  UNL     1      78.630  85.929  17.591  1.00  0.00    -0.065 NA
HETATM   13  N2  UNL     1      80.349  87.401  16.726  1.00  0.00    -0.065 NA
ATOM     14  H3  UNL     1      78.508  89.119  16.898  1.00  0.00     0.190 HD
ENDBRANCH   8  10
ENDBRANCH   1   8
TORSDOF 2
ENDMDL
MODEL 2
REMARK VINA RESULT: -6.371561658      1.156      4.135
REMARK  2 active torsions:
REMARK  status: ('A' for Active; 'I' for Inactive)
REMARK    1  A    between atoms: N3_4  and  N4_6 
REMARK    2  A    between atoms: N4_6  and  C2_8 
ROOT
HETATM    1  C2  UNL     1      77.725  87.730  17.646  1.00  0.00     0.722 A 
HETATM    2  N5  UNL     1      78.227  86.482  17.514  1.00  0.00    -0.115 N 
ATOM      3  H5  UNL     1      77.731  85.618  17.736  1.00  0.00     0.202 HD
HETATM    4  N6  UNL     1      79.464  86.562  17.052  1.00  0.00     0.006 NA
HETATM    5  N7  UNL     1      79.765  87.837  16.886  1.00  0.00     0.006 NA
HETATM    6  N8  UNL     1      78.713  88.551  17.245  1.00  0.00    -0.115 N 
ATOM      7  H8  UNL     1      78.658  89.569  17.220  1.00  0.00     0.202 HD
ENDROOT
BRANCH   1   8
HETATM    8  N4  UNL     1      76.543  88.054  18.070  1.00  0.00    -0.128 N 
ATOM      9  H4  UNL     1      75.725  87.595  17.672  1.00  0.00     0.205 HD
BRANCH   8  10
HETATM   10  N3  UNL     1      76.375  89.004  19.045  1.00  0.00    -0.262 N 
HETATM   11  C1  UNL     1      77.015  89.050  20.160  1.00  0.00     0.216 C 
HETATM   12  N1  UNL     1      77.992  88.073  20.480  1.00  0.00    -0.065 NA
HETATM   13  N2  UNL     1      76.782  90.072  21.122  1.00  0.00    -0.065 NA
ATOM     14  H3  UNL     1      75.685  89.735  18.872  1.00  0.00     0.190 HD
ENDBRANCH   8  10
ENDBRANCH   1   8
TORSDOF 2
ENDMDL
MODEL 3
REMARK VINA RESULT: -6.293675283      1.117      1.631
REMARK  2 active torsions:
REMARK  status: ('A' for Active; 'I' for Inactive)
REMARK    1  A    between atoms: N3_4  and  N4_6 
REMARK    2  A    between atoms: N4_6  and  C2_8 
ROOT
HETATM    1  C2  UNL     1      77.191  87.830  19.845  1.00  0.00     0.722 A 
HETATM    2  N5  UNL     1      77.310  88.679  20.890  1.00  0.00    -0.115 N 
ATOM      3  H5  UNL     1      78.057  88.663  21.584  1.00  0.00     0.202 HD
HETATM    4  N6  UNL     1      76.300  89.535  20.866  1.00  0.00     0.006 NA
HETATM    5  N7  UNL     1      75.537  89.249  19.827  1.00  0.00     0.006 NA
HETATM    6  N8  UNL     1      76.073  88.216  19.203  1.00  0.00    -0.115 N 
ATOM      7  H8  UNL     1      75.697  87.777  18.363  1.00  0.00     0.202 HD
ENDROOT
BRANCH   1   8
HETATM    8  N4  UNL     1      77.991  86.857  19.538  1.00  0.00    -0.128 N 
ATOM      9  H4  UNL     1      77.785  85.915  19.870  1.00  0.00     0.205 HD
BRANCH   8  10
HETATM   10  N3  UNL     1      79.110  87.072  18.773  1.00  0.00    -0.262 N 
HETATM   11  C1  UNL     1      79.134  87.133  17.488  1.00  0.00     0.216 C 
HETATM   12  N1  UNL     1      77.947  86.976  16.729  1.00  0.00    -0.065 NA
HETATM   13  N2  UNL     1      80.338  87.360  16.767  1.00  0.00    -0.065 NA
ATOM     14  H3  UNL     1      79.996  87.192  19.263  1.00  0.00     0.190 HD
ENDBRANCH   8  10
ENDBRANCH   1   8
TORSDOF 2
ENDMDL
MODEL 4
REMARK VINA RESULT: -6.189982185      1.494      4.421
REMARK  2 active torsions:
REMARK  status: ('A' for Active; 'I' for Inactive)
REMARK    1  A    between atoms: N3_4  and  N4_6 
REMARK    2  A    between atoms: N4_6  and  C2_8 
ROOT
HETATM    1  C2  UNL     1      79.112  87.133  19.012  1.00  0.00     0.722 A 
HETATM    2  N5  UNL     1      78.503  86.291  18.148  1.00  0.00    -0.115 N 
ATOM      3  H5  UNL     1      77.732  85.664  18.375  1.00  0.00     0.202 HD
HETATM    4  N6  UNL     1      79.071  86.413  16.958  1.00  0.00     0.006 NA
HETATM    5  N7  UNL     1      80.032  87.314  17.045  1.00  0.00     0.006 NA
HETATM    6  N8  UNL     1      80.061  87.755  18.290  1.00  0.00    -0.115 N 
ATOM      7  H8  UNL     1      80.705  88.461  18.648  1.00  0.00     0.202 HD
ENDROOT
BRANCH   1   8
HETATM    8  N4  UNL     1      78.833  87.296  20.268  1.00  0.00    -0.128 N 
ATOM      9  H4  UNL     1      79.004  86.533  20.923  1.00  0.00     0.205 HD
BRANCH   8  10
HETATM   10  N3  UNL     1      78.310  88.477  20.731  1.00  0.00    -0.262 N 
HETATM   11  C1  UNL     1      77.167  88.967  20.401  1.00  0.00     0.216 C 
HETATM   12  N1  UNL     1      76.320  88.289  19.488  1.00  0.00    -0.065 NA
HETATM   13  N2  UNL     1      76.696  90.201  20.927  1.00  0.00    -0.065 NA
ATOM     14  H3  UNL     1      78.874  89.011  21.392  1.00  0.00     0.190 HD
ENDBRANCH   8  10
ENDBRANCH   1   8
TORSDOF 2
ENDMDL
MODEL 5
REMARK VINA RESULT: -6.152978187      1.172      1.634
REMARK  2 active torsions:
REMARK  status: ('A' for Active; 'I' for Inactive)
REMARK    1  A    between atoms: N3_4  and  N4_6 
REMARK    2  A    between atoms: N4_6  and  C2_8 
ROOT
HETATM    1  C2  UNL     1      76.803  88.619  18.601  1.00  0.00     0.722 A 
HETATM    2  N5  UNL     1      75.741  89.098  19.287  1.00  0.00    -0.115 N 
ATOM      3  H5  UNL     1      74.774  89.087  18.965  1.00  0.00     0.202 HD
HETATM    4  N6  UNL     1      76.161  89.583  20.445  1.00  0.00     0.006 NA
HETATM    5  N7  UNL     1      77.470  89.425  20.512  1.00  0.00     0.006 NA
HETATM    6  N8  UNL     1      77.865  88.840  19.396  1.00  0.00    -0.115 N 
ATOM      7  H8  UNL     1      78.829  88.592  19.172  1.00  0.00     0.202 HD
ENDROOT
BRANCH   1   8
HETATM    8  N4  UNL     1      76.787  88.067  17.428  1.00  0.00    -0.128 N 
ATOM      9  H4  UNL     1      76.718  88.655  16.598  1.00  0.00     0.205 HD
BRANCH   8  10
HETATM   10  N3  UNL     1      76.863  86.704  17.283  1.00  0.00    -0.262 N 
HETATM   11  C1  UNL     1      77.950  86.027  17.156  1.00  0.00     0.216 C 
HETATM   12  N1  UNL     1      79.213  86.671  17.155  1.00  0.00    -0.065 NA
HETATM   13  N2  UNL     1      77.943  84.613  17.011  1.00  0.00    -0.065 NA
ATOM     14  H3  UNL     1      75.986  86.185  17.276  1.00  0.00     0.190 HD
ENDBRANCH   8  10
ENDBRANCH   1   8
TORSDOF 2
ENDMDL
