MODEL 1
REMARK VINA RESULT: -5.272356299      0.000      0.000
REMARK  4 active torsions:
REMARK  status: ('A' for Active; 'I' for Inactive)
REMARK    1  A    between atoms: N1_1  and  N2_4 
REMARK    2  A    between atoms: N2_4  and  N3_5 
REMARK    3  A    between atoms: N2_4  and  N4_8 
REMARK    4  A    between atoms: N5_10  and  N6_12 
ROOT
HETATM    1  N4  UNL     1      76.953  87.013  16.990  1.00  0.00    -0.192 N 
ATOM      2  H4  UNL     1      77.055  86.700  17.956  1.00  0.00     0.213 HD
HETATM    3  N5  UNL     1      77.210  88.229  16.685  1.00  0.00    -0.224 N 
ATOM      4  H5  UNL     1      77.100  88.514  15.712  1.00  0.00     0.210 HD
ENDROOT
BRANCH   1   5
HETATM    5  N2  UNL     1      76.535  86.113  16.006  1.00  0.00    -0.128 N 
BRANCH   5   6
HETATM    6  N1  UNL     1      75.280  86.192  15.390  1.00  0.00    -0.308 N 
ATOM      7  H12 UNL     1      74.415  85.920  15.858  1.00  0.00     0.180 HD
ATOM      8  H11 UNL     1      75.250  86.540  14.432  1.00  0.00     0.180 HD
ENDBRANCH   5   6
BRANCH   5   9
HETATM    9  N3  UNL     1      77.386  85.079  15.598  1.00  0.00    -0.308 N 
ATOM     10  H32 UNL     1      77.007  84.280  15.089  1.00  0.00     0.180 HD
ATOM     11  H31 UNL     1      78.374  85.166  15.833  1.00  0.00     0.180 HD
ENDBRANCH   5   9
ENDBRANCH   1   5
BRANCH   3  12
HETATM   12  N6  UNL     1      77.627  89.173  17.595  1.00  0.00    -0.265 N 
HETATM   13  C1  UNL     1      78.878  89.277  17.864  1.00  0.00     0.193 A 
HETATM   14  N7  UNL     1      79.747  90.014  18.651  1.00  0.00    -0.301 N 
HETATM   15  C2  UNL     1      80.231  89.028  17.830  1.00  0.00     0.292 A 
ATOM     16  H7  UNL     1      79.908  90.751  19.338  1.00  0.00     0.171 HD
HETATM   17  O1  UNL     1      81.167  88.367  17.367  1.00  0.00    -0.264 OA
ATOM     18  H6  UNL     1      76.948  89.785  18.050  1.00  0.00     0.190 HD
ENDBRANCH   3  12
TORSDOF 4
ENDMDL
MODEL 2
REMARK VINA RESULT: -5.252114120      0.080      1.071
REMARK  4 active torsions:
REMARK  status: ('A' for Active; 'I' for Inactive)
REMARK    1  A    between atoms: N1_1  and  N2_4 
REMARK    2  A    between atoms: N2_4  and  N3_5 
REMARK    3  A    between atoms: N2_4  and  N4_8 
REMARK    4  A    between atoms: N5_10  and  N6_12 
ROOT
HETATM    1  N4  UNL     1      76.965  87.020  16.965  1.00  0.00    -0.192 N 
ATOM      2  H4  UNL     1      77.031  86.709  17.935  1.00  0.00     0.213 HD
HETATM    3  N5  UNL     1      77.273  88.224  16.660  1.00  0.00    -0.224 N 
ATOM      4  H5  UNL     1      77.197  88.507  15.683  1.00  0.00     0.210 HD
ENDROOT
BRANCH   1   5
HETATM    5  N2  UNL     1      76.539  86.130  15.976  1.00  0.00    -0.128 N 
BRANCH   5   6
HETATM    6  N1  UNL     1      77.348  85.096  15.486  1.00  0.00    -0.308 N 
ATOM      7  H12 UNL     1      76.967  84.235  15.093  1.00  0.00     0.180 HD
ATOM      8  H11 UNL     1      78.358  85.231  15.533  1.00  0.00     0.180 HD
ENDBRANCH   5   6
BRANCH   5   9
HETATM    9  N3  UNL     1      75.254  86.252  15.433  1.00  0.00    -0.308 N 
ATOM     10  H32 UNL     1      75.138  86.552  14.465  1.00  0.00     0.180 HD
ATOM     11  H31 UNL     1      74.467  86.030  16.041  1.00  0.00     0.180 HD
ENDBRANCH   5   9
ENDBRANCH   1   5
BRANCH   3  12
HETATM   12  N6  UNL     1      77.700  89.159  17.575  1.00  0.00    -0.265 N 
HETATM   13  C1  UNL     1      78.951  89.245  17.848  1.00  0.00     0.193 A 
HETATM   14  N7  UNL     1      79.828  89.966  18.640  1.00  0.00    -0.301 N 
HETATM   15  C2  UNL     1      80.302  88.978  17.816  1.00  0.00     0.292 A 
ATOM     16  H7  UNL     1      79.998  90.697  19.331  1.00  0.00     0.171 HD
HETATM   17  O1  UNL     1      81.230  88.306  17.352  1.00  0.00    -0.264 OA
ATOM     18  H6  UNL     1      77.029  89.777  18.032  1.00  0.00     0.190 HD
ENDBRANCH   3  12
TORSDOF 4
ENDMDL
MODEL 3
REMARK VINA RESULT: -5.152969510      2.589      4.657
REMARK  4 active torsions:
REMARK  status: ('A' for Active; 'I' for Inactive)
REMARK    1  A    between atoms: N1_1  and  N2_4 
REMARK    2  A    between atoms: N2_4  and  N3_5 
REMARK    3  A    between atoms: N2_4  and  N4_8 
REMARK    4  A    between atoms: N5_10  and  N6_12 
ROOT
HETATM    1  N4  UNL     1      77.117  88.636  19.047  1.00  0.00    -0.192 N 
ATOM      2  H4  UNL     1      76.669  87.767  19.340  1.00  0.00     0.213 HD
HETATM    3  N5  UNL     1      77.440  88.805  17.821  1.00  0.00    -0.224 N 
ATOM      4  H5  UNL     1      77.887  89.683  17.557  1.00  0.00     0.210 HD
ENDROOT
BRANCH   1   5
HETATM    5  N2  UNL     1      77.376  89.638  19.987  1.00  0.00    -0.128 N 
BRANCH   5   6
HETATM    6  N1  UNL     1      78.371  89.522  20.966  1.00  0.00    -0.308 N 
ATOM      7  H12 UNL     1      78.962  90.304  21.249  1.00  0.00     0.180 HD
ATOM      8  H11 UNL     1      78.494  88.608  21.401  1.00  0.00     0.180 HD
ENDBRANCH   5   6
BRANCH   5   9
HETATM    9  N3  UNL     1      76.624  90.819  19.973  1.00  0.00    -0.308 N 
ATOM     10  H32 UNL     1      75.617  90.782  20.129  1.00  0.00     0.180 HD
ATOM     11  H31 UNL     1      77.126  91.691  19.804  1.00  0.00     0.180 HD
ENDBRANCH   5   9
ENDBRANCH   1   5
BRANCH   3  12
HETATM   12  N6  UNL     1      77.220  87.868  16.837  1.00  0.00    -0.265 N 
HETATM   13  C1  UNL     1      77.648  86.669  17.004  1.00  0.00     0.193 A 
HETATM   14  N7  UNL     1      77.680  85.444  16.360  1.00  0.00    -0.301 N 
HETATM   15  C2  UNL     1      78.257  85.586  17.597  1.00  0.00     0.292 A 
ATOM     16  H7  UNL     1      77.447  84.861  15.556  1.00  0.00     0.171 HD
HETATM   17  O1  UNL     1      78.872  85.126  18.565  1.00  0.00    -0.264 OA
ATOM     18  H6  UNL     1      76.720  88.123  15.985  1.00  0.00     0.190 HD
ENDBRANCH   3  12
TORSDOF 4
ENDMDL
MODEL 4
REMARK VINA RESULT: -5.111209239      2.566      4.727
REMARK  4 active torsions:
REMARK  status: ('A' for Active; 'I' for Inactive)
REMARK    1  A    between atoms: N1_1  and  N2_4 
REMARK    2  A    between atoms: N2_4  and  N3_5 
REMARK    3  A    between atoms: N2_4  and  N4_8 
REMARK    4  A    between atoms: N5_10  and  N6_12 
ROOT
HETATM    1  N4  UNL     1      77.207  89.343  19.050  1.00  0.00    -0.192 N 
ATOM      2  H4  UNL     1      76.306  88.867  19.122  1.00  0.00     0.213 HD
HETATM    3  N5  UNL     1      77.846  89.334  17.942  1.00  0.00    -0.224 N 
ATOM      4  H5  UNL     1      78.743  89.817  17.900  1.00  0.00     0.210 HD
ENDROOT
BRANCH   1   5
HETATM    5  N2  UNL     1      77.736  90.002  20.163  1.00  0.00    -0.128 N 
BRANCH   5   6
HETATM    6  N1  UNL     1      77.362  91.302  20.525  1.00  0.00    -0.308 N 
ATOM      7  H12 UNL     1      76.898  91.519  21.407  1.00  0.00     0.180 HD
ATOM      8  H11 UNL     1      77.572  92.050  19.864  1.00  0.00     0.180 HD
ENDBRANCH   5   6
BRANCH   5   9
HETATM    9  N3  UNL     1      78.683  89.359  20.970  1.00  0.00    -0.308 N 
ATOM     10  H32 UNL     1      78.545  89.317  21.980  1.00  0.00     0.180 HD
ATOM     11  H31 UNL     1      79.493  88.949  20.505  1.00  0.00     0.180 HD
ENDBRANCH   5   9
ENDBRANCH   1   5
BRANCH   3  12
HETATM   12  N6  UNL     1      77.391  88.708  16.804  1.00  0.00    -0.265 N 
HETATM   13  C1  UNL     1      77.414  87.426  16.740  1.00  0.00     0.193 A 
HETATM   14  N7  UNL     1      77.093  86.390  15.879  1.00  0.00    -0.301 N 
HETATM   15  C2  UNL     1      77.623  86.117  17.114  1.00  0.00     0.292 A 
ATOM     16  H7  UNL     1      76.729  86.066  14.983  1.00  0.00     0.171 HD
HETATM   17  O1  UNL     1      78.015  85.320  17.973  1.00  0.00    -0.264 OA
ATOM     18  H6  UNL     1      77.040  89.257  16.019  1.00  0.00     0.190 HD
ENDBRANCH   3  12
TORSDOF 4
ENDMDL
MODEL 5
REMARK VINA RESULT: -5.060045785      1.796      2.087
REMARK  4 active torsions:
REMARK  status: ('A' for Active; 'I' for Inactive)
REMARK    1  A    between atoms: N1_1  and  N2_4 
REMARK    2  A    between atoms: N2_4  and  N3_5 
REMARK    3  A    between atoms: N2_4  and  N4_8 
REMARK    4  A    between atoms: N5_10  and  N6_12 
ROOT
HETATM    1  N4  UNL     1      77.096  87.443  17.720  1.00  0.00    -0.192 N 
ATOM      2  H4  UNL     1      76.938  86.968  18.609  1.00  0.00     0.213 HD
HETATM    3  N5  UNL     1      77.235  88.715  17.693  1.00  0.00    -0.224 N 
ATOM      4  H5  UNL     1      77.392  89.163  16.791  1.00  0.00     0.210 HD
ENDROOT
BRANCH   1   5
HETATM    5  N2  UNL     1      77.162  86.703  16.536  1.00  0.00    -0.128 N 
BRANCH   5   6
HETATM    6  N1  UNL     1      77.796  85.457  16.454  1.00  0.00    -0.308 N 
ATOM      7  H12 UNL     1      77.349  84.634  16.051  1.00  0.00     0.180 HD
ATOM      8  H11 UNL     1      78.746  85.391  16.819  1.00  0.00     0.180 HD
ENDBRANCH   5   6
BRANCH   5   9
HETATM    9  N3  UNL     1      76.577  87.203  15.366  1.00  0.00    -0.308 N 
ATOM     10  H32 UNL     1      76.051  88.077  15.395  1.00  0.00     0.180 HD
ATOM     11  H31 UNL     1      76.701  86.661  14.512  1.00  0.00     0.180 HD
ENDBRANCH   5   9
ENDBRANCH   1   5
BRANCH   3  12
HETATM   12  N6  UNL     1      77.183  89.512  18.813  1.00  0.00    -0.265 N 
HETATM   13  C1  UNL     1      78.145  89.466  19.662  1.00  0.00     0.193 A 
HETATM   14  N7  UNL     1      78.541  90.028  20.864  1.00  0.00    -0.301 N 
HETATM   15  C2  UNL     1      79.334  89.093  20.249  1.00  0.00     0.292 A 
ATOM     16  H7  UNL     1      78.370  90.668  21.640  1.00  0.00     0.171 HD
HETATM   17  O1  UNL     1      80.355  88.398  20.204  1.00  0.00    -0.264 OA
ATOM     18  H6  UNL     1      76.389  90.134  18.968  1.00  0.00     0.190 HD
ENDBRANCH   3  12
TORSDOF 4
ENDMDL
