MODEL 1
REMARK VINA RESULT: -6.674788044      0.000      0.000
REMARK  2 active torsions:
REMARK  status: ('A' for Active; 'I' for Inactive)
REMARK    1  A    between atoms: C1_2  and  C2_3 
REMARK    2  A    between atoms: C2_3  and  O2_4 
ROOT
HETATM    1  C2  UNL     1      77.972  88.689  17.636  1.00  0.00     0.288 C 
HETATM    2  N1  UNL     1      79.090  89.622  17.576  1.00  0.00    -0.263 N 
ATOM      3  H1  UNL     1      79.506  89.893  16.685  1.00  0.00     0.187 HD
HETATM    4  N2  UNL     1      79.568  90.129  18.781  1.00  0.00    -0.239 N 
ATOM      5  H2  UNL     1      80.525  90.482  18.797  1.00  0.00     0.208 HD
HETATM    6  N3  UNL     1      78.909  90.187  19.859  1.00  0.00    -0.237 N 
ATOM      7  H3  UNL     1      79.325  90.571  20.707  1.00  0.00     0.193 HD
HETATM    8  C3  UNL     1      77.576  89.702  19.857  1.00  0.00     0.340 C 
HETATM    9  O3  UNL     1      76.897  89.750  20.919  1.00  0.00    -0.245 OA
HETATM   10  N4  UNL     1      77.059  89.180  18.647  1.00  0.00    -0.285 N 
ATOM     11  H4  UNL     1      76.052  89.150  18.489  1.00  0.00     0.169 HD
ENDROOT
BRANCH   1  12
HETATM   12  C1  UNL     1      78.449  87.350  18.069  1.00  0.00     0.317 C 
HETATM   13  O1  UNL     1      79.621  87.002  17.870  1.00  0.00    -0.299 OA
ENDBRANCH   1  12
BRANCH   1  14
HETATM   14  O2  UNL     1      77.361  88.552  16.399  1.00  0.00    -0.347 OA
ATOM     15  H2  UNL     1      76.422  88.499  16.536  1.00  0.00     0.215 HD
ENDBRANCH   1  14
TORSDOF 2
ENDMDL
MODEL 2
REMARK VINA RESULT: -6.557485352      1.452      1.763
REMARK  2 active torsions:
REMARK  status: ('A' for Active; 'I' for Inactive)
REMARK    1  A    between atoms: C1_2  and  C2_3 
REMARK    2  A    between atoms: C2_3  and  O2_4 
ROOT
HETATM    1  C2  UNL     1      78.757  88.498  18.695  1.00  0.00     0.288 C 
HETATM    2  N1  UNL     1      79.653  88.942  19.755  1.00  0.00    -0.263 N 
ATOM      3  H1  UNL     1      80.665  88.949  19.625  1.00  0.00     0.187 HD
HETATM    4  N2  UNL     1      79.077  89.356  20.953  1.00  0.00    -0.239 N 
ATOM      5  H2  UNL     1      79.660  89.331  21.789  1.00  0.00     0.208 HD
HETATM    6  N3  UNL     1      77.886  89.761  21.084  1.00  0.00    -0.237 N 
ATOM      7  H3  UNL     1      77.529  90.049  21.995  1.00  0.00     0.193 HD
HETATM    8  C3  UNL     1      77.060  89.805  19.932  1.00  0.00     0.340 C 
HETATM    9  O3  UNL     1      75.869  90.207  20.037  1.00  0.00    -0.245 OA
HETATM   10  N4  UNL     1      77.617  89.390  18.699  1.00  0.00    -0.285 N 
ATOM     11  H4  UNL     1      77.218  89.718  17.819  1.00  0.00     0.169 HD
ENDROOT
BRANCH   1  12
HETATM   12  C1  UNL     1      78.260  87.128  18.990  1.00  0.00     0.317 C 
HETATM   13  O1  UNL     1      78.428  86.623  20.107  1.00  0.00    -0.299 OA
ENDBRANCH   1  12
BRANCH   1  14
HETATM   14  O2  UNL     1      79.400  88.471  17.467  1.00  0.00    -0.347 OA
ATOM     15  H2  UNL     1      78.774  88.189  16.811  1.00  0.00     0.215 HD
ENDBRANCH   1  14
TORSDOF 2
ENDMDL
MODEL 3
REMARK VINA RESULT: -6.418398455      2.100      2.645
REMARK  2 active torsions:
REMARK  status: ('A' for Active; 'I' for Inactive)
REMARK    1  A    between atoms: C1_2  and  C2_3 
REMARK    2  A    between atoms: C2_3  and  O2_4 
ROOT
HETATM    1  C2  UNL     1      78.929  88.486  19.819  1.00  0.00     0.288 C 
HETATM    2  N1  UNL     1      77.790  88.252  18.941  1.00  0.00    -0.263 N 
ATOM      3  H1  UNL     1      77.609  87.331  18.542  1.00  0.00     0.187 HD
HETATM    4  N2  UNL     1      76.958  89.334  18.666  1.00  0.00    -0.239 N 
ATOM      5  H2  UNL     1      76.394  89.290  17.817  1.00  0.00     0.208 HD
HETATM    6  N3  UNL     1      76.846  90.367  19.387  1.00  0.00    -0.237 N 
ATOM      7  H3  UNL     1      76.216  91.124  19.122  1.00  0.00     0.193 HD
HETATM    8  C3  UNL     1      77.621  90.445  20.572  1.00  0.00     0.340 C 
HETATM    9  O3  UNL     1      77.527  91.465  21.309  1.00  0.00    -0.245 OA
HETATM   10  N4  UNL     1      78.477  89.361  20.880  1.00  0.00    -0.285 N 
ATOM     11  H4  UNL     1      78.774  89.198  21.842  1.00  0.00     0.169 HD
ENDROOT
BRANCH   1  12
HETATM   12  C1  UNL     1      80.007  89.193  19.078  1.00  0.00     0.317 C 
HETATM   13  O1  UNL     1      79.788  89.685  17.963  1.00  0.00    -0.299 OA
ENDBRANCH   1  12
BRANCH   1  14
HETATM   14  O2  UNL     1      79.447  87.295  20.305  1.00  0.00    -0.347 OA
ATOM     15  H2  UNL     1      80.336  87.205  19.984  1.00  0.00     0.215 HD
ENDBRANCH   1  14
TORSDOF 2
ENDMDL
MODEL 4
REMARK VINA RESULT: -6.303830893      1.809      3.394
REMARK  2 active torsions:
REMARK  status: ('A' for Active; 'I' for Inactive)
REMARK    1  A    between atoms: C1_2  and  C2_3 
REMARK    2  A    between atoms: C2_3  and  O2_4 
ROOT
HETATM    1  C2  UNL     1      78.328  89.973  19.813  1.00  0.00     0.288 C 
HETATM    2  N1  UNL     1      77.133  89.597  19.069  1.00  0.00    -0.263 N 
ATOM      3  H1  UNL     1      76.213  89.950  19.332  1.00  0.00     0.187 HD
HETATM    4  N2  UNL     1      77.294  88.736  17.987  1.00  0.00    -0.239 N 
ATOM      5  H2  UNL     1      76.481  88.199  17.687  1.00  0.00     0.208 HD
HETATM    6  N3  UNL     1      78.372  88.568  17.346  1.00  0.00    -0.237 N 
ATOM      7  H3  UNL     1      78.418  87.918  16.562  1.00  0.00     0.193 HD
HETATM    8  C3  UNL     1      79.514  89.307  17.748  1.00  0.00     0.340 C 
HETATM    9  O3  UNL     1      80.600  89.158  17.124  1.00  0.00    -0.245 OA
HETATM   10  N4  UNL     1      79.382  90.191  18.845  1.00  0.00    -0.285 N 
ATOM     11  H4  UNL     1      80.025  90.975  18.953  1.00  0.00     0.169 HD
ENDROOT
BRANCH   1  12
HETATM   12  C1  UNL     1      78.750  88.856  20.699  1.00  0.00     0.317 C 
HETATM   13  O1  UNL     1      78.443  87.687  20.430  1.00  0.00    -0.299 OA
ENDBRANCH   1  12
BRANCH   1  14
HETATM   14  O2  UNL     1      78.101  91.090  20.603  1.00  0.00    -0.347 OA
ATOM     15  H2  UNL     1      78.932  91.365  20.974  1.00  0.00     0.215 HD
ENDBRANCH   1  14
TORSDOF 2
ENDMDL
MODEL 5
REMARK VINA RESULT: -6.235431815      1.672      2.081
REMARK  2 active torsions:
REMARK  status: ('A' for Active; 'I' for Inactive)
REMARK    1  A    between atoms: C1_2  and  C2_3 
REMARK    2  A    between atoms: C2_3  and  O2_4 
ROOT
HETATM    1  C2  UNL     1      79.063  87.638  18.165  1.00  0.00     0.288 C 
HETATM    2  N1  UNL     1      78.103  88.255  17.259  1.00  0.00    -0.263 N 
ATOM      3  H1  UNL     1      77.903  87.851  16.344  1.00  0.00     0.187 HD
HETATM    4  N2  UNL     1      77.470  89.418  17.689  1.00  0.00    -0.239 N 
ATOM      5  H2  UNL     1      77.086  90.037  16.974  1.00  0.00     0.208 HD
HETATM    6  N3  UNL     1      77.333  89.767  18.897  1.00  0.00    -0.237 N 
ATOM      7  H3  UNL     1      76.857  90.636  19.139  1.00  0.00     0.193 HD
HETATM    8  C3  UNL     1      77.858  88.919  19.904  1.00  0.00     0.340 C 
HETATM    9  O3  UNL     1      77.734  89.244  21.117  1.00  0.00    -0.245 OA
HETATM   10  N4  UNL     1      78.509  87.728  19.499  1.00  0.00    -0.285 N 
ATOM     11  H4  UNL     1      78.587  86.941  20.143  1.00  0.00     0.169 HD
ENDROOT
BRANCH   1  12
HETATM   12  C1  UNL     1      80.339  88.399  18.152  1.00  0.00     0.317 C 
HETATM   13  O1  UNL     1      80.630  89.125  17.192  1.00  0.00    -0.299 OA
ENDBRANCH   1  12
BRANCH   1  14
HETATM   14  O2  UNL     1      79.335  86.329  17.798  1.00  0.00    -0.347 OA
ATOM     15  H2  UNL     1      80.166  86.317  17.338  1.00  0.00     0.215 HD
ENDBRANCH   1  14
TORSDOF 2
ENDMDL
