MODEL 1
REMARK VINA RESULT: -5.775733455      0.000      0.000
REMARK  4 active torsions:
REMARK  status: ('A' for Active; 'I' for Inactive)
REMARK    1  A    between atoms: N1_2  and  N2_3 
REMARK       I    between atoms: N1_2  and  C2_6 
REMARK       I    between atoms: C2_6  and  N6_14 
REMARK    2  A    between atoms: N3_7  and  N4_9 
REMARK    3  A    between atoms: N6_14  and  N7_16 
REMARK    4  A    between atoms: N7_16  and  N8_17 
ROOT
HETATM    1  C1  UNL     1      78.113  88.757  17.540  1.00  0.00     0.197 C 
HETATM    2  N1  UNL     1      78.991  89.231  18.591  1.00  0.00    -0.132 N 
HETATM    3  C2  UNL     1      78.963  88.755  19.908  1.00  0.00     0.727 C 
HETATM    4  N3  UNL     1      78.506  89.472  20.851  1.00  0.00    -0.116 N 
ATOM      5  H3  UNL     1      78.507  89.081  21.794  1.00  0.00     0.207 HD
HETATM    6  N6  UNL     1      79.449  87.469  20.177  1.00  0.00    -0.114 N 
ATOM      7  H6  UNL     1      80.461  87.361  20.255  1.00  0.00     0.203 HD
ENDROOT
BRANCH   2   8
HETATM    8  N2  UNL     1      79.912  90.221  18.259  1.00  0.00    -0.329 N 
ATOM      9  H22 UNL     1      79.595  91.190  18.219  1.00  0.00     0.177 HD
ATOM     10  H21 UNL     1      80.870  89.927  18.068  1.00  0.00     0.177 HD
ENDBRANCH   2   8
BRANCH   4  11
HETATM   11  N4  UNL     1      78.001  90.767  20.677  1.00  0.00    -0.235 N 
HETATM   12  N5  UNL     1      76.833  90.954  20.222  1.00  0.00    -0.330 N 
ATOM     13  H52 UNL     1      76.266  90.140  19.984  1.00  0.00     0.178 HD
ATOM     14  H51 UNL     1      76.465  91.898  20.096  1.00  0.00     0.178 HD
ATOM     15  H4  UNL     1      78.581  91.570  20.920  1.00  0.00     0.208 HD
ENDBRANCH   4  11
BRANCH   6  16
HETATM   16  N7  UNL     1      78.676  86.327  20.345  1.00  0.00    -0.015 NA
BRANCH  16  17
HETATM   17  N8  UNL     1      78.640  85.593  19.169  1.00  0.00    -0.328 N 
ATOM     18  H82 UNL     1      78.043  84.779  19.022  1.00  0.00     0.174 HD
ATOM     19  H81 UNL     1      79.289  85.986  18.488  1.00  0.00     0.174 HD
ENDBRANCH  16  17
ENDBRANCH   6  16
TORSDOF 4
ENDMDL
MODEL 2
REMARK VINA RESULT: -5.540601004      1.840      3.378
REMARK  4 active torsions:
REMARK  status: ('A' for Active; 'I' for Inactive)
REMARK    1  A    between atoms: N1_2  and  N2_3 
REMARK       I    between atoms: N1_2  and  C2_6 
REMARK       I    between atoms: C2_6  and  N6_14 
REMARK    2  A    between atoms: N3_7  and  N4_9 
REMARK    3  A    between atoms: N6_14  and  N7_16 
REMARK    4  A    between atoms: N7_16  and  N8_17 
ROOT
HETATM    1  C1  UNL     1      80.214  88.332  19.964  1.00  0.00     0.197 C 
HETATM    2  N1  UNL     1      79.657  89.234  18.977  1.00  0.00    -0.132 N 
HETATM    3  C2  UNL     1      78.400  89.841  19.093  1.00  0.00     0.727 C 
HETATM    4  N3  UNL     1      77.428  89.473  18.363  1.00  0.00    -0.116 N 
ATOM      5  H3  UNL     1      76.532  89.946  18.484  1.00  0.00     0.207 HD
HETATM    6  N6  UNL     1      78.224  90.868  20.030  1.00  0.00    -0.114 N 
ATOM      7  H6  UNL     1      78.548  91.798  19.767  1.00  0.00     0.203 HD
ENDROOT
BRANCH   2   8
HETATM    8  N2  UNL     1      80.426  89.505  17.849  1.00  0.00    -0.329 N 
ATOM      9  H22 UNL     1      80.792  88.721  17.307  1.00  0.00     0.177 HD
ATOM     10  H21 UNL     1      80.591  90.484  17.616  1.00  0.00     0.177 HD
ENDBRANCH   2   8
BRANCH   4  11
HETATM   11  N4  UNL     1      77.510  88.459  17.401  1.00  0.00    -0.235 N 
HETATM   12  N5  UNL     1      77.101  87.287  17.654  1.00  0.00    -0.330 N 
ATOM     13  H52 UNL     1      76.709  87.096  18.576  1.00  0.00     0.178 HD
ATOM     14  H51 UNL     1      77.162  86.547  16.954  1.00  0.00     0.178 HD
ATOM     15  H4  UNL     1      77.905  88.666  16.484  1.00  0.00     0.208 HD
ENDBRANCH   4  11
BRANCH   6  16
HETATM   16  N7  UNL     1      77.647  90.730  21.287  1.00  0.00    -0.015 NA
BRANCH  16  17
HETATM   17  N8  UNL     1      77.363  89.397  21.542  1.00  0.00    -0.328 N 
ATOM     18  H82 UNL     1      78.025  88.740  21.954  1.00  0.00     0.174 HD
ATOM     19  H81 UNL     1      76.408  89.179  21.259  1.00  0.00     0.174 HD
ENDBRANCH  16  17
ENDBRANCH   6  16
TORSDOF 4
ENDMDL
MODEL 3
REMARK VINA RESULT: -5.487510664      1.272      3.478
REMARK  4 active torsions:
REMARK  status: ('A' for Active; 'I' for Inactive)
REMARK    1  A    between atoms: N1_2  and  N2_3 
REMARK       I    between atoms: N1_2  and  C2_6 
REMARK       I    between atoms: C2_6  and  N6_14 
REMARK    2  A    between atoms: N3_7  and  N4_9 
REMARK    3  A    between atoms: N6_14  and  N7_16 
REMARK    4  A    between atoms: N7_16  and  N8_17 
ROOT
HETATM    1  C1  UNL     1      77.310  87.051  18.605  1.00  0.00     0.197 C 
HETATM    2  N1  UNL     1      78.267  87.451  19.617  1.00  0.00    -0.132 N 
HETATM    3  C2  UNL     1      78.422  88.768  20.069  1.00  0.00     0.727 C 
HETATM    4  N3  UNL     1      79.445  89.450  19.751  1.00  0.00    -0.116 N 
ATOM      5  H3  UNL     1      79.513  90.404  20.106  1.00  0.00     0.207 HD
HETATM    6  N6  UNL     1      77.430  89.329  20.884  1.00  0.00    -0.114 N 
ATOM      7  H6  UNL     1      77.447  89.083  21.873  1.00  0.00     0.203 HD
ENDROOT
BRANCH   2   8
HETATM    8  N2  UNL     1      79.076  86.458  20.163  1.00  0.00    -0.329 N 
ATOM      9  H22 UNL     1      79.496  85.771  19.537  1.00  0.00     0.177 HD
ATOM     10  H21 UNL     1      79.209  86.464  21.174  1.00  0.00     0.177 HD
ENDBRANCH   2   8
BRANCH   4  11
HETATM   11  N4  UNL     1      80.486  88.973  18.944  1.00  0.00    -0.235 N 
HETATM   12  N5  UNL     1      80.627  89.384  17.754  1.00  0.00    -0.330 N 
ATOM     13  H52 UNL     1      79.966  90.072  17.394  1.00  0.00     0.178 HD
ATOM     14  H51 UNL     1      81.385  89.036  17.166  1.00  0.00     0.178 HD
ATOM     15  H4  UNL     1      81.139  88.285  19.319  1.00  0.00     0.208 HD
ENDBRANCH   4  11
BRANCH   6  16
HETATM   16  N7  UNL     1      76.425  90.191  20.463  1.00  0.00    -0.015 NA
BRANCH  16  17
HETATM   17  N8  UNL     1      76.459  90.331  19.083  1.00  0.00    -0.328 N 
ATOM     18  H82 UNL     1      77.211  89.977  18.491  1.00  0.00     0.174 HD
ATOM     19  H81 UNL     1      75.633  90.832  18.758  1.00  0.00     0.174 HD
ENDBRANCH  16  17
ENDBRANCH   6  16
TORSDOF 4
ENDMDL
MODEL 4
REMARK VINA RESULT: -5.474325844      1.515      2.227
REMARK  4 active torsions:
REMARK  status: ('A' for Active; 'I' for Inactive)
REMARK    1  A    between atoms: N1_2  and  N2_3 
REMARK       I    between atoms: N1_2  and  C2_6 
REMARK       I    between atoms: C2_6  and  N6_14 
REMARK    2  A    between atoms: N3_7  and  N4_9 
REMARK    3  A    between atoms: N6_14  and  N7_16 
REMARK    4  A    between atoms: N7_16  and  N8_17 
ROOT
HETATM    1  C1  UNL     1      80.688  88.756  18.874  1.00  0.00     0.197 C 
HETATM    2  N1  UNL     1      79.412  88.543  19.526  1.00  0.00    -0.132 N 
HETATM    3  C2  UNL     1      78.357  87.813  18.962  1.00  0.00     0.727 C 
HETATM    4  N3  UNL     1      77.313  88.399  18.537  1.00  0.00    -0.116 N 
ATOM      5  H3  UNL     1      76.573  87.824  18.135  1.00  0.00     0.207 HD
HETATM    6  N6  UNL     1      78.466  86.419  18.871  1.00  0.00    -0.114 N 
ATOM      7  H6  UNL     1      78.267  85.882  19.715  1.00  0.00     0.203 HD
ENDROOT
BRANCH   2   8
HETATM    8  N2  UNL     1      79.235  89.103  20.789  1.00  0.00    -0.329 N 
ATOM      9  H22 UNL     1      79.417  88.526  21.610  1.00  0.00     0.177 HD
ATOM     10  H21 UNL     1      78.928  90.075  20.833  1.00  0.00     0.177 HD
ENDBRANCH   2   8
BRANCH   4  11
HETATM   11  N4  UNL     1      77.117  89.785  18.587  1.00  0.00    -0.235 N 
HETATM   12  N5  UNL     1      76.300  90.297  19.409  1.00  0.00    -0.330 N 
ATOM     13  H52 UNL     1      75.786  89.678  20.036  1.00  0.00     0.178 HD
ATOM     14  H51 UNL     1      76.157  91.307  19.445  1.00  0.00     0.178 HD
ATOM     15  H4  UNL     1      77.638  90.390  17.953  1.00  0.00     0.208 HD
ENDBRANCH   4  11
BRANCH   6  16
HETATM   16  N7  UNL     1      78.822  85.705  17.734  1.00  0.00    -0.015 NA
BRANCH  16  17
HETATM   17  N8  UNL     1      78.817  84.344  18.001  1.00  0.00    -0.328 N 
ATOM     18  H82 UNL     1      78.339  83.919  18.796  1.00  0.00     0.174 HD
ATOM     19  H81 UNL     1      79.353  83.843  17.293  1.00  0.00     0.174 HD
ENDBRANCH  16  17
ENDBRANCH   6  16
TORSDOF 4
ENDMDL
MODEL 5
REMARK VINA RESULT: -5.457019756      1.665      2.849
REMARK  4 active torsions:
REMARK  status: ('A' for Active; 'I' for Inactive)
REMARK    1  A    between atoms: N1_2  and  N2_3 
REMARK       I    between atoms: N1_2  and  C2_6 
REMARK       I    between atoms: C2_6  and  N6_14 
REMARK    2  A    between atoms: N3_7  and  N4_9 
REMARK    3  A    between atoms: N6_14  and  N7_16 
REMARK    4  A    between atoms: N7_16  and  N8_17 
ROOT
HETATM    1  C1  UNL     1      78.440  86.831  18.881  1.00  0.00     0.197 C 
HETATM    2  N1  UNL     1      78.008  88.214  18.858  1.00  0.00    -0.132 N 
HETATM    3  C2  UNL     1      78.879  89.303  18.728  1.00  0.00     0.727 C 
HETATM    4  N3  UNL     1      79.119  90.067  19.714  1.00  0.00    -0.116 N 
ATOM      5  H3  UNL     1      79.760  90.848  19.570  1.00  0.00     0.207 HD
HETATM    6  N6  UNL     1      79.488  89.544  17.489  1.00  0.00    -0.114 N 
ATOM      7  H6  UNL     1      78.930  90.022  16.782  1.00  0.00     0.203 HD
ENDROOT
BRANCH   2   8
HETATM    8  N2  UNL     1      76.643  88.461  18.974  1.00  0.00    -0.329 N 
ATOM      9  H22 UNL     1      76.011  88.046  18.289  1.00  0.00     0.177 HD
ATOM     10  H21 UNL     1      76.337  89.053  19.746  1.00  0.00     0.177 HD
ENDBRANCH   2   8
BRANCH   4  11
HETATM   11  N4  UNL     1      78.557  89.905  20.986  1.00  0.00    -0.235 N 
HETATM   12  N5  UNL     1      77.640  90.676  21.397  1.00  0.00    -0.330 N 
ATOM     13  H52 UNL     1      77.317  91.421  20.779  1.00  0.00     0.178 HD
ATOM     14  H51 UNL     1      77.231  90.558  22.324  1.00  0.00     0.178 HD
ATOM     15  H4  UNL     1      78.891  89.155  21.592  1.00  0.00     0.208 HD
ENDBRANCH   4  11
BRANCH   6  16
HETATM   16  N7  UNL     1      80.785  89.188  17.139  1.00  0.00    -0.015 NA
BRANCH  16  17
HETATM   17  N8  UNL     1      81.432  88.607  18.219  1.00  0.00    -0.328 N 
ATOM     18  H82 UNL     1      82.337  88.140  18.159  1.00  0.00     0.174 HD
ATOM     19  H81 UNL     1      80.875  88.716  19.066  1.00  0.00     0.174 HD
ENDBRANCH  16  17
ENDBRANCH   6  16
TORSDOF 4
ENDMDL
