MODEL 1
REMARK VINA RESULT: -5.580746521      0.000      0.000
REMARK  1 active torsions:
REMARK  status: ('A' for Active; 'I' for Inactive)
REMARK       I    between atoms: C1_4  and  N2_5 
REMARK       I    between atoms: C1_4  and  N5_14 
REMARK       I    between atoms: N2_5  and  C2_7 
REMARK       I    between atoms: C2_7  and  N3_9 
REMARK    1  A    between atoms: N3_9  and  N4_11 
ROOT
HETATM    1  N1  UNL     1      77.229  88.247  15.907  1.00  0.00    -0.234 N 
ATOM      2  H11 UNL     1      77.262  87.406  15.331  1.00  0.00     0.174 HD
ATOM      3  H12 UNL     1      77.041  89.175  15.530  1.00  0.00     0.174 HD
HETATM    4  C1  UNL     1      77.432  88.170  17.185  1.00  0.00     0.679 C 
HETATM    5  N2  UNL     1      77.387  89.324  17.976  1.00  0.00    -0.140 N 
ATOM      6  H2  UNL     1      77.190  90.203  17.496  1.00  0.00     0.189 HD
HETATM    7  C2  UNL     1      77.589  89.393  19.377  1.00  0.00     0.352 C 
HETATM    8  O1  UNL     1      77.839  88.399  20.104  1.00  0.00    -0.245 OA
HETATM    9  N3  UNL     1      77.514  90.650  20.062  1.00  0.00    -0.258 N 
ATOM     10  H3  UNL     1      77.313  91.492  19.522  1.00  0.00     0.191 HD
HETATM   11  N5  UNL     1      77.691  86.891  17.704  1.00  0.00    -0.195 N 
HETATM   12  C3  UNL     1      78.961  86.255  17.977  1.00  0.00     0.169 C 
HETATM   13  C4  UNL     1      78.541  85.028  18.771  1.00  0.00     0.190 C 
HETATM   14  O2  UNL     1      77.222  85.253  19.136  1.00  0.00    -0.370 OA
HETATM   15  C5  UNL     1      76.683  85.915  18.057  1.00  0.00     0.311 C 
ENDROOT
BRANCH   9  16
HETATM   16  N4  UNL     1      77.704  90.764  21.428  1.00  0.00    -0.341 N 
ATOM     17  H42 UNL     1      78.382  90.142  21.867  1.00  0.00     0.177 HD
ATOM     18  H41 UNL     1      77.195  91.441  21.998  1.00  0.00     0.177 HD
ENDBRANCH   9  16
TORSDOF 1
ENDMDL
MODEL 2
REMARK VINA RESULT: -5.478991197      1.965      4.456
REMARK  1 active torsions:
REMARK  status: ('A' for Active; 'I' for Inactive)
REMARK       I    between atoms: C1_4  and  N2_5 
REMARK       I    between atoms: C1_4  and  N5_14 
REMARK       I    between atoms: N2_5  and  C2_7 
REMARK       I    between atoms: C2_7  and  N3_9 
REMARK    1  A    between atoms: N3_9  and  N4_11 
ROOT
HETATM    1  N1  UNL     1      80.495  89.326  17.574  1.00  0.00    -0.234 N 
ATOM      2  H11 UNL     1      80.506  90.317  17.817  1.00  0.00     0.174 HD
ATOM      3  H12 UNL     1      81.136  88.908  16.900  1.00  0.00     0.174 HD
HETATM    4  C1  UNL     1      79.634  88.530  18.126  1.00  0.00     0.679 C 
HETATM    5  N2  UNL     1      79.618  87.170  17.793  1.00  0.00    -0.140 N 
ATOM      6  H2  UNL     1      80.305  86.856  17.108  1.00  0.00     0.189 HD
HETATM    7  C2  UNL     1      78.740  86.187  18.313  1.00  0.00     0.352 C 
HETATM    8  O1  UNL     1      77.843  86.419  19.162  1.00  0.00    -0.245 OA
HETATM    9  N3  UNL     1      78.835  84.824  17.879  1.00  0.00    -0.258 N 
ATOM     10  H3  UNL     1      79.546  84.576  17.190  1.00  0.00     0.191 HD
HETATM   11  N5  UNL     1      78.750  89.106  19.053  1.00  0.00    -0.195 N 
HETATM   12  C3  UNL     1      77.404  89.595  18.851  1.00  0.00     0.169 C 
HETATM   13  C4  UNL     1      76.926  89.816  20.277  1.00  0.00     0.190 C 
HETATM   14  O2  UNL     1      77.843  89.161  21.085  1.00  0.00    -0.370 OA
HETATM   15  C5  UNL     1      79.048  89.349  20.448  1.00  0.00     0.311 C 
ENDROOT
BRANCH   9  16
HETATM   16  N4  UNL     1      78.000  83.830  18.359  1.00  0.00    -0.341 N 
ATOM     17  H42 UNL     1      77.782  83.834  19.356  1.00  0.00     0.177 HD
ATOM     18  H41 UNL     1      77.602  83.109  17.756  1.00  0.00     0.177 HD
ENDBRANCH   9  16
TORSDOF 1
ENDMDL
MODEL 3
REMARK VINA RESULT: -5.313004025      2.430      4.523
REMARK  1 active torsions:
REMARK  status: ('A' for Active; 'I' for Inactive)
REMARK       I    between atoms: C1_4  and  N2_5 
REMARK       I    between atoms: C1_4  and  N5_14 
REMARK       I    between atoms: N2_5  and  C2_7 
REMARK       I    between atoms: C2_7  and  N3_9 
REMARK    1  A    between atoms: N3_9  and  N4_11 
ROOT
HETATM    1  N1  UNL     1      76.620  89.041  19.134  1.00  0.00    -0.234 N 
ATOM      2  H11 UNL     1      76.981  89.946  19.434  1.00  0.00     0.174 HD
ATOM      3  H12 UNL     1      75.640  88.774  19.217  1.00  0.00     0.174 HD
HETATM    4  C1  UNL     1      77.419  88.160  18.618  1.00  0.00     0.679 C 
HETATM    5  N2  UNL     1      76.924  86.916  18.206  1.00  0.00    -0.140 N 
ATOM      6  H2  UNL     1      75.925  86.754  18.334  1.00  0.00     0.189 HD
HETATM    7  C2  UNL     1      77.674  85.862  17.629  1.00  0.00     0.352 C 
HETATM    8  O1  UNL     1      78.910  85.912  17.409  1.00  0.00    -0.245 OA
HETATM    9  N3  UNL     1      77.034  84.635  17.253  1.00  0.00    -0.258 N 
ATOM     10  H3  UNL     1      76.030  84.537  17.409  1.00  0.00     0.191 HD
HETATM   11  N5  UNL     1      78.770  88.526  18.504  1.00  0.00    -0.195 N 
HETATM   12  C3  UNL     1      79.870  88.253  19.402  1.00  0.00     0.169 C 
HETATM   13  C4  UNL     1      81.073  88.669  18.571  1.00  0.00     0.190 C 
HETATM   14  O2  UNL     1      80.603  88.798  17.272  1.00  0.00    -0.370 OA
HETATM   15  C5  UNL     1      79.333  89.305  17.423  1.00  0.00     0.311 C 
ENDROOT
BRANCH   9  16
HETATM   16  N4  UNL     1      77.726  83.578  16.687  1.00  0.00    -0.341 N 
ATOM     17  H42 UNL     1      77.185  82.858  16.209  1.00  0.00     0.177 HD
ATOM     18  H41 UNL     1      78.743  83.501  16.733  1.00  0.00     0.177 HD
ENDBRANCH   9  16
TORSDOF 1
ENDMDL
MODEL 4
REMARK VINA RESULT: -5.280155106      1.901      4.345
REMARK  1 active torsions:
REMARK  status: ('A' for Active; 'I' for Inactive)
REMARK       I    between atoms: C1_4  and  N2_5 
REMARK       I    between atoms: C1_4  and  N5_14 
REMARK       I    between atoms: N2_5  and  C2_7 
REMARK       I    between atoms: C2_7  and  N3_9 
REMARK    1  A    between atoms: N3_9  and  N4_11 
ROOT
HETATM    1  N1  UNL     1      77.339  88.695  16.343  1.00  0.00    -0.234 N 
ATOM      2  H11 UNL     1      77.249  89.707  16.429  1.00  0.00     0.174 HD
ATOM      3  H12 UNL     1      77.010  88.171  15.532  1.00  0.00     0.174 HD
HETATM    4  C1  UNL     1      77.890  88.007  17.293  1.00  0.00     0.679 C 
HETATM    5  N2  UNL     1      78.014  86.617  17.175  1.00  0.00    -0.140 N 
ATOM      6  H2  UNL     1      77.652  86.194  16.320  1.00  0.00     0.189 HD
HETATM    7  C2  UNL     1      78.591  85.740  18.127  1.00  0.00     0.352 C 
HETATM    8  O1  UNL     1      79.078  86.110  19.225  1.00  0.00    -0.245 OA
HETATM    9  N3  UNL     1      78.651  84.330  17.875  1.00  0.00    -0.258 N 
ATOM     10  H3  UNL     1      78.270  83.971  16.998  1.00  0.00     0.191 HD
HETATM   11  N5  UNL     1      78.343  88.728  18.410  1.00  0.00    -0.195 N 
HETATM   12  C3  UNL     1      77.676  88.976  19.669  1.00  0.00     0.169 C 
HETATM   13  C4  UNL     1      78.796  89.557  20.517  1.00  0.00     0.190 C 
HETATM   14  O2  UNL     1      79.968  89.282  19.826  1.00  0.00    -0.370 OA
HETATM   15  C5  UNL     1      79.615  89.409  18.502  1.00  0.00     0.311 C 
ENDROOT
BRANCH   9  16
HETATM   16  N4  UNL     1      79.204  83.436  18.775  1.00  0.00    -0.341 N 
ATOM     17  H42 UNL     1      79.143  83.663  19.767  1.00  0.00     0.177 HD
ATOM     18  H41 UNL     1      79.663  82.574  18.479  1.00  0.00     0.177 HD
ENDBRANCH   9  16
TORSDOF 1
ENDMDL
MODEL 5
REMARK VINA RESULT: -5.272786325      2.553      4.383
REMARK  1 active torsions:
REMARK  status: ('A' for Active; 'I' for Inactive)
REMARK       I    between atoms: C1_4  and  N2_5 
REMARK       I    between atoms: C1_4  and  N5_14 
REMARK       I    between atoms: N2_5  and  C2_7 
REMARK       I    between atoms: C2_7  and  N3_9 
REMARK    1  A    between atoms: N3_9  and  N4_11 
ROOT
HETATM    1  N1  UNL     1      78.881  85.196  18.754  1.00  0.00    -0.234 N 
ATOM      2  H11 UNL     1      79.499  85.243  19.565  1.00  0.00     0.174 HD
ATOM      3  H12 UNL     1      78.472  84.326  18.414  1.00  0.00     0.174 HD
HETATM    4  C1  UNL     1      78.581  86.273  18.100  1.00  0.00     0.679 C 
HETATM    5  N2  UNL     1      77.733  86.208  16.987  1.00  0.00    -0.140 N 
ATOM      6  H2  UNL     1      77.378  85.286  16.732  1.00  0.00     0.189 HD
HETATM    7  C2  UNL     1      77.320  87.297  16.179  1.00  0.00     0.352 C 
HETATM    8  O1  UNL     1      77.672  88.489  16.366  1.00  0.00    -0.245 OA
HETATM    9  N3  UNL     1      76.445  87.084  15.063  1.00  0.00    -0.258 N 
ATOM     10  H3  UNL     1      76.127  86.136  14.863  1.00  0.00     0.191 HD
HETATM   11  N5  UNL     1      79.144  87.471  18.569  1.00  0.00    -0.195 N 
HETATM   12  C3  UNL     1      80.345  88.149  18.132  1.00  0.00     0.169 C 
HETATM   13  C4  UNL     1      80.228  89.493  18.834  1.00  0.00     0.190 C 
HETATM   14  O2  UNL     1      78.917  89.567  19.282  1.00  0.00    -0.370 OA
HETATM   15  C5  UNL     1      78.613  88.276  19.647  1.00  0.00     0.311 C 
ENDROOT
BRANCH   9  16
HETATM   16  N4  UNL     1      76.017  88.116  14.247  1.00  0.00    -0.341 N 
ATOM     17  H42 UNL     1      75.946  87.932  13.246  1.00  0.00     0.177 HD
ATOM     18  H41 UNL     1      75.773  89.038  14.611  1.00  0.00     0.177 HD
ENDBRANCH   9  16
TORSDOF 1
ENDMDL
