MODEL 1
REMARK VINA RESULT: -5.420513957      0.000      0.000
REMARK  4 active torsions:
REMARK  status: ('A' for Active; 'I' for Inactive)
REMARK    1  A    between atoms: N1_2  and  N2_3 
REMARK       I    between atoms: N1_2  and  C3_12 
REMARK    2  A    between atoms: N2_3  and  C2_5 
REMARK    3  A    between atoms: C2_5  and  N3_7 
REMARK    4  A    between atoms: N3_7  and  N4_9 
ROOT
HETATM    1  N2  UNL     1      78.253  89.459  18.244  1.00  0.00    -0.270 N 
ATOM      2  H2  UNL     1      78.518  90.324  17.773  1.00  0.00     0.189 HD
ENDROOT
BRANCH   1   3
HETATM    3  N1  UNL     1      78.326  89.411  19.631  1.00  0.00    -0.247 N 
HETATM    4  C1  UNL     1      79.546  89.015  20.296  1.00  0.00     0.182 C 
HETATM    5  C3  UNL     1      77.200  89.750  20.420  1.00  0.00     0.349 C 
HETATM    6  N5  UNL     1      75.970  90.149  19.831  1.00  0.00    -0.038 NA
HETATM    7  O1  UNL     1      77.260  89.708  21.675  1.00  0.00    -0.249 OA
ENDBRANCH   1   3
BRANCH   1   8
HETATM    8  C2  UNL     1      77.828  88.367  17.454  1.00  0.00     0.205 C 
HETATM    9  S1  UNL     1      77.956  86.877  18.095  1.00  0.00    -0.038 SA
BRANCH   8  10
HETATM   10  N3  UNL     1      77.305  88.523  16.148  1.00  0.00    -0.282 N 
ATOM     11  H3  UNL     1      77.403  89.415  15.662  1.00  0.00     0.189 HD
BRANCH  10  12
HETATM   12  N4  UNL     1      76.646  87.442  15.517  1.00  0.00    -0.343 N 
ATOM     13  H42 UNL     1      77.204  86.723  15.057  1.00  0.00     0.176 HD
ATOM     14  H41 UNL     1      75.628  87.391  15.526  1.00  0.00     0.176 HD
ENDBRANCH  10  12
ENDBRANCH   8  10
ENDBRANCH   1   8
TORSDOF 4
ENDMDL
MODEL 2
REMARK VINA RESULT: -5.355948884      1.795      2.098
REMARK  4 active torsions:
REMARK  status: ('A' for Active; 'I' for Inactive)
REMARK    1  A    between atoms: N1_2  and  N2_3 
REMARK       I    between atoms: N1_2  and  C3_12 
REMARK    2  A    between atoms: N2_3  and  C2_5 
REMARK    3  A    between atoms: C2_5  and  N3_7 
REMARK    4  A    between atoms: N3_7  and  N4_9 
ROOT
HETATM    1  N2  UNL     1      78.425  89.888  18.586  1.00  0.00    -0.270 N 
ATOM      2  H2  UNL     1      78.085  90.794  18.263  1.00  0.00     0.189 HD
ENDROOT
BRANCH   1   3
HETATM    3  N1  UNL     1      78.334  89.592  19.941  1.00  0.00    -0.247 N 
HETATM    4  C1  UNL     1      79.469  89.067  20.664  1.00  0.00     0.182 C 
HETATM    5  C3  UNL     1      77.120  89.801  20.639  1.00  0.00     0.349 C 
HETATM    6  N5  UNL     1      75.966  90.316  19.991  1.00  0.00    -0.038 NA
HETATM    7  O1  UNL     1      77.031  89.534  21.865  1.00  0.00    -0.249 OA
ENDBRANCH   1   3
BRANCH   1   8
HETATM    8  C2  UNL     1      78.967  88.995  17.635  1.00  0.00     0.205 C 
HETATM    9  S1  UNL     1      77.986  87.841  17.038  1.00  0.00    -0.038 SA
BRANCH   8  10
HETATM   10  N3  UNL     1      80.309  89.069  17.191  1.00  0.00    -0.282 N 
ATOM     11  H3  UNL     1      80.534  89.553  16.322  1.00  0.00     0.189 HD
BRANCH  10  12
HETATM   12  N4  UNL     1      81.339  88.470  17.954  1.00  0.00    -0.343 N 
ATOM     13  H42 UNL     1      81.687  88.954  18.781  1.00  0.00     0.176 HD
ATOM     14  H41 UNL     1      81.721  87.567  17.674  1.00  0.00     0.176 HD
ENDBRANCH  10  12
ENDBRANCH   8  10
ENDBRANCH   1   8
TORSDOF 4
ENDMDL
MODEL 3
REMARK VINA RESULT: -5.207032279      1.660      1.808
REMARK  4 active torsions:
REMARK  status: ('A' for Active; 'I' for Inactive)
REMARK    1  A    between atoms: N1_2  and  N2_3 
REMARK       I    between atoms: N1_2  and  C3_12 
REMARK    2  A    between atoms: N2_3  and  C2_5 
REMARK    3  A    between atoms: C2_5  and  N3_7 
REMARK    4  A    between atoms: N3_7  and  N4_9 
ROOT
HETATM    1  N2  UNL     1      78.610  87.708  20.003  1.00  0.00    -0.270 N 
ATOM      2  H2  UNL     1      78.945  87.204  20.823  1.00  0.00     0.189 HD
ENDROOT
BRANCH   1   3
HETATM    3  N1  UNL     1      78.781  89.087  19.957  1.00  0.00    -0.247 N 
HETATM    4  C1  UNL     1      79.781  89.682  19.101  1.00  0.00     0.182 C 
HETATM    5  C3  UNL     1      77.973  89.935  20.753  1.00  0.00     0.349 C 
HETATM    6  N5  UNL     1      76.971  89.417  21.615  1.00  0.00    -0.038 NA
HETATM    7  O1  UNL     1      78.124  91.183  20.716  1.00  0.00    -0.249 OA
ENDBRANCH   1   3
BRANCH   1   8
HETATM    8  C2  UNL     1      77.993  86.972  18.967  1.00  0.00     0.205 C 
HETATM    9  S1  UNL     1      78.463  85.428  18.754  1.00  0.00    -0.038 SA
BRANCH   8  10
HETATM   10  N3  UNL     1      76.999  87.521  18.123  1.00  0.00    -0.282 N 
ATOM     11  H3  UNL     1      76.022  87.526  18.419  1.00  0.00     0.189 HD
BRANCH  10  12
HETATM   12  N4  UNL     1      77.359  88.065  16.867  1.00  0.00    -0.343 N 
ATOM     13  H42 UNL     1      78.304  88.425  16.737  1.00  0.00     0.176 HD
ATOM     14  H41 UNL     1      76.677  88.091  16.109  1.00  0.00     0.176 HD
ENDBRANCH  10  12
ENDBRANCH   8  10
ENDBRANCH   1   8
TORSDOF 4
ENDMDL
MODEL 4
REMARK VINA RESULT: -5.069775088      1.857      2.679
REMARK  4 active torsions:
REMARK  status: ('A' for Active; 'I' for Inactive)
REMARK    1  A    between atoms: N1_2  and  N2_3 
REMARK       I    between atoms: N1_2  and  C3_12 
REMARK    2  A    between atoms: N2_3  and  C2_5 
REMARK    3  A    between atoms: C2_5  and  N3_7 
REMARK    4  A    between atoms: N3_7  and  N4_9 
ROOT
HETATM    1  N2  UNL     1      77.603  88.725  16.841  1.00  0.00    -0.270 N 
ATOM      2  H2  UNL     1      77.424  89.492  16.193  1.00  0.00     0.189 HD
ENDROOT
BRANCH   1   3
HETATM    3  N1  UNL     1      78.127  89.025  18.093  1.00  0.00    -0.247 N 
HETATM    4  C1  UNL     1      77.263  89.174  19.242  1.00  0.00     0.182 C 
HETATM    5  C3  UNL     1      79.523  89.189  18.265  1.00  0.00     0.349 C 
HETATM    6  N5  UNL     1      80.429  89.055  17.179  1.00  0.00    -0.038 NA
HETATM    7  O1  UNL     1      80.002  89.460  19.395  1.00  0.00    -0.249 OA
ENDBRANCH   1   3
BRANCH   1   8
HETATM    8  C2  UNL     1      77.307  87.409  16.422  1.00  0.00     0.205 C 
HETATM    9  S1  UNL     1      77.873  86.182  17.330  1.00  0.00    -0.038 SA
BRANCH   8  10
HETATM   10  N3  UNL     1      76.548  87.126  15.261  1.00  0.00    -0.282 N 
ATOM     11  H3  UNL     1      76.202  86.181  15.095  1.00  0.00     0.189 HD
BRANCH  10  12
HETATM   12  N4  UNL     1      76.272  88.155  14.330  1.00  0.00    -0.343 N 
ATOM     13  H42 UNL     1      76.821  88.207  13.472  1.00  0.00     0.176 HD
ATOM     14  H41 UNL     1      75.532  88.830  14.522  1.00  0.00     0.176 HD
ENDBRANCH  10  12
ENDBRANCH   8  10
ENDBRANCH   1   8
TORSDOF 4
ENDMDL
MODEL 5
REMARK VINA RESULT: -5.004020520      3.059      4.120
REMARK  4 active torsions:
REMARK  status: ('A' for Active; 'I' for Inactive)
REMARK    1  A    between atoms: N1_2  and  N2_3 
REMARK       I    between atoms: N1_2  and  C3_12 
REMARK    2  A    between atoms: N2_3  and  C2_5 
REMARK    3  A    between atoms: C2_5  and  N3_7 
REMARK    4  A    between atoms: N3_7  and  N4_9 
ROOT
HETATM    1  N2  UNL     1      77.029  87.737  18.540  1.00  0.00    -0.270 N 
ATOM      2  H2  UNL     1      76.029  87.536  18.538  1.00  0.00     0.189 HD
ENDROOT
BRANCH   1   3
HETATM    3  N1  UNL     1      77.917  86.676  18.405  1.00  0.00    -0.247 N 
HETATM    4  C1  UNL     1      78.663  86.184  19.540  1.00  0.00     0.182 C 
HETATM    5  C3  UNL     1      78.107  86.056  17.145  1.00  0.00     0.349 C 
HETATM    6  N5  UNL     1      77.405  86.489  15.989  1.00  0.00    -0.038 NA
HETATM    7  O1  UNL     1      78.909  85.097  17.017  1.00  0.00    -0.249 OA
ENDBRANCH   1   3
BRANCH   1   8
HETATM    8  C2  UNL     1      77.444  89.079  18.679  1.00  0.00     0.205 C 
HETATM    9  S1  UNL     1      76.762  89.963  19.863  1.00  0.00    -0.038 SA
BRANCH   8  10
HETATM   10  N3  UNL     1      78.417  89.672  17.838  1.00  0.00    -0.282 N 
ATOM     11  H3  UNL     1      78.203  89.849  16.856  1.00  0.00     0.189 HD
BRANCH  10  12
HETATM   12  N4  UNL     1      79.685  90.019  18.360  1.00  0.00    -0.343 N 
ATOM     13  H42 UNL     1      80.141  89.384  19.015  1.00  0.00     0.176 HD
ATOM     14  H41 UNL     1      80.130  90.893  18.079  1.00  0.00     0.176 HD
ENDBRANCH  10  12
ENDBRANCH   8  10
ENDBRANCH   1   8
TORSDOF 4
ENDMDL
