MODEL 1
REMARK VINA RESULT: -5.643772813      0.000      0.000
REMARK  2 active torsions:
REMARK  status: ('A' for Active; 'I' for Inactive)
REMARK    1  A    between atoms: N1_1  and  N2_4 
REMARK       I    between atoms: N2_4  and  C1_6 
REMARK    2  A    between atoms: C1_6  and  C2_8 
REMARK       I    between atoms: C2_8  and  N3_10 
ROOT
HETATM    1  N2  UNL     1      77.065  87.414  16.538  1.00  0.00    -0.268 N 
ATOM      2  H2  UNL     1      76.594  88.308  16.670  1.00  0.00     0.190 HD
HETATM    3  C1  UNL     1      78.196  87.166  17.331  1.00  0.00     0.327 C 
HETATM    4  O1  UNL     1      78.797  86.076  17.193  1.00  0.00    -0.261 OA
ENDROOT
BRANCH   3   5
HETATM    5  C2  UNL     1      78.700  88.115  18.304  1.00  0.00     0.317 C 
HETATM    6  O2  UNL     1      79.927  88.125  18.654  1.00  0.00    -0.262 OA
HETATM    7  N3  UNL     1      77.830  89.063  18.898  1.00  0.00    -0.295 N 
HETATM    8  C3  UNL     1      77.950  89.335  20.148  1.00  0.00     0.203 C 
ATOM      9  H3  UNL     1      77.114  89.527  18.338  1.00  0.00     0.171 HD
HETATM   10  N4  UNL     1      77.080  90.296  20.782  1.00  0.00    -0.066 NA
HETATM   11  N5  UNL     1      78.947  88.689  20.934  1.00  0.00    -0.066 NA
ENDBRANCH   3   5
BRANCH   1  12
HETATM   12  N1  UNL     1      76.536  86.559  15.598  1.00  0.00    -0.342 N 
ATOM     13  H12 UNL     1      77.168  85.844  15.239  1.00  0.00     0.176 HD
ATOM     14  H11 UNL     1      75.581  86.582  15.240  1.00  0.00     0.176 HD
ENDBRANCH   1  12
TORSDOF 2
ENDMDL
MODEL 2
REMARK VINA RESULT: -5.632900963      1.645      4.257
REMARK  2 active torsions:
REMARK  status: ('A' for Active; 'I' for Inactive)
REMARK    1  A    between atoms: N1_1  and  N2_4 
REMARK       I    between atoms: N2_4  and  C1_6 
REMARK    2  A    between atoms: C1_6  and  C2_8 
REMARK       I    between atoms: C2_8  and  N3_10 
ROOT
HETATM    1  N2  UNL     1      77.044  89.854  19.853  1.00  0.00    -0.268 N 
ATOM      2  H2  UNL     1      76.335  89.839  19.120  1.00  0.00     0.190 HD
HETATM    3  C1  UNL     1      77.818  88.696  20.016  1.00  0.00     0.327 C 
HETATM    4  O1  UNL     1      78.698  88.684  20.907  1.00  0.00    -0.261 OA
ENDROOT
BRANCH   3   5
HETATM    5  C2  UNL     1      77.647  87.511  19.198  1.00  0.00     0.317 C 
HETATM    6  O2  UNL     1      78.011  86.358  19.608  1.00  0.00    -0.262 OA
HETATM    7  N3  UNL     1      77.066  87.607  17.909  1.00  0.00    -0.295 N 
HETATM    8  C3  UNL     1      77.547  86.908  16.945  1.00  0.00     0.203 C 
ATOM      9  H3  UNL     1      76.272  88.227  17.748  1.00  0.00     0.171 HD
HETATM   10  N4  UNL     1      76.978  86.983  15.622  1.00  0.00    -0.066 NA
HETATM   11  N5  UNL     1      78.657  86.043  17.166  1.00  0.00    -0.066 NA
ENDBRANCH   3   5
BRANCH   1  12
HETATM   12  N1  UNL     1      77.154  91.009  20.593  1.00  0.00    -0.342 N 
ATOM     13  H12 UNL     1      77.414  91.848  20.074  1.00  0.00     0.176 HD
ATOM     14  H11 UNL     1      77.000  91.092  21.597  1.00  0.00     0.176 HD
ENDBRANCH   1  12
TORSDOF 2
ENDMDL
MODEL 3
REMARK VINA RESULT: -5.534666547      2.381      4.319
REMARK  2 active torsions:
REMARK  status: ('A' for Active; 'I' for Inactive)
REMARK    1  A    between atoms: N1_1  and  N2_4 
REMARK       I    between atoms: N2_4  and  C1_6 
REMARK    2  A    between atoms: C1_6  and  C2_8 
REMARK       I    between atoms: C2_8  and  N3_10 
ROOT
HETATM    1  N2  UNL     1      77.681  90.258  20.216  1.00  0.00    -0.268 N 
ATOM      2  H2  UNL     1      78.673  90.222  19.986  1.00  0.00     0.190 HD
HETATM    3  C1  UNL     1      76.838  89.358  19.546  1.00  0.00     0.327 C 
HETATM    4  O1  UNL     1      75.613  89.377  19.806  1.00  0.00    -0.261 OA
ENDROOT
BRANCH   3   5
HETATM    5  C2  UNL     1      77.321  88.406  18.565  1.00  0.00     0.317 C 
HETATM    6  O2  UNL     1      76.709  87.308  18.341  1.00  0.00    -0.262 OA
HETATM    7  N3  UNL     1      78.498  88.676  17.823  1.00  0.00    -0.295 N 
HETATM    8  C3  UNL     1      79.330  87.726  17.590  1.00  0.00     0.203 C 
ATOM      9  H3  UNL     1      78.684  89.617  17.476  1.00  0.00     0.171 HD
HETATM   10  N4  UNL     1      80.537  87.967  16.838  1.00  0.00    -0.066 NA
HETATM   11  N5  UNL     1      79.076  86.410  18.074  1.00  0.00    -0.066 NA
ENDBRANCH   3   5
BRANCH   1  12
HETATM   12  N1  UNL     1      77.288  91.184  21.155  1.00  0.00    -0.342 N 
ATOM     13  H12 UNL     1      76.573  90.875  21.813  1.00  0.00     0.176 HD
ATOM     14  H11 UNL     1      77.648  92.134  21.244  1.00  0.00     0.176 HD
ENDBRANCH   1  12
TORSDOF 2
ENDMDL
MODEL 4
REMARK VINA RESULT: -5.431872758      1.724      1.724
REMARK  2 active torsions:
REMARK  status: ('A' for Active; 'I' for Inactive)
REMARK    1  A    between atoms: N1_1  and  N2_4 
REMARK       I    between atoms: N2_4  and  C1_6 
REMARK    2  A    between atoms: C1_6  and  C2_8 
REMARK       I    between atoms: C2_8  and  N3_10 
ROOT
HETATM    1  N2  UNL     1      78.375  85.677  17.722  1.00  0.00    -0.268 N 
ATOM      2  H2  UNL     1      78.838  85.789  18.624  1.00  0.00     0.190 HD
HETATM    3  C1  UNL     1      77.863  86.835  17.120  1.00  0.00     0.327 C 
HETATM    4  O1  UNL     1      77.288  86.730  16.011  1.00  0.00    -0.261 OA
ENDROOT
BRANCH   3   5
HETATM    5  C2  UNL     1      77.968  88.150  17.721  1.00  0.00     0.317 C 
HETATM    6  O2  UNL     1      79.024  88.857  17.601  1.00  0.00    -0.262 OA
HETATM    7  N3  UNL     1      76.888  88.686  18.466  1.00  0.00    -0.295 N 
HETATM    8  C3  UNL     1      77.128  89.341  19.545  1.00  0.00     0.203 C 
ATOM      9  H3  UNL     1      75.928  88.554  18.149  1.00  0.00     0.171 HD
HETATM   10  N4  UNL     1      76.052  89.899  20.326  1.00  0.00    -0.066 NA
HETATM   11  N5  UNL     1      78.468  89.527  19.993  1.00  0.00    -0.066 NA
ENDBRANCH   3   5
BRANCH   1  12
HETATM   12  N1  UNL     1      78.309  84.403  17.207  1.00  0.00    -0.342 N 
ATOM     13  H12 UNL     1      78.227  84.336  16.192  1.00  0.00     0.176 HD
ATOM     14  H11 UNL     1      78.335  83.538  17.746  1.00  0.00     0.176 HD
ENDBRANCH   1  12
TORSDOF 2
ENDMDL
MODEL 5
REMARK VINA RESULT: -5.415279903      1.977      4.287
REMARK  2 active torsions:
REMARK  status: ('A' for Active; 'I' for Inactive)
REMARK    1  A    between atoms: N1_1  and  N2_4 
REMARK       I    between atoms: N2_4  and  C1_6 
REMARK    2  A    between atoms: C1_6  and  C2_8 
REMARK       I    between atoms: C2_8  and  N3_10 
ROOT
HETATM    1  N2  UNL     1      77.968  90.294  20.079  1.00  0.00    -0.268 N 
ATOM      2  H2  UNL     1      78.590  90.658  19.357  1.00  0.00     0.190 HD
HETATM    3  C1  UNL     1      78.015  88.914  20.326  1.00  0.00     0.327 C 
HETATM    4  O1  UNL     1      77.263  88.437  21.207  1.00  0.00    -0.261 OA
ENDROOT
BRANCH   3   5
HETATM    5  C2  UNL     1      78.896  88.014  19.609  1.00  0.00     0.317 C 
HETATM    6  O2  UNL     1      80.155  88.216  19.549  1.00  0.00    -0.262 OA
HETATM    7  N3  UNL     1      78.372  86.874  18.948  1.00  0.00    -0.295 N 
HETATM    8  C3  UNL     1      78.838  86.542  17.798  1.00  0.00     0.203 C 
ATOM      9  H3  UNL     1      77.632  86.322  19.382  1.00  0.00     0.171 HD
HETATM   10  N4  UNL     1      78.327  85.387  17.099  1.00  0.00    -0.066 NA
HETATM   11  N5  UNL     1      79.870  87.311  17.188  1.00  0.00    -0.066 NA
ENDBRANCH   3   5
BRANCH   1  12
HETATM   12  N1  UNL     1      77.158  91.202  20.722  1.00  0.00    -0.342 N 
ATOM     13  H12 UNL     1      76.827  91.984  20.157  1.00  0.00     0.176 HD
ATOM     14  H11 UNL     1      76.866  91.156  21.699  1.00  0.00     0.176 HD
ENDBRANCH   1  12
TORSDOF 2
ENDMDL
