MODEL 1
REMARK VINA RESULT: -5.916111642      0.000      0.000
REMARK  2 active torsions:
REMARK  status: ('A' for Active; 'I' for Inactive)
REMARK    1  A    between atoms: N2_4  and  N3_6 
REMARK       I    between atoms: N3_6  and  C1_8 
REMARK    2  A    between atoms: N5_10  and  N6_12 
REMARK       I    between atoms: N6_12  and  C2_14 
ROOT
HETATM    1  N3  UNL     1      76.047  89.588  19.347  1.00  0.00    -0.258 N 
ATOM      2  H3  UNL     1      75.080  89.443  19.055  1.00  0.00     0.191 HD
HETATM    3  C1  UNL     1      77.071  88.775  18.800  1.00  0.00     0.223 C 
HETATM    4  N4  UNL     1      77.664  87.785  19.622  1.00  0.00    -0.061 NA
HETATM    5  N5  UNL     1      77.466  88.928  17.572  1.00  0.00    -0.269 N 
ATOM      6  H5  UNL     1      77.050  89.636  16.966  1.00  0.00     0.190 HD
ENDROOT
BRANCH   1   7
HETATM    7  N2  UNL     1      76.342  90.576  20.270  1.00  0.00    -0.247 N 
HETATM    8  N1  UNL     1      77.476  90.663  20.852  1.00  0.00    -0.331 N 
ATOM      9  H12 UNL     1      78.183  89.967  20.615  1.00  0.00     0.178 HD
ATOM     10  H11 UNL     1      77.693  91.391  21.532  1.00  0.00     0.178 HD
ATOM     11  H2  UNL     1      75.623  91.264  20.495  1.00  0.00     0.207 HD
ENDBRANCH   1   7
BRANCH   5  12
HETATM   12  N6  UNL     1      78.478  88.088  17.113  1.00  0.00    -0.252 N 
HETATM   13  C2  UNL     1      79.861  88.398  17.305  1.00  0.00     0.347 C 
HETATM   14  N7  UNL     1      80.808  87.474  16.799  1.00  0.00    -0.038 NA
HETATM   15  O1  UNL     1      80.216  89.448  17.902  1.00  0.00    -0.249 OA
ATOM     16  H6  UNL     1      78.225  87.228  16.627  1.00  0.00     0.191 HD
ENDBRANCH   5  12
TORSDOF 2
ENDMDL
MODEL 2
REMARK VINA RESULT: -5.806423376      2.519      2.941
REMARK  2 active torsions:
REMARK  status: ('A' for Active; 'I' for Inactive)
REMARK    1  A    between atoms: N2_4  and  N3_6 
REMARK       I    between atoms: N3_6  and  C1_8 
REMARK    2  A    between atoms: N5_10  and  N6_12 
REMARK       I    between atoms: N6_12  and  C2_14 
ROOT
HETATM    1  N3  UNL     1      78.365  89.243  21.238  1.00  0.00    -0.258 N 
ATOM      2  H3  UNL     1      78.788  89.135  22.160  1.00  0.00     0.191 HD
HETATM    3  C1  UNL     1      78.766  88.389  20.180  1.00  0.00     0.223 C 
HETATM    4  N4  UNL     1      79.574  88.922  19.147  1.00  0.00    -0.061 NA
HETATM    5  N5  UNL     1      78.403  87.142  20.151  1.00  0.00    -0.269 N 
ATOM      6  H5  UNL     1      77.820  86.742  20.887  1.00  0.00     0.190 HD
ENDROOT
BRANCH   1   7
HETATM    7  N2  UNL     1      77.407  90.221  21.036  1.00  0.00    -0.247 N 
HETATM    8  N1  UNL     1      76.626  90.227  20.026  1.00  0.00    -0.331 N 
ATOM      9  H12 UNL     1      76.724  89.470  19.348  1.00  0.00     0.178 HD
ATOM     10  H11 UNL     1      75.920  90.948  19.876  1.00  0.00     0.178 HD
ATOM     11  H2  UNL     1      77.322  90.970  21.723  1.00  0.00     0.207 HD
ENDBRANCH   1   7
BRANCH   5  12
HETATM   12  N6  UNL     1      78.839  86.371  19.076  1.00  0.00    -0.252 N 
HETATM   13  C2  UNL     1      77.929  85.840  18.108  1.00  0.00     0.347 C 
HETATM   14  N7  UNL     1      78.479  85.070  17.055  1.00  0.00    -0.038 NA
HETATM   15  O1  UNL     1      76.691  86.054  18.194  1.00  0.00    -0.249 OA
ATOM     16  H6  UNL     1      79.836  86.181  18.975  1.00  0.00     0.191 HD
ENDBRANCH   5  12
TORSDOF 2
ENDMDL
MODEL 3
REMARK VINA RESULT: -5.747088797      2.498      4.396
REMARK  2 active torsions:
REMARK  status: ('A' for Active; 'I' for Inactive)
REMARK    1  A    between atoms: N2_4  and  N3_6 
REMARK       I    between atoms: N3_6  and  C1_8 
REMARK    2  A    between atoms: N5_10  and  N6_12 
REMARK       I    between atoms: N6_12  and  C2_14 
ROOT
HETATM    1  N3  UNL     1      76.895  87.292  15.794  1.00  0.00    -0.258 N 
ATOM      2  H3  UNL     1      76.844  87.891  14.969  1.00  0.00     0.191 HD
HETATM    3  C1  UNL     1      77.584  87.748  16.946  1.00  0.00     0.223 C 
HETATM    4  N4  UNL     1      78.839  87.171  17.259  1.00  0.00    -0.061 NA
HETATM    5  N5  UNL     1      77.082  88.675  17.706  1.00  0.00    -0.269 N 
ATOM      6  H5  UNL     1      76.179  89.101  17.495  1.00  0.00     0.190 HD
ENDROOT
BRANCH   1   7
HETATM    7  N2  UNL     1      76.292  86.047  15.774  1.00  0.00    -0.247 N 
HETATM    8  N1  UNL     1      76.175  85.318  16.816  1.00  0.00    -0.331 N 
ATOM      9  H12 UNL     1      76.547  85.684  17.693  1.00  0.00     0.178 HD
ATOM     10  H11 UNL     1      75.731  84.400  16.802  1.00  0.00     0.178 HD
ATOM     11  H2  UNL     1      75.926  85.696  14.889  1.00  0.00     0.207 HD
ENDBRANCH   1   7
BRANCH   5  12
HETATM   12  N6  UNL     1      77.822  89.065  18.818  1.00  0.00    -0.252 N 
HETATM   13  C2  UNL     1      77.198  89.564  20.004  1.00  0.00     0.347 C 
HETATM   14  N7  UNL     1      78.045  89.933  21.077  1.00  0.00    -0.038 NA
HETATM   15  O1  UNL     1      75.946  89.669  20.085  1.00  0.00    -0.249 OA
ATOM     16  H6  UNL     1      78.839  88.991  18.787  1.00  0.00     0.191 HD
ENDBRANCH   5  12
TORSDOF 2
ENDMDL
MODEL 4
REMARK VINA RESULT: -5.549082145      3.228      4.056
REMARK  2 active torsions:
REMARK  status: ('A' for Active; 'I' for Inactive)
REMARK    1  A    between atoms: N2_4  and  N3_6 
REMARK       I    between atoms: N3_6  and  C1_8 
REMARK    2  A    between atoms: N5_10  and  N6_12 
REMARK       I    between atoms: N6_12  and  C2_14 
ROOT
HETATM    1  N3  UNL     1      78.510  89.200  17.941  1.00  0.00    -0.258 N 
ATOM      2  H3  UNL     1      77.958  90.004  18.239  1.00  0.00     0.191 HD
HETATM    3  C1  UNL     1      77.851  88.018  17.518  1.00  0.00     0.223 C 
HETATM    4  N4  UNL     1      77.873  86.887  18.369  1.00  0.00    -0.061 NA
HETATM    5  N5  UNL     1      77.238  87.965  16.373  1.00  0.00    -0.269 N 
ATOM      6  H5  UNL     1      77.213  88.771  15.748  1.00  0.00     0.190 HD
ENDROOT
BRANCH   1   7
HETATM    7  N2  UNL     1      79.892  89.275  17.954  1.00  0.00    -0.247 N 
HETATM    8  N1  UNL     1      80.641  88.242  18.000  1.00  0.00    -0.331 N 
ATOM      9  H12 UNL     1      80.186  87.330  18.028  1.00  0.00     0.178 HD
ATOM     10  H11 UNL     1      81.659  88.298  18.011  1.00  0.00     0.178 HD
ATOM     11  H2  UNL     1      80.330  90.196  17.926  1.00  0.00     0.207 HD
ENDBRANCH   1   7
BRANCH   5  12
HETATM   12  N6  UNL     1      76.616  86.766  16.033  1.00  0.00    -0.252 N 
HETATM   13  C2  UNL     1      76.171  86.498  14.700  1.00  0.00     0.347 C 
HETATM   14  N7  UNL     1      75.550  85.247  14.464  1.00  0.00    -0.038 NA
HETATM   15  O1  UNL     1      76.327  87.343  13.780  1.00  0.00    -0.249 OA
ATOM     16  H6  UNL     1      76.475  86.059  16.755  1.00  0.00     0.191 HD
ENDBRANCH   5  12
TORSDOF 2
ENDMDL
MODEL 5
REMARK VINA RESULT: -5.540576067      2.986      3.404
REMARK  2 active torsions:
REMARK  status: ('A' for Active; 'I' for Inactive)
REMARK    1  A    between atoms: N2_4  and  N3_6 
REMARK       I    between atoms: N3_6  and  C1_8 
REMARK    2  A    between atoms: N5_10  and  N6_12 
REMARK       I    between atoms: N6_12  and  C2_14 
ROOT
HETATM    1  N3  UNL     1      78.455  89.244  21.183  1.00  0.00    -0.258 N 
ATOM      2  H3  UNL     1      79.003  89.188  22.041  1.00  0.00     0.191 HD
HETATM    3  C1  UNL     1      78.691  88.314  20.140  1.00  0.00     0.223 C 
HETATM    4  N4  UNL     1      79.350  88.760  18.968  1.00  0.00    -0.061 NA
HETATM    5  N5  UNL     1      78.312  87.075  20.246  1.00  0.00    -0.269 N 
ATOM      6  H5  UNL     1      77.836  86.737  21.083  1.00  0.00     0.190 HD
ENDROOT
BRANCH   1   7
HETATM    7  N2  UNL     1      77.489  90.227  21.052  1.00  0.00    -0.247 N 
HETATM    8  N1  UNL     1      76.641  90.241  20.097  1.00  0.00    -0.331 N 
ATOM      9  H12 UNL     1      76.690  89.488  19.411  1.00  0.00     0.178 HD
ATOM     10  H11 UNL     1      75.930  90.966  20.000  1.00  0.00     0.178 HD
ATOM     11  H2  UNL     1      77.455  90.973  21.747  1.00  0.00     0.207 HD
ENDBRANCH   1   7
BRANCH   5  12
HETATM   12  N6  UNL     1      78.582  86.227  19.175  1.00  0.00    -0.252 N 
HETATM   13  C2  UNL     1      78.226  84.842  19.201  1.00  0.00     0.347 C 
HETATM   14  N7  UNL     1      78.547  84.069  18.059  1.00  0.00    -0.038 NA
HETATM   15  O1  UNL     1      77.650  84.337  20.200  1.00  0.00    -0.249 OA
ATOM     16  H6  UNL     1      79.047  86.604  18.349  1.00  0.00     0.191 HD
ENDBRANCH   5  12
TORSDOF 2
ENDMDL
