MODEL 1
REMARK VINA RESULT: -6.213106988      0.000      0.000
REMARK  2 active torsions:
REMARK  status: ('A' for Active; 'I' for Inactive)
REMARK       I    between atoms: C1_2  and  N2_4 
REMARK    1  A    between atoms: N2_4  and  N3_6 
REMARK       I    between atoms: N3_6  and  C2_8 
REMARK    2  A    between atoms: N5_10  and  O2_12 
ROOT
HETATM    1  N3  UNL     1      77.756  89.435  19.072  1.00  0.00    -0.268 N 
ATOM      2  H3  UNL     1      77.619  90.440  18.970  1.00  0.00     0.190 HD
HETATM    3  C2  UNL     1      78.516  88.987  20.180  1.00  0.00     0.227 C 
HETATM    4  N4  UNL     1      79.847  88.555  19.923  1.00  0.00    -0.060 NA
HETATM    5  N5  UNL     1      78.072  88.958  21.389  1.00  0.00    -0.240 N 
ATOM      6  H5  UNL     1      78.703  88.617  22.114  1.00  0.00     0.197 HD
ENDROOT
BRANCH   1   7
HETATM    7  N2  UNL     1      77.183  88.609  18.113  1.00  0.00    -0.252 N 
HETATM    8  C1  UNL     1      77.860  88.161  16.957  1.00  0.00     0.347 C 
HETATM    9  N1  UNL     1      77.242  87.322  16.006  1.00  0.00    -0.038 NA
HETATM   10  O1  UNL     1      79.065  88.485  16.698  1.00  0.00    -0.249 OA
ATOM     11  H2  UNL     1      76.218  88.310  18.252  1.00  0.00     0.191 HD
ENDBRANCH   1   7
BRANCH   5  12
HETATM   12  O2  UNL     1      76.833  89.347  21.773  1.00  0.00    -0.287 OA
ATOM     13  H2  UNL     1      76.187  88.784  22.184  1.00  0.00     0.244 HD
ENDBRANCH   5  12
TORSDOF 2
ENDMDL
MODEL 2
REMARK VINA RESULT: -6.171275610      1.597      3.840
REMARK  2 active torsions:
REMARK  status: ('A' for Active; 'I' for Inactive)
REMARK       I    between atoms: C1_2  and  N2_4 
REMARK    1  A    between atoms: N2_4  and  N3_6 
REMARK       I    between atoms: N3_6  and  C2_8 
REMARK    2  A    between atoms: N5_10  and  O2_12 
ROOT
HETATM    1  N3  UNL     1      77.437  89.086  17.797  1.00  0.00    -0.268 N 
ATOM      2  H3  UNL     1      77.162  89.856  17.187  1.00  0.00     0.190 HD
HETATM    3  C2  UNL     1      78.485  88.242  17.352  1.00  0.00     0.227 C 
HETATM    4  N4  UNL     1      78.120  86.957  16.863  1.00  0.00    -0.060 NA
HETATM    5  N5  UNL     1      79.729  88.577  17.363  1.00  0.00    -0.240 N 
ATOM      6  H5  UNL     1      80.403  87.893  17.021  1.00  0.00     0.197 HD
ENDROOT
BRANCH   1   7
HETATM    7  N2  UNL     1      76.757  88.945  18.999  1.00  0.00    -0.252 N 
HETATM    8  C1  UNL     1      77.358  89.116  20.267  1.00  0.00     0.347 C 
HETATM    9  N1  UNL     1      76.631  88.964  21.466  1.00  0.00    -0.038 NA
HETATM   10  O1  UNL     1      78.588  89.414  20.407  1.00  0.00    -0.249 OA
ATOM     11  H2  UNL     1      75.766  88.705  18.965  1.00  0.00     0.191 HD
ENDBRANCH   1   7
BRANCH   5  12
HETATM   12  O2  UNL     1      80.210  89.767  17.794  1.00  0.00    -0.287 OA
ATOM     13  H2  UNL     1      80.071  90.602  17.361  1.00  0.00     0.244 HD
ENDBRANCH   5  12
TORSDOF 2
ENDMDL
MODEL 3
REMARK VINA RESULT: -5.817014990      1.466      1.466
REMARK  2 active torsions:
REMARK  status: ('A' for Active; 'I' for Inactive)
REMARK       I    between atoms: C1_2  and  N2_4 
REMARK    1  A    between atoms: N2_4  and  N3_6 
REMARK       I    between atoms: N3_6  and  C2_8 
REMARK    2  A    between atoms: N5_10  and  O2_12 
ROOT
HETATM    1  N3  UNL     1      79.288  89.616  18.540  1.00  0.00    -0.268 N 
ATOM      2  H3  UNL     1      79.780  90.503  18.435  1.00  0.00     0.190 HD
HETATM    3  C2  UNL     1      79.066  89.143  19.857  1.00  0.00     0.227 C 
HETATM    4  N4  UNL     1      79.888  88.075  20.310  1.00  0.00    -0.060 NA
HETATM    5  N5  UNL     1      78.176  89.628  20.652  1.00  0.00    -0.240 N 
ATOM      6  H5  UNL     1      78.098  89.213  21.580  1.00  0.00     0.197 HD
ENDROOT
BRANCH   1   7
HETATM    7  N2  UNL     1      78.886  88.965  17.381  1.00  0.00    -0.252 N 
HETATM    8  C1  UNL     1      77.780  88.087  17.316  1.00  0.00     0.347 C 
HETATM    9  N1  UNL     1      77.405  87.444  16.119  1.00  0.00    -0.038 NA
HETATM   10  O1  UNL     1      77.057  87.819  18.330  1.00  0.00    -0.249 OA
ATOM     11  H2  UNL     1      79.421  89.128  16.528  1.00  0.00     0.191 HD
ENDBRANCH   1   7
BRANCH   5  12
HETATM   12  O2  UNL     1      77.335  90.646  20.351  1.00  0.00    -0.287 OA
ATOM     13  H2  UNL     1      76.416  90.549  20.130  1.00  0.00     0.244 HD
ENDBRANCH   5  12
TORSDOF 2
ENDMDL
MODEL 4
REMARK VINA RESULT: -5.725283559      1.945      2.268
REMARK  2 active torsions:
REMARK  status: ('A' for Active; 'I' for Inactive)
REMARK       I    between atoms: C1_2  and  N2_4 
REMARK    1  A    between atoms: N2_4  and  N3_6 
REMARK       I    between atoms: N3_6  and  C2_8 
REMARK    2  A    between atoms: N5_10  and  O2_12 
ROOT
HETATM    1  N3  UNL     1      78.447  90.022  19.663  1.00  0.00    -0.268 N 
ATOM      2  H3  UNL     1      78.541  91.026  19.814  1.00  0.00     0.190 HD
HETATM    3  C2  UNL     1      77.357  89.366  20.287  1.00  0.00     0.227 C 
HETATM    4  N4  UNL     1      77.645  88.578  21.436  1.00  0.00    -0.060 NA
HETATM    5  N5  UNL     1      76.139  89.451  19.876  1.00  0.00    -0.240 N 
ATOM      6  H5  UNL     1      75.430  88.937  20.398  1.00  0.00     0.197 HD
ENDROOT
BRANCH   1   7
HETATM    7  N2  UNL     1      79.397  89.402  18.861  1.00  0.00    -0.252 N 
HETATM    8  C1  UNL     1      79.083  88.678  17.689  1.00  0.00     0.347 C 
HETATM    9  N1  UNL     1      80.078  88.062  16.901  1.00  0.00    -0.038 NA
HETATM   10  O1  UNL     1      77.888  88.533  17.272  1.00  0.00    -0.249 OA
ATOM     11  H2  UNL     1      80.376  89.474  19.135  1.00  0.00     0.191 HD
ENDBRANCH   1   7
BRANCH   5  12
HETATM   12  O2  UNL     1      75.727  90.170  18.805  1.00  0.00    -0.287 OA
ATOM     13  H2  UNL     1      76.296  90.669  18.230  1.00  0.00     0.244 HD
ENDBRANCH   5  12
TORSDOF 2
ENDMDL
MODEL 5
REMARK VINA RESULT: -5.612258228      2.685      3.712
REMARK  2 active torsions:
REMARK  status: ('A' for Active; 'I' for Inactive)
REMARK       I    between atoms: C1_2  and  N2_4 
REMARK    1  A    between atoms: N2_4  and  N3_6 
REMARK       I    between atoms: N3_6  and  C2_8 
REMARK    2  A    between atoms: N5_10  and  O2_12 
ROOT
HETATM    1  N3  UNL     1      78.350  86.741  17.381  1.00  0.00    -0.268 N 
ATOM      2  H3  UNL     1      77.697  86.539  16.625  1.00  0.00     0.190 HD
HETATM    3  C2  UNL     1      79.014  87.992  17.353  1.00  0.00     0.227 C 
HETATM    4  N4  UNL     1      80.380  87.995  16.953  1.00  0.00    -0.060 NA
HETATM    5  N5  UNL     1      78.451  89.109  17.661  1.00  0.00    -0.240 N 
ATOM      6  H5  UNL     1      79.021  89.953  17.609  1.00  0.00     0.197 HD
ENDROOT
BRANCH   1   7
HETATM    7  N2  UNL     1      78.522  85.770  18.358  1.00  0.00    -0.252 N 
HETATM    8  C1  UNL     1      78.354  86.009  19.741  1.00  0.00     0.347 C 
HETATM    9  N1  UNL     1      78.538  84.994  20.703  1.00  0.00    -0.038 NA
HETATM   10  O1  UNL     1      78.031  87.150  20.205  1.00  0.00    -0.249 OA
ATOM     11  H2  UNL     1      78.785  84.830  18.061  1.00  0.00     0.191 HD
ENDBRANCH   1   7
BRANCH   5  12
HETATM   12  O2  UNL     1      77.162  89.250  18.050  1.00  0.00    -0.287 OA
ATOM     13  H2  UNL     1      76.639  88.573  18.463  1.00  0.00     0.244 HD
ENDBRANCH   5  12
TORSDOF 2
ENDMDL
