MODEL 1
REMARK VINA RESULT: -6.641430492      0.000      0.000
REMARK  0 active torsions:
REMARK  status: ('A' for Active; 'I' for Inactive)
ROOT
HETATM    1  N1  UNL     1      77.227  90.559  21.023  1.00  0.00    -0.111 NA
HETATM    2  C1  UNL     1      77.193  89.256  20.464  1.00  0.00     0.149 C 
HETATM    3  C2  UNL     1      78.043  88.879  19.537  1.00  0.00     0.136 A 
HETATM    4  N2  UNL     1      79.020  89.803  19.084  1.00  0.00    -0.282 N 
ATOM      5  H2  UNL     1      79.049  90.742  19.482  1.00  0.00     0.188 HD
HETATM    6  N3  UNL     1      79.950  89.440  18.091  1.00  0.00    -0.260 N 
ATOM      7  H3  UNL     1      80.645  90.116  17.777  1.00  0.00     0.190 HD
HETATM    8  C3  UNL     1      79.926  88.137  17.525  1.00  0.00     0.328 A 
HETATM    9  O1  UNL     1      80.748  87.783  16.631  1.00  0.00    -0.261 OA
HETATM   10  C4  UNL     1      78.948  87.170  17.959  1.00  0.00     0.316 A 
HETATM   11  O2  UNL     1      78.857  86.006  17.514  1.00  0.00    -0.262 OA
HETATM   12  N4  UNL     1      78.013  87.577  18.977  1.00  0.00    -0.303 N 
ATOM     13  H4  UNL     1      77.311  86.912  19.303  1.00  0.00     0.171 HD
ENDROOT
TORSDOF 0
ENDMDL
MODEL 2
REMARK VINA RESULT: -6.469112706      3.024      4.166
REMARK  0 active torsions:
REMARK  status: ('A' for Active; 'I' for Inactive)
ROOT
HETATM    1  N1  UNL     1      80.498  87.833  17.027  1.00  0.00    -0.111 NA
HETATM    2  C1  UNL     1      79.184  88.357  17.116  1.00  0.00     0.149 C 
HETATM    3  C2  UNL     1      78.593  88.551  18.273  1.00  0.00     0.136 A 
HETATM    4  N2  UNL     1      79.292  88.226  19.464  1.00  0.00    -0.282 N 
ATOM      5  H2  UNL     1      80.238  87.849  19.406  1.00  0.00     0.188 HD
HETATM    6  N3  UNL     1      78.697  88.419  20.725  1.00  0.00    -0.260 N 
ATOM      7  H3  UNL     1      79.213  88.179  21.571  1.00  0.00     0.190 HD
HETATM    8  C3  UNL     1      77.381  88.943  20.826  1.00  0.00     0.328 A 
HETATM    9  O1  UNL     1      76.819  89.126  21.945  1.00  0.00    -0.261 OA
HETATM   10  C4  UNL     1      76.638  89.286  19.639  1.00  0.00     0.316 A 
HETATM   11  O2  UNL     1      75.478  89.751  19.638  1.00  0.00    -0.262 OA
HETATM   12  N4  UNL     1      77.280  89.076  18.366  1.00  0.00    -0.303 N 
ATOM     13  H4  UNL     1      76.777  89.310  17.510  1.00  0.00     0.171 HD
ENDROOT
TORSDOF 0
ENDMDL
MODEL 3
REMARK VINA RESULT: -6.314374203      3.024      4.136
REMARK  0 active torsions:
REMARK  status: ('A' for Active; 'I' for Inactive)
ROOT
HETATM    1  N1  UNL     1      80.615  87.921  16.962  1.00  0.00    -0.111 NA
HETATM    2  C1  UNL     1      80.288  88.022  18.338  1.00  0.00     0.149 C 
HETATM    3  C2  UNL     1      79.108  88.432  18.741  1.00  0.00     0.136 A 
HETATM    4  N2  UNL     1      78.133  88.782  17.770  1.00  0.00    -0.282 N 
ATOM      5  H2  UNL     1      78.363  88.711  16.778  1.00  0.00     0.188 HD
HETATM    6  N3  UNL     1      76.855  89.225  18.158  1.00  0.00    -0.260 N 
ATOM      7  H3  UNL     1      76.167  89.473  17.447  1.00  0.00     0.190 HD
HETATM    8  C3  UNL     1      76.518  89.330  19.534  1.00  0.00     0.328 A 
HETATM    9  O1  UNL     1      75.378  89.727  19.913  1.00  0.00    -0.261 OA
HETATM   10  C4  UNL     1      77.480  88.984  20.550  1.00  0.00     0.316 A 
HETATM   11  O2  UNL     1      77.266  89.048  21.780  1.00  0.00    -0.262 OA
HETATM   12  N4  UNL     1      78.778  88.534  20.116  1.00  0.00    -0.303 N 
ATOM     13  H4  UNL     1      79.477  88.282  20.814  1.00  0.00     0.171 HD
ENDROOT
TORSDOF 0
ENDMDL
MODEL 4
REMARK VINA RESULT: -5.863462103      1.913      2.279
REMARK  0 active torsions:
REMARK  status: ('A' for Active; 'I' for Inactive)
ROOT
HETATM    1  N1  UNL     1      76.872  89.359  21.596  1.00  0.00    -0.111 NA
HETATM    2  C1  UNL     1      76.746  89.415  20.184  1.00  0.00     0.149 C 
HETATM    3  C2  UNL     1      77.225  88.470  19.409  1.00  0.00     0.136 A 
HETATM    4  N2  UNL     1      77.887  87.363  20.002  1.00  0.00    -0.282 N 
ATOM      5  H2  UNL     1      77.981  87.318  21.017  1.00  0.00     0.188 HD
HETATM    6  N3  UNL     1      78.416  86.329  19.208  1.00  0.00    -0.260 N 
ATOM      7  H3  UNL     1      78.889  85.541  19.651  1.00  0.00     0.190 HD
HETATM    8  C3  UNL     1      78.295  86.375  17.793  1.00  0.00     0.328 A 
HETATM    9  O1  UNL     1      78.761  85.460  17.054  1.00  0.00    -0.261 OA
HETATM   10  C4  UNL     1      77.629  87.482  17.153  1.00  0.00     0.316 A 
HETATM   11  O2  UNL     1      77.480  87.601  15.918  1.00  0.00    -0.262 OA
HETATM   12  N4  UNL     1      77.100  88.523  17.998  1.00  0.00    -0.303 N 
ATOM     13  H4  UNL     1      76.624  89.317  17.570  1.00  0.00     0.171 HD
ENDROOT
TORSDOF 0
ENDMDL
MODEL 5
REMARK VINA RESULT: -5.758712524      3.013      4.089
REMARK  0 active torsions:
REMARK  status: ('A' for Active; 'I' for Inactive)
ROOT
HETATM    1  N1  UNL     1      78.719  85.465  17.206  1.00  0.00    -0.111 NA
HETATM    2  C1  UNL     1      77.607  86.301  17.478  1.00  0.00     0.149 C 
HETATM    3  C2  UNL     1      77.676  87.285  18.344  1.00  0.00     0.136 A 
HETATM    4  N2  UNL     1      78.900  87.516  19.025  1.00  0.00    -0.282 N 
ATOM      5  H2  UNL     1      79.703  86.918  18.833  1.00  0.00     0.188 HD
HETATM    6  N3  UNL     1      79.018  88.560  19.962  1.00  0.00    -0.260 N 
ATOM      7  H3  UNL     1      79.904  88.711  20.442  1.00  0.00     0.190 HD
HETATM    8  C3  UNL     1      77.909  89.403  20.242  1.00  0.00     0.328 A 
HETATM    9  O1  UNL     1      77.985  90.349  21.079  1.00  0.00    -0.261 OA
HETATM   10  C4  UNL     1      76.650  89.201  19.570  1.00  0.00     0.316 A 
HETATM   11  O2  UNL     1      75.627  89.895  19.758  1.00  0.00    -0.262 OA
HETATM   12  N4  UNL     1      76.566  88.123  18.618  1.00  0.00    -0.303 N 
ATOM     13  H4  UNL     1      75.686  87.958  18.128  1.00  0.00     0.171 HD
ENDROOT
TORSDOF 0
ENDMDL
