MODEL 1
REMARK VINA RESULT: -6.455958282      0.000      0.000
REMARK  2 active torsions:
REMARK  status: ('A' for Active; 'I' for Inactive)
REMARK    1  A    between atoms: C2_5  and  N2_6 
REMARK    2  A    between atoms: N2_6  and  C3_8 
ROOT
HETATM    1  C3  UNL     1      77.445  87.733  18.561  1.00  0.00     0.122 A 
HETATM    2  C4  UNL     1      78.557  87.981  19.342  1.00  0.00     0.055 A 
HETATM    3  C5  UNL     1      78.486  89.013  20.251  1.00  0.00     0.079 A 
HETATM    4  C6  UNL     1      77.338  89.770  20.374  1.00  0.00     0.259 A 
HETATM    5  O2  UNL     1      77.251  90.717  21.197  1.00  0.00    -0.267 OA
HETATM    6  N3  UNL     1      76.297  89.490  19.599  1.00  0.00    -0.265 N 
ATOM      7  H3  UNL     1      75.445  90.045  19.683  1.00  0.00     0.190 HD
HETATM    8  N4  UNL     1      76.347  88.494  18.711  1.00  0.00    -0.283 N 
ATOM      9  H4  UNL     1      75.529  88.304  18.131  1.00  0.00     0.188 HD
ENDROOT
BRANCH   1  10
HETATM   10  N2  UNL     1      77.504  86.779  17.717  1.00  0.00    -0.313 N 
ATOM     11  H2  UNL     1      78.007  85.932  17.985  1.00  0.00     0.170 HD
BRANCH  10  12
HETATM   12  C2  UNL     1      76.915  86.825  16.436  1.00  0.00     0.193 A 
HETATM   13  N1  UNL     1      76.754  87.778  15.581  1.00  0.00    -0.280 N 
HETATM   14  C1  UNL     1      76.108  86.914  14.665  1.00  0.00     0.329 A 
ATOM     15  H1  UNL     1      76.998  88.768  15.569  1.00  0.00     0.173 HD
HETATM   16  O1  UNL     1      75.614  87.063  13.531  1.00  0.00    -0.246 OA
HETATM   17  N5  UNL     1      76.286  85.867  15.604  1.00  0.00    -0.280 N 
ATOM     18  H5  UNL     1      76.062  84.874  15.657  1.00  0.00     0.173 HD
ENDBRANCH  10  12
ENDBRANCH   1  10
TORSDOF 2
ENDMDL
MODEL 2
REMARK VINA RESULT: -6.368035667      1.001      1.192
REMARK  2 active torsions:
REMARK  status: ('A' for Active; 'I' for Inactive)
REMARK    1  A    between atoms: C2_5  and  N2_6 
REMARK    2  A    between atoms: N2_6  and  C3_8 
ROOT
HETATM    1  C3  UNL     1      77.623  88.450  17.880  1.00  0.00     0.122 A 
HETATM    2  C4  UNL     1      78.608  88.211  18.818  1.00  0.00     0.055 A 
HETATM    3  C5  UNL     1      78.349  88.562  20.124  1.00  0.00     0.079 A 
HETATM    4  C6  UNL     1      77.143  89.133  20.478  1.00  0.00     0.259 A 
HETATM    5  O2  UNL     1      76.885  89.462  21.665  1.00  0.00    -0.267 OA
HETATM    6  N3  UNL     1      76.229  89.341  19.537  1.00  0.00    -0.265 N 
ATOM      7  H3  UNL     1      75.336  89.762  19.790  1.00  0.00     0.190 HD
HETATM    8  N4  UNL     1      76.462  89.007  18.265  1.00  0.00    -0.283 N 
ATOM      9  H4  UNL     1      75.738  89.179  17.567  1.00  0.00     0.188 HD
ENDROOT
BRANCH   1  10
HETATM   10  N2  UNL     1      77.856  88.126  16.669  1.00  0.00    -0.313 N 
ATOM     11  H2  UNL     1      78.736  88.429  16.252  1.00  0.00     0.170 HD
BRANCH  10  12
HETATM   12  C2  UNL     1      76.967  87.374  15.871  1.00  0.00     0.193 A 
HETATM   13  N1  UNL     1      76.539  86.158  15.946  1.00  0.00    -0.280 N 
HETATM   14  C1  UNL     1      75.743  86.315  14.787  1.00  0.00     0.329 A 
ATOM     15  H1  UNL     1      76.709  85.386  16.590  1.00  0.00     0.173 HD
HETATM   16  O1  UNL     1      74.976  85.565  14.153  1.00  0.00    -0.246 OA
HETATM   17  N5  UNL     1      76.212  87.650  14.706  1.00  0.00    -0.280 N 
ATOM     18  H5  UNL     1      76.070  88.449  14.087  1.00  0.00     0.173 HD
ENDBRANCH  10  12
ENDBRANCH   1  10
TORSDOF 2
ENDMDL
MODEL 3
REMARK VINA RESULT: -6.302487036      1.292      1.332
REMARK  2 active torsions:
REMARK  status: ('A' for Active; 'I' for Inactive)
REMARK    1  A    between atoms: C2_5  and  N2_6 
REMARK    2  A    between atoms: N2_6  and  C3_8 
ROOT
HETATM    1  C3  UNL     1      77.332  87.715  17.672  1.00  0.00     0.122 A 
HETATM    2  C4  UNL     1      77.683  86.846  18.687  1.00  0.00     0.055 A 
HETATM    3  C5  UNL     1      77.390  87.219  19.980  1.00  0.00     0.079 A 
HETATM    4  C6  UNL     1      76.766  88.421  20.247  1.00  0.00     0.259 A 
HETATM    5  O2  UNL     1      76.489  88.781  21.420  1.00  0.00    -0.267 OA
HETATM    6  N3  UNL     1      76.449  89.219  19.234  1.00  0.00    -0.265 N 
ATOM      7  H3  UNL     1      75.988  90.110  19.422  1.00  0.00     0.190 HD
HETATM    8  N4  UNL     1      76.725  88.876  17.973  1.00  0.00    -0.283 N 
ATOM      9  H4  UNL     1      76.468  89.512  17.218  1.00  0.00     0.188 HD
ENDROOT
BRANCH   1  10
HETATM   10  N2  UNL     1      77.600  87.375  16.473  1.00  0.00    -0.313 N 
ATOM     11  H2  UNL     1      78.579  87.340  16.191  1.00  0.00     0.170 HD
BRANCH  10  12
HETATM   12  C2  UNL     1      76.620  87.047  15.511  1.00  0.00     0.193 A 
HETATM   13  N1  UNL     1      76.113  87.699  14.520  1.00  0.00    -0.280 N 
HETATM   14  C1  UNL     1      75.271  86.616  14.174  1.00  0.00     0.329 A 
ATOM     15  H1  UNL     1      76.262  88.632  14.136  1.00  0.00     0.173 HD
HETATM   16  O1  UNL     1      74.421  86.427  13.282  1.00  0.00    -0.246 OA
HETATM   17  N5  UNL     1      75.829  85.899  15.262  1.00  0.00    -0.280 N 
ATOM     18  H5  UNL     1      75.713  84.975  15.677  1.00  0.00     0.173 HD
ENDBRANCH  10  12
ENDBRANCH   1  10
TORSDOF 2
ENDMDL
MODEL 4
REMARK VINA RESULT: -6.155908694      2.514      2.874
REMARK  2 active torsions:
REMARK  status: ('A' for Active; 'I' for Inactive)
REMARK    1  A    between atoms: C2_5  and  N2_6 
REMARK    2  A    between atoms: N2_6  and  C3_8 
ROOT
HETATM    1  C3  UNL     1      77.000  88.048  18.645  1.00  0.00     0.122 A 
HETATM    2  C4  UNL     1      78.152  88.091  19.406  1.00  0.00     0.055 A 
HETATM    3  C5  UNL     1      78.286  89.124  20.307  1.00  0.00     0.079 A 
HETATM    4  C6  UNL     1      77.299  90.080  20.441  1.00  0.00     0.259 A 
HETATM    5  O2  UNL     1      77.402  91.031  21.258  1.00  0.00    -0.267 OA
HETATM    6  N3  UNL     1      76.212  89.991  19.685  1.00  0.00    -0.265 N 
ATOM      7  H3  UNL     1      75.478  90.693  19.778  1.00  0.00     0.190 HD
HETATM    8  N4  UNL     1      76.062  88.997  18.806  1.00  0.00    -0.283 N 
ATOM      9  H4  UNL     1      75.214  88.958  18.240  1.00  0.00     0.188 HD
ENDROOT
BRANCH   1  10
HETATM   10  N2  UNL     1      76.869  87.094  17.808  1.00  0.00    -0.313 N 
ATOM     11  H2  UNL     1      76.387  87.288  16.931  1.00  0.00     0.170 HD
BRANCH  10  12
HETATM   12  C2  UNL     1      77.351  85.785  18.027  1.00  0.00     0.193 A 
HETATM   13  N1  UNL     1      78.292  85.096  17.474  1.00  0.00    -0.280 N 
HETATM   14  C1  UNL     1      78.035  83.984  18.310  1.00  0.00     0.329 A 
ATOM     15  H1  UNL     1      78.960  85.282  16.726  1.00  0.00     0.173 HD
HETATM   16  O1  UNL     1      78.535  82.848  18.421  1.00  0.00    -0.246 OA
HETATM   17  N5  UNL     1      77.003  84.741  18.917  1.00  0.00    -0.280 N 
ATOM     18  H5  UNL     1      76.318  84.599  19.660  1.00  0.00     0.173 HD
ENDBRANCH  10  12
ENDBRANCH   1  10
TORSDOF 2
ENDMDL
MODEL 5
REMARK VINA RESULT: -6.146220369      1.198      1.222
REMARK  2 active torsions:
REMARK  status: ('A' for Active; 'I' for Inactive)
REMARK    1  A    between atoms: C2_5  and  N2_6 
REMARK    2  A    between atoms: N2_6  and  C3_8 
ROOT
HETATM    1  C3  UNL     1      77.729  88.394  17.956  1.00  0.00     0.122 A 
HETATM    2  C4  UNL     1      78.819  88.500  18.798  1.00  0.00     0.055 A 
HETATM    3  C5  UNL     1      78.648  89.179  19.984  1.00  0.00     0.079 A 
HETATM    4  C6  UNL     1      77.426  89.732  20.314  1.00  0.00     0.259 A 
HETATM    5  O2  UNL     1      77.248  90.356  21.392  1.00  0.00    -0.267 OA
HETATM    6  N3  UNL     1      76.412  89.600  19.468  1.00  0.00    -0.265 N 
ATOM      7  H3  UNL     1      75.506  90.006  19.704  1.00  0.00     0.190 HD
HETATM    8  N4  UNL     1      76.557  88.945  18.314  1.00  0.00    -0.283 N 
ATOM      9  H4  UNL     1      75.757  88.862  17.686  1.00  0.00     0.188 HD
ENDROOT
BRANCH   1  10
HETATM   10  N2  UNL     1      77.881  87.766  16.856  1.00  0.00    -0.313 N 
ATOM     11  H2  UNL     1      78.708  87.972  16.295  1.00  0.00     0.170 HD
BRANCH  10  12
HETATM   12  C2  UNL     1      76.971  86.802  16.370  1.00  0.00     0.193 A 
HETATM   13  N1  UNL     1      76.372  86.658  15.236  1.00  0.00    -0.280 N 
HETATM   14  C1  UNL     1      75.716  85.485  15.676  1.00  0.00     0.329 A 
ATOM     15  H1  UNL     1      76.371  87.186  14.363  1.00  0.00     0.173 HD
HETATM   16  O1  UNL     1      74.912  84.690  15.150  1.00  0.00    -0.246 OA
HETATM   17  N5  UNL     1      76.375  85.642  16.920  1.00  0.00    -0.280 N 
ATOM     18  H5  UNL     1      76.406  85.145  17.810  1.00  0.00     0.173 HD
ENDBRANCH  10  12
ENDBRANCH   1  10
TORSDOF 2
ENDMDL
