MODEL 1
REMARK VINA RESULT: -6.610469840      0.000      0.000
REMARK  0 active torsions:
REMARK  status: ('A' for Active; 'I' for Inactive)
REMARK       I    between atoms: C1_4  and  N3_6 
ROOT
HETATM    1  N1  UNL     1      78.756  85.479  17.767  1.00  0.00    -0.373 N 
ATOM      2  H11 UNL     1      77.911  85.138  18.225  1.00  0.00     0.158 HD
ATOM      3  H12 UNL     1      79.424  84.859  17.310  1.00  0.00     0.158 HD
HETATM    4  C1  UNL     1      78.986  86.743  17.770  1.00  0.00     0.200 C 
HETATM    5  N2  UNL     1      80.163  87.217  17.133  1.00  0.00    -0.063 NA
HETATM    6  N3  UNL     1      78.055  87.608  18.408  1.00  0.00    -0.187 N 
HETATM    7  C2  UNL     1      77.945  87.720  19.743  1.00  0.00     0.341 A 
HETATM    8  O1  UNL     1      78.706  87.025  20.461  1.00  0.00    -0.246 OA
HETATM    9  N4  UNL     1      77.076  88.528  20.361  1.00  0.00    -0.260 N 
ATOM     10  H4  UNL     1      77.036  88.574  21.379  1.00  0.00     0.175 HD
HETATM   11  C3  UNL     1      76.253  89.279  19.604  1.00  0.00     0.332 A 
HETATM   12  O2  UNL     1      75.417  90.056  20.162  1.00  0.00    -0.246 OA
HETATM   13  N5  UNL     1      76.322  89.205  18.248  1.00  0.00    -0.260 N 
ATOM     14  H5  UNL     1      75.702  89.771  17.668  1.00  0.00     0.175 HD
HETATM   15  C4  UNL     1      77.215  88.376  17.678  1.00  0.00     0.341 A 
HETATM   16  O3  UNL     1      77.235  88.347  16.418  1.00  0.00    -0.246 OA
ENDROOT
TORSDOF 0
ENDMDL
MODEL 2
REMARK VINA RESULT: -6.128876275      0.181      2.461
REMARK  0 active torsions:
REMARK  status: ('A' for Active; 'I' for Inactive)
REMARK       I    between atoms: C1_4  and  N3_6 
ROOT
HETATM    1  N1  UNL     1      80.032  87.149  17.220  1.00  0.00    -0.373 N 
ATOM      2  H11 UNL     1      80.205  88.148  17.330  1.00  0.00     0.158 HD
ATOM      3  H12 UNL     1      80.691  86.524  16.757  1.00  0.00     0.158 HD
HETATM    4  C1  UNL     1      78.937  86.663  17.683  1.00  0.00     0.200 C 
HETATM    5  N2  UNL     1      78.696  85.273  17.529  1.00  0.00    -0.063 NA
HETATM    6  N3  UNL     1      78.018  87.537  18.329  1.00  0.00    -0.187 N 
HETATM    7  C2  UNL     1      77.241  88.410  17.667  1.00  0.00     0.341 A 
HETATM    8  O1  UNL     1      77.331  88.456  16.415  1.00  0.00    -0.246 OA
HETATM    9  N4  UNL     1      76.371  89.239  18.256  1.00  0.00    -0.260 N 
ATOM     10  H4  UNL     1      75.804  89.882  17.704  1.00  0.00     0.175 HD
HETATM   11  C3  UNL     1      76.263  89.203  19.598  1.00  0.00     0.332 A 
HETATM   12  O2  UNL     1      75.446  89.977  20.186  1.00  0.00    -0.246 OA
HETATM   13  N5  UNL     1      77.027  88.336  20.317  1.00  0.00    -0.260 N 
ATOM     14  H5  UNL     1      76.949  88.303  21.334  1.00  0.00     0.175 HD
HETATM   15  C4  UNL     1      77.885  87.525  19.673  1.00  0.00     0.341 A 
HETATM   16  O3  UNL     1      78.567  86.743  20.390  1.00  0.00    -0.246 OA
ENDROOT
TORSDOF 0
ENDMDL
MODEL 3
REMARK VINA RESULT: -6.093139483      2.241      3.960
REMARK  0 active torsions:
REMARK  status: ('A' for Active; 'I' for Inactive)
REMARK       I    between atoms: C1_4  and  N3_6 
ROOT
HETATM    1  N1  UNL     1      77.957  88.986  17.320  1.00  0.00    -0.373 N 
ATOM      2  H11 UNL     1      77.017  88.611  17.447  1.00  0.00     0.158 HD
ATOM      3  H12 UNL     1      78.137  89.883  16.869  1.00  0.00     0.158 HD
HETATM    4  C1  UNL     1      78.953  88.298  17.748  1.00  0.00     0.200 C 
HETATM    5  N2  UNL     1      80.261  88.820  17.572  1.00  0.00    -0.063 NA
HETATM    6  N3  UNL     1      78.703  87.047  18.377  1.00  0.00    -0.187 N 
HETATM    7  C2  UNL     1      78.346  85.940  17.704  1.00  0.00     0.341 A 
HETATM    8  O1  UNL     1      78.230  86.015  16.456  1.00  0.00    -0.246 OA
HETATM    9  N4  UNL     1      78.107  84.755  18.278  1.00  0.00    -0.260 N 
ATOM     10  H4  UNL     1      77.840  83.946  17.717  1.00  0.00     0.175 HD
HETATM   11  C3  UNL     1      78.226  84.658  19.615  1.00  0.00     0.332 A 
HETATM   12  O2  UNL     1      78.005  83.546  20.190  1.00  0.00    -0.246 OA
HETATM   13  N5  UNL     1      78.585  85.748  20.346  1.00  0.00    -0.260 N 
ATOM     14  H5  UNL     1      78.678  85.682  21.360  1.00  0.00     0.175 HD
HETATM   15  C4  UNL     1      78.814  86.915  19.717  1.00  0.00     0.341 A 
HETATM   16  O3  UNL     1      79.143  87.892  20.443  1.00  0.00    -0.246 OA
ENDROOT
TORSDOF 0
ENDMDL
MODEL 4
REMARK VINA RESULT: -5.955601610      1.088      1.088
REMARK  0 active torsions:
REMARK  status: ('A' for Active; 'I' for Inactive)
REMARK       I    between atoms: C1_4  and  N3_6 
ROOT
HETATM    1  N1  UNL     1      78.767  85.560  18.308  1.00  0.00    -0.373 N 
ATOM      2  H11 UNL     1      78.165  85.334  19.099  1.00  0.00     0.158 HD
ATOM      3  H12 UNL     1      79.177  84.846  17.706  1.00  0.00     0.158 HD
HETATM    4  C1  UNL     1      79.018  86.796  18.064  1.00  0.00     0.200 C 
HETATM    5  N2  UNL     1      79.856  87.111  16.963  1.00  0.00    -0.063 NA
HETATM    6  N3  UNL     1      78.446  87.791  18.904  1.00  0.00    -0.187 N 
HETATM    7  C2  UNL     1      78.883  88.045  20.150  1.00  0.00     0.341 A 
HETATM    8  O1  UNL     1      79.845  87.369  20.591  1.00  0.00    -0.246 OA
HETATM    9  N4  UNL     1      78.358  88.976  20.955  1.00  0.00    -0.260 N 
ATOM     10  H4  UNL     1      78.730  89.128  21.892  1.00  0.00     0.175 HD
HETATM   11  C3  UNL     1      77.326  89.708  20.496  1.00  0.00     0.332 A 
HETATM   12  O2  UNL     1      76.806  90.600  21.237  1.00  0.00    -0.246 OA
HETATM   13  N5  UNL     1      76.844  89.492  19.242  1.00  0.00    -0.260 N 
ATOM     14  H5  UNL     1      76.062  90.044  18.888  1.00  0.00     0.175 HD
HETATM   15  C4  UNL     1      77.410  88.543  18.474  1.00  0.00     0.341 A 
HETATM   16  O3  UNL     1      76.923  88.386  17.322  1.00  0.00    -0.246 OA
ENDROOT
TORSDOF 0
ENDMDL
MODEL 5
REMARK VINA RESULT: -5.817754585      1.626      1.749
REMARK  0 active torsions:
REMARK  status: ('A' for Active; 'I' for Inactive)
REMARK       I    between atoms: C1_4  and  N3_6 
ROOT
HETATM    1  N1  UNL     1      76.450  84.763  17.872  1.00  0.00    -0.373 N 
ATOM      2  H11 UNL     1      75.751  85.090  18.538  1.00  0.00     0.158 HD
ATOM      3  H12 UNL     1      76.338  83.905  17.332  1.00  0.00     0.158 HD
HETATM    4  C1  UNL     1      77.515  85.462  17.708  1.00  0.00     0.200 C 
HETATM    5  N2  UNL     1      78.487  85.007  16.780  1.00  0.00    -0.063 NA
HETATM    6  N3  UNL     1      77.671  86.659  18.462  1.00  0.00    -0.187 N 
HETATM    7  C2  UNL     1      77.975  86.673  19.771  1.00  0.00     0.341 A 
HETATM    8  O1  UNL     1      78.129  85.573  20.356  1.00  0.00    -0.246 OA
HETATM    9  N4  UNL     1      78.127  87.787  20.496  1.00  0.00    -0.260 N 
ATOM     10  H4  UNL     1      78.359  87.739  21.488  1.00  0.00     0.175 HD
HETATM   11  C3  UNL     1      77.964  88.975  19.883  1.00  0.00     0.332 A 
HETATM   12  O2  UNL     1      78.101  90.051  20.545  1.00  0.00    -0.246 OA
HETATM   13  N5  UNL     1      77.656  89.019  18.558  1.00  0.00    -0.260 N 
ATOM     14  H5  UNL     1      77.532  89.915  18.087  1.00  0.00     0.175 HD
HETATM   15  C4  UNL     1      77.516  87.867  17.877  1.00  0.00     0.341 A 
HETATM   16  O3  UNL     1      77.229  87.967  16.653  1.00  0.00    -0.246 OA
ENDROOT
TORSDOF 0
ENDMDL
