MODEL 1
REMARK VINA RESULT: -5.842435777      0.000      0.000
REMARK  4 active torsions:
REMARK  status: ('A' for Active; 'I' for Inactive)
REMARK       I    between atoms: C1_4  and  N2_5 
REMARK       I    between atoms: C1_4  and  N5_11 
REMARK    1  A    between atoms: N2_5  and  N3_7 
REMARK    2  A    between atoms: N3_7  and  N4_8 
REMARK    3  A    between atoms: N5_11  and  S1_13 
REMARK    4  A    between atoms: S1_13  and  N6_14 
ROOT
HETATM    1  N1  UNL     1      79.948  87.608  19.818  1.00  0.00    -0.233 N 
ATOM      2  H11 UNL     1      80.231  86.969  19.074  1.00  0.00     0.174 HD
ATOM      3  H12 UNL     1      80.613  87.893  20.536  1.00  0.00     0.174 HD
HETATM    4  C1  UNL     1      78.762  88.088  19.902  1.00  0.00     0.699 C 
HETATM    5  N2  UNL     1      78.370  88.976  20.935  1.00  0.00    -0.116 N 
ATOM      6  H2  UNL     1      79.068  89.365  21.569  1.00  0.00     0.203 HD
HETATM    7  N5  UNL     1      77.835  87.691  18.900  1.00  0.00    -0.099 N 
ATOM      8  H5  UNL     1      76.856  87.543  19.145  1.00  0.00     0.199 HD
ENDROOT
BRANCH   5   9
HETATM    9  N3  UNL     1      77.021  89.317  21.080  1.00  0.00    -0.015 NA
BRANCH   9  10
HETATM   10  N4  UNL     1      76.871  90.602  20.537  1.00  0.00    -0.328 N 
ATOM     11  H42 UNL     1      77.190  90.903  19.617  1.00  0.00     0.174 HD
ATOM     12  H41 UNL     1      76.386  91.161  21.239  1.00  0.00     0.174 HD
ENDBRANCH   9  10
ENDBRANCH   5   9
BRANCH   7  13
HETATM   13  S1  UNL     1      78.359  87.458  17.265  1.00  0.00     0.330 S 
HETATM   14  O1  UNL     1      78.974  86.083  17.115  1.00  0.00    -0.182 OA
HETATM   15  O2  UNL     1      79.342  88.542  16.923  1.00  0.00    -0.182 OA
BRANCH  13  16
HETATM   16  N6  UNL     1      76.976  87.519  16.262  1.00  0.00    -0.311 N 
ATOM     17  H62 UNL     1      76.019  87.667  16.584  1.00  0.00     0.170 HD
ATOM     18  H61 UNL     1      77.285  87.381  15.299  1.00  0.00     0.170 HD
ENDBRANCH  13  16
ENDBRANCH   7  13
TORSDOF 4
ENDMDL
MODEL 2
REMARK VINA RESULT: -5.483919092      3.201      4.135
REMARK  4 active torsions:
REMARK  status: ('A' for Active; 'I' for Inactive)
REMARK       I    between atoms: C1_4  and  N2_5 
REMARK       I    between atoms: C1_4  and  N5_11 
REMARK    1  A    between atoms: N2_5  and  N3_7 
REMARK    2  A    between atoms: N3_7  and  N4_8 
REMARK    3  A    between atoms: N5_11  and  S1_13 
REMARK    4  A    between atoms: S1_13  and  N6_14 
ROOT
HETATM    1  N1  UNL     1      78.036  86.673  20.244  1.00  0.00    -0.233 N 
ATOM      2  H11 UNL     1      77.356  86.920  20.964  1.00  0.00     0.174 HD
ATOM      3  H12 UNL     1      78.124  85.710  19.922  1.00  0.00     0.174 HD
HETATM    4  C1  UNL     1      78.815  87.537  19.704  1.00  0.00     0.699 C 
HETATM    5  N2  UNL     1      79.759  87.195  18.705  1.00  0.00    -0.116 N 
ATOM      6  H2  UNL     1      79.751  86.263  18.289  1.00  0.00     0.203 HD
HETATM    7  N5  UNL     1      78.694  88.881  20.154  1.00  0.00    -0.099 N 
ATOM      8  H5  UNL     1      79.525  89.467  20.233  1.00  0.00     0.199 HD
ENDROOT
BRANCH   5   9
HETATM    9  N3  UNL     1      80.703  88.140  18.290  1.00  0.00    -0.015 NA
BRANCH   9  10
HETATM   10  N4  UNL     1      80.275  88.615  17.042  1.00  0.00    -0.328 N 
ATOM     11  H42 UNL     1      80.603  88.289  16.133  1.00  0.00     0.174 HD
ATOM     12  H41 UNL     1      79.581  89.339  17.227  1.00  0.00     0.174 HD
ENDBRANCH   9  10
ENDBRANCH   5   9
BRANCH   7  13
HETATM   13  S1  UNL     1      77.140  89.529  20.566  1.00  0.00     0.330 S 
HETATM   14  O1  UNL     1      77.278  90.988  20.945  1.00  0.00    -0.182 OA
HETATM   15  O2  UNL     1      76.572  88.717  21.696  1.00  0.00    -0.182 OA
BRANCH  13  16
HETATM   16  N6  UNL     1      76.156  89.447  19.170  1.00  0.00    -0.311 N 
ATOM     17  H62 UNL     1      76.220  88.734  18.443  1.00  0.00     0.170 HD
ATOM     18  H61 UNL     1      75.505  90.232  19.203  1.00  0.00     0.170 HD
ENDBRANCH  13  16
ENDBRANCH   7  13
TORSDOF 4
ENDMDL
MODEL 3
REMARK VINA RESULT: -5.442987126      1.206      1.642
REMARK  4 active torsions:
REMARK  status: ('A' for Active; 'I' for Inactive)
REMARK       I    between atoms: C1_4  and  N2_5 
REMARK       I    between atoms: C1_4  and  N5_11 
REMARK    1  A    between atoms: N2_5  and  N3_7 
REMARK    2  A    between atoms: N3_7  and  N4_8 
REMARK    3  A    between atoms: N5_11  and  S1_13 
REMARK    4  A    between atoms: S1_13  and  N6_14 
ROOT
HETATM    1  N1  UNL     1      78.907  86.764  20.147  1.00  0.00    -0.233 N 
ATOM      2  H11 UNL     1      79.210  86.128  19.409  1.00  0.00     0.174 HD
ATOM      3  H12 UNL     1      79.254  86.656  21.100  1.00  0.00     0.174 HD
HETATM    4  C1  UNL     1      78.086  87.726  19.936  1.00  0.00     0.699 C 
HETATM    5  N2  UNL     1      77.665  88.610  20.960  1.00  0.00    -0.116 N 
ATOM      6  H2  UNL     1      78.115  88.585  21.876  1.00  0.00     0.203 HD
HETATM    7  N5  UNL     1      77.602  87.878  18.607  1.00  0.00    -0.099 N 
ATOM      8  H5  UNL     1      76.639  88.176  18.449  1.00  0.00     0.199 HD
ENDROOT
BRANCH   5   9
HETATM    9  N3  UNL     1      76.631  89.518  20.711  1.00  0.00    -0.015 NA
BRANCH   9  10
HETATM   10  N4  UNL     1      77.205  90.798  20.739  1.00  0.00    -0.328 N 
ATOM     11  H42 UNL     1      77.704  91.213  21.525  1.00  0.00     0.174 HD
ATOM     12  H41 UNL     1      77.022  91.220  19.828  1.00  0.00     0.174 HD
ENDBRANCH   9  10
ENDBRANCH   5   9
BRANCH   7  13
HETATM   13  S1  UNL     1      78.640  87.561  17.256  1.00  0.00     0.330 S 
HETATM   14  O1  UNL     1      77.905  87.854  15.966  1.00  0.00    -0.182 OA
HETATM   15  O2  UNL     1      79.083  86.127  17.325  1.00  0.00    -0.182 OA
BRANCH  13  16
HETATM   16  N6  UNL     1      79.964  88.639  17.354  1.00  0.00    -0.311 N 
ATOM     17  H62 UNL     1      80.276  89.116  18.201  1.00  0.00     0.170 HD
ATOM     18  H61 UNL     1      80.375  88.711  16.423  1.00  0.00     0.170 HD
ENDBRANCH  13  16
ENDBRANCH   7  13
TORSDOF 4
ENDMDL
MODEL 4
REMARK VINA RESULT: -5.418866058      1.441      2.781
REMARK  4 active torsions:
REMARK  status: ('A' for Active; 'I' for Inactive)
REMARK       I    between atoms: C1_4  and  N2_5 
REMARK       I    between atoms: C1_4  and  N5_11 
REMARK    1  A    between atoms: N2_5  and  N3_7 
REMARK    2  A    between atoms: N3_7  and  N4_8 
REMARK    3  A    between atoms: N5_11  and  S1_13 
REMARK    4  A    between atoms: S1_13  and  N6_14 
ROOT
HETATM    1  N1  UNL     1      76.780  87.790  17.068  1.00  0.00    -0.233 N 
ATOM      2  H11 UNL     1      77.482  87.589  16.357  1.00  0.00     0.174 HD
ATOM      3  H12 UNL     1      75.821  87.462  16.958  1.00  0.00     0.174 HD
HETATM    4  C1  UNL     1      77.044  88.458  18.131  1.00  0.00     0.699 C 
HETATM    5  N2  UNL     1      76.068  88.737  19.120  1.00  0.00    -0.116 N 
ATOM      6  H2  UNL     1      75.150  88.294  19.074  1.00  0.00     0.203 HD
HETATM    7  N5  UNL     1      78.381  88.916  18.286  1.00  0.00    -0.099 N 
ATOM      8  H5  UNL     1      78.560  89.823  18.717  1.00  0.00     0.199 HD
ENDROOT
BRANCH   5   9
HETATM    9  N3  UNL     1      76.369  89.623  20.160  1.00  0.00    -0.015 NA
BRANCH   9  10
HETATM   10  N4  UNL     1      76.962  88.861  21.177  1.00  0.00    -0.328 N 
ATOM     11  H42 UNL     1      77.418  89.229  22.012  1.00  0.00     0.174 HD
ATOM     12  H41 UNL     1      76.847  87.882  20.915  1.00  0.00     0.174 HD
ENDBRANCH   9  10
ENDBRANCH   5   9
BRANCH   7  13
HETATM   13  S1  UNL     1      79.709  87.942  17.747  1.00  0.00     0.330 S 
HETATM   14  O1  UNL     1      80.273  88.510  16.463  1.00  0.00    -0.182 OA
HETATM   15  O2  UNL     1      79.218  86.534  17.558  1.00  0.00    -0.182 OA
BRANCH  13  16
HETATM   16  N6  UNL     1      80.935  88.030  18.936  1.00  0.00    -0.311 N 
ATOM     17  H62 UNL     1      81.938  88.024  18.752  1.00  0.00     0.170 HD
ATOM     18  H61 UNL     1      80.479  88.090  19.847  1.00  0.00     0.170 HD
ENDBRANCH  13  16
ENDBRANCH   7  13
TORSDOF 4
ENDMDL
MODEL 5
REMARK VINA RESULT: -5.382630033      3.069      4.428
REMARK  4 active torsions:
REMARK  status: ('A' for Active; 'I' for Inactive)
REMARK       I    between atoms: C1_4  and  N2_5 
REMARK       I    between atoms: C1_4  and  N5_11 
REMARK    1  A    between atoms: N2_5  and  N3_7 
REMARK    2  A    between atoms: N3_7  and  N4_8 
REMARK    3  A    between atoms: N5_11  and  S1_13 
REMARK    4  A    between atoms: S1_13  and  N6_14 
ROOT
HETATM    1  N1  UNL     1      76.491  87.251  18.293  1.00  0.00    -0.233 N 
ATOM      2  H11 UNL     1      75.934  87.207  19.146  1.00  0.00     0.174 HD
ATOM      3  H12 UNL     1      76.224  86.709  17.472  1.00  0.00     0.174 HD
HETATM    4  C1  UNL     1      77.546  87.973  18.193  1.00  0.00     0.699 C 
HETATM    5  N2  UNL     1      78.320  88.034  17.007  1.00  0.00    -0.116 N 
ATOM      6  H2  UNL     1      77.977  87.601  16.149  1.00  0.00     0.203 HD
HETATM    7  N5  UNL     1      77.918  88.729  19.338  1.00  0.00    -0.099 N 
ATOM      8  H5  UNL     1      78.905  88.857  19.563  1.00  0.00     0.199 HD
ENDROOT
BRANCH   5   9
HETATM    9  N3  UNL     1      79.555  88.690  17.019  1.00  0.00    -0.015 NA
BRANCH   9  10
HETATM   10  N4  UNL     1      80.514  87.734  17.385  1.00  0.00    -0.328 N 
ATOM     11  H42 UNL     1      81.117  87.216  16.746  1.00  0.00     0.174 HD
ATOM     12  H41 UNL     1      80.485  87.665  18.402  1.00  0.00     0.174 HD
ENDBRANCH   9  10
ENDBRANCH   5   9
BRANCH   7  13
HETATM   13  S1  UNL     1      76.705  89.434  20.354  1.00  0.00     0.330 S 
HETATM   14  O1  UNL     1      76.560  88.619  21.621  1.00  0.00    -0.182 OA
HETATM   15  O2  UNL     1      75.416  89.491  19.584  1.00  0.00    -0.182 OA
BRANCH  13  16
HETATM   16  N6  UNL     1      77.244  90.995  20.801  1.00  0.00    -0.311 N 
ATOM     17  H62 UNL     1      77.341  91.335  21.758  1.00  0.00     0.170 HD
ATOM     18  H61 UNL     1      77.447  91.510  19.944  1.00  0.00     0.170 HD
ENDBRANCH  13  16
ENDBRANCH   7  13
TORSDOF 4
ENDMDL
