MODEL 1
REMARK VINA RESULT: -6.306814959      0.000      0.000
REMARK  3 active torsions:
REMARK  status: ('A' for Active; 'I' for Inactive)
REMARK    1  A    between atoms: N1_1  and  N2_4 
REMARK       I    between atoms: N2_4  and  C1_5 
REMARK    2  A    between atoms: C1_5  and  C2_7 
REMARK       I    between atoms: C2_7  and  N3_9 
REMARK       I    between atoms: N3_9  and  C3_10 
REMARK       I    between atoms: C3_10  and  N5_12 
REMARK    3  A    between atoms: N5_12  and  N6_14 
ROOT
HETATM    1  C2  UNL     1      77.923  88.162  19.914  1.00  0.00     0.403 C 
HETATM    2  O2  UNL     1      78.991  88.455  20.587  1.00  0.00    -0.244 OA
HETATM    3  N3  UNL     1      77.902  87.214  19.002  1.00  0.00    -0.327 NA
HETATM    4  C3  UNL     1      77.708  86.504  18.063  1.00  0.00     0.285 C 
HETATM    5  N4  UNL     1      78.439  85.266  17.959  1.00  0.00    -0.048 NA
HETATM    6  N5  UNL     1      76.800  86.723  16.970  1.00  0.00    -0.268 N 
ATOM      7  H5  UNL     1      75.970  86.134  16.901  1.00  0.00     0.190 HD
ENDROOT
BRANCH   1   8
HETATM    8  C1  UNL     1      76.721  89.027  20.304  1.00  0.00     0.417 C 
HETATM    9  N2  UNL     1      75.962  89.619  19.386  1.00  0.00    -0.283 NA
HETATM   10  O1  UNL     1      76.638  89.042  21.594  1.00  0.00    -0.242 OA
BRANCH   9  11
HETATM   11  N1  UNL     1      75.185  90.225  18.445  1.00  0.00    -0.276 N 
ATOM     12  H12 UNL     1      75.779  89.766  19.135  1.00  0.00     0.191 HD
ATOM     13  H11 UNL     1      74.603  90.679  17.741  1.00  0.00     0.191 HD
ENDBRANCH   9  11
ENDBRANCH   1   8
BRANCH   6  14
HETATM   14  N6  UNL     1      77.001  87.694  16.007  1.00  0.00    -0.342 N 
ATOM     15  H62 UNL     1      77.924  87.742  15.575  1.00  0.00     0.176 HD
ATOM     16  H61 UNL     1      76.275  88.350  15.719  1.00  0.00     0.176 HD
ENDBRANCH   6  14
TORSDOF 3
ENDMDL
MODEL 2
REMARK VINA RESULT: -6.070330267      1.653      2.243
REMARK  3 active torsions:
REMARK  status: ('A' for Active; 'I' for Inactive)
REMARK    1  A    between atoms: N1_1  and  N2_4 
REMARK       I    between atoms: N2_4  and  C1_5 
REMARK    2  A    between atoms: C1_5  and  C2_7 
REMARK       I    between atoms: C2_7  and  N3_9 
REMARK       I    between atoms: N3_9  and  C3_10 
REMARK       I    between atoms: C3_10  and  N5_12 
REMARK    3  A    between atoms: N5_12  and  N6_14 
ROOT
HETATM    1  C2  UNL     1      77.015  88.418  20.361  1.00  0.00     0.403 C 
HETATM    2  O2  UNL     1      76.895  88.927  21.546  1.00  0.00    -0.244 OA
HETATM    3  N3  UNL     1      77.694  87.316  20.131  1.00  0.00    -0.327 NA
HETATM    4  C3  UNL     1      78.359  86.424  19.697  1.00  0.00     0.285 C 
HETATM    5  N4  UNL     1      78.584  85.258  20.514  1.00  0.00    -0.048 NA
HETATM    6  N5  UNL     1      78.995  86.350  18.410  1.00  0.00    -0.268 N 
ATOM      7  H5  UNL     1      78.629  85.689  17.724  1.00  0.00     0.190 HD
ENDROOT
BRANCH   1   8
HETATM    8  C1  UNL     1      76.286  89.235  19.289  1.00  0.00     0.417 C 
HETATM    9  N2  UNL     1      76.571  89.101  17.997  1.00  0.00    -0.283 NA
HETATM   10  O1  UNL     1      75.427  89.999  19.882  1.00  0.00    -0.242 OA
BRANCH   9  11
HETATM   11  N1  UNL     1      76.863  88.963  16.674  1.00  0.00    -0.276 N 
ATOM     12  H12 UNL     1      76.649  89.047  17.667  1.00  0.00     0.191 HD
ATOM     13  H11 UNL     1      77.083  88.860  15.683  1.00  0.00     0.191 HD
ENDBRANCH   9  11
ENDBRANCH   1   8
BRANCH   6  14
HETATM   14  N6  UNL     1      80.079  87.132  18.059  1.00  0.00    -0.342 N 
ATOM     15  H62 UNL     1      80.529  87.670  18.800  1.00  0.00     0.176 HD
ATOM     16  H61 UNL     1      80.438  87.190  17.106  1.00  0.00     0.176 HD
ENDBRANCH   6  14
TORSDOF 3
ENDMDL
MODEL 3
REMARK VINA RESULT: -6.031626424      2.381      4.059
REMARK  3 active torsions:
REMARK  status: ('A' for Active; 'I' for Inactive)
REMARK    1  A    between atoms: N1_1  and  N2_4 
REMARK       I    between atoms: N2_4  and  C1_5 
REMARK    2  A    between atoms: C1_5  and  C2_7 
REMARK       I    between atoms: C2_7  and  N3_9 
REMARK       I    between atoms: N3_9  and  C3_10 
REMARK       I    between atoms: C3_10  and  N5_12 
REMARK    3  A    between atoms: N5_12  and  N6_14 
ROOT
HETATM    1  C2  UNL     1      78.085  86.602  19.378  1.00  0.00     0.403 C 
HETATM    2  O2  UNL     1      77.960  85.390  19.817  1.00  0.00    -0.244 OA
HETATM    3  N3  UNL     1      77.539  87.632  19.986  1.00  0.00    -0.327 NA
HETATM    4  C3  UNL     1      77.027  88.663  20.302  1.00  0.00     0.285 C 
HETATM    5  N4  UNL     1      76.750  88.910  21.695  1.00  0.00    -0.048 NA
HETATM    6  N5  UNL     1      76.630  89.745  19.442  1.00  0.00    -0.268 N 
ATOM      7  H5  UNL     1      77.156  90.618  19.485  1.00  0.00     0.190 HD
ENDROOT
BRANCH   1   8
HETATM    8  C1  UNL     1      78.927  86.686  18.101  1.00  0.00     0.417 C 
HETATM    9  N2  UNL     1      79.648  87.764  17.812  1.00  0.00    -0.283 NA
HETATM   10  O1  UNL     1      78.777  85.580  17.448  1.00  0.00    -0.242 OA
BRANCH   9  11
HETATM   11  N1  UNL     1      80.388  88.870  17.517  1.00  0.00    -0.276 N 
ATOM     12  H12 UNL     1      79.818  88.052  17.731  1.00  0.00     0.191 HD
ATOM     13  H11 UNL     1      80.941  89.698  17.295  1.00  0.00     0.191 HD
ENDBRANCH   9  11
ENDBRANCH   1   8
BRANCH   6  14
HETATM   14  N6  UNL     1      75.568  89.657  18.562  1.00  0.00    -0.342 N 
ATOM     15  H62 UNL     1      75.786  89.627  17.566  1.00  0.00     0.176 HD
ATOM     16  H61 UNL     1      74.595  89.622  18.866  1.00  0.00     0.176 HD
ENDBRANCH   6  14
TORSDOF 3
ENDMDL
MODEL 4
REMARK VINA RESULT: -6.023651092      2.527      4.593
REMARK  3 active torsions:
REMARK  status: ('A' for Active; 'I' for Inactive)
REMARK    1  A    between atoms: N1_1  and  N2_4 
REMARK       I    between atoms: N2_4  and  C1_5 
REMARK    2  A    between atoms: C1_5  and  C2_7 
REMARK       I    between atoms: C2_7  and  N3_9 
REMARK       I    between atoms: N3_9  and  C3_10 
REMARK       I    between atoms: C3_10  and  N5_12 
REMARK    3  A    between atoms: N5_12  and  N6_14 
ROOT
HETATM    1  C2  UNL     1      77.662  87.401  17.559  1.00  0.00     0.403 C 
HETATM    2  O2  UNL     1      77.850  87.729  16.320  1.00  0.00    -0.244 OA
HETATM    3  N3  UNL     1      76.990  88.161  18.396  1.00  0.00    -0.327 NA
HETATM    4  C3  UNL     1      76.540  88.754  19.329  1.00  0.00     0.285 C 
HETATM    5  N4  UNL     1      75.435  89.655  19.119  1.00  0.00    -0.048 NA
HETATM    6  N5  UNL     1      76.968  88.687  20.700  1.00  0.00    -0.268 N 
ATOM      7  H5  UNL     1      76.355  88.237  21.380  1.00  0.00     0.190 HD
ENDROOT
BRANCH   1   8
HETATM    8  C1  UNL     1      78.297  86.054  17.918  1.00  0.00     0.417 C 
HETATM    9  N2  UNL     1      78.377  85.637  19.178  1.00  0.00    -0.283 NA
HETATM   10  O1  UNL     1      78.694  85.492  16.824  1.00  0.00    -0.242 OA
BRANCH   9  11
HETATM   11  N1  UNL     1      78.458  85.209  20.469  1.00  0.00    -0.276 N 
ATOM     12  H12 UNL     1      78.404  85.511  19.497  1.00  0.00     0.191 HD
ATOM     13  H11 UNL     1      78.519  84.889  21.436  1.00  0.00     0.191 HD
ENDBRANCH   9  11
ENDBRANCH   1   8
BRANCH   6  14
HETATM   14  N6  UNL     1      78.171  89.206  21.139  1.00  0.00    -0.342 N 
ATOM     15  H62 UNL     1      78.951  88.557  21.247  1.00  0.00     0.176 HD
ATOM     16  H61 UNL     1      78.305  90.194  21.355  1.00  0.00     0.176 HD
ENDBRANCH   6  14
TORSDOF 3
ENDMDL
MODEL 5
REMARK VINA RESULT: -5.938426628      1.069      1.280
REMARK  3 active torsions:
REMARK  status: ('A' for Active; 'I' for Inactive)
REMARK    1  A    between atoms: N1_1  and  N2_4 
REMARK       I    between atoms: N2_4  and  C1_5 
REMARK    2  A    between atoms: C1_5  and  C2_7 
REMARK       I    between atoms: C2_7  and  N3_9 
REMARK       I    between atoms: N3_9  and  C3_10 
REMARK       I    between atoms: C3_10  and  N5_12 
REMARK    3  A    between atoms: N5_12  and  N6_14 
ROOT
HETATM    1  C2  UNL     1      78.919  87.684  18.949  1.00  0.00     0.403 C 
HETATM    2  O2  UNL     1      80.168  87.830  19.260  1.00  0.00    -0.244 OA
HETATM    3  N3  UNL     1      78.510  86.796  18.070  1.00  0.00    -0.327 NA
HETATM    4  C3  UNL     1      77.957  86.162  17.223  1.00  0.00     0.285 C 
HETATM    5  N4  UNL     1      78.476  84.865  16.868  1.00  0.00    -0.048 NA
HETATM    6  N5  UNL     1      76.788  86.532  16.473  1.00  0.00    -0.268 N 
ATOM      7  H5  UNL     1      75.916  86.034  16.655  1.00  0.00     0.190 HD
ENDROOT
BRANCH   1   8
HETATM    8  C1  UNL     1      78.001  88.643  19.714  1.00  0.00     0.417 C 
HETATM    9  N2  UNL     1      76.888  89.125  19.169  1.00  0.00    -0.283 NA
HETATM   10  O1  UNL     1      78.517  88.847  20.882  1.00  0.00    -0.242 OA
BRANCH   9  11
HETATM   11  N1  UNL     1      75.748  89.618  18.610  1.00  0.00    -0.276 N 
ATOM     12  H12 UNL     1      76.601  89.234  19.015  1.00  0.00     0.191 HD
ATOM     13  H11 UNL     1      74.895  89.988  18.191  1.00  0.00     0.191 HD
ENDBRANCH   9  11
ENDBRANCH   1   8
BRANCH   6  14
HETATM   14  N6  UNL     1      76.790  87.530  15.517  1.00  0.00    -0.342 N 
ATOM     15  H62 UNL     1      75.983  88.153  15.486  1.00  0.00     0.176 HD
ATOM     16  H61 UNL     1      77.555  87.663  14.854  1.00  0.00     0.176 HD
ENDBRANCH   6  14
TORSDOF 3
ENDMDL
