MODEL 1
REMARK VINA RESULT: -6.928214901      0.000      0.000
REMARK  1 active torsions:
REMARK  status: ('A' for Active; 'I' for Inactive)
REMARK       I    between atoms: N1_1  and  C1_4 
REMARK       I    between atoms: C1_4  and  N3_6 
REMARK    1  A    between atoms: N3_6  and  C2_8 
ROOT
HETATM    1  C2  UNL     1      76.792  87.809  18.957  1.00  0.00     0.192 A 
HETATM    2  N4  UNL     1      75.980  88.863  18.782  1.00  0.00    -0.277 N 
ATOM      3  H4  UNL     1      75.265  88.864  18.055  1.00  0.00     0.189 HD
HETATM    4  N5  UNL     1      76.143  89.899  19.587  1.00  0.00    -0.250 N 
ATOM      5  H5  UNL     1      75.531  90.706  19.465  1.00  0.00     0.192 HD
HETATM    6  C3  UNL     1      77.068  89.946  20.553  1.00  0.00     0.341 A 
HETATM    7  O1  UNL     1      77.221  90.942  21.321  1.00  0.00    -0.245 OA
HETATM    8  N6  UNL     1      77.902  88.902  20.756  1.00  0.00    -0.271 N 
ATOM      9  H6  UNL     1      78.613  88.921  21.488  1.00  0.00     0.174 HD
HETATM   10  C4  UNL     1      77.752  87.834  19.946  1.00  0.00     0.295 A 
HETATM   11  O2  UNL     1      78.539  86.854  20.142  1.00  0.00    -0.264 OA
ENDROOT
BRANCH   1  12
HETATM   12  N3  UNL     1      76.684  86.770  18.210  1.00  0.00    -0.311 N 
HETATM   13  C1  UNL     1      77.334  86.605  16.976  1.00  0.00     0.187 C 
HETATM   14  N1  UNL     1      76.937  87.270  15.934  1.00  0.00    -0.373 N 
HETATM   15  N2  UNL     1      78.440  85.725  16.787  1.00  0.00    -0.064 NA
ATOM     16  H12 UNL     1      77.409  87.150  15.038  1.00  0.00     0.158 HD
ATOM     17  H11 UNL     1      76.146  87.900  16.069  1.00  0.00     0.158 HD
ATOM     18  H3  UNL     1      76.084  86.013  18.535  1.00  0.00     0.170 HD
ENDBRANCH   1  12
TORSDOF 1
ENDMDL
MODEL 2
REMARK VINA RESULT: -6.675574562      2.349      4.344
REMARK  1 active torsions:
REMARK  status: ('A' for Active; 'I' for Inactive)
REMARK       I    between atoms: N1_1  and  C1_4 
REMARK       I    between atoms: C1_4  and  N3_6 
REMARK    1  A    between atoms: N3_6  and  C2_8 
ROOT
HETATM    1  C2  UNL     1      78.445  88.320  19.398  1.00  0.00     0.192 A 
HETATM    2  N4  UNL     1      79.232  89.333  19.006  1.00  0.00    -0.277 N 
ATOM      3  H4  UNL     1      79.148  90.260  19.424  1.00  0.00     0.189 HD
HETATM    4  N5  UNL     1      80.122  89.085  18.059  1.00  0.00    -0.250 N 
ATOM      5  H5  UNL     1      80.728  89.847  17.754  1.00  0.00     0.192 HD
HETATM    6  C3  UNL     1      80.269  87.887  17.480  1.00  0.00     0.341 A 
HETATM    7  O1  UNL     1      81.121  87.654  16.573  1.00  0.00    -0.245 OA
HETATM    8  N6  UNL     1      79.491  86.846  17.851  1.00  0.00    -0.271 N 
ATOM      9  H6  UNL     1      79.589  85.926  17.420  1.00  0.00     0.174 HD
HETATM   10  C4  UNL     1      78.578  87.078  18.816  1.00  0.00     0.295 A 
HETATM   11  O2  UNL     1      77.849  86.093  19.161  1.00  0.00    -0.264 OA
ENDROOT
BRANCH   1  12
HETATM   12  N3  UNL     1      77.562  88.496  20.314  1.00  0.00    -0.311 N 
HETATM   13  C1  UNL     1      76.737  89.626  20.420  1.00  0.00     0.187 C 
HETATM   14  N1  UNL     1      77.229  90.760  20.820  1.00  0.00    -0.373 N 
HETATM   15  N2  UNL     1      75.347  89.611  20.106  1.00  0.00    -0.064 NA
ATOM     16  H12 UNL     1      76.629  91.581  20.897  1.00  0.00     0.158 HD
ATOM     17  H11 UNL     1      78.224  90.771  21.045  1.00  0.00     0.158 HD
ATOM     18  H3  UNL     1      77.454  87.762  21.014  1.00  0.00     0.170 HD
ENDBRANCH   1  12
TORSDOF 1
ENDMDL
MODEL 3
REMARK VINA RESULT: -6.294951921      1.846      4.348
REMARK  1 active torsions:
REMARK  status: ('A' for Active; 'I' for Inactive)
REMARK       I    between atoms: N1_1  and  C1_4 
REMARK       I    between atoms: C1_4  and  N3_6 
REMARK    1  A    between atoms: N3_6  and  C2_8 
ROOT
HETATM    1  C2  UNL     1      77.617  88.168  18.269  1.00  0.00     0.192 A 
HETATM    2  N4  UNL     1      77.046  88.582  17.128  1.00  0.00    -0.277 N 
ATOM      3  H4  UNL     1      76.737  89.547  17.011  1.00  0.00     0.189 HD
HETATM    4  N5  UNL     1      76.900  87.692  16.161  1.00  0.00    -0.250 N 
ATOM      5  H5  UNL     1      76.468  87.995  15.287  1.00  0.00     0.192 HD
HETATM    6  C3  UNL     1      77.288  86.416  16.266  1.00  0.00     0.341 A 
HETATM    7  O1  UNL     1      77.145  85.566  15.337  1.00  0.00    -0.245 OA
HETATM    8  N6  UNL     1      77.866  85.966  17.403  1.00  0.00    -0.271 N 
ATOM      9  H6  UNL     1      78.168  84.996  17.501  1.00  0.00     0.174 HD
HETATM   10  C4  UNL     1      78.025  86.859  18.401  1.00  0.00     0.295 A 
HETATM   11  O2  UNL     1      78.571  86.430  19.468  1.00  0.00    -0.264 OA
ENDROOT
BRANCH   1  12
HETATM   12  N3  UNL     1      77.790  88.984  19.246  1.00  0.00    -0.311 N 
HETATM   13  C1  UNL     1      76.784  89.379  20.142  1.00  0.00     0.187 C 
HETATM   14  N1  UNL     1      75.851  90.197  19.758  1.00  0.00    -0.373 N 
HETATM   15  N2  UNL     1      76.717  88.924  21.491  1.00  0.00    -0.064 NA
ATOM     16  H12 UNL     1      75.120  90.484  20.409  1.00  0.00     0.158 HD
ATOM     17  H11 UNL     1      75.899  90.522  18.793  1.00  0.00     0.158 HD
ATOM     18  H3  UNL     1      78.723  89.372  19.380  1.00  0.00     0.170 HD
ENDBRANCH   1  12
TORSDOF 1
ENDMDL
MODEL 4
REMARK VINA RESULT: -6.245561783      1.371      1.685
REMARK  1 active torsions:
REMARK  status: ('A' for Active; 'I' for Inactive)
REMARK       I    between atoms: N1_1  and  C1_4 
REMARK       I    between atoms: C1_4  and  N3_6 
REMARK    1  A    between atoms: N3_6  and  C2_8 
ROOT
HETATM    1  C2  UNL     1      77.528  87.656  17.811  1.00  0.00     0.192 A 
HETATM    2  N4  UNL     1      76.731  88.734  17.845  1.00  0.00    -0.277 N 
ATOM      3  H4  UNL     1      76.355  89.141  16.989  1.00  0.00     0.189 HD
HETATM    4  N5  UNL     1      76.450  89.248  19.031  1.00  0.00    -0.250 N 
ATOM      5  H5  UNL     1      75.843  90.067  19.071  1.00  0.00     0.192 HD
HETATM    6  C3  UNL     1      76.919  88.751  20.181  1.00  0.00     0.341 A 
HETATM    7  O1  UNL     1      76.648  89.248  21.315  1.00  0.00    -0.245 OA
HETATM    8  N6  UNL     1      77.726  87.666  20.182  1.00  0.00    -0.271 N 
ATOM      9  H6  UNL     1      78.093  87.274  21.050  1.00  0.00     0.174 HD
HETATM   10  C4  UNL     1      78.023  87.126  18.982  1.00  0.00     0.295 A 
HETATM   11  O2  UNL     1      78.782  86.104  18.989  1.00  0.00    -0.264 OA
ENDROOT
BRANCH   1  12
HETATM   12  N3  UNL     1      77.837  87.107  16.691  1.00  0.00    -0.311 N 
HETATM   13  C1  UNL     1      76.913  86.745  15.699  1.00  0.00     0.187 C 
HETATM   14  N1  UNL     1      76.138  85.717  15.870  1.00  0.00    -0.373 N 
HETATM   15  N2  UNL     1      76.764  87.457  14.473  1.00  0.00    -0.064 NA
ATOM     16  H12 UNL     1      75.467  85.454  15.149  1.00  0.00     0.158 HD
ATOM     17  H11 UNL     1      76.245  85.208  16.748  1.00  0.00     0.158 HD
ATOM     18  H3  UNL     1      78.824  86.922  16.511  1.00  0.00     0.170 HD
ENDBRANCH   1  12
TORSDOF 1
ENDMDL
MODEL 5
REMARK VINA RESULT: -6.238533370      1.382      1.818
REMARK  1 active torsions:
REMARK  status: ('A' for Active; 'I' for Inactive)
REMARK       I    between atoms: N1_1  and  C1_4 
REMARK       I    between atoms: C1_4  and  N3_6 
REMARK    1  A    between atoms: N3_6  and  C2_8 
ROOT
HETATM    1  C2  UNL     1      77.814  87.372  18.185  1.00  0.00     0.192 A 
HETATM    2  N4  UNL     1      76.942  88.152  17.529  1.00  0.00    -0.277 N 
ATOM      3  H4  UNL     1      76.829  88.084  16.517  1.00  0.00     0.189 HD
HETATM    4  N5  UNL     1      76.234  89.011  18.243  1.00  0.00    -0.250 N 
ATOM      5  H5  UNL     1      75.566  89.609  17.756  1.00  0.00     0.192 HD
HETATM    6  C3  UNL     1      76.347  89.138  19.570  1.00  0.00     0.341 A 
HETATM    7  O1  UNL     1      75.668  89.964  20.250  1.00  0.00    -0.245 OA
HETATM    8  N6  UNL     1      77.218  88.368  20.262  1.00  0.00    -0.271 N 
ATOM      9  H6  UNL     1      77.317  88.452  21.274  1.00  0.00     0.174 HD
HETATM   10  C4  UNL     1      77.948  87.484  19.552  1.00  0.00     0.295 A 
HETATM   11  O2  UNL     1      78.765  86.761  20.208  1.00  0.00    -0.264 OA
ENDROOT
BRANCH   1  12
HETATM   12  N3  UNL     1      78.530  86.515  17.550  1.00  0.00    -0.311 N 
HETATM   13  C1  UNL     1      78.143  85.192  17.286  1.00  0.00     0.187 C 
HETATM   14  N1  UNL     1      78.123  84.313  18.242  1.00  0.00    -0.373 N 
HETATM   15  N2  UNL     1      77.756  84.734  15.992  1.00  0.00    -0.064 NA
ATOM     16  H12 UNL     1      77.842  83.352  18.050  1.00  0.00     0.158 HD
ATOM     17  H11 UNL     1      78.400  84.641  19.167  1.00  0.00     0.158 HD
ATOM     18  H3  UNL     1      79.444  86.818  17.214  1.00  0.00     0.170 HD
ENDBRANCH   1  12
TORSDOF 1
ENDMDL
