MODEL 1
REMARK VINA RESULT: -6.334946047      0.000      0.000
REMARK  2 active torsions:
REMARK  status: ('A' for Active; 'I' for Inactive)
REMARK       I    between atoms: C1_2  and  N2_4 
REMARK    1  A    between atoms: N2_4  and  C2_5 
REMARK    2  A    between atoms: C2_5  and  N3_6 
ROOT
HETATM    1  C2  UNL     1      78.056  88.328  18.735  1.00  0.00     0.421 C 
HETATM    2  N4  UNL     1      76.923  89.057  19.324  1.00  0.00    -0.274 N 
ATOM      3  H4  UNL     1      75.963  89.097  18.983  1.00  0.00     0.170 HD
HETATM    4  C3  UNL     1      77.470  89.703  20.487  1.00  0.00     0.327 C 
HETATM    5  O2  UNL     1      77.173  90.786  21.033  1.00  0.00    -0.247 OA
HETATM    6  N5  UNL     1      78.503  88.790  20.931  1.00  0.00    -0.273 N 
ATOM      7  H5  UNL     1      79.109  88.920  21.741  1.00  0.00     0.173 HD
HETATM    8  C4  UNL     1      78.524  87.683  20.041  1.00  0.00     0.319 C 
HETATM    9  O3  UNL     1      78.826  86.485  20.197  1.00  0.00    -0.265 OA
ENDROOT
BRANCH   1  10
HETATM   10  N2  UNL     1      77.851  87.511  17.732  1.00  0.00    -0.329 NA
HETATM   11  C1  UNL     1      77.633  86.642  16.667  1.00  0.00     0.405 C 
HETATM   12  N1  UNL     1      78.277  85.327  16.703  1.00  0.00    -0.025 NA
HETATM   13  O1  UNL     1      76.944  86.832  15.641  1.00  0.00    -0.234 OA
ENDBRANCH   1  10
BRANCH   1  14
HETATM   14  N3  UNL     1      79.081  89.384  18.501  1.00  0.00    -0.012 N 
ATOM     15  H33 UNL     1      80.012  89.016  18.696  1.00  0.00     0.281 HD
ATOM     16  H32 UNL     1      79.168  89.572  17.502  1.00  0.00     0.281 HD
ATOM     17  H31 UNL     1      78.936  90.256  19.010  1.00  0.00     0.281 HD
ENDBRANCH   1  14
TORSDOF 2
ENDMDL
MODEL 2
REMARK VINA RESULT: -6.145833723      1.820      2.281
REMARK  2 active torsions:
REMARK  status: ('A' for Active; 'I' for Inactive)
REMARK       I    between atoms: C1_2  and  N2_4 
REMARK    1  A    between atoms: N2_4  and  C2_5 
REMARK    2  A    between atoms: C2_5  and  N3_6 
ROOT
HETATM    1  C2  UNL     1      77.384  87.948  17.377  1.00  0.00     0.421 C 
HETATM    2  N4  UNL     1      77.280  87.260  18.671  1.00  0.00    -0.274 N 
ATOM      3  H4  UNL     1      76.917  86.324  18.852  1.00  0.00     0.170 HD
HETATM    4  C3  UNL     1      77.803  88.198  19.627  1.00  0.00     0.327 C 
HETATM    5  O2  UNL     1      77.507  88.393  20.825  1.00  0.00    -0.247 OA
HETATM    6  N5  UNL     1      78.808  88.925  18.878  1.00  0.00    -0.273 N 
ATOM      7  H5  UNL     1      79.394  89.679  19.237  1.00  0.00     0.173 HD
HETATM    8  C4  UNL     1      78.834  88.404  17.557  1.00  0.00     0.319 C 
HETATM    9  O3  UNL     1      79.742  88.306  16.710  1.00  0.00    -0.265 OA
ENDROOT
BRANCH   1  10
HETATM   10  N2  UNL     1      77.121  87.296  16.271  1.00  0.00    -0.329 NA
HETATM   11  C1  UNL     1      76.841  86.603  15.098  1.00  0.00     0.405 C 
HETATM   12  N1  UNL     1      77.152  85.172  15.047  1.00  0.00    -0.025 NA
HETATM   13  O1  UNL     1      76.347  87.044  14.037  1.00  0.00    -0.234 OA
ENDBRANCH   1  10
BRANCH   1  14
HETATM   14  N3  UNL     1      76.614  89.208  17.575  1.00  0.00    -0.012 N 
ATOM     15  H33 UNL     1      76.278  89.265  18.536  1.00  0.00     0.281 HD
ATOM     16  H32 UNL     1      77.245  90.010  17.557  1.00  0.00     0.281 HD
ATOM     17  H31 UNL     1      75.842  89.357  16.925  1.00  0.00     0.281 HD
ENDBRANCH   1  14
TORSDOF 2
ENDMDL
MODEL 3
REMARK VINA RESULT: -6.047053530      1.962      2.320
REMARK  2 active torsions:
REMARK  status: ('A' for Active; 'I' for Inactive)
REMARK       I    between atoms: C1_2  and  N2_4 
REMARK    1  A    between atoms: N2_4  and  C2_5 
REMARK    2  A    between atoms: C2_5  and  N3_6 
ROOT
HETATM    1  C2  UNL     1      78.229  87.673  17.674  1.00  0.00     0.421 C 
HETATM    2  N4  UNL     1      78.208  87.676  19.143  1.00  0.00    -0.274 N 
ATOM      3  H4  UNL     1      77.974  86.902  19.765  1.00  0.00     0.170 HD
HETATM    4  C3  UNL     1      78.589  89.014  19.511  1.00  0.00     0.327 C 
HETATM    5  O2  UNL     1      78.258  89.716  20.489  1.00  0.00    -0.247 OA
HETATM    6  N5  UNL     1      79.491  89.415  18.452  1.00  0.00    -0.273 N 
ATOM      7  H5  UNL     1      79.966  90.315  18.378  1.00  0.00     0.173 HD
HETATM    8  C4  UNL     1      79.601  88.337  17.535  1.00  0.00     0.319 C 
HETATM    9  O3  UNL     1      80.521  87.961  16.784  1.00  0.00    -0.265 OA
ENDROOT
BRANCH   1  10
HETATM   10  N2  UNL     1      78.067  86.546  17.025  1.00  0.00    -0.329 NA
HETATM   11  C1  UNL     1      77.896  85.351  16.335  1.00  0.00     0.405 C 
HETATM   12  N1  UNL     1      77.090  85.365  15.111  1.00  0.00    -0.025 NA
HETATM   13  O1  UNL     1      78.344  84.219  16.623  1.00  0.00    -0.234 OA
ENDBRANCH   1  10
BRANCH   1  14
HETATM   14  N3  UNL     1      77.292  88.768  17.297  1.00  0.00    -0.012 N 
ATOM     15  H33 UNL     1      76.853  88.560  16.400  1.00  0.00     0.281 HD
ATOM     16  H32 UNL     1      76.474  88.753  17.906  1.00  0.00     0.281 HD
ATOM     17  H31 UNL     1      77.697  89.705  17.279  1.00  0.00     0.281 HD
ENDBRANCH   1  14
TORSDOF 2
ENDMDL
MODEL 4
REMARK VINA RESULT: -5.947501894      1.884      4.043
REMARK  2 active torsions:
REMARK  status: ('A' for Active; 'I' for Inactive)
REMARK       I    between atoms: C1_2  and  N2_4 
REMARK    1  A    between atoms: N2_4  and  C2_5 
REMARK    2  A    between atoms: C2_5  and  N3_6 
ROOT
HETATM    1  C2  UNL     1      78.038  88.219  18.383  1.00  0.00     0.421 C 
HETATM    2  N4  UNL     1      79.386  88.765  18.171  1.00  0.00    -0.274 N 
ATOM      3  H4  UNL     1      79.778  89.624  18.556  1.00  0.00     0.170 HD
HETATM    4  C3  UNL     1      80.030  87.819  17.299  1.00  0.00     0.327 C 
HETATM    5  O2  UNL     1      80.897  87.984  16.416  1.00  0.00    -0.247 OA
HETATM    6  N5  UNL     1      79.433  86.552  17.669  1.00  0.00    -0.273 N 
ATOM      7  H5  UNL     1      79.651  85.645  17.257  1.00  0.00     0.173 HD
HETATM    8  C4  UNL     1      78.494  86.794  18.707  1.00  0.00     0.319 C 
HETATM    9  O3  UNL     1      78.093  86.097  19.658  1.00  0.00    -0.265 OA
ENDROOT
BRANCH   1  10
HETATM   10  N2  UNL     1      77.241  88.779  19.259  1.00  0.00    -0.329 NA
HETATM   11  C1  UNL     1      76.395  89.374  20.190  1.00  0.00     0.405 C 
HETATM   12  N1  UNL     1      76.591  89.058  21.607  1.00  0.00    -0.025 NA
HETATM   13  O1  UNL     1      75.452  90.169  19.982  1.00  0.00    -0.234 OA
ENDBRANCH   1  10
BRANCH   1  14
HETATM   14  N3  UNL     1      77.482  88.083  17.007  1.00  0.00    -0.012 N 
ATOM     15  H33 UNL     1      76.908  88.895  16.781  1.00  0.00     0.281 HD
ATOM     16  H32 UNL     1      78.226  88.192  16.318  1.00  0.00     0.281 HD
ATOM     17  H31 UNL     1      76.962  87.225  16.828  1.00  0.00     0.281 HD
ENDBRANCH   1  14
TORSDOF 2
ENDMDL
MODEL 5
REMARK VINA RESULT: -5.836951942      1.405      1.405
REMARK  2 active torsions:
REMARK  status: ('A' for Active; 'I' for Inactive)
REMARK       I    between atoms: C1_2  and  N2_4 
REMARK    1  A    between atoms: N2_4  and  C2_5 
REMARK    2  A    between atoms: C2_5  and  N3_6 
ROOT
HETATM    1  C2  UNL     1      77.538  87.710  18.363  1.00  0.00     0.421 C 
HETATM    2  N4  UNL     1      76.196  88.172  18.746  1.00  0.00    -0.274 N 
ATOM      3  H4  UNL     1      75.301  87.879  18.354  1.00  0.00     0.170 HD
HETATM    4  C3  UNL     1      76.425  89.130  19.794  1.00  0.00     0.327 C 
HETATM    5  O2  UNL     1      75.792  90.159  20.111  1.00  0.00    -0.247 OA
HETATM    6  N5  UNL     1      77.616  88.637  20.453  1.00  0.00    -0.273 N 
ATOM      7  H5  UNL     1      78.079  89.067  21.255  1.00  0.00     0.173 HD
HETATM    8  C4  UNL     1      78.028  87.451  19.790  1.00  0.00     0.319 C 
HETATM    9  O3  UNL     1      78.626  86.431  20.183  1.00  0.00    -0.265 OA
ENDROOT
BRANCH   1  10
HETATM   10  N2  UNL     1      77.666  86.713  17.522  1.00  0.00    -0.329 NA
HETATM   11  C1  UNL     1      77.802  85.656  16.629  1.00  0.00     0.405 C 
HETATM   12  N1  UNL     1      77.023  85.691  15.389  1.00  0.00    -0.025 NA
HETATM   13  O1  UNL     1      78.519  84.637  16.739  1.00  0.00    -0.234 OA
ENDBRANCH   1  10
BRANCH   1  14
HETATM   14  N3  UNL     1      78.258  88.960  17.989  1.00  0.00    -0.012 N 
ATOM     15  H33 UNL     1      79.208  88.940  18.357  1.00  0.00     0.281 HD
ATOM     16  H32 UNL     1      78.453  88.964  16.988  1.00  0.00     0.281 HD
ATOM     17  H31 UNL     1      77.796  89.829  18.259  1.00  0.00     0.281 HD
ENDBRANCH   1  14
TORSDOF 2
ENDMDL
