MODEL 1
REMARK VINA RESULT: -7.708459713      0.000      0.000
REMARK  4 active torsions:
REMARK  status: ('A' for Active; 'I' for Inactive)
REMARK    1  A    between atoms: C1_2  and  C2_3 
REMARK       I    between atoms: C1_2  and  N3_17 
REMARK    2  A    between atoms: C2_3  and  N1_4 
REMARK    3  A    between atoms: N3_17  and  C12_19 
REMARK    4  A    between atoms: C12_19  and  C13_20 
ROOT
HETATM    1  N1  UNL     1       7.640  -9.546 -54.981  1.00  0.00    -0.323 N 
HETATM    2  C3  UNL     1       7.038  -9.814 -56.258  1.00  0.00     0.159 C 
HETATM    3  C4  UNL     1       8.000  -9.287 -57.319  1.00  0.00     0.051 C 
HETATM    4  C5  UNL     1       8.060 -10.255 -58.420  1.00  0.00     0.033 C 
HETATM    5  C6  UNL     1       7.929  -9.739 -59.800  1.00  0.00     0.002 C 
HETATM    6  C7  UNL     1       6.773  -8.821 -60.024  1.00  0.00     0.000 C 
HETATM    7  C8  UNL     1       7.291  -7.403 -60.023  1.00  0.00     0.000 C 
HETATM    8  C9  UNL     1       8.240  -7.288 -58.829  1.00  0.00     0.002 C 
HETATM    9  C10 UNL     1       7.563  -7.900 -57.658  1.00  0.00     0.033 C 
HETATM   10  N2  UNL     1       9.251  -9.194 -56.597  1.00  0.00    -0.332 N 
ATOM     11  H2  UNL     1      10.187  -9.256 -56.997  1.00  0.00     0.165 HD
HETATM   12  C11 UNL     1       8.930  -9.000 -55.225  1.00  0.00     0.319 C 
HETATM   13  O2  UNL     1       9.622  -8.450 -54.326  1.00  0.00    -0.247 OA
ENDROOT
BRANCH   1  14
HETATM   14  C2  UNL     1       7.011  -9.782 -53.715  1.00  0.00     0.230 C 
BRANCH  14  15
HETATM   15  C1  UNL     1       6.255  -8.539 -53.263  1.00  0.00     0.239 C 
HETATM   16  O1  UNL     1       6.879  -7.899 -52.358  1.00  0.00    -0.271 OA
HETATM   17  N3  UNL     1       5.027  -8.210 -53.824  1.00  0.00    -0.339 N 
ATOM     18  H3  UNL     1       4.680  -8.859 -54.530  1.00  0.00     0.167 HD
BRANCH  17  19
HETATM   19  C12 UNL     1       4.206  -7.118 -53.559  1.00  0.00     0.068 C 
BRANCH  19  20
HETATM   20  C13 UNL     1       2.855  -7.245 -53.004  1.00  0.00     0.028 C 
HETATM   21  C14 UNL     1       2.658  -8.250 -51.926  1.00  0.00     0.036 C 
HETATM   22  C15 UNL     1       1.105  -8.320 -51.749  1.00  0.00     0.168 C 
HETATM   23  O3  UNL     1       0.762  -7.106 -51.160  1.00  0.00    -0.391 OA
HETATM   24  C16 UNL     1       0.933  -6.018 -51.981  1.00  0.00     0.168 C 
HETATM   25  C17 UNL     1       2.329  -5.878 -52.552  1.00  0.00     0.036 C 
ENDBRANCH  19  20
ENDBRANCH  17  19
ENDBRANCH  14  15
ENDBRANCH   1  14
TORSDOF 4
ENDMDL
MODEL 2
REMARK VINA RESULT: -7.264999701      2.274      3.461
REMARK  4 active torsions:
REMARK  status: ('A' for Active; 'I' for Inactive)
REMARK    1  A    between atoms: C1_2  and  C2_3 
REMARK       I    between atoms: C1_2  and  N3_17 
REMARK    2  A    between atoms: C2_3  and  N1_4 
REMARK    3  A    between atoms: N3_17  and  C12_19 
REMARK    4  A    between atoms: C12_19  and  C13_20 
ROOT
HETATM    1  N1  UNL     1       6.135  -8.501 -56.840  1.00  0.00    -0.323 N 
HETATM    2  C3  UNL     1       7.211  -7.549 -56.798  1.00  0.00     0.159 C 
HETATM    3  C4  UNL     1       8.445  -8.299 -56.306  1.00  0.00     0.051 C 
HETATM    4  C5  UNL     1       9.603  -7.862 -57.092  1.00  0.00     0.033 C 
HETATM    5  C6  UNL     1      10.837  -7.499 -56.361  1.00  0.00     0.002 C 
HETATM    6  C7  UNL     1      10.639  -6.553 -55.222  1.00  0.00     0.000 C 
HETATM    7  C8  UNL     1      10.651  -7.352 -53.940  1.00  0.00     0.000 C 
HETATM    8  C9  UNL     1       9.767  -8.576 -54.182  1.00  0.00     0.002 C 
HETATM    9  C10 UNL     1       8.516  -8.103 -54.827  1.00  0.00     0.033 C 
HETATM   10  N2  UNL     1       8.098  -9.681 -56.554  1.00  0.00    -0.332 N 
ATOM     11  H2  UNL     1       8.749 -10.447 -56.727  1.00  0.00     0.165 HD
HETATM   12  C11 UNL     1       6.679  -9.773 -56.512  1.00  0.00     0.319 C 
HETATM   13  O2  UNL     1       5.963 -10.775 -56.240  1.00  0.00    -0.247 OA
ENDROOT
BRANCH   1  14
HETATM   14  C2  UNL     1       4.771  -8.181 -57.142  1.00  0.00     0.230 C 
BRANCH  14  15
HETATM   15  C1  UNL     1       4.235  -7.163 -56.144  1.00  0.00     0.239 C 
HETATM   16  O1  UNL     1       3.831  -6.098 -56.712  1.00  0.00    -0.271 OA
HETATM   17  N3  UNL     1       4.223  -7.440 -54.782  1.00  0.00    -0.339 N 
ATOM     18  H3  UNL     1       4.607  -8.346 -54.516  1.00  0.00     0.167 HD
BRANCH  17  19
HETATM   19  C12 UNL     1       3.762  -6.654 -53.731  1.00  0.00     0.068 C 
BRANCH  19  20
HETATM   20  C13 UNL     1       2.496  -6.906 -53.034  1.00  0.00     0.028 C 
HETATM   21  C14 UNL     1       2.463  -8.051 -52.085  1.00  0.00     0.036 C 
HETATM   22  C15 UNL     1       0.947  -8.205 -51.728  1.00  0.00     0.168 C 
HETATM   23  O3  UNL     1       0.656  -7.093 -50.943  1.00  0.00    -0.391 OA
HETATM   24  C16 UNL     1       0.694  -5.901 -51.625  1.00  0.00     0.168 C 
HETATM   25  C17 UNL     1       2.001  -5.632 -52.340  1.00  0.00     0.036 C 
ENDBRANCH  19  20
ENDBRANCH  17  19
ENDBRANCH  14  15
ENDBRANCH   1  14
TORSDOF 4
ENDMDL
MODEL 3
REMARK VINA RESULT: -7.241488334      2.921      4.274
REMARK  4 active torsions:
REMARK  status: ('A' for Active; 'I' for Inactive)
REMARK    1  A    between atoms: C1_2  and  C2_3 
REMARK       I    between atoms: C1_2  and  N3_17 
REMARK    2  A    between atoms: C2_3  and  N1_4 
REMARK    3  A    between atoms: N3_17  and  C12_19 
REMARK    4  A    between atoms: C12_19  and  C13_20 
ROOT
HETATM    1  N1  UNL     1       5.354  -5.765 -57.052  1.00  0.00    -0.323 N 
HETATM    2  C3  UNL     1       6.666  -6.135 -56.595  1.00  0.00     0.159 C 
HETATM    3  C4  UNL     1       6.677  -7.655 -56.469  1.00  0.00     0.051 C 
HETATM    4  C5  UNL     1       7.957  -8.158 -56.981  1.00  0.00     0.033 C 
HETATM    5  C6  UNL     1       8.690  -9.143 -56.157  1.00  0.00     0.002 C 
HETATM    6  C7  UNL     1       8.857  -8.765 -54.722  1.00  0.00     0.000 C 
HETATM    7  C8  UNL     1       7.832  -9.525 -53.913  1.00  0.00     0.000 C 
HETATM    8  C9  UNL     1       6.508  -9.405 -54.668  1.00  0.00     0.002 C 
HETATM    9  C10 UNL     1       6.339  -7.980 -55.052  1.00  0.00     0.033 C 
HETATM   10  N2  UNL     1       5.558  -8.051 -57.295  1.00  0.00    -0.332 N 
ATOM     11  H2  UNL     1       5.448  -8.942 -57.780  1.00  0.00     0.165 HD
HETATM   12  C11 UNL     1       4.638  -6.966 -57.306  1.00  0.00     0.319 C 
HETATM   13  O2  UNL     1       3.392  -6.993 -57.499  1.00  0.00    -0.247 OA
ENDROOT
BRANCH   1  14
HETATM   14  C2  UNL     1       4.887  -4.417 -57.194  1.00  0.00     0.230 C 
BRANCH  14  15
HETATM   15  C1  UNL     1       4.095  -4.002 -55.962  1.00  0.00     0.239 C 
HETATM   16  O1  UNL     1       3.853  -2.753 -55.943  1.00  0.00    -0.271 OA
HETATM   17  N3  UNL     1       3.716  -4.941 -55.010  1.00  0.00    -0.339 N 
ATOM     18  H3  UNL     1       4.018  -5.897 -55.193  1.00  0.00     0.167 HD
BRANCH  17  19
HETATM   19  C12 UNL     1       2.981  -4.759 -53.842  1.00  0.00     0.068 C 
BRANCH  19  20
HETATM   20  C13 UNL     1       2.221  -5.834 -53.195  1.00  0.00     0.028 C 
HETATM   21  C14 UNL     1       2.975  -7.052 -52.799  1.00  0.00     0.036 C 
HETATM   22  C15 UNL     1       1.862  -8.075 -52.397  1.00  0.00     0.168 C 
HETATM   23  O3  UNL     1       1.345  -7.582 -51.202  1.00  0.00    -0.391 OA
HETATM   24  C16 UNL     1       0.650  -6.404 -51.337  1.00  0.00     0.168 C 
HETATM   25  C17 UNL     1       1.434  -5.290 -51.998  1.00  0.00     0.036 C 
ENDBRANCH  19  20
ENDBRANCH  17  19
ENDBRANCH  14  15
ENDBRANCH   1  14
TORSDOF 4
ENDMDL
MODEL 4
REMARK VINA RESULT: -7.127435745      1.897      7.454
REMARK  4 active torsions:
REMARK  status: ('A' for Active; 'I' for Inactive)
REMARK    1  A    between atoms: C1_2  and  C2_3 
REMARK       I    between atoms: C1_2  and  N3_17 
REMARK    2  A    between atoms: C2_3  and  N1_4 
REMARK    3  A    between atoms: N3_17  and  C12_19 
REMARK    4  A    between atoms: C12_19  and  C13_20 
ROOT
HETATM    1  N1  UNL     1       5.489  -7.709 -52.687  1.00  0.00    -0.323 N 
HETATM    2  C3  UNL     1       4.394  -7.899 -51.775  1.00  0.00     0.159 C 
HETATM    3  C4  UNL     1       3.118  -7.562 -52.541  1.00  0.00     0.051 C 
HETATM    4  C5  UNL     1       2.090  -8.549 -52.194  1.00  0.00     0.033 C 
HETATM    5  C6  UNL     1       0.745  -8.047 -51.836  1.00  0.00     0.002 C 
HETATM    6  C7  UNL     1       0.730  -6.954 -50.819  1.00  0.00     0.000 C 
HETATM    7  C8  UNL     1       0.535  -5.642 -51.541  1.00  0.00     0.000 C 
HETATM    8  C9  UNL     1       1.480  -5.663 -52.743  1.00  0.00     0.002 C 
HETATM    9  C10 UNL     1       2.805  -6.130 -52.262  1.00  0.00     0.033 C 
HETATM   10  N2  UNL     1       3.539  -7.665 -53.921  1.00  0.00    -0.332 N 
ATOM     11  H2  UNL     1       2.946  -7.890 -54.720  1.00  0.00     0.165 HD
HETATM   12  C11 UNL     1       4.935  -7.392 -53.957  1.00  0.00     0.319 C 
HETATM   13  O2  UNL     1       5.625  -6.946 -54.914  1.00  0.00    -0.247 OA
ENDROOT
BRANCH   1  14
HETATM   14  C2  UNL     1       6.874  -7.811 -52.334  1.00  0.00     0.230 C 
BRANCH  14  15
HETATM   15  C1  UNL     1       7.601  -8.726 -53.310  1.00  0.00     0.239 C 
HETATM   16  O1  UNL     1       7.258  -9.944 -53.175  1.00  0.00    -0.271 OA
HETATM   17  N3  UNL     1       8.521  -8.213 -54.217  1.00  0.00    -0.339 N 
ATOM     18  H3  UNL     1       8.675  -7.206 -54.162  1.00  0.00     0.167 HD
BRANCH  17  19
HETATM   19  C12 UNL     1       9.261  -8.879 -55.188  1.00  0.00     0.068 C 
BRANCH  19  20
HETATM   20  C13 UNL     1       8.855  -8.958 -56.595  1.00  0.00     0.028 C 
HETATM   21  C14 UNL     1       7.640  -9.758 -56.905  1.00  0.00     0.036 C 
HETATM   22  C15 UNL     1       7.638  -9.858 -58.466  1.00  0.00     0.168 C 
HETATM   23  O3  UNL     1       7.330  -8.572 -58.901  1.00  0.00    -0.391 OA
HETATM   24  C16 UNL     1       8.313  -7.646 -58.651  1.00  0.00     0.168 C 
HETATM   25  C17 UNL     1       8.731  -7.555 -57.199  1.00  0.00     0.036 C 
ENDBRANCH  19  20
ENDBRANCH  17  19
ENDBRANCH  14  15
ENDBRANCH   1  14
TORSDOF 4
ENDMDL
MODEL 5
REMARK VINA RESULT: -7.089482042      2.126      2.892
REMARK  4 active torsions:
REMARK  status: ('A' for Active; 'I' for Inactive)
REMARK    1  A    between atoms: C1_2  and  C2_3 
REMARK       I    between atoms: C1_2  and  N3_17 
REMARK    2  A    between atoms: C2_3  and  N1_4 
REMARK    3  A    between atoms: N3_17  and  C12_19 
REMARK    4  A    between atoms: C12_19  and  C13_20 
ROOT
HETATM    1  N1  UNL     1       6.340  -8.390 -55.413  1.00  0.00    -0.323 N 
HETATM    2  C3  UNL     1       5.972  -7.171 -56.078  1.00  0.00     0.159 C 
HETATM    3  C4  UNL     1       5.328  -7.567 -57.403  1.00  0.00     0.051 C 
HETATM    4  C5  UNL     1       4.162  -6.709 -57.633  1.00  0.00     0.033 C 
HETATM    5  C6  UNL     1       4.017  -6.083 -58.965  1.00  0.00     0.002 C 
HETATM    6  C7  UNL     1       5.238  -5.388 -59.472  1.00  0.00     0.000 C 
HETATM    7  C8  UNL     1       5.917  -6.296 -60.469  1.00  0.00     0.000 C 
HETATM    8  C9  UNL     1       5.940  -7.691 -59.841  1.00  0.00     0.002 C 
HETATM    9  C10 UNL     1       6.403  -7.542 -58.438  1.00  0.00     0.033 C 
HETATM   10  N2  UNL     1       4.961  -8.949 -57.178  1.00  0.00    -0.332 N 
ATOM     11  H2  UNL     1       4.202  -9.456 -57.632  1.00  0.00     0.165 HD
HETATM   12  C11 UNL     1       5.859  -9.468 -56.204  1.00  0.00     0.319 C 
HETATM   13  O2  UNL     1       6.211 -10.665 -56.018  1.00  0.00    -0.247 OA
ENDROOT
BRANCH   1  14
HETATM   14  C2  UNL     1       7.076  -8.462 -54.185  1.00  0.00     0.230 C 
BRANCH  14  15
HETATM   15  C1  UNL     1       6.159  -8.175 -53.004  1.00  0.00     0.239 C 
HETATM   16  O1  UNL     1       6.803  -7.792 -51.975  1.00  0.00    -0.271 OA
HETATM   17  N3  UNL     1       4.783  -8.338 -53.115  1.00  0.00    -0.339 N 
ATOM     18  H3  UNL     1       4.453  -8.671 -54.020  1.00  0.00     0.167 HD
BRANCH  17  19
HETATM   19  C12 UNL     1       3.793  -8.111 -52.164  1.00  0.00     0.068 C 
BRANCH  19  20
HETATM   20  C13 UNL     1       2.948  -6.912 -52.154  1.00  0.00     0.028 C 
HETATM   21  C14 UNL     1       2.850  -6.143 -53.422  1.00  0.00     0.036 C 
HETATM   22  C15 UNL     1       2.116  -4.823 -53.011  1.00  0.00     0.168 C 
HETATM   23  O3  UNL     1       0.809  -5.217 -52.740  1.00  0.00    -0.391 OA
HETATM   24  C16 UNL     1       0.682  -6.004 -51.622  1.00  0.00     0.168 C 
HETATM   25  C17 UNL     1       1.547  -7.247 -51.631  1.00  0.00     0.036 C 
ENDBRANCH  19  20
ENDBRANCH  17  19
ENDBRANCH  14  15
ENDBRANCH   1  14
TORSDOF 4
ENDMDL
