MODEL 1
REMARK VINA RESULT: -6.624158078      0.000      0.000
REMARK  5 active torsions:
REMARK  status: ('A' for Active; 'I' for Inactive)
REMARK    1  A    between atoms: C2_2  and  S1_5 
REMARK    2  A    between atoms: S1_5  and  N1_8 
REMARK    3  A    between atoms: N1_8  and  C5_10 
REMARK    4  A    between atoms: C5_10  and  C6_11 
REMARK    5  A    between atoms: C6_11  and  N2_12 
REMARK       I    between atoms: N2_12  and  C7_14 
REMARK       I    between atoms: C7_14  and  N3_16 
ROOT
HETATM    1  C6  UNL     1       6.039  -8.174 -54.180  1.00  0.00     0.051 C 
HETATM    2  C11 UNL     1       7.055  -7.368 -53.444  1.00  0.00     0.033 C 
HETATM    3  C12 UNL     1       8.361  -7.826 -54.055  1.00  0.00     0.002 C 
HETATM    4  C13 UNL     1       8.164  -9.327 -54.065  1.00  0.00     0.002 C 
HETATM    5  C14 UNL     1       6.693  -9.515 -54.338  1.00  0.00     0.033 C 
ENDROOT
BRANCH   1   6
HETATM    6  C5  UNL     1       5.830  -7.629 -55.601  1.00  0.00     0.163 C 
BRANCH   6   7
HETATM    7  N1  UNL     1       4.858  -8.320 -56.333  1.00  0.00    -0.317 N 
ATOM      8  H1  UNL     1       4.465  -9.219 -56.053  1.00  0.00     0.172 HD
BRANCH   7   9
HETATM    9  S1  UNL     1       4.409  -7.487 -57.741  1.00  0.00     0.234 S 
HETATM   10  O1  UNL     1       3.174  -8.171 -58.292  1.00  0.00    -0.205 OA
HETATM   11  O2  UNL     1       3.897  -6.116 -57.275  1.00  0.00    -0.205 OA
BRANCH   9  12
HETATM   12  C2  UNL     1       5.590  -7.285 -58.995  1.00  0.00     0.072 C 
HETATM   13  C1  UNL     1       6.706  -8.264 -59.024  1.00  0.00     0.033 C 
HETATM   14  C3  UNL     1       6.194  -5.892 -58.998  1.00  0.00     0.033 C 
HETATM   15  C4  UNL     1       4.856  -7.431 -60.340  1.00  0.00     0.033 C 
ENDBRANCH   9  12
ENDBRANCH   7   9
ENDBRANCH   6   7
ENDBRANCH   1   6
BRANCH   1  16
HETATM   16  N2  UNL     1       4.767  -8.181 -53.533  1.00  0.00    -0.332 N 
HETATM   17  C7  UNL     1       3.822  -7.136 -53.474  1.00  0.00     0.319 C 
HETATM   18  O3  UNL     1       4.077  -6.052 -54.032  1.00  0.00    -0.247 OA
HETATM   19  N3  UNL     1       2.582  -7.262 -52.804  1.00  0.00    -0.334 N 
HETATM   20  C8  UNL     1       1.417  -6.442 -52.544  1.00  0.00     0.129 C 
HETATM   21  C10 UNL     1       1.933  -8.325 -52.056  1.00  0.00     0.129 C 
HETATM   22  C9  UNL     1       1.067  -7.319 -51.338  1.00  0.00     0.040 C 
ATOM     23  H2  UNL     1       4.511  -9.045 -53.056  1.00  0.00     0.165 HD
ENDBRANCH   1  16
TORSDOF 5
ENDMDL
MODEL 2
REMARK VINA RESULT: -6.612370919      2.435      4.456
REMARK  5 active torsions:
REMARK  status: ('A' for Active; 'I' for Inactive)
REMARK    1  A    between atoms: C2_2  and  S1_5 
REMARK    2  A    between atoms: S1_5  and  N1_8 
REMARK    3  A    between atoms: N1_8  and  C5_10 
REMARK    4  A    between atoms: C5_10  and  C6_11 
REMARK    5  A    between atoms: C6_11  and  N2_12 
REMARK       I    between atoms: N2_12  and  C7_14 
REMARK       I    between atoms: C7_14  and  N3_16 
ROOT
HETATM    1  C6  UNL     1       4.533  -6.909 -55.602  1.00  0.00     0.051 C 
HETATM    2  C11 UNL     1       3.925  -6.766 -56.955  1.00  0.00     0.033 C 
HETATM    3  C12 UNL     1       5.037  -6.136 -57.765  1.00  0.00     0.002 C 
HETATM    4  C13 UNL     1       5.508  -5.056 -56.814  1.00  0.00     0.002 C 
HETATM    5  C14 UNL     1       5.349  -5.660 -55.442  1.00  0.00     0.033 C 
ENDROOT
BRANCH   1   6
HETATM    6  C5  UNL     1       5.530  -8.078 -55.568  1.00  0.00     0.163 C 
BRANCH   6   7
HETATM    7  N1  UNL     1       5.669  -8.666 -54.306  1.00  0.00    -0.317 N 
ATOM      8  H1  UNL     1       4.901  -8.782 -53.644  1.00  0.00     0.172 HD
BRANCH   7   9
HETATM    9  S1  UNL     1       7.262  -9.165 -54.007  1.00  0.00     0.234 S 
HETATM   10  O1  UNL     1       7.199 -10.273 -52.974  1.00  0.00    -0.205 OA
HETATM   11  O2  UNL     1       7.729  -9.876 -55.285  1.00  0.00    -0.205 OA
BRANCH   9  12
HETATM   12  C2  UNL     1       8.427  -7.971 -53.532  1.00  0.00     0.072 C 
HETATM   13  C1  UNL     1       8.201  -7.302 -52.225  1.00  0.00     0.033 C 
HETATM   14  C3  UNL     1       8.605  -6.890 -54.582  1.00  0.00     0.033 C 
HETATM   15  C4  UNL     1       9.788  -8.681 -53.420  1.00  0.00     0.033 C 
ENDBRANCH   9  12
ENDBRANCH   7   9
ENDBRANCH   6   7
ENDBRANCH   1   6
BRANCH   1  16
HETATM   16  N2  UNL     1       3.562  -7.146 -54.583  1.00  0.00    -0.332 N 
HETATM   17  C7  UNL     1       2.832  -6.191 -53.846  1.00  0.00     0.319 C 
HETATM   18  O3  UNL     1       3.021  -4.979 -54.066  1.00  0.00    -0.247 OA
HETATM   19  N3  UNL     1       1.885  -6.546 -52.858  1.00  0.00    -0.334 N 
HETATM   20  C8  UNL     1       0.988  -5.872 -51.942  1.00  0.00     0.129 C 
HETATM   21  C10 UNL     1       1.395  -7.805 -52.325  1.00  0.00     0.129 C 
HETATM   22  C9  UNL     1       0.955  -7.120 -51.055  1.00  0.00     0.040 C 
ATOM     23  H2  UNL     1       3.374  -8.123 -54.361  1.00  0.00     0.165 HD
ENDBRANCH   1  16
TORSDOF 5
ENDMDL
MODEL 3
REMARK VINA RESULT: -6.607002325      1.931      2.303
REMARK  5 active torsions:
REMARK  status: ('A' for Active; 'I' for Inactive)
REMARK    1  A    between atoms: C2_2  and  S1_5 
REMARK    2  A    between atoms: S1_5  and  N1_8 
REMARK    3  A    between atoms: N1_8  and  C5_10 
REMARK    4  A    between atoms: C5_10  and  C6_11 
REMARK    5  A    between atoms: C6_11  and  N2_12 
REMARK       I    between atoms: N2_12  and  C7_14 
REMARK       I    between atoms: C7_14  and  N3_16 
ROOT
HETATM    1  C6  UNL     1       6.359  -8.348 -53.955  1.00  0.00     0.051 C 
HETATM    2  C11 UNL     1       7.262  -7.303 -53.395  1.00  0.00     0.033 C 
HETATM    3  C12 UNL     1       8.634  -7.770 -53.826  1.00  0.00     0.002 C 
HETATM    4  C13 UNL     1       8.557  -9.243 -53.485  1.00  0.00     0.002 C 
HETATM    5  C14 UNL     1       7.125  -9.623 -53.762  1.00  0.00     0.033 C 
ENDROOT
BRANCH   1   6
HETATM    6  C5  UNL     1       6.192  -8.174 -55.473  1.00  0.00     0.163 C 
BRANCH   6   7
HETATM    7  N1  UNL     1       6.261  -9.374 -56.189  1.00  0.00    -0.317 N 
ATOM      8  H1  UNL     1       5.737 -10.215 -55.946  1.00  0.00     0.172 HD
BRANCH   7   9
HETATM    9  S1  UNL     1       7.318  -9.266 -57.512  1.00  0.00     0.234 S 
HETATM   10  O1  UNL     1       8.682  -8.895 -56.967  1.00  0.00    -0.205 OA
HETATM   11  O2  UNL     1       7.501 -10.702 -58.024  1.00  0.00    -0.205 OA
BRANCH   9  12
HETATM   12  C2  UNL     1       6.894  -8.217 -58.826  1.00  0.00     0.072 C 
HETATM   13  C1  UNL     1       5.496  -7.718 -58.857  1.00  0.00     0.033 C 
HETATM   14  C3  UNL     1       7.195  -8.838 -60.179  1.00  0.00     0.033 C 
HETATM   15  C4  UNL     1       7.792  -6.971 -58.723  1.00  0.00     0.033 C 
ENDBRANCH   9  12
ENDBRANCH   7   9
ENDBRANCH   6   7
ENDBRANCH   1   6
BRANCH   1  16
HETATM   16  N2  UNL     1       5.055  -8.318 -53.375  1.00  0.00    -0.332 N 
HETATM   17  C7  UNL     1       4.090  -7.294 -53.470  1.00  0.00     0.319 C 
HETATM   18  O3  UNL     1       4.355  -6.266 -54.122  1.00  0.00    -0.247 OA
HETATM   19  N3  UNL     1       2.820  -7.379 -52.853  1.00  0.00    -0.334 N 
HETATM   20  C8  UNL     1       1.629  -6.564 -52.737  1.00  0.00     0.129 C 
HETATM   21  C10 UNL     1       2.151  -8.376 -52.035  1.00  0.00     0.129 C 
HETATM   22  C9  UNL     1       1.232  -7.323 -51.467  1.00  0.00     0.040 C 
ATOM     23  H2  UNL     1       4.789  -9.136 -52.827  1.00  0.00     0.165 HD
ENDBRANCH   1  16
TORSDOF 5
ENDMDL
MODEL 4
REMARK VINA RESULT: -6.533373372      1.338      1.468
REMARK  5 active torsions:
REMARK  status: ('A' for Active; 'I' for Inactive)
REMARK    1  A    between atoms: C2_2  and  S1_5 
REMARK    2  A    between atoms: S1_5  and  N1_8 
REMARK    3  A    between atoms: N1_8  and  C5_10 
REMARK    4  A    between atoms: C5_10  and  C6_11 
REMARK    5  A    between atoms: C6_11  and  N2_12 
REMARK       I    between atoms: N2_12  and  C7_14 
REMARK       I    between atoms: C7_14  and  N3_16 
ROOT
HETATM    1  C6  UNL     1       6.134  -8.429 -55.370  1.00  0.00     0.051 C 
HETATM    2  C11 UNL     1       7.158  -7.346 -55.354  1.00  0.00     0.033 C 
HETATM    3  C12 UNL     1       8.405  -8.048 -55.844  1.00  0.00     0.002 C 
HETATM    4  C13 UNL     1       8.357  -9.323 -55.028  1.00  0.00     0.002 C 
HETATM    5  C14 UNL     1       6.888  -9.640 -54.906  1.00  0.00     0.033 C 
ENDROOT
BRANCH   1   6
HETATM    6  C5  UNL     1       5.676  -8.733 -56.805  1.00  0.00     0.163 C 
BRANCH   6   7
HETATM    7  N1  UNL     1       4.299  -8.585 -57.002  1.00  0.00    -0.317 N 
ATOM      8  H1  UNL     1       3.602  -9.259 -56.684  1.00  0.00     0.172 HD
BRANCH   7   9
HETATM    9  S1  UNL     1       3.923  -7.153 -57.830  1.00  0.00     0.234 S 
HETATM   10  O1  UNL     1       2.499  -7.285 -58.330  1.00  0.00    -0.205 OA
HETATM   11  O2  UNL     1       3.840  -6.056 -56.759  1.00  0.00    -0.205 OA
BRANCH   9  12
HETATM   12  C2  UNL     1       4.965  -6.646 -59.120  1.00  0.00     0.072 C 
HETATM   13  C1  UNL     1       5.496  -7.712 -60.007  1.00  0.00     0.033 C 
HETATM   14  C3  UNL     1       6.144  -5.829 -58.621  1.00  0.00     0.033 C 
HETATM   15  C4  UNL     1       4.149  -5.703 -60.022  1.00  0.00     0.033 C 
ENDBRANCH   9  12
ENDBRANCH   7   9
ENDBRANCH   6   7
ENDBRANCH   1   6
BRANCH   1  16
HETATM   16  N2  UNL     1       4.971  -8.099 -54.611  1.00  0.00    -0.332 N 
HETATM   17  C7  UNL     1       4.863  -7.959 -53.212  1.00  0.00     0.319 C 
HETATM   18  O3  UNL     1       5.871  -8.139 -52.503  1.00  0.00    -0.247 OA
HETATM   19  N3  UNL     1       3.650  -7.622 -52.567  1.00  0.00    -0.334 N 
HETATM   20  C8  UNL     1       3.181  -7.402 -51.215  1.00  0.00     0.129 C 
HETATM   21  C10 UNL     1       2.299  -7.342 -53.023  1.00  0.00     0.129 C 
HETATM   22  C9  UNL     1       1.746  -7.694 -51.664  1.00  0.00     0.040 C 
ATOM     23  H2  UNL     1       4.115  -7.947 -55.144  1.00  0.00     0.165 HD
ENDBRANCH   1  16
TORSDOF 5
ENDMDL
MODEL 5
REMARK VINA RESULT: -6.493332257      2.150      2.469
REMARK  5 active torsions:
REMARK  status: ('A' for Active; 'I' for Inactive)
REMARK    1  A    between atoms: C2_2  and  S1_5 
REMARK    2  A    between atoms: S1_5  and  N1_8 
REMARK    3  A    between atoms: N1_8  and  C5_10 
REMARK    4  A    between atoms: C5_10  and  C6_11 
REMARK    5  A    between atoms: C6_11  and  N2_12 
REMARK       I    between atoms: N2_12  and  C7_14 
REMARK       I    between atoms: C7_14  and  N3_16 
ROOT
HETATM    1  C6  UNL     1       6.481  -8.384 -53.895  1.00  0.00     0.051 C 
HETATM    2  C11 UNL     1       7.317  -7.221 -53.485  1.00  0.00     0.033 C 
HETATM    3  C12 UNL     1       8.719  -7.665 -53.840  1.00  0.00     0.002 C 
HETATM    4  C13 UNL     1       8.721  -9.077 -53.293  1.00  0.00     0.002 C 
HETATM    5  C14 UNL     1       7.315  -9.574 -53.520  1.00  0.00     0.033 C 
ENDROOT
BRANCH   1   6
HETATM    6  C5  UNL     1       6.324  -8.437 -55.423  1.00  0.00     0.163 C 
BRANCH   6   7
HETATM    7  N1  UNL     1       6.818  -9.612 -56.001  1.00  0.00    -0.317 N 
ATOM      8  H1  UNL     1       6.790 -10.526 -55.548  1.00  0.00     0.172 HD
BRANCH   7   9
HETATM    9  S1  UNL     1       7.467  -9.339 -57.544  1.00  0.00     0.234 S 
HETATM   10  O1  UNL     1       7.603 -10.689 -58.219  1.00  0.00    -0.205 OA
HETATM   11  O2  UNL     1       6.366  -8.632 -58.347  1.00  0.00    -0.205 OA
BRANCH   9  12
HETATM   12  C2  UNL     1       8.955  -8.456 -57.671  1.00  0.00     0.072 C 
HETATM   13  C1  UNL     1      10.073  -8.904 -56.802  1.00  0.00     0.033 C 
HETATM   14  C3  UNL     1       8.761  -6.967 -57.446  1.00  0.00     0.033 C 
HETATM   15  C4  UNL     1       9.451  -8.604 -59.120  1.00  0.00     0.033 C 
ENDBRANCH   9  12
ENDBRANCH   7   9
ENDBRANCH   6   7
ENDBRANCH   1   6
BRANCH   1  16
HETATM   16  N2  UNL     1       5.171  -8.348 -53.332  1.00  0.00    -0.332 N 
HETATM   17  C7  UNL     1       4.193  -7.343 -53.482  1.00  0.00     0.319 C 
HETATM   18  O3  UNL     1       4.452  -6.341 -54.175  1.00  0.00    -0.247 OA
HETATM   19  N3  UNL     1       2.917  -7.419 -52.875  1.00  0.00    -0.334 N 
HETATM   20  C8  UNL     1       1.714  -6.616 -52.808  1.00  0.00     0.129 C 
HETATM   21  C10 UNL     1       2.253  -8.388 -52.022  1.00  0.00     0.129 C 
HETATM   22  C9  UNL     1       1.313  -7.324 -51.511  1.00  0.00     0.040 C 
ATOM     23  H2  UNL     1       4.910  -9.144 -52.750  1.00  0.00     0.165 HD
ENDBRANCH   1  16
TORSDOF 5
ENDMDL
