MODEL 1
REMARK VINA RESULT: -7.430760478      0.000      0.000
REMARK  4 active torsions:
REMARK  status: ('A' for Active; 'I' for Inactive)
REMARK       I    between atoms: C1_2  and  N1_3 
REMARK       I    between atoms: C1_2  and  N2_11 
REMARK    1  A    between atoms: N1_3  and  C2_5 
REMARK    2  A    between atoms: C11_15  and  C12_16 
REMARK    3  A    between atoms: C12_16  and  C13_17 
REMARK    4  A    between atoms: C13_17  and  N3_18 
ROOT
HETATM    1  O1  UNL     1       6.609  -7.398 -52.071  1.00  0.00    -0.247 OA
HETATM    2  C1  UNL     1       6.222  -8.209 -52.951  1.00  0.00     0.318 C 
HETATM    3  N1  UNL     1       4.831  -8.349 -53.165  1.00  0.00    -0.338 N 
ATOM      4  H1  UNL     1       4.501  -9.002 -53.874  1.00  0.00     0.164 HD
HETATM    5  N2  UNL     1       7.206  -8.923 -53.663  1.00  0.00    -0.334 N 
HETATM    6  C8  UNL     1       6.925  -9.897 -54.708  1.00  0.00     0.127 C 
HETATM    7  C9  UNL     1       7.456  -9.304 -55.987  1.00  0.00     0.020 C 
HETATM    8  C10 UNL     1       8.852  -8.819 -55.932  1.00  0.00     0.008 C 
HETATM    9  C11 UNL     1       9.383  -8.353 -54.645  1.00  0.00     0.005 C 
HETATM   10  C18 UNL     1       8.629  -8.746 -53.413  1.00  0.00     0.132 C 
ENDROOT
BRANCH   3  11
HETATM   11  C2  UNL     1       3.865  -7.589 -52.404  1.00  0.00     0.086 C 
HETATM   12  C3  UNL     1       3.124  -6.710 -53.388  1.00  0.00     0.025 C 
HETATM   13  C4  UNL     1       1.898  -6.074 -52.818  1.00  0.00     0.002 C 
HETATM   14  C5  UNL     1       1.183  -6.906 -51.800  1.00  0.00     0.000 C 
HETATM   15  C6  UNL     1       1.493  -8.370 -52.109  1.00  0.00     0.002 C 
HETATM   16  C7  UNL     1       2.943  -8.582 -51.733  1.00  0.00     0.025 C 
ENDBRANCH   3  11
BRANCH   9  17
HETATM   17  C12 UNL     1      10.829  -8.748 -54.466  1.00  0.00     0.036 C 
BRANCH  17  18
HETATM   18  C13 UNL     1      11.740  -8.331 -55.566  1.00  0.00     0.273 C 
BRANCH  18  19
HETATM   19  N3  UNL     1      12.711  -7.360 -55.127  1.00  0.00     0.092 N 
HETATM   20  C14 UNL     1      12.117  -6.131 -54.662  1.00  0.00     0.298 C 
HETATM   21  C15 UNL     1      13.236  -5.206 -54.171  1.00  0.00     0.198 C 
HETATM   22  O2  UNL     1      13.770  -5.835 -53.053  1.00  0.00    -0.388 OA
HETATM   23  C16 UNL     1      14.455  -6.949 -53.447  1.00  0.00     0.198 C 
HETATM   24  C17 UNL     1      13.638  -7.941 -54.223  1.00  0.00     0.298 C 
ENDBRANCH  18  19
ENDBRANCH  17  18
ENDBRANCH   9  17
TORSDOF 4
ENDMDL
MODEL 2
REMARK VINA RESULT: -7.148257508      1.810      2.673
REMARK  4 active torsions:
REMARK  status: ('A' for Active; 'I' for Inactive)
REMARK       I    between atoms: C1_2  and  N1_3 
REMARK       I    between atoms: C1_2  and  N2_11 
REMARK    1  A    between atoms: N1_3  and  C2_5 
REMARK    2  A    between atoms: C11_15  and  C12_16 
REMARK    3  A    between atoms: C12_16  and  C13_17 
REMARK    4  A    between atoms: C13_17  and  N3_18 
ROOT
HETATM    1  O1  UNL     1       4.087  -7.023 -55.264  1.00  0.00    -0.247 OA
HETATM    2  C1  UNL     1       4.731  -7.305 -54.221  1.00  0.00     0.318 C 
HETATM    3  N1  UNL     1       4.039  -7.309 -52.989  1.00  0.00    -0.338 N 
ATOM      4  H1  UNL     1       4.547  -7.535 -52.134  1.00  0.00     0.164 HD
HETATM    5  N2  UNL     1       6.104  -7.598 -54.357  1.00  0.00    -0.334 N 
HETATM    6  C8  UNL     1       6.987  -7.940 -53.251  1.00  0.00     0.127 C 
HETATM    7  C9  UNL     1       7.396  -9.373 -53.470  1.00  0.00     0.020 C 
HETATM    8  C10 UNL     1       7.917  -9.688 -54.818  1.00  0.00     0.008 C 
HETATM    9  C11 UNL     1       7.445  -8.890 -55.956  1.00  0.00     0.005 C 
HETATM   10  C18 UNL     1       6.778  -7.586 -55.646  1.00  0.00     0.132 C 
ENDROOT
BRANCH   3  11
HETATM   11  C2  UNL     1       2.628  -7.000 -52.909  1.00  0.00     0.086 C 
HETATM   12  C3  UNL     1       2.130  -7.563 -51.596  1.00  0.00     0.025 C 
HETATM   13  C4  UNL     1       0.765  -7.085 -51.218  1.00  0.00     0.002 C 
HETATM   14  C5  UNL     1       0.455  -5.688 -51.652  1.00  0.00     0.000 C 
HETATM   15  C6  UNL     1       1.782  -4.936 -51.749  1.00  0.00     0.002 C 
HETATM   16  C7  UNL     1       2.496  -5.495 -52.960  1.00  0.00     0.025 C 
ENDBRANCH   3  11
BRANCH   9  17
HETATM   17  C12 UNL     1       8.552  -8.635 -56.951  1.00  0.00     0.036 C 
BRANCH  17  18
HETATM   18  C13 UNL     1       9.129  -7.265 -56.917  1.00  0.00     0.273 C 
BRANCH  18  19
HETATM   19  N3  UNL     1      10.423  -7.237 -56.282  1.00  0.00     0.092 N 
HETATM   20  C14 UNL     1      10.376  -6.793 -54.912  1.00  0.00     0.298 C 
HETATM   21  C15 UNL     1      11.791  -6.861 -54.329  1.00  0.00     0.198 C 
HETATM   22  O2  UNL     1      12.111  -8.212 -54.296  1.00  0.00    -0.388 OA
HETATM   23  C16 UNL     1      12.292  -8.664 -55.572  1.00  0.00     0.198 C 
HETATM   24  C17 UNL     1      11.111  -8.463 -56.477  1.00  0.00     0.298 C 
ENDBRANCH  18  19
ENDBRANCH  17  18
ENDBRANCH   9  17
TORSDOF 4
ENDMDL
MODEL 3
REMARK VINA RESULT: -7.118496015      1.053      1.169
REMARK  4 active torsions:
REMARK  status: ('A' for Active; 'I' for Inactive)
REMARK       I    between atoms: C1_2  and  N1_3 
REMARK       I    between atoms: C1_2  and  N2_11 
REMARK    1  A    between atoms: N1_3  and  C2_5 
REMARK    2  A    between atoms: C11_15  and  C12_16 
REMARK    3  A    between atoms: C12_16  and  C13_17 
REMARK    4  A    between atoms: C13_17  and  N3_18 
ROOT
HETATM    1  O1  UNL     1       5.995  -7.806 -52.363  1.00  0.00    -0.247 OA
HETATM    2  C1  UNL     1       5.461  -8.002 -53.485  1.00  0.00     0.318 C 
HETATM    3  N1  UNL     1       4.080  -7.734 -53.623  1.00  0.00    -0.338 N 
ATOM      4  H1  UNL     1       3.632  -7.889 -54.525  1.00  0.00     0.164 HD
HETATM    5  N2  UNL     1       6.281  -8.478 -54.528  1.00  0.00    -0.334 N 
HETATM    6  C8  UNL     1       5.818  -8.758 -55.880  1.00  0.00     0.127 C 
HETATM    7  C9  UNL     1       6.499  -7.753 -56.772  1.00  0.00     0.020 C 
HETATM    8  C10 UNL     1       7.965  -7.652 -56.613  1.00  0.00     0.008 C 
HETATM    9  C11 UNL     1       8.554  -7.973 -55.307  1.00  0.00     0.005 C 
HETATM   10  C18 UNL     1       7.701  -8.739 -54.344  1.00  0.00     0.132 C 
ENDROOT
BRANCH   3  11
HETATM   11  C2  UNL     1       3.286  -7.246 -52.517  1.00  0.00     0.086 C 
HETATM   12  C3  UNL     1       2.279  -6.276 -53.095  1.00  0.00     0.025 C 
HETATM   13  C4  UNL     1       1.194  -5.899 -52.139  1.00  0.00     0.002 C 
HETATM   14  C5  UNL     1       0.798  -6.985 -51.189  1.00  0.00     0.000 C 
HETATM   15  C6  UNL     1       1.106  -8.318 -51.869  1.00  0.00     0.002 C 
HETATM   16  C7  UNL     1       2.614  -8.444 -51.886  1.00  0.00     0.025 C 
ENDBRANCH   3  11
BRANCH   9  17
HETATM   17  C12 UNL     1       9.872  -8.694 -55.455  1.00  0.00     0.036 C 
BRANCH  17  18
HETATM   18  C13 UNL     1      10.803  -8.552 -54.303  1.00  0.00     0.273 C 
BRANCH  18  19
HETATM   19  N3  UNL     1      12.019  -7.871 -54.671  1.00  0.00     0.092 N 
HETATM   20  C14 UNL     1      12.049  -6.492 -54.251  1.00  0.00     0.298 C 
HETATM   21  C15 UNL     1      13.403  -5.893 -54.643  1.00  0.00     0.198 C 
HETATM   22  O2  UNL     1      14.341  -6.562 -53.866  1.00  0.00    -0.388 OA
HETATM   23  C16 UNL     1      14.447  -7.852 -54.301  1.00  0.00     0.198 C 
HETATM   24  C17 UNL     1      13.159  -8.624 -54.287  1.00  0.00     0.298 C 
ENDBRANCH  18  19
ENDBRANCH  17  18
ENDBRANCH   9  17
TORSDOF 4
ENDMDL
MODEL 4
REMARK VINA RESULT: -7.114219499      1.476      1.839
REMARK  4 active torsions:
REMARK  status: ('A' for Active; 'I' for Inactive)
REMARK       I    between atoms: C1_2  and  N1_3 
REMARK       I    between atoms: C1_2  and  N2_11 
REMARK    1  A    between atoms: N1_3  and  C2_5 
REMARK    2  A    between atoms: C11_15  and  C12_16 
REMARK    3  A    between atoms: C12_16  and  C13_17 
REMARK    4  A    between atoms: C13_17  and  N3_18 
ROOT
HETATM    1  O1  UNL     1       5.950  -7.744 -52.351  1.00  0.00    -0.247 OA
HETATM    2  C1  UNL     1       5.418  -7.949 -53.472  1.00  0.00     0.318 C 
HETATM    3  N1  UNL     1       4.032  -7.709 -53.607  1.00  0.00    -0.338 N 
ATOM      4  H1  UNL     1       3.585  -7.871 -54.509  1.00  0.00     0.164 HD
HETATM    5  N2  UNL     1       6.246  -8.408 -54.517  1.00  0.00    -0.334 N 
HETATM    6  C8  UNL     1       5.786  -8.695 -55.869  1.00  0.00     0.127 C 
HETATM    7  C9  UNL     1       6.445  -7.675 -56.760  1.00  0.00     0.020 C 
HETATM    8  C10 UNL     1       7.910  -7.545 -56.604  1.00  0.00     0.008 C 
HETATM    9  C11 UNL     1       8.506  -7.856 -55.299  1.00  0.00     0.005 C 
HETATM   10  C18 UNL     1       7.670  -8.640 -54.336  1.00  0.00     0.132 C 
ENDROOT
BRANCH   3  11
HETATM   11  C2  UNL     1       3.230  -7.238 -52.500  1.00  0.00     0.086 C 
HETATM   12  C3  UNL     1       2.202  -6.288 -53.074  1.00  0.00     0.025 C 
HETATM   13  C4  UNL     1       1.112  -5.934 -52.116  1.00  0.00     0.002 C 
HETATM   14  C5  UNL     1       0.739  -7.029 -51.167  1.00  0.00     0.000 C 
HETATM   15  C6  UNL     1       1.074  -8.355 -51.848  1.00  0.00     0.002 C 
HETATM   16  C7  UNL     1       2.584  -8.450 -51.868  1.00  0.00     0.025 C 
ENDBRANCH   3  11
BRANCH   9  17
HETATM   17  C12 UNL     1       9.839  -8.550 -55.450  1.00  0.00     0.036 C 
BRANCH  17  18
HETATM   18  C13 UNL     1      10.723  -8.488 -54.256  1.00  0.00     0.273 C 
BRANCH  18  19
HETATM   19  N3  UNL     1      12.020  -7.944 -54.569  1.00  0.00     0.092 N 
HETATM   20  C14 UNL     1      13.108  -8.810 -54.190  1.00  0.00     0.298 C 
HETATM   21  C15 UNL     1      14.425  -8.157 -54.622  1.00  0.00     0.198 C 
HETATM   22  O2  UNL     1      14.393  -8.148 -56.011  1.00  0.00    -0.388 OA
HETATM   23  C16 UNL     1      13.459  -7.247 -56.435  1.00  0.00     0.198 C 
HETATM   24  C17 UNL     1      12.072  -7.495 -55.915  1.00  0.00     0.298 C 
ENDBRANCH  18  19
ENDBRANCH  17  18
ENDBRANCH   9  17
TORSDOF 4
ENDMDL
MODEL 5
REMARK VINA RESULT: -7.113673845      3.459      4.228
REMARK  4 active torsions:
REMARK  status: ('A' for Active; 'I' for Inactive)
REMARK       I    between atoms: C1_2  and  N1_3 
REMARK       I    between atoms: C1_2  and  N2_11 
REMARK    1  A    between atoms: N1_3  and  C2_5 
REMARK    2  A    between atoms: C11_15  and  C12_16 
REMARK    3  A    between atoms: C12_16  and  C13_17 
REMARK    4  A    between atoms: C13_17  and  N3_18 
ROOT
HETATM    1  O1  UNL     1       4.131  -7.017 -55.295  1.00  0.00    -0.247 OA
HETATM    2  C1  UNL     1       4.779  -7.300 -54.255  1.00  0.00     0.318 C 
HETATM    3  N1  UNL     1       4.085  -7.324 -53.023  1.00  0.00    -0.338 N 
ATOM      4  H1  UNL     1       4.596  -7.551 -52.170  1.00  0.00     0.164 HD
HETATM    5  N2  UNL     1       6.155  -7.572 -54.392  1.00  0.00    -0.334 N 
HETATM    6  C8  UNL     1       7.043  -7.911 -53.289  1.00  0.00     0.127 C 
HETATM    7  C9  UNL     1       7.472  -9.337 -53.521  1.00  0.00     0.020 C 
HETATM    8  C10 UNL     1       7.998  -9.632 -54.871  1.00  0.00     0.008 C 
HETATM    9  C11 UNL     1       7.515  -8.830 -56.003  1.00  0.00     0.005 C 
HETATM   10  C18 UNL     1       6.829  -7.539 -55.681  1.00  0.00     0.132 C 
ENDROOT
BRANCH   3  11
HETATM   11  C2  UNL     1       2.671  -7.037 -52.941  1.00  0.00     0.086 C 
HETATM   12  C3  UNL     1       2.191  -7.571 -51.610  1.00  0.00     0.025 C 
HETATM   13  C4  UNL     1       0.821  -7.105 -51.235  1.00  0.00     0.002 C 
HETATM   14  C5  UNL     1       0.485  -5.725 -51.705  1.00  0.00     0.000 C 
HETATM   15  C6  UNL     1       1.799  -4.955 -51.833  1.00  0.00     0.002 C 
HETATM   16  C7  UNL     1       2.513  -5.536 -53.033  1.00  0.00     0.025 C 
ENDBRANCH   3  11
BRANCH   9  17
HETATM   17  C12 UNL     1       8.618  -8.550 -56.995  1.00  0.00     0.036 C 
BRANCH  17  18
HETATM   18  C13 UNL     1       8.450  -9.194 -58.326  1.00  0.00     0.273 C 
BRANCH  18  19
HETATM   19  N3  UNL     1       9.714  -9.567 -58.911  1.00  0.00     0.092 N 
HETATM   20  C14 UNL     1      10.830  -9.393 -58.015  1.00  0.00     0.298 C 
HETATM   21  C15 UNL     1      12.101  -9.873 -58.723  1.00  0.00     0.198 C 
HETATM   22  O2  UNL     1      11.936 -11.243 -58.887  1.00  0.00    -0.388 OA
HETATM   23  C16 UNL     1      10.969 -11.471 -59.824  1.00  0.00     0.198 C 
HETATM   24  C17 UNL     1       9.637 -10.852 -59.509  1.00  0.00     0.298 C 
ENDBRANCH  18  19
ENDBRANCH  17  18
ENDBRANCH   9  17
TORSDOF 4
ENDMDL
