MODEL 1
REMARK VINA RESULT: -6.581428021      0.000      0.000
REMARK  5 active torsions:
REMARK  status: ('A' for Active; 'I' for Inactive)
REMARK    1  A    between atoms: C3_4  and  C4_5 
REMARK       I    between atoms: C4_5  and  N1_7 
REMARK    2  A    between atoms: C7_13  and  C8_14 
REMARK    3  A    between atoms: C8_14  and  C9_15 
REMARK       I    between atoms: C9_15  and  N4_17 
REMARK    4  A    between atoms: N4_17  and  C11_19 
REMARK    5  A    between atoms: C11_19  and  C12_20 
ROOT
HETATM    1  C1  UNL     1       2.302  -4.903 -53.083  1.00  0.00     0.057 C 
HETATM    2  C2  UNL     1       3.031  -4.295 -54.223  1.00  0.00    -0.010 A 
HETATM    3  S1  UNL     1       3.067  -2.597 -54.558  1.00  0.00    -0.089 SA
HETATM    4  C3  UNL     1       4.035  -2.617 -55.948  1.00  0.00     0.074 A 
HETATM    5  C6  UNL     1       4.311  -3.919 -56.125  1.00  0.00     0.037 A 
HETATM    6  C7  UNL     1       3.791  -4.815 -55.227  1.00  0.00    -0.017 A 
ENDROOT
BRANCH   6   7
HETATM    7  C8  UNL     1       4.105  -6.277 -55.417  1.00  0.00     0.086 C 
BRANCH   7   8
HETATM    8  C9  UNL     1       5.115  -6.883 -54.632  1.00  0.00     0.243 C 
HETATM    9  O2  UNL     1       4.841  -7.385 -53.509  1.00  0.00    -0.268 OA
HETATM   10  N4  UNL     1       6.476  -6.958 -55.034  1.00  0.00    -0.352 N 
HETATM   11  C10 UNL     1       6.882  -6.523 -56.385  1.00  0.00     0.152 C 
BRANCH  10  12
HETATM   12  C11 UNL     1       7.566  -7.362 -54.194  1.00  0.00     0.133 C 
BRANCH  12  13
HETATM   13  C12 UNL     1       8.030  -8.759 -54.198  1.00  0.00    -0.035 C 
HETATM   14  C13 UNL     1       8.346  -9.343 -55.557  1.00  0.00     0.016 C 
HETATM   15  C14 UNL     1       7.300  -9.729 -53.345  1.00  0.00     0.016 C 
HETATM   16  C15 UNL     1       9.468  -8.663 -53.549  1.00  0.00     0.016 C 
ENDBRANCH  12  13
ENDBRANCH  10  12
ENDBRANCH   7   8
ENDBRANCH   6   7
BRANCH   4  17
HETATM   17  C4  UNL     1       4.456  -1.466 -56.745  1.00  0.00     0.264 C 
HETATM   18  O1  UNL     1       3.695  -1.084 -57.660  1.00  0.00    -0.267 OA
HETATM   19  N1  UNL     1       5.649  -0.791 -56.534  1.00  0.00    -0.299 N 
HETATM   20  C5  UNL     1       6.189  -0.274 -55.534  1.00  0.00     0.203 C 
ATOM     21  H1  UNL     1       6.208  -0.698 -57.381  1.00  0.00     0.171 HD
HETATM   22  N2  UNL     1       5.672  -0.231 -54.196  1.00  0.00    -0.066 NA
HETATM   23  N3  UNL     1       7.480   0.372 -55.681  1.00  0.00    -0.066 NA
ENDBRANCH   4  17
TORSDOF 5
ENDMDL
MODEL 2
REMARK VINA RESULT: -6.463046259      1.512      1.915
REMARK  5 active torsions:
REMARK  status: ('A' for Active; 'I' for Inactive)
REMARK    1  A    between atoms: C3_4  and  C4_5 
REMARK       I    between atoms: C4_5  and  N1_7 
REMARK    2  A    between atoms: C7_13  and  C8_14 
REMARK    3  A    between atoms: C8_14  and  C9_15 
REMARK       I    between atoms: C9_15  and  N4_17 
REMARK    4  A    between atoms: N4_17  and  C11_19 
REMARK    5  A    between atoms: C11_19  and  C12_20 
ROOT
HETATM    1  C1  UNL     1       1.846  -5.567 -52.928  1.00  0.00     0.057 C 
HETATM    2  C2  UNL     1       2.666  -4.683 -53.794  1.00  0.00    -0.010 A 
HETATM    3  S1  UNL     1       2.632  -2.953 -53.724  1.00  0.00    -0.089 SA
HETATM    4  C3  UNL     1       3.758  -2.613 -54.943  1.00  0.00     0.074 A 
HETATM    5  C6  UNL     1       4.135  -3.826 -55.377  1.00  0.00     0.037 A 
HETATM    6  C7  UNL     1       3.570  -4.926 -54.783  1.00  0.00    -0.017 A 
ENDROOT
BRANCH   6   7
HETATM    7  C8  UNL     1       3.997  -6.290 -55.260  1.00  0.00     0.086 C 
BRANCH   7   8
HETATM    8  C9  UNL     1       5.001  -6.995 -54.554  1.00  0.00     0.243 C 
HETATM    9  O2  UNL     1       4.705  -7.707 -53.557  1.00  0.00    -0.268 OA
HETATM   10  N4  UNL     1       6.379  -6.946 -54.899  1.00  0.00    -0.352 N 
HETATM   11  C10 UNL     1       6.819  -6.253 -56.125  1.00  0.00     0.152 C 
BRANCH  10  12
HETATM   12  C11 UNL     1       7.451  -7.460 -54.097  1.00  0.00     0.133 C 
BRANCH  12  13
HETATM   13  C12 UNL     1       7.866  -8.866 -54.223  1.00  0.00    -0.035 C 
HETATM   14  C13 UNL     1       7.799  -9.449 -55.618  1.00  0.00     0.016 C 
HETATM   15  C14 UNL     1       7.365  -9.826 -53.208  1.00  0.00     0.016 C 
HETATM   16  C15 UNL     1       9.427  -8.806 -53.976  1.00  0.00     0.016 C 
ENDBRANCH  12  13
ENDBRANCH  10  12
ENDBRANCH   7   8
ENDBRANCH   6   7
BRANCH   4  17
HETATM   17  C4  UNL     1       4.196  -1.293 -55.394  1.00  0.00     0.264 C 
HETATM   18  O1  UNL     1       4.883  -0.608 -54.604  1.00  0.00    -0.267 OA
HETATM   19  N1  UNL     1       3.884  -0.773 -56.641  1.00  0.00    -0.299 N 
HETATM   20  C5  UNL     1       4.004  -1.193 -57.811  1.00  0.00     0.203 C 
ATOM     21  H1  UNL     1       3.464   0.154 -56.592  1.00  0.00     0.171 HD
HETATM   22  N2  UNL     1       4.552  -2.451 -58.228  1.00  0.00    -0.066 NA
HETATM   23  N3  UNL     1       3.560  -0.357 -58.911  1.00  0.00    -0.066 NA
ENDBRANCH   4  17
TORSDOF 5
ENDMDL
MODEL 3
REMARK VINA RESULT: -6.383413081      1.101      1.610
REMARK  5 active torsions:
REMARK  status: ('A' for Active; 'I' for Inactive)
REMARK    1  A    between atoms: C3_4  and  C4_5 
REMARK       I    between atoms: C4_5  and  N1_7 
REMARK    2  A    between atoms: C7_13  and  C8_14 
REMARK    3  A    between atoms: C8_14  and  C9_15 
REMARK       I    between atoms: C9_15  and  N4_17 
REMARK    4  A    between atoms: N4_17  and  C11_19 
REMARK    5  A    between atoms: C11_19  and  C12_20 
ROOT
HETATM    1  C1  UNL     1       1.938  -4.560 -52.772  1.00  0.00     0.057 C 
HETATM    2  C2  UNL     1       2.814  -4.225 -53.922  1.00  0.00    -0.010 A 
HETATM    3  S1  UNL     1       2.992  -2.630 -54.573  1.00  0.00    -0.089 SA
HETATM    4  C3  UNL     1       4.089  -2.970 -55.819  1.00  0.00     0.074 A 
HETATM    5  C6  UNL     1       4.295  -4.292 -55.711  1.00  0.00     0.037 A 
HETATM    6  C7  UNL     1       3.632  -4.967 -54.718  1.00  0.00    -0.017 A 
ENDROOT
BRANCH   6   7
HETATM    7  C8  UNL     1       3.868  -6.450 -54.587  1.00  0.00     0.086 C 
BRANCH   7   8
HETATM    8  C9  UNL     1       5.144  -6.984 -54.886  1.00  0.00     0.243 C 
HETATM    9  O2  UNL     1       6.065  -6.968 -54.027  1.00  0.00    -0.268 OA
HETATM   10  N4  UNL     1       5.476  -7.552 -56.146  1.00  0.00    -0.352 N 
HETATM   11  C10 UNL     1       4.438  -7.744 -57.178  1.00  0.00     0.152 C 
BRANCH  10  12
HETATM   12  C11 UNL     1       6.799  -7.907 -56.571  1.00  0.00     0.133 C 
BRANCH  12  13
HETATM   13  C12 UNL     1       7.361  -9.223 -56.231  1.00  0.00    -0.035 C 
HETATM   14  C13 UNL     1       6.357 -10.338 -56.037  1.00  0.00     0.016 C 
HETATM   15  C14 UNL     1       8.431  -9.270 -55.203  1.00  0.00     0.016 C 
HETATM   16  C15 UNL     1       8.078  -9.666 -57.569  1.00  0.00     0.016 C 
ENDBRANCH  12  13
ENDBRANCH  10  12
ENDBRANCH   7   8
ENDBRANCH   6   7
BRANCH   4  17
HETATM   17  C4  UNL     1       4.659  -2.020 -56.773  1.00  0.00     0.264 C 
HETATM   18  O1  UNL     1       4.046  -1.837 -57.848  1.00  0.00    -0.267 OA
HETATM   19  N1  UNL     1       5.837  -1.326 -56.542  1.00  0.00    -0.299 N 
HETATM   20  C5  UNL     1       6.254  -0.611 -55.607  1.00  0.00     0.203 C 
ATOM     21  H1  UNL     1       6.511  -1.421 -57.301  1.00  0.00     0.171 HD
HETATM   22  N2  UNL     1       5.560  -0.277 -54.397  1.00  0.00    -0.066 NA
HETATM   23  N3  UNL     1       7.577  -0.023 -55.702  1.00  0.00    -0.066 NA
ENDBRANCH   4  17
TORSDOF 5
ENDMDL
MODEL 4
REMARK VINA RESULT: -6.345478251      2.481      3.509
REMARK  5 active torsions:
REMARK  status: ('A' for Active; 'I' for Inactive)
REMARK    1  A    between atoms: C3_4  and  C4_5 
REMARK       I    between atoms: C4_5  and  N1_7 
REMARK    2  A    between atoms: C7_13  and  C8_14 
REMARK    3  A    between atoms: C8_14  and  C9_15 
REMARK       I    between atoms: C9_15  and  N4_17 
REMARK    4  A    between atoms: N4_17  and  C11_19 
REMARK    5  A    between atoms: C11_19  and  C12_20 
ROOT
HETATM    1  C1  UNL     1       3.027  -7.945 -51.690  1.00  0.00     0.057 C 
HETATM    2  C2  UNL     1       3.668  -7.335 -52.881  1.00  0.00    -0.010 A 
HETATM    3  S1  UNL     1       2.954  -6.077 -53.832  1.00  0.00    -0.089 SA
HETATM    4  C3  UNL     1       4.180  -5.882 -54.985  1.00  0.00     0.074 A 
HETATM    5  C6  UNL     1       5.108  -6.781 -54.619  1.00  0.00     0.037 A 
HETATM    6  C7  UNL     1       4.854  -7.553 -53.514  1.00  0.00    -0.017 A 
ENDROOT
BRANCH   6   7
HETATM    7  C8  UNL     1       5.897  -8.558 -53.095  1.00  0.00     0.086 C 
BRANCH   7   8
HETATM    8  C9  UNL     1       7.221  -8.126 -52.840  1.00  0.00     0.243 C 
HETATM    9  O2  UNL     1       7.489  -7.446 -51.814  1.00  0.00    -0.268 OA
HETATM   10  N4  UNL     1       8.313  -8.409 -53.705  1.00  0.00    -0.352 N 
HETATM   11  C10 UNL     1       8.139  -9.308 -54.862  1.00  0.00     0.152 C 
BRANCH  10  12
HETATM   12  C11 UNL     1       9.618  -7.820 -53.609  1.00  0.00     0.133 C 
BRANCH  12  13
HETATM   13  C12 UNL     1       9.855  -6.455 -54.104  1.00  0.00    -0.035 C 
HETATM   14  C13 UNL     1       9.799  -5.359 -53.063  1.00  0.00     0.016 C 
HETATM   15  C14 UNL     1       9.174  -6.049 -55.359  1.00  0.00     0.016 C 
HETATM   16  C15 UNL     1      11.393  -6.467 -54.474  1.00  0.00     0.016 C 
ENDBRANCH  12  13
ENDBRANCH  10  12
ENDBRANCH   7   8
ENDBRANCH   6   7
BRANCH   4  17
HETATM   17  C4  UNL     1       4.195  -4.942 -56.105  1.00  0.00     0.264 C 
HETATM   18  O1  UNL     1       4.023  -5.406 -57.254  1.00  0.00    -0.267 OA
HETATM   19  N1  UNL     1       4.391  -3.578 -55.950  1.00  0.00    -0.299 N 
HETATM   20  C5  UNL     1       3.857  -2.699 -55.242  1.00  0.00     0.203 C 
ATOM     21  H1  UNL     1       5.135  -3.214 -56.544  1.00  0.00     0.171 HD
HETATM   22  N2  UNL     1       2.788  -2.876 -54.302  1.00  0.00    -0.066 NA
HETATM   23  N3  UNL     1       4.326  -1.330 -55.341  1.00  0.00    -0.066 NA
ENDBRANCH   4  17
TORSDOF 5
ENDMDL
MODEL 5
REMARK VINA RESULT: -6.327560827      2.431      3.438
REMARK  5 active torsions:
REMARK  status: ('A' for Active; 'I' for Inactive)
REMARK    1  A    between atoms: C3_4  and  C4_5 
REMARK       I    between atoms: C4_5  and  N1_7 
REMARK    2  A    between atoms: C7_13  and  C8_14 
REMARK    3  A    between atoms: C8_14  and  C9_15 
REMARK       I    between atoms: C9_15  and  N4_17 
REMARK    4  A    between atoms: N4_17  and  C11_19 
REMARK    5  A    between atoms: C11_19  and  C12_20 
ROOT
HETATM    1  C1  UNL     1       2.803  -8.014 -51.632  1.00  0.00     0.057 C 
HETATM    2  C2  UNL     1       3.507  -7.394 -52.782  1.00  0.00    -0.010 A 
HETATM    3  S1  UNL     1       2.778  -6.262 -53.871  1.00  0.00    -0.089 SA
HETATM    4  C3  UNL     1       4.098  -5.990 -54.898  1.00  0.00     0.074 A 
HETATM    5  C6  UNL     1       5.065  -6.768 -54.388  1.00  0.00     0.037 A 
HETATM    6  C7  UNL     1       4.772  -7.513 -53.274  1.00  0.00    -0.017 A 
ENDROOT
BRANCH   6   7
HETATM    7  C8  UNL     1       5.858  -8.380 -52.692  1.00  0.00     0.086 C 
BRANCH   7   8
HETATM    8  C9  UNL     1       6.948  -8.774 -53.504  1.00  0.00     0.243 C 
HETATM    9  O2  UNL     1       6.803  -9.657 -54.391  1.00  0.00    -0.268 OA
HETATM   10  N4  UNL     1       8.254  -8.226 -53.376  1.00  0.00    -0.352 N 
HETATM   11  C10 UNL     1       8.504  -7.094 -52.464  1.00  0.00     0.152 C 
BRANCH  10  12
HETATM   12  C11 UNL     1       9.431  -8.736 -54.018  1.00  0.00     0.133 C 
BRANCH  12  13
HETATM   13  C12 UNL     1       9.835  -8.231 -55.340  1.00  0.00    -0.035 C 
HETATM   14  C13 UNL     1       9.807  -6.727 -55.506  1.00  0.00     0.016 C 
HETATM   15  C14 UNL     1       9.293  -8.921 -56.536  1.00  0.00     0.016 C 
HETATM   16  C15 UNL     1      11.388  -8.528 -55.380  1.00  0.00     0.016 C 
ENDBRANCH  12  13
ENDBRANCH  10  12
ENDBRANCH   7   8
ENDBRANCH   6   7
BRANCH   4  17
HETATM   17  C4  UNL     1       4.140  -5.106 -56.062  1.00  0.00     0.264 C 
HETATM   18  O1  UNL     1       3.959  -5.619 -57.188  1.00  0.00    -0.267 OA
HETATM   19  N1  UNL     1       4.371  -3.742 -55.971  1.00  0.00    -0.299 N 
HETATM   20  C5  UNL     1       3.859  -2.816 -55.308  1.00  0.00     0.203 C 
ATOM     21  H1  UNL     1       5.126  -3.425 -56.579  1.00  0.00     0.171 HD
HETATM   22  N2  UNL     1       2.782  -2.920 -54.366  1.00  0.00    -0.066 NA
HETATM   23  N3  UNL     1       4.363  -1.466 -55.470  1.00  0.00    -0.066 NA
ENDBRANCH   4  17
TORSDOF 5
ENDMDL
