MODEL 1
REMARK VINA RESULT: -6.888304172      0.000      0.000
REMARK  4 active torsions:
REMARK  status: ('A' for Active; 'I' for Inactive)
REMARK       I    between atoms: C1_2  and  N1_3 
REMARK       I    between atoms: C1_2  and  N2_12 
REMARK    1  A    between atoms: N1_3  and  C2_5 
REMARK    2  A    between atoms: C2_5  and  C3_6 
REMARK    3  A    between atoms: C10_15  and  C11_16 
REMARK    4  A    between atoms: C11_16  and  N3_17 
ROOT
HETATM    1  O1  UNL     1       6.373  -7.359 -53.184  1.00  0.00    -0.247 OA
HETATM    2  C1  UNL     1       5.804  -7.862 -54.189  1.00  0.00     0.318 C 
HETATM    3  N1  UNL     1       4.581  -7.334 -54.616  1.00  0.00    -0.343 N 
ATOM      4  H1  UNL     1       4.134  -7.746 -55.434  1.00  0.00     0.164 HD
HETATM    5  N2  UNL     1       6.451  -8.943 -54.830  1.00  0.00    -0.334 N 
HETATM    6  C8  UNL     1       5.946  -9.640 -56.002  1.00  0.00     0.128 C 
HETATM    7  C9  UNL     1       7.127  -9.994 -56.918  1.00  0.00     0.030 C 
HETATM    8  C10 UNL     1       8.250  -8.984 -56.668  1.00  0.00     0.027 C 
HETATM    9  C17 UNL     1       8.842  -9.244 -55.334  1.00  0.00     0.030 C 
HETATM   10  C18 UNL     1       7.731  -9.452 -54.320  1.00  0.00     0.128 C 
ENDROOT
BRANCH   3  11
HETATM   11  C2  UNL     1       3.923  -6.236 -53.956  1.00  0.00     0.129 C 
BRANCH  11  12
HETATM   12  C3  UNL     1       2.645  -6.644 -53.320  1.00  0.00     0.007 C 
HETATM   13  C4  UNL     1       2.811  -7.845 -52.401  1.00  0.00     0.032 C 
HETATM   14  C5  UNL     1       1.422  -8.217 -51.920  1.00  0.00     0.168 C 
HETATM   15  O2  UNL     1       0.929  -7.182 -51.107  1.00  0.00    -0.391 OA
HETATM   16  C6  UNL     1       0.759  -6.042 -51.885  1.00  0.00     0.168 C 
HETATM   17  C7  UNL     1       2.064  -5.532 -52.460  1.00  0.00     0.032 C 
ENDBRANCH  11  12
ENDBRANCH   3  11
BRANCH   8  18
HETATM   18  C11 UNL     1       9.171  -8.878 -57.827  1.00  0.00     0.068 C 
BRANCH  18  19
HETATM   19  N3  UNL     1       8.656  -8.492 -59.071  1.00  0.00    -0.373 N 
HETATM   20  C12 UNL     1       7.996  -7.270 -59.236  1.00  0.00     0.063 C 
HETATM   21  C13 UNL     1       6.750  -7.359 -60.107  1.00  0.00     0.044 C 
HETATM   22  C14 UNL     1       7.137  -7.950 -61.428  1.00  0.00     0.007 C 
HETATM   23  C15 UNL     1       7.727  -9.302 -61.194  1.00  0.00     0.021 C 
HETATM   24  C16 UNL     1       8.845  -9.333 -60.189  1.00  0.00     0.127 C 
ENDBRANCH  18  19
ENDBRANCH   8  18
TORSDOF 4
ENDMDL
MODEL 2
REMARK VINA RESULT: -6.874464653      2.330      3.679
REMARK  4 active torsions:
REMARK  status: ('A' for Active; 'I' for Inactive)
REMARK       I    between atoms: C1_2  and  N1_3 
REMARK       I    between atoms: C1_2  and  N2_12 
REMARK    1  A    between atoms: N1_3  and  C2_5 
REMARK    2  A    between atoms: C2_5  and  C3_6 
REMARK    3  A    between atoms: C10_15  and  C11_16 
REMARK    4  A    between atoms: C11_16  and  N3_17 
ROOT
HETATM    1  O1  UNL     1       5.883  -7.502 -52.532  1.00  0.00    -0.247 OA
HETATM    2  C1  UNL     1       5.569  -7.847 -53.702  1.00  0.00     0.318 C 
HETATM    3  N1  UNL     1       4.519  -7.189 -54.349  1.00  0.00    -0.343 N 
ATOM      4  H1  UNL     1       4.279  -7.474 -55.299  1.00  0.00     0.164 HD
HETATM    5  N2  UNL     1       6.314  -8.893 -54.293  1.00  0.00    -0.334 N 
HETATM    6  C8  UNL     1       6.098  -9.417 -55.632  1.00  0.00     0.128 C 
HETATM    7  C9  UNL     1       7.458  -9.750 -56.263  1.00  0.00     0.030 C 
HETATM    8  C10 UNL     1       8.520  -8.857 -55.615  1.00  0.00     0.027 C 
HETATM    9  C17 UNL     1       8.741  -9.305 -54.220  1.00  0.00     0.030 C 
HETATM   10  C18 UNL     1       7.400  -9.546 -53.548  1.00  0.00     0.128 C 
ENDROOT
BRANCH   3  11
HETATM   11  C2  UNL     1       3.759  -6.128 -53.742  1.00  0.00     0.129 C 
BRANCH  11  12
HETATM   12  C3  UNL     1       2.481  -6.610 -53.159  1.00  0.00     0.007 C 
HETATM   13  C4  UNL     1       2.655  -7.893 -52.359  1.00  0.00     0.032 C 
HETATM   14  C5  UNL     1       1.267  -8.325 -51.929  1.00  0.00     0.168 C 
HETATM   15  O2  UNL     1       0.754  -7.380 -51.025  1.00  0.00    -0.391 OA
HETATM   16  C6  UNL     1       0.576  -6.172 -51.690  1.00  0.00     0.168 C 
HETATM   17  C7  UNL     1       1.879  -5.594 -52.201  1.00  0.00     0.032 C 
ENDBRANCH  11  12
ENDBRANCH   3  11
BRANCH   8  18
HETATM   18  C11 UNL     1       9.711  -8.688 -56.486  1.00  0.00     0.068 C 
BRANCH  18  19
HETATM   19  N3  UNL     1      10.876  -8.133 -55.942  1.00  0.00    -0.373 N 
HETATM   20  C12 UNL     1      12.029  -8.905 -55.755  1.00  0.00     0.063 C 
HETATM   21  C13 UNL     1      12.737  -8.640 -54.434  1.00  0.00     0.044 C 
HETATM   22  C14 UNL     1      13.043  -7.175 -54.346  1.00  0.00     0.007 C 
HETATM   23  C15 UNL     1      11.762  -6.411 -54.433  1.00  0.00     0.021 C 
HETATM   24  C16 UNL     1      10.903  -6.760 -55.617  1.00  0.00     0.127 C 
ENDBRANCH  18  19
ENDBRANCH   8  18
TORSDOF 4
ENDMDL
MODEL 3
REMARK VINA RESULT: -6.719494648      1.481      2.285
REMARK  4 active torsions:
REMARK  status: ('A' for Active; 'I' for Inactive)
REMARK       I    between atoms: C1_2  and  N1_3 
REMARK       I    between atoms: C1_2  and  N2_12 
REMARK    1  A    between atoms: N1_3  and  C2_5 
REMARK    2  A    between atoms: C2_5  and  C3_6 
REMARK    3  A    between atoms: C10_15  and  C11_16 
REMARK    4  A    between atoms: C11_16  and  N3_17 
ROOT
HETATM    1  O1  UNL     1       6.659  -7.189 -53.495  1.00  0.00    -0.247 OA
HETATM    2  C1  UNL     1       6.016  -7.794 -54.394  1.00  0.00     0.318 C 
HETATM    3  N1  UNL     1       4.717  -7.378 -54.702  1.00  0.00    -0.343 N 
ATOM      4  H1  UNL     1       4.210  -7.873 -55.436  1.00  0.00     0.164 HD
HETATM    5  N2  UNL     1       6.664  -8.869 -55.044  1.00  0.00    -0.334 N 
HETATM    6  C8  UNL     1       6.081  -9.675 -56.105  1.00  0.00     0.128 C 
HETATM    7  C9  UNL     1       7.171 -10.010 -57.134  1.00  0.00     0.030 C 
HETATM    8  C10 UNL     1       8.237  -8.912 -57.078  1.00  0.00     0.027 C 
HETATM    9  C17 UNL     1       8.997  -9.042 -55.812  1.00  0.00     0.030 C 
HETATM   10  C18 UNL     1       8.029  -9.256 -54.662  1.00  0.00     0.128 C 
ENDROOT
BRANCH   3  11
HETATM   11  C2  UNL     1       4.059  -6.286 -54.033  1.00  0.00     0.129 C 
BRANCH  11  12
HETATM   12  C3  UNL     1       2.785  -6.700 -53.394  1.00  0.00     0.007 C 
HETATM   13  C4  UNL     1       2.970  -7.857 -52.423  1.00  0.00     0.032 C 
HETATM   14  C5  UNL     1       1.586  -8.244 -51.942  1.00  0.00     0.168 C 
HETATM   15  O2  UNL     1       1.057  -7.189 -51.179  1.00  0.00    -0.391 OA
HETATM   16  C6  UNL     1       0.866  -6.088 -52.006  1.00  0.00     0.168 C 
HETATM   17  C7  UNL     1       2.165  -5.569 -52.588  1.00  0.00     0.032 C 
ENDBRANCH  11  12
ENDBRANCH   3  11
BRANCH   8  18
HETATM   18  C11 UNL     1       9.009  -8.822 -58.344  1.00  0.00     0.068 C 
BRANCH  18  19
HETATM   19  N3  UNL     1       9.949  -9.817 -58.638  1.00  0.00    -0.373 N 
HETATM   20  C12 UNL     1      11.260  -9.745 -58.153  1.00  0.00     0.063 C 
HETATM   21  C13 UNL     1      12.315 -10.144 -59.176  1.00  0.00     0.044 C 
HETATM   22  C14 UNL     1      11.995 -11.521 -59.674  1.00  0.00     0.007 C 
HETATM   23  C15 UNL     1      10.633 -11.505 -60.285  1.00  0.00     0.021 C 
HETATM   24  C16 UNL     1       9.555 -10.936 -59.403  1.00  0.00     0.127 C 
ENDBRANCH  18  19
ENDBRANCH   8  18
TORSDOF 4
ENDMDL
MODEL 4
REMARK VINA RESULT: -6.686838874      3.563      5.367
REMARK  4 active torsions:
REMARK  status: ('A' for Active; 'I' for Inactive)
REMARK       I    between atoms: C1_2  and  N1_3 
REMARK       I    between atoms: C1_2  and  N2_12 
REMARK    1  A    between atoms: N1_3  and  C2_5 
REMARK    2  A    between atoms: C2_5  and  C3_6 
REMARK    3  A    between atoms: C10_15  and  C11_16 
REMARK    4  A    between atoms: C11_16  and  N3_17 
ROOT
HETATM    1  O1  UNL     1       6.308  -7.289 -54.158  1.00  0.00    -0.247 OA
HETATM    2  C1  UNL     1       5.237  -7.256 -54.820  1.00  0.00     0.318 C 
HETATM    3  N1  UNL     1       4.027  -7.526 -54.174  1.00  0.00    -0.343 N 
ATOM      4  H1  UNL     1       3.166  -7.490 -54.721  1.00  0.00     0.164 HD
HETATM    5  N2  UNL     1       5.333  -6.943 -56.196  1.00  0.00    -0.334 N 
HETATM    6  C8  UNL     1       4.206  -6.854 -57.111  1.00  0.00     0.128 C 
HETATM    7  C9  UNL     1       4.449  -5.697 -58.091  1.00  0.00     0.030 C 
HETATM    8  C10 UNL     1       5.367  -4.676 -57.411  1.00  0.00     0.027 C 
HETATM    9  C17 UNL     1       6.731  -5.248 -57.309  1.00  0.00     0.030 C 
HETATM   10  C18 UNL     1       6.642  -6.679 -56.810  1.00  0.00     0.128 C 
ENDROOT
BRANCH   3  11
HETATM   11  C2  UNL     1       3.935  -7.850 -52.775  1.00  0.00     0.129 C 
BRANCH  11  12
HETATM   12  C3  UNL     1       2.903  -7.044 -52.074  1.00  0.00     0.007 C 
HETATM   13  C4  UNL     1       2.494  -5.811 -52.865  1.00  0.00     0.032 C 
HETATM   14  C5  UNL     1       1.535  -5.033 -51.987  1.00  0.00     0.168 C 
HETATM   15  O2  UNL     1       0.359  -5.783 -51.818  1.00  0.00    -0.391 OA
HETATM   16  C6  UNL     1       0.661  -6.938 -51.104  1.00  0.00     0.168 C 
HETATM   17  C7  UNL     1       1.628  -7.840 -51.843  1.00  0.00     0.032 C 
ENDBRANCH  11  12
ENDBRANCH   3  11
BRANCH   8  18
HETATM   18  C11 UNL     1       5.226  -3.322 -58.003  1.00  0.00     0.068 C 
BRANCH  18  19
HETATM   19  N3  UNL     1       5.122  -2.216 -57.150  1.00  0.00    -0.373 N 
HETATM   20  C12 UNL     1       6.073  -1.190 -57.171  1.00  0.00     0.063 C 
HETATM   21  C13 UNL     1       6.468  -0.691 -55.787  1.00  0.00     0.044 C 
HETATM   22  C14 UNL     1       5.225  -0.265 -55.066  1.00  0.00     0.007 C 
HETATM   23  C15 UNL     1       4.301  -1.434 -54.972  1.00  0.00     0.021 C 
HETATM   24  C16 UNL     1       4.012  -2.113 -56.283  1.00  0.00     0.127 C 
ENDBRANCH  18  19
ENDBRANCH   8  18
TORSDOF 4
ENDMDL
MODEL 5
REMARK VINA RESULT: -6.682520675      0.539      1.210
REMARK  4 active torsions:
REMARK  status: ('A' for Active; 'I' for Inactive)
REMARK       I    between atoms: C1_2  and  N1_3 
REMARK       I    between atoms: C1_2  and  N2_12 
REMARK    1  A    between atoms: N1_3  and  C2_5 
REMARK    2  A    between atoms: C2_5  and  C3_6 
REMARK    3  A    between atoms: C10_15  and  C11_16 
REMARK    4  A    between atoms: C11_16  and  N3_17 
ROOT
HETATM    1  O1  UNL     1       6.216  -7.319 -53.137  1.00  0.00    -0.247 OA
HETATM    2  C1  UNL     1       5.697  -7.825 -54.167  1.00  0.00     0.318 C 
HETATM    3  N1  UNL     1       4.503  -7.292 -54.662  1.00  0.00    -0.343 N 
ATOM      4  H1  UNL     1       4.097  -7.708 -55.501  1.00  0.00     0.164 HD
HETATM    5  N2  UNL     1       6.370  -8.916 -54.765  1.00  0.00    -0.334 N 
HETATM    6  C8  UNL     1       5.923  -9.619 -55.957  1.00  0.00     0.128 C 
HETATM    7  C9  UNL     1       7.148  -9.989 -56.806  1.00  0.00     0.030 C 
HETATM    8  C10 UNL     1       8.264  -8.984 -56.504  1.00  0.00     0.027 C 
HETATM    9  C17 UNL     1       8.782  -9.238 -55.138  1.00  0.00     0.030 C 
HETATM   10  C18 UNL     1       7.618  -9.430 -54.183  1.00  0.00     0.128 C 
ENDROOT
BRANCH   3  11
HETATM   11  C2  UNL     1       3.819  -6.185 -54.047  1.00  0.00     0.129 C 
BRANCH  11  12
HETATM   12  C3  UNL     1       2.570  -6.603 -53.362  1.00  0.00     0.007 C 
HETATM   13  C4  UNL     1       2.777  -7.811 -52.461  1.00  0.00     0.032 C 
HETATM   14  C5  UNL     1       1.411  -8.192 -51.927  1.00  0.00     0.168 C 
HETATM   15  O2  UNL     1       0.948  -7.166 -51.086  1.00  0.00    -0.391 OA
HETATM   16  C6  UNL     1       0.742  -6.020 -51.846  1.00  0.00     0.168 C 
HETATM   17  C7  UNL     1       2.021  -5.501 -52.469  1.00  0.00     0.032 C 
ENDBRANCH  11  12
ENDBRANCH   3  11
BRANCH   8  18
HETATM   18  C11 UNL     1       9.246  -8.894 -57.613  1.00  0.00     0.068 C 
BRANCH  18  19
HETATM   19  N3  UNL     1       8.800  -9.056 -58.931  1.00  0.00    -0.373 N 
HETATM   20  C12 UNL     1       9.153 -10.181 -59.684  1.00  0.00     0.063 C 
HETATM   21  C13 UNL     1       9.514  -9.862 -61.129  1.00  0.00     0.044 C 
HETATM   22  C14 UNL     1       8.366  -9.128 -61.753  1.00  0.00     0.007 C 
HETATM   23  C15 UNL     1       8.115  -7.879 -60.974  1.00  0.00     0.021 C 
HETATM   24  C16 UNL     1       7.942  -8.087 -59.494  1.00  0.00     0.127 C 
ENDBRANCH  18  19
ENDBRANCH   8  18
TORSDOF 4
ENDMDL
