MODEL 1
REMARK VINA RESULT: -6.749187416      0.000      0.000
REMARK  5 active torsions:
REMARK  status: ('A' for Active; 'I' for Inactive)
REMARK    1  A    between atoms: C3_3  and  N1_6 
REMARK       I    between atoms: N1_6  and  C6_8 
REMARK    2  A    between atoms: C6_8  and  C7_10 
REMARK       I    between atoms: C7_10  and  N2_12 
REMARK    3  A    between atoms: N2_12  and  C8_14 
REMARK    4  A    between atoms: C8_14  and  C9_15 
REMARK    5  A    between atoms: C9_15  and  N3_16 
ROOT
HETATM    1  C1  UNL     1       0.657  -5.387 -51.591  1.00  0.00     0.015 C 
HETATM    2  C2  UNL     1       1.329  -6.348 -51.843  1.00  0.00    -0.086 C 
HETATM    3  C3  UNL     1       2.162  -7.524 -52.129  1.00  0.00     0.089 C 
HETATM    4  C4  UNL     1       1.291  -8.782 -52.147  1.00  0.00     0.053 C 
HETATM    5  C5  UNL     1       3.276  -7.652 -51.126  1.00  0.00     0.053 C 
ENDROOT
BRANCH   3   6
HETATM    6  N1  UNL     1       2.740  -7.403 -53.447  1.00  0.00    -0.334 N 
HETATM    7  C6  UNL     1       4.140  -7.546 -53.605  1.00  0.00     0.310 C 
HETATM    8  O1  UNL     1       4.848  -7.773 -52.602  1.00  0.00    -0.262 OA
ATOM      9  H1  UNL     1       2.147  -7.216 -54.255  1.00  0.00     0.164 HD
BRANCH   7  10
HETATM   10  C7  UNL     1       4.792  -7.437 -54.901  1.00  0.00     0.309 C 
HETATM   11  O2  UNL     1       4.850  -6.303 -55.432  1.00  0.00    -0.262 OA
HETATM   12  N2  UNL     1       5.356  -8.539 -55.586  1.00  0.00    -0.350 N 
ATOM     13  H2  UNL     1       5.321  -9.471 -55.174  1.00  0.00     0.162 HD
BRANCH  12  14
HETATM   14  C8  UNL     1       5.978  -8.336 -56.859  1.00  0.00     0.164 C 
BRANCH  14  15
HETATM   15  C9  UNL     1       7.477  -8.392 -56.816  1.00  0.00     0.175 C 
HETATM   16  C15 UNL     1       8.114  -7.035 -56.580  1.00  0.00     0.043 C 
HETATM   17  C16 UNL     1       9.563  -7.467 -56.298  1.00  0.00     0.003 C 
HETATM   18  C17 UNL     1       9.491  -8.858 -55.733  1.00  0.00     0.003 C 
HETATM   19  C18 UNL     1       7.990  -9.166 -55.634  1.00  0.00     0.043 C 
BRANCH  15  20
HETATM   20  N3  UNL     1       8.036  -8.888 -58.047  1.00  0.00     0.099 N 
HETATM   21  C10 UNL     1       7.817 -10.273 -58.299  1.00  0.00     0.273 C 
HETATM   22  C11 UNL     1       8.843 -10.702 -59.357  1.00  0.00     0.030 C 
HETATM   23  C12 UNL     1       8.677  -9.884 -60.605  1.00  0.00     0.003 C 
HETATM   24  C13 UNL     1       7.514  -8.924 -60.444  1.00  0.00     0.030 C 
HETATM   25  C14 UNL     1       7.750  -8.092 -59.196  1.00  0.00     0.273 C 
ENDBRANCH  15  20
ENDBRANCH  14  15
ENDBRANCH  12  14
ENDBRANCH   7  10
ENDBRANCH   3   6
TORSDOF 5
ENDMDL
MODEL 2
REMARK VINA RESULT: -6.184970048      1.067      3.012
REMARK  5 active torsions:
REMARK  status: ('A' for Active; 'I' for Inactive)
REMARK    1  A    between atoms: C3_3  and  N1_6 
REMARK       I    between atoms: N1_6  and  C6_8 
REMARK    2  A    between atoms: C6_8  and  C7_10 
REMARK       I    between atoms: C7_10  and  N2_12 
REMARK    3  A    between atoms: N2_12  and  C8_14 
REMARK    4  A    between atoms: C8_14  and  C9_15 
REMARK    5  A    between atoms: C9_15  and  N3_16 
ROOT
HETATM    1  C1  UNL     1       0.396  -5.645 -51.354  1.00  0.00     0.015 C 
HETATM    2  C2  UNL     1       1.166  -6.504 -51.680  1.00  0.00    -0.086 C 
HETATM    3  C3  UNL     1       2.118  -7.558 -52.058  1.00  0.00     0.089 C 
HETATM    4  C4  UNL     1       1.375  -8.884 -52.237  1.00  0.00     0.053 C 
HETATM    5  C5  UNL     1       3.213  -7.686 -51.035  1.00  0.00     0.053 C 
ENDROOT
BRANCH   3   6
HETATM    6  N1  UNL     1       2.714  -7.242 -53.334  1.00  0.00    -0.334 N 
HETATM    7  C6  UNL     1       4.106  -7.428 -53.514  1.00  0.00     0.310 C 
HETATM    8  O1  UNL     1       4.792  -7.860 -52.565  1.00  0.00    -0.262 OA
ATOM      9  H1  UNL     1       2.138  -6.889 -54.099  1.00  0.00     0.164 HD
BRANCH   7  10
HETATM   10  C7  UNL     1       4.774  -7.131 -54.772  1.00  0.00     0.309 C 
HETATM   11  O2  UNL     1       4.065  -6.761 -55.737  1.00  0.00    -0.262 OA
HETATM   12  N2  UNL     1       6.173  -7.239 -54.957  1.00  0.00    -0.350 N 
ATOM     13  H2  UNL     1       6.770  -7.539 -54.186  1.00  0.00     0.162 HD
BRANCH  12  14
HETATM   14  C8  UNL     1       6.743  -6.926 -56.231  1.00  0.00     0.164 C 
BRANCH  14  15
HETATM   15  C9  UNL     1       7.501  -8.063 -56.851  1.00  0.00     0.175 C 
HETATM   16  C15 UNL     1       6.723  -9.366 -56.848  1.00  0.00     0.043 C 
HETATM   17  C16 UNL     1       7.610 -10.208 -57.779  1.00  0.00     0.003 C 
HETATM   18  C17 UNL     1       8.301  -9.241 -58.699  1.00  0.00     0.003 C 
HETATM   19  C18 UNL     1       7.734  -7.865 -58.322  1.00  0.00     0.043 C 
BRANCH  15  20
HETATM   20  N3  UNL     1       8.735  -8.333 -56.158  1.00  0.00     0.099 N 
HETATM   21  C10 UNL     1       9.595  -7.209 -55.990  1.00  0.00     0.273 C 
HETATM   22  C11 UNL     1      10.993  -7.760 -55.680  1.00  0.00     0.030 C 
HETATM   23  C12 UNL     1      10.956  -8.612 -54.445  1.00  0.00     0.003 C 
HETATM   24  C13 UNL     1       9.555  -8.621 -53.864  1.00  0.00     0.030 C 
HETATM   25  C14 UNL     1       8.591  -9.072 -54.947  1.00  0.00     0.273 C 
ENDBRANCH  15  20
ENDBRANCH  14  15
ENDBRANCH  12  14
ENDBRANCH   7  10
ENDBRANCH   3   6
TORSDOF 5
ENDMDL
MODEL 3
REMARK VINA RESULT: -6.181684298      4.032      8.537
REMARK  5 active torsions:
REMARK  status: ('A' for Active; 'I' for Inactive)
REMARK    1  A    between atoms: C3_3  and  N1_6 
REMARK       I    between atoms: N1_6  and  C6_8 
REMARK    2  A    between atoms: C6_8  and  C7_10 
REMARK       I    between atoms: C7_10  and  N2_12 
REMARK    3  A    between atoms: N2_12  and  C8_14 
REMARK    4  A    between atoms: C8_14  and  C9_15 
REMARK    5  A    between atoms: C9_15  and  N3_16 
ROOT
HETATM    1  C1  UNL     1      12.670 -14.125 -58.013  1.00  0.00     0.015 C 
HETATM    2  C2  UNL     1      11.895 -13.976 -58.916  1.00  0.00    -0.086 C 
HETATM    3  C3  UNL     1      10.963 -13.794 -60.037  1.00  0.00     0.089 C 
HETATM    4  C4  UNL     1      10.171 -15.084 -60.265  1.00  0.00     0.053 C 
HETATM    5  C5  UNL     1      11.695 -13.381 -61.284  1.00  0.00     0.053 C 
ENDROOT
BRANCH   3   6
HETATM    6  N1  UNL     1       9.999 -12.771 -59.708  1.00  0.00    -0.334 N 
HETATM    7  C6  UNL     1      10.421 -11.421 -59.626  1.00  0.00     0.310 C 
HETATM    8  O1  UNL     1      11.620 -11.143 -59.837  1.00  0.00    -0.262 OA
ATOM      9  H1  UNL     1       9.024 -13.017 -59.538  1.00  0.00     0.164 HD
BRANCH   7  10
HETATM   10  C7  UNL     1       9.506 -10.338 -59.300  1.00  0.00     0.309 C 
HETATM   11  O2  UNL     1       9.849  -9.172 -59.604  1.00  0.00    -0.262 OA
HETATM   12  N2  UNL     1       8.259 -10.536 -58.662  1.00  0.00    -0.350 N 
ATOM     13  H2  UNL     1       7.958 -11.476 -58.404  1.00  0.00     0.162 HD
BRANCH  12  14
HETATM   14  C8  UNL     1       7.423  -9.410 -58.380  1.00  0.00     0.164 C 
BRANCH  14  15
HETATM   15  C9  UNL     1       7.260  -9.129 -56.914  1.00  0.00     0.175 C 
HETATM   16  C15 UNL     1       6.565 -10.253 -56.169  1.00  0.00     0.043 C 
HETATM   17  C16 UNL     1       6.818  -9.808 -54.719  1.00  0.00     0.003 C 
HETATM   18  C17 UNL     1       8.088  -9.003 -54.737  1.00  0.00     0.003 C 
HETATM   19  C18 UNL     1       8.575  -9.068 -56.190  1.00  0.00     0.043 C 
BRANCH  15  20
HETATM   20  N3  UNL     1       6.476  -7.945 -56.674  1.00  0.00     0.099 N 
HETATM   21  C10 UNL     1       7.036  -6.734 -57.173  1.00  0.00     0.273 C 
HETATM   22  C11 UNL     1       6.337  -5.582 -56.438  1.00  0.00     0.030 C 
HETATM   23  C12 UNL     1       4.855  -5.639 -56.672  1.00  0.00     0.003 C 
HETATM   24  C13 UNL     1       4.521  -6.789 -57.602  1.00  0.00     0.030 C 
HETATM   25  C14 UNL     1       5.095  -8.064 -57.011  1.00  0.00     0.273 C 
ENDBRANCH  15  20
ENDBRANCH  14  15
ENDBRANCH  12  14
ENDBRANCH   7  10
ENDBRANCH   3   6
TORSDOF 5
ENDMDL
MODEL 4
REMARK VINA RESULT: -6.076960199      1.471      2.638
REMARK  5 active torsions:
REMARK  status: ('A' for Active; 'I' for Inactive)
REMARK    1  A    between atoms: C3_3  and  N1_6 
REMARK       I    between atoms: N1_6  and  C6_8 
REMARK    2  A    between atoms: C6_8  and  C7_10 
REMARK       I    between atoms: C7_10  and  N2_12 
REMARK    3  A    between atoms: N2_12  and  C8_14 
REMARK    4  A    between atoms: C8_14  and  C9_15 
REMARK    5  A    between atoms: C9_15  and  N3_16 
ROOT
HETATM    1  C1  UNL     1       0.995  -5.178 -52.174  1.00  0.00     0.015 C 
HETATM    2  C2  UNL     1       1.565  -6.233 -52.203  1.00  0.00    -0.086 C 
HETATM    3  C3  UNL     1       2.273  -7.520 -52.217  1.00  0.00     0.089 C 
HETATM    4  C4  UNL     1       1.283  -8.657 -51.956  1.00  0.00     0.053 C 
HETATM    5  C5  UNL     1       3.388  -7.532 -51.206  1.00  0.00     0.053 C 
ENDROOT
BRANCH   3   6
HETATM    6  N1  UNL     1       2.835  -7.753 -53.526  1.00  0.00    -0.334 N 
HETATM    7  C6  UNL     1       3.574  -6.723 -54.157  1.00  0.00     0.310 C 
HETATM    8  O1  UNL     1       3.724  -5.632 -53.569  1.00  0.00    -0.262 OA
ATOM      9  H1  UNL     1       2.701  -8.651 -53.991  1.00  0.00     0.164 HD
BRANCH   7  10
HETATM   10  C7  UNL     1       4.168  -6.887 -55.475  1.00  0.00     0.309 C 
HETATM   11  O2  UNL     1       4.015  -5.959 -56.304  1.00  0.00    -0.262 OA
HETATM   12  N2  UNL     1       4.902  -8.033 -55.862  1.00  0.00    -0.350 N 
ATOM     13  H2  UNL     1       5.039  -8.801 -55.205  1.00  0.00     0.162 HD
BRANCH  12  14
HETATM   14  C8  UNL     1       5.451  -8.107 -57.181  1.00  0.00     0.164 C 
BRANCH  14  15
HETATM   15  C9  UNL     1       6.948  -8.205 -57.209  1.00  0.00     0.175 C 
HETATM   16  C15 UNL     1       7.540  -8.622 -55.876  1.00  0.00     0.043 C 
HETATM   17  C16 UNL     1       8.988  -8.912 -56.306  1.00  0.00     0.003 C 
HETATM   18  C17 UNL     1       8.930  -9.308 -57.755  1.00  0.00     0.003 C 
HETATM   19  C18 UNL     1       7.436  -9.310 -58.104  1.00  0.00     0.043 C 
BRANCH  15  20
HETATM   20  N3  UNL     1       7.567  -6.949 -57.546  1.00  0.00     0.099 N 
HETATM   21  C10 UNL     1       7.111  -6.352 -58.757  1.00  0.00     0.273 C 
HETATM   22  C11 UNL     1       8.170  -5.324 -59.175  1.00  0.00     0.030 C 
HETATM   23  C12 UNL     1       8.356  -4.299 -58.094  1.00  0.00     0.003 C 
HETATM   24  C13 UNL     1       7.401  -4.575 -56.949  1.00  0.00     0.030 C 
HETATM   25  C14 UNL     1       7.618  -6.003 -56.480  1.00  0.00     0.273 C 
ENDBRANCH  15  20
ENDBRANCH  14  15
ENDBRANCH  12  14
ENDBRANCH   7  10
ENDBRANCH   3   6
TORSDOF 5
ENDMDL
MODEL 5
REMARK VINA RESULT: -6.042560495      1.758      3.016
REMARK  5 active torsions:
REMARK  status: ('A' for Active; 'I' for Inactive)
REMARK    1  A    between atoms: C3_3  and  N1_6 
REMARK       I    between atoms: N1_6  and  C6_8 
REMARK    2  A    between atoms: C6_8  and  C7_10 
REMARK       I    between atoms: C7_10  and  N2_12 
REMARK    3  A    between atoms: N2_12  and  C8_14 
REMARK    4  A    between atoms: C8_14  and  C9_15 
REMARK    5  A    between atoms: C9_15  and  N3_16 
ROOT
HETATM    1  C1  UNL     1       0.695  -5.409 -51.878  1.00  0.00     0.015 C 
HETATM    2  C2  UNL     1       1.356  -6.402 -52.005  1.00  0.00    -0.086 C 
HETATM    3  C3  UNL     1       2.176  -7.613 -52.140  1.00  0.00     0.089 C 
HETATM    4  C4  UNL     1       1.296  -8.854 -51.967  1.00  0.00     0.053 C 
HETATM    5  C5  UNL     1       3.307  -7.611 -51.148  1.00  0.00     0.053 C 
ENDROOT
BRANCH   3   6
HETATM    6  N1  UNL     1       2.730  -7.682 -53.471  1.00  0.00    -0.334 N 
HETATM    7  C6  UNL     1       3.368  -6.541 -54.016  1.00  0.00     0.310 C 
HETATM    8  O1  UNL     1       3.439  -5.497 -53.334  1.00  0.00    -0.262 OA
ATOM      9  H1  UNL     1       2.662  -8.543 -54.014  1.00  0.00     0.164 HD
BRANCH   7  10
HETATM   10  C7  UNL     1       3.949  -6.537 -55.350  1.00  0.00     0.309 C 
HETATM   11  O2  UNL     1       3.758  -5.526 -56.066  1.00  0.00    -0.262 OA
HETATM   12  N2  UNL     1       4.710  -7.609 -55.873  1.00  0.00    -0.350 N 
ATOM     13  H2  UNL     1       4.877  -8.442 -55.309  1.00  0.00     0.162 HD
BRANCH  12  14
HETATM   14  C8  UNL     1       5.242  -7.517 -57.198  1.00  0.00     0.164 C 
BRANCH  14  15
HETATM   15  C9  UNL     1       6.709  -7.200 -57.240  1.00  0.00     0.175 C 
HETATM   16  C15 UNL     1       7.367  -7.616 -58.542  1.00  0.00     0.043 C 
HETATM   17  C16 UNL     1       8.725  -6.910 -58.390  1.00  0.00     0.003 C 
HETATM   18  C17 UNL     1       8.488  -5.716 -57.509  1.00  0.00     0.003 C 
HETATM   19  C18 UNL     1       6.978  -5.722 -57.234  1.00  0.00     0.043 C 
BRANCH  15  20
HETATM   20  N3  UNL     1       7.437  -7.868 -56.192  1.00  0.00     0.099 N 
HETATM   21  C10 UNL     1       7.323  -7.276 -54.900  1.00  0.00     0.273 C 
HETATM   22  C11 UNL     1       8.490  -7.811 -54.060  1.00  0.00     0.030 C 
HETATM   23  C12 UNL     1       8.433  -9.309 -53.984  1.00  0.00     0.003 C 
HETATM   24  C13 UNL     1       7.211  -9.819 -54.722  1.00  0.00     0.030 C 
HETATM   25  C14 UNL     1       7.251  -9.281 -56.141  1.00  0.00     0.273 C 
ENDBRANCH  15  20
ENDBRANCH  14  15
ENDBRANCH  12  14
ENDBRANCH   7  10
ENDBRANCH   3   6
TORSDOF 5
ENDMDL
