MODEL 1
REMARK VINA RESULT: -9.083442303      0.000      0.000
REMARK  4 active torsions:
REMARK  status: ('A' for Active; 'I' for Inactive)
REMARK    1  A    between atoms: C2_2  and  O1_3 
REMARK    2  A    between atoms: C2_2  and  C3_5 
REMARK       I    between atoms: N1_7  and  C5_8 
REMARK    3  A    between atoms: C5_8  and  C6_10 
REMARK    4  A    between atoms: C12_16  and  N2_17 
REMARK       I    between atoms: N2_17  and  C13_19 
REMARK       I    between atoms: C13_19  and  N3_21 
ROOT
HETATM    1  C3  UNL     1     -22.228  11.740   0.002  1.00  0.00     0.056 C 
HETATM    2  C4  UNL     1     -20.773  11.425  -0.373  1.00  0.00     0.135 C 
HETATM    3  N1  UNL     1     -20.927   9.975  -0.569  1.00  0.00    -0.349 N 
HETATM    4  C5  UNL     1     -20.332   9.245  -1.615  1.00  0.00     0.224 C 
HETATM    5  O2  UNL     1     -19.609   9.867  -2.462  1.00  0.00    -0.273 OA
HETATM    6  C11 UNL     1     -21.791   9.484   0.481  1.00  0.00     0.151 C 
HETATM    7  C12 UNL     1     -22.453  10.727   1.097  1.00  0.00     0.112 C 
ENDROOT
BRANCH   7   8
HETATM    8  N2  UNL     1     -23.854  10.478   1.360  1.00  0.00    -0.336 N 
HETATM    9  C13 UNL     1     -24.350  10.747   2.670  1.00  0.00     0.318 C 
HETATM   10  O3  UNL     1     -23.543  11.199   3.566  1.00  0.00    -0.247 OA
HETATM   11  N3  UNL     1     -25.678  10.561   3.089  1.00  0.00    -0.332 N 
HETATM   12  C14 UNL     1     -26.075  10.870   4.442  1.00  0.00     0.127 C 
HETATM   13  C18 UNL     1     -26.670  10.061   2.192  1.00  0.00     0.164 C 
HETATM   14  C15 UNL     1     -27.398  10.239   4.817  1.00  0.00     0.023 C 
HETATM   15  C16 UNL     1     -27.493   8.834   4.239  1.00  0.00     0.040 C 
HETATM   16  C17 UNL     1     -27.417   8.864   2.750  1.00  0.00     0.188 C 
HETATM   17  F1  UNL     1     -28.698   8.917   2.226  1.00  0.00    -0.248 F 
ATOM     18  H2  UNL     1     -24.469  10.120   0.630  1.00  0.00     0.164 HD
ENDBRANCH   7   8
BRANCH   1  19
HETATM   19  C2  UNL     1     -22.400  13.163   0.437  1.00  0.00     0.121 C 
HETATM   20  C1  UNL     1     -23.787  13.690   0.286  1.00  0.00     0.040 C 
BRANCH  19  21
HETATM   21  O1  UNL     1     -22.104  13.189   1.820  1.00  0.00    -0.395 OA
ATOM     22  H1  UNL     1     -21.907  14.093   2.040  1.00  0.00     0.210 HD
ENDBRANCH  19  21
ENDBRANCH   1  19
BRANCH   4  23
HETATM   23  C6  UNL     1     -20.476   7.795  -1.817  1.00  0.00     0.078 C 
HETATM   24  C7  UNL     1     -21.951   7.401  -1.924  1.00  0.00     0.014 C 
HETATM   25  C8  UNL     1     -22.388   7.899  -3.277  1.00  0.00     0.001 C 
HETATM   26  C9  UNL     1     -21.121   8.040  -4.076  1.00  0.00     0.001 C 
HETATM   27  C10 UNL     1     -20.013   7.442  -3.216  1.00  0.00     0.014 C 
ENDBRANCH   4  23
TORSDOF 4
ENDMDL
MODEL 2
REMARK VINA RESULT: -9.056916442      1.180      1.605
REMARK  4 active torsions:
REMARK  status: ('A' for Active; 'I' for Inactive)
REMARK    1  A    between atoms: C2_2  and  O1_3 
REMARK    2  A    between atoms: C2_2  and  C3_5 
REMARK       I    between atoms: N1_7  and  C5_8 
REMARK    3  A    between atoms: C5_8  and  C6_10 
REMARK    4  A    between atoms: C12_16  and  N2_17 
REMARK       I    between atoms: N2_17  and  C13_19 
REMARK       I    between atoms: C13_19  and  N3_21 
ROOT
HETATM    1  C3  UNL     1     -23.561  11.998  -0.107  1.00  0.00     0.056 C 
HETATM    2  C4  UNL     1     -22.212  11.791  -0.813  1.00  0.00     0.135 C 
HETATM    3  N1  UNL     1     -22.409  10.389  -1.212  1.00  0.00    -0.349 N 
HETATM    4  C5  UNL     1     -22.041   9.858  -2.462  1.00  0.00     0.224 C 
HETATM    5  O2  UNL     1     -21.502  10.631  -3.322  1.00  0.00    -0.273 OA
HETATM    6  C11 UNL     1     -23.045   9.709  -0.106  1.00  0.00     0.151 C 
HETATM    7  C12 UNL     1     -23.563  10.814   0.827  1.00  0.00     0.112 C 
ENDROOT
BRANCH   7   8
HETATM    8  N2  UNL     1     -24.882  10.484   1.321  1.00  0.00    -0.336 N 
HETATM    9  C13 UNL     1     -25.138  10.644   2.714  1.00  0.00     0.318 C 
HETATM   10  O3  UNL     1     -24.196  11.074   3.480  1.00  0.00    -0.247 OA
HETATM   11  N3  UNL     1     -26.360  10.369   3.352  1.00  0.00    -0.332 N 
HETATM   12  C14 UNL     1     -26.511  10.571   4.774  1.00  0.00     0.127 C 
HETATM   13  C18 UNL     1     -27.482   9.883   2.616  1.00  0.00     0.164 C 
HETATM   14  C15 UNL     1     -27.722   9.856   5.335  1.00  0.00     0.023 C 
HETATM   15  C16 UNL     1     -27.874   8.489   4.684  1.00  0.00     0.040 C 
HETATM   16  C17 UNL     1     -28.073   8.620   3.212  1.00  0.00     0.188 C 
HETATM   17  F1  UNL     1     -29.430   8.647   2.933  1.00  0.00    -0.248 F 
ATOM     18  H2  UNL     1     -25.609  10.146   0.690  1.00  0.00     0.164 HD
ENDBRANCH   7   8
BRANCH   1  19
HETATM   19  C2  UNL     1     -23.635  13.326   0.583  1.00  0.00     0.121 C 
HETATM   20  C1  UNL     1     -22.732  13.458   1.762  1.00  0.00     0.040 C 
BRANCH  19  21
HETATM   21  O1  UNL     1     -23.205  14.284  -0.366  1.00  0.00    -0.395 OA
ATOM     22  H1  UNL     1     -23.801  14.223  -1.104  1.00  0.00     0.210 HD
ENDBRANCH  19  21
ENDBRANCH   1  19
BRANCH   4  23
HETATM   23  C6  UNL     1     -22.229   8.457  -2.868  1.00  0.00     0.078 C 
HETATM   24  C7  UNL     1     -21.305   8.096  -4.034  1.00  0.00     0.014 C 
HETATM   25  C8  UNL     1     -19.929   8.011  -3.425  1.00  0.00     0.001 C 
HETATM   26  C9  UNL     1     -20.159   7.778  -1.957  1.00  0.00     0.001 C 
HETATM   27  C10 UNL     1     -21.657   7.551  -1.796  1.00  0.00     0.014 C 
ENDBRANCH   4  23
TORSDOF 4
ENDMDL
MODEL 3
REMARK VINA RESULT: -8.794680429      3.687      4.328
REMARK  4 active torsions:
REMARK  status: ('A' for Active; 'I' for Inactive)
REMARK    1  A    between atoms: C2_2  and  O1_3 
REMARK    2  A    between atoms: C2_2  and  C3_5 
REMARK       I    between atoms: N1_7  and  C5_8 
REMARK    3  A    between atoms: C5_8  and  C6_10 
REMARK    4  A    between atoms: C12_16  and  N2_17 
REMARK       I    between atoms: N2_17  and  C13_19 
REMARK       I    between atoms: C13_19  and  N3_21 
ROOT
HETATM    1  C3  UNL     1     -21.653  11.989  -1.089  1.00  0.00     0.056 C 
HETATM    2  C4  UNL     1     -21.117  11.940  -2.527  1.00  0.00     0.135 C 
HETATM    3  N1  UNL     1     -20.602  10.562  -2.501  1.00  0.00    -0.349 N 
HETATM    4  C5  UNL     1     -20.739   9.640  -3.556  1.00  0.00     0.224 C 
HETATM    5  O2  UNL     1     -21.352  10.006  -4.614  1.00  0.00    -0.273 OA
HETATM    6  C11 UNL     1     -19.969  10.360  -1.217  1.00  0.00     0.151 C 
HETATM    7  C12 UNL     1     -20.437  11.523  -0.329  1.00  0.00     0.112 C 
ENDROOT
BRANCH   7   8
HETATM    8  N2  UNL     1     -20.748  11.051   1.003  1.00  0.00    -0.336 N 
HETATM    9  C13 UNL     1     -19.664  10.714   1.867  1.00  0.00     0.318 C 
HETATM   10  O3  UNL     1     -18.457  10.840   1.437  1.00  0.00    -0.247 OA
HETATM   11  N3  UNL     1     -19.793  10.242   3.184  1.00  0.00    -0.332 N 
HETATM   12  C14 UNL     1     -18.625   9.934   3.974  1.00  0.00     0.127 C 
HETATM   13  C18 UNL     1     -21.078  10.054   3.777  1.00  0.00     0.164 C 
HETATM   14  C15 UNL     1     -18.949   9.077   5.179  1.00  0.00     0.023 C 
HETATM   15  C16 UNL     1     -19.988   8.026   4.812  1.00  0.00     0.040 C 
HETATM   16  C17 UNL     1     -21.257   8.667   4.363  1.00  0.00     0.188 C 
HETATM   17  F1  UNL     1     -22.112   8.801   5.445  1.00  0.00    -0.248 F 
ATOM     18  H2  UNL     1     -21.714  10.961   1.316  1.00  0.00     0.164 HD
ENDBRANCH   7   8
BRANCH   1  19
HETATM   19  C2  UNL     1     -22.126  13.360  -0.714  1.00  0.00     0.121 C 
HETATM   20  C1  UNL     1     -23.320  13.375   0.180  1.00  0.00     0.040 C 
BRANCH  19  21
HETATM   21  O1  UNL     1     -21.067  13.953   0.014  1.00  0.00    -0.395 OA
ATOM     22  H1  UNL     1     -20.998  14.852  -0.290  1.00  0.00     0.210 HD
ENDBRANCH  19  21
ENDBRANCH   1  19
BRANCH   4  23
HETATM   23  C6  UNL     1     -20.223   8.263  -3.541  1.00  0.00     0.078 C 
HETATM   24  C7  UNL     1     -20.446   7.609  -2.175  1.00  0.00     0.014 C 
HETATM   25  C8  UNL     1     -21.926   7.336  -2.114  1.00  0.00     0.001 C 
HETATM   26  C9  UNL     1     -22.385   7.313  -3.546  1.00  0.00     0.001 C 
HETATM   27  C10 UNL     1     -21.121   7.390  -4.394  1.00  0.00     0.014 C 
ENDBRANCH   4  23
TORSDOF 4
ENDMDL
MODEL 4
REMARK VINA RESULT: -8.608410951      2.737      7.583
REMARK  4 active torsions:
REMARK  status: ('A' for Active; 'I' for Inactive)
REMARK    1  A    between atoms: C2_2  and  O1_3 
REMARK    2  A    between atoms: C2_2  and  C3_5 
REMARK       I    between atoms: N1_7  and  C5_8 
REMARK    3  A    between atoms: C5_8  and  C6_10 
REMARK    4  A    between atoms: C12_16  and  N2_17 
REMARK       I    between atoms: N2_17  and  C13_19 
REMARK       I    between atoms: C13_19  and  N3_21 
ROOT
HETATM    1  C3  UNL     1     -22.610   8.516   3.355  1.00  0.00     0.056 C 
HETATM    2  C4  UNL     1     -23.204   9.489   4.384  1.00  0.00     0.135 C 
HETATM    3  N1  UNL     1     -24.389   9.897   3.613  1.00  0.00    -0.349 N 
HETATM    4  C5  UNL     1     -25.675  10.065   4.158  1.00  0.00     0.224 C 
HETATM    5  O2  UNL     1     -25.846   9.849   5.404  1.00  0.00    -0.273 OA
HETATM    6  C11 UNL     1     -23.973  10.067   2.238  1.00  0.00     0.151 C 
HETATM    7  C12 UNL     1     -22.596   9.394   2.128  1.00  0.00     0.112 C 
ENDROOT
BRANCH   7   8
HETATM    8  N2  UNL     1     -22.496   8.643   0.895  1.00  0.00    -0.336 N 
HETATM    9  C13 UNL     1     -21.321   8.804   0.104  1.00  0.00     0.318 C 
HETATM   10  O3  UNL     1     -20.396   9.604   0.509  1.00  0.00    -0.247 OA
HETATM   11  N3  UNL     1     -21.067   8.152  -1.115  1.00  0.00    -0.332 N 
HETATM   12  C14 UNL     1     -19.837   8.386  -1.834  1.00  0.00     0.127 C 
HETATM   13  C18 UNL     1     -22.014   7.243  -1.675  1.00  0.00     0.164 C 
HETATM   14  C15 UNL     1     -19.914   7.934  -3.276  1.00  0.00     0.023 C 
HETATM   15  C16 UNL     1     -21.279   8.270  -3.860  1.00  0.00     0.040 C 
HETATM   16  C17 UNL     1     -22.364   7.573  -3.113  1.00  0.00     0.188 C 
HETATM   17  F1  UNL     1     -22.651   6.369  -3.737  1.00  0.00    -0.248 F 
ATOM     18  H2  UNL     1     -23.244   8.017   0.600  1.00  0.00     0.164 HD
ENDBRANCH   7   8
BRANCH   1  19
HETATM   19  C2  UNL     1     -21.260   8.017   3.769  1.00  0.00     0.121 C 
HETATM   20  C1  UNL     1     -20.895   6.687   3.201  1.00  0.00     0.040 C 
BRANCH  19  21
HETATM   21  O1  UNL     1     -20.324   8.947   3.258  1.00  0.00    -0.395 OA
ATOM     22  H1  UNL     1     -20.434   9.747   3.759  1.00  0.00     0.210 HD
ENDBRANCH  19  21
ENDBRANCH   1  19
BRANCH   4  23
HETATM   23  C6  UNL     1     -26.863  10.478   3.396  1.00  0.00     0.078 C 
HETATM   24  C7  UNL     1     -27.311   9.372   2.437  1.00  0.00     0.014 C 
HETATM   25  C8  UNL     1     -27.920   8.316   3.322  1.00  0.00     0.001 C 
HETATM   26  C9  UNL     1     -28.296   9.029   4.592  1.00  0.00     0.001 C 
HETATM   27  C10 UNL     1     -28.060  10.512   4.326  1.00  0.00     0.014 C 
ENDBRANCH   4  23
TORSDOF 4
ENDMDL
MODEL 5
REMARK VINA RESULT: -8.581632660      3.556      4.572
REMARK  4 active torsions:
REMARK  status: ('A' for Active; 'I' for Inactive)
REMARK    1  A    between atoms: C2_2  and  O1_3 
REMARK    2  A    between atoms: C2_2  and  C3_5 
REMARK       I    between atoms: N1_7  and  C5_8 
REMARK    3  A    between atoms: C5_8  and  C6_10 
REMARK    4  A    between atoms: C12_16  and  N2_17 
REMARK       I    between atoms: N2_17  and  C13_19 
REMARK       I    between atoms: C13_19  and  N3_21 
ROOT
HETATM    1  C3  UNL     1     -22.652  10.697  -0.512  1.00  0.00     0.056 C 
HETATM    2  C4  UNL     1     -22.444  11.464  -1.827  1.00  0.00     0.135 C 
HETATM    3  N1  UNL     1     -21.230  10.764  -2.275  1.00  0.00    -0.349 N 
HETATM    4  C5  UNL     1     -20.986  10.364  -3.603  1.00  0.00     0.224 C 
HETATM    5  O2  UNL     1     -21.867  10.615  -4.490  1.00  0.00    -0.273 OA
HETATM    6  C11 UNL     1     -20.388  10.570  -1.116  1.00  0.00     0.151 C 
HETATM    7  C12 UNL     1     -21.283  10.836   0.104  1.00  0.00     0.112 C 
ENDROOT
BRANCH   7   8
HETATM    8  N2  UNL     1     -21.027   9.862   1.143  1.00  0.00    -0.336 N 
HETATM    9  C13 UNL     1     -20.883  10.330   2.482  1.00  0.00     0.318 C 
HETATM   10  O3  UNL     1     -20.985  11.592   2.721  1.00  0.00    -0.247 OA
HETATM   11  N3  UNL     1     -20.632   9.519   3.603  1.00  0.00    -0.332 N 
HETATM   12  C14 UNL     1     -20.508  10.099   4.919  1.00  0.00     0.127 C 
HETATM   13  C18 UNL     1     -20.494   8.105   3.472  1.00  0.00     0.164 C 
HETATM   14  C15 UNL     1     -19.851   9.159   5.907  1.00  0.00     0.023 C 
HETATM   15  C16 UNL     1     -18.713   8.403   5.236  1.00  0.00     0.040 C 
HETATM   16  C17 UNL     1     -19.217   7.580   4.100  1.00  0.00     0.188 C 
HETATM   17  F1  UNL     1     -19.495   6.299   4.550  1.00  0.00    -0.248 F 
ATOM     18  H2  UNL     1     -20.952   8.869   0.924  1.00  0.00     0.164 HD
ENDBRANCH   7   8
BRANCH   1  19
HETATM   19  C2  UNL     1     -23.759  11.282   0.309  1.00  0.00     0.121 C 
HETATM   20  C1  UNL     1     -23.766  12.773   0.359  1.00  0.00     0.040 C 
BRANCH  19  21
HETATM   21  O1  UNL     1     -24.964  10.892  -0.323  1.00  0.00    -0.395 OA
ATOM     22  H1  UNL     1     -24.724  10.528  -1.167  1.00  0.00     0.210 HD
ENDBRANCH  19  21
ENDBRANCH   1  19
BRANCH   4  23
HETATM   23  C6  UNL     1     -19.773   9.670  -4.061  1.00  0.00     0.078 C 
HETATM   24  C7  UNL     1     -19.343   8.598  -3.057  1.00  0.00     0.014 C 
HETATM   25  C8  UNL     1     -20.354   7.492  -3.214  1.00  0.00     0.001 C 
HETATM   26  C9  UNL     1     -20.947   7.688  -4.583  1.00  0.00     0.001 C 
HETATM   27  C10 UNL     1     -20.126   8.789  -5.243  1.00  0.00     0.014 C 
ENDBRANCH   4  23
TORSDOF 4
ENDMDL
