MODEL 1
REMARK VINA RESULT: -8.123794430      0.000      0.000
REMARK  4 active torsions:
REMARK  status: ('A' for Active; 'I' for Inactive)
REMARK    1  A    between atoms: C2_2  and  N1_3 
REMARK       I    between atoms: N1_3  and  C3_5 
REMARK    2  A    between atoms: C3_5  and  C4_7 
REMARK       I    between atoms: N2_13  and  C10_14 
REMARK       I    between atoms: C10_14  and  N3_16 
REMARK    3  A    between atoms: N3_16  and  S1_18 
REMARK    4  A    between atoms: S1_18  and  C11_21 
ROOT
HETATM    1  C4  UNL     1     -20.459   9.943   2.989  1.00  0.00     0.061 A 
HETATM    2  C5  UNL     1     -19.084   9.396   3.168  1.00  0.00     0.027 A 
HETATM    3  C6  UNL     1     -20.301   8.595   2.598  1.00  0.00     0.006 A 
HETATM    4  C7  UNL     1     -20.640   7.425   3.376  1.00  0.00     0.007 C 
HETATM    5  C8  UNL     1     -22.074   7.181   3.748  1.00  0.00     0.020 C 
HETATM    6  C9  UNL     1     -22.354   8.093   4.938  1.00  0.00     0.127 C 
HETATM    7  N2  UNL     1     -22.392   9.433   4.444  1.00  0.00    -0.332 N 
HETATM    8  C10 UNL     1     -23.660   9.968   4.133  1.00  0.00     0.331 C 
HETATM    9  O2  UNL     1     -23.782  11.166   3.707  1.00  0.00    -0.246 OA
HETATM   10  N3  UNL     1     -24.831   9.189   4.284  1.00  0.00    -0.233 N 
ATOM     11  H3  UNL     1     -24.775   8.228   4.619  1.00  0.00     0.183 HD
HETATM   12  C14 UNL     1     -21.238  10.287   4.224  1.00  0.00     0.147 C 
ENDROOT
BRANCH  10  13
HETATM   13  S1  UNL     1     -26.375   9.904   3.886  1.00  0.00     0.271 S 
HETATM   14  O3  UNL     1     -26.387  10.298   2.436  1.00  0.00    -0.202 OA
HETATM   15  O4  UNL     1     -26.596  11.124   4.730  1.00  0.00    -0.202 OA
BRANCH  13  16
HETATM   16  C11 UNL     1     -27.668   8.731   4.192  1.00  0.00     0.217 C 
HETATM   17  C12 UNL     1     -28.899   9.077   3.412  1.00  0.00     0.071 C 
HETATM   18  C13 UNL     1     -27.153   7.367   3.782  1.00  0.00     0.071 C 
HETATM   19  F1  UNL     1     -27.944   8.744   5.546  1.00  0.00    -0.225 F 
ENDBRANCH  13  16
ENDBRANCH  10  13
BRANCH   1  20
HETATM   20  C3  UNL     1     -20.498  11.021   1.963  1.00  0.00     0.228 C 
HETATM   21  N1  UNL     1     -21.574  11.922   1.816  1.00  0.00    -0.361 N 
ATOM     22  H1  UNL     1     -22.373  11.833   2.443  1.00  0.00     0.162 HD
HETATM   23  O1  UNL     1     -19.534  11.193   1.143  1.00  0.00    -0.273 OA
BRANCH  21  24
HETATM   24  C2  UNL     1     -21.594  12.972   0.810  1.00  0.00     0.118 C 
HETATM   25  C1  UNL     1     -23.011  13.448   0.573  1.00  0.00     0.026 C 
ENDBRANCH  21  24
ENDBRANCH   1  20
TORSDOF 4
ENDMDL
MODEL 2
REMARK VINA RESULT: -8.103303108      5.151      6.587
REMARK  4 active torsions:
REMARK  status: ('A' for Active; 'I' for Inactive)
REMARK    1  A    between atoms: C2_2  and  N1_3 
REMARK       I    between atoms: N1_3  and  C3_5 
REMARK    2  A    between atoms: C3_5  and  C4_7 
REMARK       I    between atoms: N2_13  and  C10_14 
REMARK       I    between atoms: C10_14  and  N3_16 
REMARK    3  A    between atoms: N3_16  and  S1_18 
REMARK    4  A    between atoms: S1_18  and  C11_21 
ROOT
HETATM    1  C4  UNL     1     -21.266   9.989   1.819  1.00  0.00     0.061 A 
HETATM    2  C5  UNL     1     -20.884   9.908   3.258  1.00  0.00     0.027 A 
HETATM    3  C6  UNL     1     -19.949   9.537   2.060  1.00  0.00     0.006 A 
HETATM    4  C7  UNL     1     -19.498   8.164   2.080  1.00  0.00     0.007 C 
HETATM    5  C8  UNL     1     -19.583   7.344   0.825  1.00  0.00     0.020 C 
HETATM    6  C9  UNL     1     -21.038   6.898   0.719  1.00  0.00     0.127 C 
HETATM    7  N2  UNL     1     -21.810   8.053   0.382  1.00  0.00    -0.332 N 
HETATM    8  C10 UNL     1     -22.098   8.256  -0.985  1.00  0.00     0.331 C 
HETATM    9  O2  UNL     1     -22.801   9.251  -1.366  1.00  0.00    -0.246 OA
HETATM   10  N3  UNL     1     -21.613   7.363  -1.968  1.00  0.00    -0.233 N 
ATOM     11  H3  UNL     1     -21.046   6.557  -1.703  1.00  0.00     0.183 HD
HETATM   12  C14 UNL     1     -22.314   9.038   1.322  1.00  0.00     0.147 C 
ENDROOT
BRANCH  10  13
HETATM   13  S1  UNL     1     -22.003   7.663  -3.644  1.00  0.00     0.271 S 
HETATM   14  O3  UNL     1     -23.336   8.352  -3.734  1.00  0.00    -0.202 OA
HETATM   15  O4  UNL     1     -22.070   6.362  -4.386  1.00  0.00    -0.202 OA
BRANCH  13  16
HETATM   16  C11 UNL     1     -20.754   8.692  -4.367  1.00  0.00     0.217 C 
HETATM   17  C12 UNL     1     -21.229  10.110  -4.478  1.00  0.00     0.071 C 
HETATM   18  C13 UNL     1     -19.530   8.618  -3.479  1.00  0.00     0.071 C 
HETATM   19  F1  UNL     1     -20.460   8.190  -5.620  1.00  0.00    -0.225 F 
ENDBRANCH  13  16
ENDBRANCH  10  13
BRANCH   1  20
HETATM   20  C3  UNL     1     -21.509  11.393   1.389  1.00  0.00     0.228 C 
HETATM   21  N1  UNL     1     -22.015  11.745   0.120  1.00  0.00    -0.361 N 
ATOM     22  H1  UNL     1     -22.226  11.000  -0.544  1.00  0.00     0.162 HD
HETATM   23  O1  UNL     1     -21.267  12.378   2.166  1.00  0.00    -0.273 OA
BRANCH  21  24
HETATM   24  C2  UNL     1     -22.250  13.122  -0.284  1.00  0.00     0.118 C 
HETATM   25  C1  UNL     1     -23.650  13.552   0.093  1.00  0.00     0.026 C 
ENDBRANCH  21  24
ENDBRANCH   1  20
TORSDOF 4
ENDMDL
MODEL 3
REMARK VINA RESULT: -8.048169543      4.868      6.652
REMARK  4 active torsions:
REMARK  status: ('A' for Active; 'I' for Inactive)
REMARK    1  A    between atoms: C2_2  and  N1_3 
REMARK       I    between atoms: N1_3  and  C3_5 
REMARK    2  A    between atoms: C3_5  and  C4_7 
REMARK       I    between atoms: N2_13  and  C10_14 
REMARK       I    between atoms: C10_14  and  N3_16 
REMARK    3  A    between atoms: N3_16  and  S1_18 
REMARK    4  A    between atoms: S1_18  and  C11_21 
ROOT
HETATM    1  C4  UNL     1     -21.813   9.083   2.678  1.00  0.00     0.061 A 
HETATM    2  C5  UNL     1     -21.655   8.353   3.968  1.00  0.00     0.027 A 
HETATM    3  C6  UNL     1     -20.499   8.644   2.954  1.00  0.00     0.006 A 
HETATM    4  C7  UNL     1     -19.862   7.451   2.444  1.00  0.00     0.007 C 
HETATM    5  C8  UNL     1     -19.628   7.319   0.967  1.00  0.00     0.020 C 
HETATM    6  C9  UNL     1     -20.967   6.896   0.372  1.00  0.00     0.127 C 
HETATM    7  N2  UNL     1     -21.836   8.029   0.442  1.00  0.00    -0.332 N 
HETATM    8  C10 UNL     1     -21.932   8.838  -0.711  1.00  0.00     0.331 C 
HETATM    9  O2  UNL     1     -22.703   9.855  -0.737  1.00  0.00    -0.246 OA
HETATM   10  N3  UNL     1     -21.173   8.543  -1.868  1.00  0.00    -0.233 N 
ATOM     11  H3  UNL     1     -20.544   7.740  -1.885  1.00  0.00     0.183 HD
HETATM   12  C14 UNL     1     -22.620   8.424   1.599  1.00  0.00     0.147 C 
ENDROOT
BRANCH  10  13
HETATM   13  S1  UNL     1     -21.334   9.577  -3.266  1.00  0.00     0.271 S 
HETATM   14  O3  UNL     1     -20.998  10.992  -2.885  1.00  0.00    -0.202 OA
HETATM   15  O4  UNL     1     -22.744   9.524  -3.772  1.00  0.00    -0.202 OA
BRANCH  13  16
HETATM   16  C11 UNL     1     -20.229   9.029  -4.539  1.00  0.00     0.217 C 
HETATM   17  C12 UNL     1     -20.388   9.857  -5.777  1.00  0.00     0.071 C 
HETATM   18  C13 UNL     1     -18.817   9.154  -4.003  1.00  0.00     0.071 C 
HETATM   19  F1  UNL     1     -20.515   7.705  -4.812  1.00  0.00    -0.225 F 
ENDBRANCH  13  16
ENDBRANCH  10  13
BRANCH   1  20
HETATM   20  C3  UNL     1     -22.187  10.508   2.889  1.00  0.00     0.228 C 
HETATM   21  N1  UNL     1     -22.638  11.359   1.859  1.00  0.00    -0.361 N 
ATOM     22  H1  UNL     1     -22.712  10.983   0.914  1.00  0.00     0.162 HD
HETATM   23  O1  UNL     1     -22.118  11.048   4.045  1.00  0.00    -0.273 OA
BRANCH  21  24
HETATM   24  C2  UNL     1     -23.002  12.749   2.084  1.00  0.00     0.118 C 
HETATM   25  C1  UNL     1     -23.538  13.367   0.811  1.00  0.00     0.026 C 
ENDBRANCH  21  24
ENDBRANCH   1  20
TORSDOF 4
ENDMDL
MODEL 4
REMARK VINA RESULT: -7.779379557      1.185      1.392
REMARK  4 active torsions:
REMARK  status: ('A' for Active; 'I' for Inactive)
REMARK    1  A    between atoms: C2_2  and  N1_3 
REMARK       I    between atoms: N1_3  and  C3_5 
REMARK    2  A    between atoms: C3_5  and  C4_7 
REMARK       I    between atoms: N2_13  and  C10_14 
REMARK       I    between atoms: C10_14  and  N3_16 
REMARK    3  A    between atoms: N3_16  and  S1_18 
REMARK    4  A    between atoms: S1_18  and  C11_21 
ROOT
HETATM    1  C4  UNL     1     -20.454   9.755   3.098  1.00  0.00     0.061 A 
HETATM    2  C5  UNL     1     -19.094   9.193   3.336  1.00  0.00     0.027 A 
HETATM    3  C6  UNL     1     -20.339   8.366   2.872  1.00  0.00     0.006 A 
HETATM    4  C7  UNL     1     -20.706   7.309   3.787  1.00  0.00     0.007 C 
HETATM    5  C8  UNL     1     -22.143   7.154   4.192  1.00  0.00     0.020 C 
HETATM    6  C9  UNL     1     -22.387   8.211   5.265  1.00  0.00     0.127 C 
HETATM    7  N2  UNL     1     -22.389   9.483   4.612  1.00  0.00    -0.332 N 
HETATM    8  C10 UNL     1     -23.645  10.014   4.244  1.00  0.00     0.331 C 
HETATM    9  O2  UNL     1     -23.734  11.154   3.677  1.00  0.00    -0.246 OA
HETATM   10  N3  UNL     1     -24.836   9.294   4.493  1.00  0.00    -0.233 N 
ATOM     11  H3  UNL     1     -24.806   8.379   4.942  1.00  0.00     0.183 HD
HETATM   12  C14 UNL     1     -21.213  10.269   4.285  1.00  0.00     0.147 C 
ENDROOT
BRANCH  10  13
HETATM   13  S1  UNL     1     -26.361  10.001   4.018  1.00  0.00     0.271 S 
HETATM   14  O3  UNL     1     -26.330  10.324   2.550  1.00  0.00    -0.202 OA
HETATM   15  O4  UNL     1     -26.594  11.263   4.795  1.00  0.00    -0.202 OA
BRANCH  13  16
HETATM   16  C11 UNL     1     -27.673   8.855   4.344  1.00  0.00     0.217 C 
HETATM   17  C12 UNL     1     -28.944   9.295   3.682  1.00  0.00     0.071 C 
HETATM   18  C13 UNL     1     -27.244   7.505   3.808  1.00  0.00     0.071 C 
HETATM   19  F1  UNL     1     -27.850   8.786   5.712  1.00  0.00    -0.225 F 
ENDBRANCH  13  16
ENDBRANCH  10  13
BRANCH   1  20
HETATM   20  C3  UNL     1     -20.469  10.702   1.950  1.00  0.00     0.228 C 
HETATM   21  N1  UNL     1     -19.970  10.387   0.669  1.00  0.00    -0.361 N 
ATOM     22  H1  UNL     1     -19.573   9.460   0.516  1.00  0.00     0.162 HD
HETATM   23  O1  UNL     1     -20.948  11.881   2.067  1.00  0.00    -0.273 OA
BRANCH  21  24
HETATM   24  C2  UNL     1     -19.995  11.324  -0.443  1.00  0.00     0.118 C 
HETATM   25  C1  UNL     1     -18.958  10.944  -1.477  1.00  0.00     0.026 C 
ENDBRANCH  21  24
ENDBRANCH   1  20
TORSDOF 4
ENDMDL
MODEL 5
REMARK VINA RESULT: -7.777836613      1.242      1.377
REMARK  4 active torsions:
REMARK  status: ('A' for Active; 'I' for Inactive)
REMARK    1  A    between atoms: C2_2  and  N1_3 
REMARK       I    between atoms: N1_3  and  C3_5 
REMARK    2  A    between atoms: C3_5  and  C4_7 
REMARK       I    between atoms: N2_13  and  C10_14 
REMARK       I    between atoms: C10_14  and  N3_16 
REMARK    3  A    between atoms: N3_16  and  S1_18 
REMARK    4  A    between atoms: S1_18  and  C11_21 
ROOT
HETATM    1  C4  UNL     1     -20.817  10.319   3.067  1.00  0.00     0.061 A 
HETATM    2  C5  UNL     1     -19.390  10.029   3.386  1.00  0.00     0.027 A 
HETATM    3  C6  UNL     1     -20.391   9.011   2.748  1.00  0.00     0.006 A 
HETATM    4  C7  UNL     1     -20.591   7.820   3.542  1.00  0.00     0.007 C 
HETATM    5  C8  UNL     1     -21.989   7.335   3.801  1.00  0.00     0.020 C 
HETATM    6  C9  UNL     1     -22.531   8.214   4.923  1.00  0.00     0.127 C 
HETATM    7  N2  UNL     1     -22.756   9.513   4.371  1.00  0.00    -0.332 N 
HETATM    8  C10 UNL     1     -24.065   9.806   3.931  1.00  0.00     0.331 C 
HETATM    9  O2  UNL     1     -24.353  10.952   3.446  1.00  0.00    -0.246 OA
HETATM   10  N3  UNL     1     -25.091   8.836   4.014  1.00  0.00    -0.233 N 
ATOM     11  H3  UNL     1     -24.899   7.909   4.393  1.00  0.00     0.183 HD
HETATM   12  C14 UNL     1     -21.753  10.552   4.215  1.00  0.00     0.147 C 
ENDROOT
BRANCH  10  13
HETATM   13  S1  UNL     1     -26.692   9.255   3.456  1.00  0.00     0.271 S 
HETATM   14  O3  UNL     1     -27.479   8.001   3.197  1.00  0.00    -0.202 OA
HETATM   15  O4  UNL     1     -26.591  10.044   2.184  1.00  0.00    -0.202 OA
BRANCH  13  16
HETATM   16  C11 UNL     1     -27.515  10.226   4.689  1.00  0.00     0.217 C 
HETATM   17  C12 UNL     1     -28.952  10.444   4.327  1.00  0.00     0.071 C 
HETATM   18  C13 UNL     1     -27.413   9.477   6.002  1.00  0.00     0.071 C 
HETATM   19  F1  UNL     1     -26.860  11.439   4.785  1.00  0.00    -0.225 F 
ENDBRANCH  13  16
ENDBRANCH  10  13
BRANCH   1  20
HETATM   20  C3  UNL     1     -20.949  11.346   1.998  1.00  0.00     0.228 C 
HETATM   21  N1  UNL     1     -22.087  12.163   1.834  1.00  0.00    -0.361 N 
ATOM     22  H1  UNL     1     -22.867  12.047   2.481  1.00  0.00     0.162 HD
HETATM   23  O1  UNL     1     -20.014  11.547   1.150  1.00  0.00    -0.273 OA
BRANCH  21  24
HETATM   24  C2  UNL     1     -22.198  13.164   0.785  1.00  0.00     0.118 C 
HETATM   25  C1  UNL     1     -23.649  13.387   0.420  1.00  0.00     0.026 C 
ENDBRANCH  21  24
ENDBRANCH   1  20
TORSDOF 4
ENDMDL
