MODEL 1
REMARK VINA RESULT: -9.997239264      0.000      0.000
REMARK  3 active torsions:
REMARK  status: ('A' for Active; 'I' for Inactive)
REMARK    1  A    between atoms: C1_2  and  C2_4 
REMARK    2  A    between atoms: C5_7  and  N1_8 
REMARK       I    between atoms: N1_8  and  C6_10 
REMARK       I    between atoms: C6_10  and  N2_12 
REMARK       I    between atoms: N3_17  and  C11_18 
REMARK       I    between atoms: C11_18  and  N4_20 
REMARK    3  A    between atoms: C15_24  and  C16_25 
ROOT
HETATM    1  N1  UNL     1      27.272   9.851  -3.393  1.00  0.00    -0.338 N 
ATOM      2  H1  UNL     1      27.315   8.949  -2.919  1.00  0.00     0.164 HD
HETATM    3  C6  UNL     1      26.003  10.370  -3.740  1.00  0.00     0.318 C 
HETATM    4  O3  UNL     1      26.012  11.507  -4.334  1.00  0.00    -0.247 OA
HETATM    5  N2  UNL     1      24.789   9.702  -3.462  1.00  0.00    -0.332 N 
HETATM    6  C7  UNL     1      24.409   8.463  -2.836  1.00  0.00     0.142 C 
HETATM    7  C8  UNL     1      23.096   9.055  -2.557  1.00  0.00     0.025 A 
HETATM    8  C9  UNL     1      23.393   9.969  -3.686  1.00  0.00     0.142 C 
HETATM    9  C10 UNL     1      21.881   8.259  -2.534  1.00  0.00     0.142 A 
HETATM   10  N3  UNL     1      21.632   8.771  -1.165  1.00  0.00    -0.332 N 
HETATM   11  C11 UNL     1      20.617   8.478  -0.218  1.00  0.00     0.320 C 
HETATM   12  O4  UNL     1      19.715   7.624  -0.525  1.00  0.00    -0.247 OA
HETATM   13  N4  UNL     1      20.510   9.049   1.046  1.00  0.00    -0.329 N 
HETATM   14  C12 UNL     1      21.353  10.041   1.658  1.00  0.00     0.128 C 
HETATM   15  C13 UNL     1      20.272  11.001   2.188  1.00  0.00     0.022 C 
HETATM   16  C14 UNL     1      19.313  10.036   2.832  1.00  0.00     0.028 C 
HETATM   17  C15 UNL     1      19.494   8.753   2.054  1.00  0.00     0.099 C 
HETATM   18  C17 UNL     1      22.796   9.623  -1.233  1.00  0.00     0.142 A 
ENDROOT
BRANCH   1  19
HETATM   19  C5  UNL     1      28.503  10.536  -3.678  1.00  0.00     0.087 C 
HETATM   20  C4  UNL     1      29.053  10.232  -5.050  1.00  0.00     0.026 C 
HETATM   21  C3  UNL     1      30.520   9.902  -4.874  1.00  0.00     0.017 C 
HETATM   22  C2  UNL     1      30.844  10.542  -3.549  1.00  0.00     0.089 C 
HETATM   23  C18 UNL     1      29.621  10.135  -2.720  1.00  0.00     0.040 C 
BRANCH  22  24
HETATM   24  C1  UNL     1      32.092  10.046  -2.950  1.00  0.00     0.177 C 
HETATM   25  O1  UNL     1      33.090   9.858  -3.692  1.00  0.00    -0.648 OA
HETATM   26  O2  UNL     1      32.228   9.774  -1.615  1.00  0.00    -0.648 OA
ENDBRANCH  22  24
ENDBRANCH   1  19
BRANCH  17  27
HETATM   27  C16 UNL     1      19.998   7.716   3.050  1.00  0.00     0.110 C 
HETATM   28 BR1  UNL     1      20.247   8.470   4.786  1.00  0.00    -0.094 Br
ENDBRANCH  17  27
TORSDOF 3
ENDMDL
MODEL 2
REMARK VINA RESULT: -9.426260244      1.304      1.542
REMARK  3 active torsions:
REMARK  status: ('A' for Active; 'I' for Inactive)
REMARK    1  A    between atoms: C1_2  and  C2_4 
REMARK    2  A    between atoms: C5_7  and  N1_8 
REMARK       I    between atoms: N1_8  and  C6_10 
REMARK       I    between atoms: C6_10  and  N2_12 
REMARK       I    between atoms: N3_17  and  C11_18 
REMARK       I    between atoms: C11_18  and  N4_20 
REMARK    3  A    between atoms: C15_24  and  C16_25 
ROOT
HETATM    1  N1  UNL     1      25.911   9.080  -3.894  1.00  0.00    -0.338 N 
ATOM      2  H1  UNL     1      26.134   8.385  -3.181  1.00  0.00     0.164 HD
HETATM    3  C6  UNL     1      24.553   9.287  -4.231  1.00  0.00     0.318 C 
HETATM    4  O3  UNL     1      24.335  10.173  -5.133  1.00  0.00    -0.247 OA
HETATM    5  N2  UNL     1      23.488   8.580  -3.631  1.00  0.00    -0.332 N 
HETATM    6  C7  UNL     1      23.360   7.558  -2.626  1.00  0.00     0.142 C 
HETATM    7  C8  UNL     1      21.989   8.023  -2.387  1.00  0.00     0.025 A 
HETATM    8  C9  UNL     1      22.055   8.571  -3.763  1.00  0.00     0.142 C 
HETATM    9  C10 UNL     1      20.926   7.116  -1.990  1.00  0.00     0.142 A 
HETATM   10  N3  UNL     1      20.689   7.989  -0.816  1.00  0.00    -0.332 N 
HETATM   11  C11 UNL     1      19.802   7.870   0.286  1.00  0.00     0.320 C 
HETATM   12  O4  UNL     1      19.035   6.848   0.352  1.00  0.00    -0.247 OA
HETATM   13  N4  UNL     1      19.688   8.785   1.326  1.00  0.00    -0.329 N 
HETATM   14  C12 UNL     1      20.394  10.023   1.515  1.00  0.00     0.128 C 
HETATM   15  C13 UNL     1      19.208  10.944   1.857  1.00  0.00     0.022 C 
HETATM   16  C14 UNL     1      18.467  10.106   2.863  1.00  0.00     0.028 C 
HETATM   17  C15 UNL     1      18.804   8.682   2.486  1.00  0.00     0.099 C 
HETATM   18  C17 UNL     1      21.690   8.927  -1.266  1.00  0.00     0.142 A 
ENDROOT
BRANCH   1  19
HETATM   19  C5  UNL     1      26.990   9.804  -4.508  1.00  0.00     0.087 C 
HETATM   20  C4  UNL     1      27.701   9.018  -5.583  1.00  0.00     0.026 C 
HETATM   21  C3  UNL     1      29.186   9.147  -5.314  1.00  0.00     0.017 C 
HETATM   22  C2  UNL     1      29.260  10.390  -4.467  1.00  0.00     0.089 C 
HETATM   23  C18 UNL     1      28.086  10.164  -3.509  1.00  0.00     0.040 C 
BRANCH  22  24
HETATM   24  C1  UNL     1      30.531  10.529  -3.741  1.00  0.00     0.177 C 
HETATM   25  O1  UNL     1      31.608  10.497  -4.390  1.00  0.00    -0.648 OA
HETATM   26  O2  UNL     1      30.607  10.691  -2.384  1.00  0.00    -0.648 OA
ENDBRANCH  22  24
ENDBRANCH   1  19
BRANCH  17  27
HETATM   27  C16 UNL     1      19.538   8.086   3.681  1.00  0.00     0.110 C 
HETATM   28 BR1  UNL     1      19.687   9.338   5.113  1.00  0.00    -0.094 Br
ENDBRANCH  17  27
TORSDOF 3
ENDMDL
MODEL 3
REMARK VINA RESULT: -7.976605423      1.377      1.772
REMARK  3 active torsions:
REMARK  status: ('A' for Active; 'I' for Inactive)
REMARK    1  A    between atoms: C1_2  and  C2_4 
REMARK    2  A    between atoms: C5_7  and  N1_8 
REMARK       I    between atoms: N1_8  and  C6_10 
REMARK       I    between atoms: C6_10  and  N2_12 
REMARK       I    between atoms: N3_17  and  C11_18 
REMARK       I    between atoms: C11_18  and  N4_20 
REMARK    3  A    between atoms: C15_24  and  C16_25 
ROOT
HETATM    1  N1  UNL     1      26.977   8.385  -2.696  1.00  0.00    -0.338 N 
ATOM      2  H1  UNL     1      26.638   7.504  -2.310  1.00  0.00     0.164 HD
HETATM    3  C6  UNL     1      26.029   9.327  -3.158  1.00  0.00     0.318 C 
HETATM    4  O3  UNL     1      26.514  10.416  -3.633  1.00  0.00    -0.247 OA
HETATM    5  N2  UNL     1      24.634   9.111  -3.110  1.00  0.00    -0.332 N 
HETATM    6  C7  UNL     1      23.764   8.055  -2.663  1.00  0.00     0.142 C 
HETATM    7  C8  UNL     1      22.701   9.054  -2.505  1.00  0.00     0.025 A 
HETATM    8  C9  UNL     1      23.463   9.856  -3.492  1.00  0.00     0.142 C 
HETATM    9  C10 UNL     1      21.302   8.729  -2.721  1.00  0.00     0.142 A 
HETATM   10  N3  UNL     1      21.026   9.234  -1.355  1.00  0.00    -0.332 N 
HETATM   11  C11 UNL     1      19.835   9.270  -0.584  1.00  0.00     0.320 C 
HETATM   12  O4  UNL     1      18.759   8.797  -1.090  1.00  0.00    -0.247 OA
HETATM   13  N4  UNL     1      19.728   9.785   0.703  1.00  0.00    -0.329 N 
HETATM   14  C12 UNL     1      20.747  10.394   1.515  1.00  0.00     0.128 C 
HETATM   15  C13 UNL     1      19.983  11.645   1.986  1.00  0.00     0.022 C 
HETATM   16  C14 UNL     1      18.666  11.046   2.400  1.00  0.00     0.028 C 
HETATM   17  C15 UNL     1      18.526   9.816   1.533  1.00  0.00     0.099 C 
HETATM   18  C17 UNL     1      22.404   9.630  -1.185  1.00  0.00     0.142 A 
ENDROOT
BRANCH   1  19
HETATM   19  C5  UNL     1      28.395   8.612  -2.747  1.00  0.00     0.087 C 
HETATM   20  C4  UNL     1      28.857   9.718  -1.830  1.00  0.00     0.026 C 
HETATM   21  C3  UNL     1      29.763  10.617  -2.644  1.00  0.00     0.017 C 
HETATM   22  C2  UNL     1      30.191   9.717  -3.773  1.00  0.00     0.089 C 
HETATM   23  C18 UNL     1      28.861   9.045  -4.133  1.00  0.00     0.040 C 
BRANCH  22  24
HETATM   24  C1  UNL     1      30.757  10.443  -4.919  1.00  0.00     0.177 C 
HETATM   25  O1  UNL     1      29.983  11.087  -5.673  1.00  0.00    -0.648 OA
HETATM   26  O2  UNL     1      32.094  10.456  -5.214  1.00  0.00    -0.648 OA
ENDBRANCH  22  24
ENDBRANCH   1  19
BRANCH  17  27
HETATM   27  C16 UNL     1      18.486   8.626   2.483  1.00  0.00     0.110 C 
HETATM   28 BR1  UNL     1      19.247   9.053   4.181  1.00  0.00    -0.094 Br
ENDBRANCH  17  27
TORSDOF 3
ENDMDL
MODEL 4
REMARK VINA RESULT: -7.671245319      4.046      9.993
REMARK  3 active torsions:
REMARK  status: ('A' for Active; 'I' for Inactive)
REMARK    1  A    between atoms: C1_2  and  C2_4 
REMARK    2  A    between atoms: C5_7  and  N1_8 
REMARK       I    between atoms: N1_8  and  C6_10 
REMARK       I    between atoms: C6_10  and  N2_12 
REMARK       I    between atoms: N3_17  and  C11_18 
REMARK       I    between atoms: C11_18  and  N4_20 
REMARK    3  A    between atoms: C15_24  and  C16_25 
ROOT
HETATM    1  N1  UNL     1      20.661   8.995   1.803  1.00  0.00    -0.338 N 
ATOM      2  H1  UNL     1      20.890   9.972   1.620  1.00  0.00     0.164 HD
HETATM    3  C6  UNL     1      20.701   8.080   0.725  1.00  0.00     0.318 C 
HETATM    4  O3  UNL     1      20.404   6.866   1.017  1.00  0.00    -0.247 OA
HETATM    5  N2  UNL     1      21.044   8.450  -0.594  1.00  0.00    -0.332 N 
HETATM    6  C7  UNL     1      21.421   9.667  -1.263  1.00  0.00     0.142 C 
HETATM    7  C8  UNL     1      22.084   8.850  -2.286  1.00  0.00     0.025 A 
HETATM    8  C9  UNL     1      21.167   7.768  -1.855  1.00  0.00     0.142 C 
HETATM    9  C10 UNL     1      22.155   9.266  -3.676  1.00  0.00     0.142 A 
HETATM   10  N3  UNL     1      23.627   9.116  -3.593  1.00  0.00    -0.332 N 
HETATM   11  C11 UNL     1      24.658   9.384  -4.532  1.00  0.00     0.320 C 
HETATM   12  O4  UNL     1      24.340   9.844  -5.682  1.00  0.00    -0.247 OA
HETATM   13  N4  UNL     1      26.016   9.189  -4.308  1.00  0.00    -0.329 N 
HETATM   14  C12 UNL     1      26.669   8.674  -3.134  1.00  0.00     0.128 C 
HETATM   15  C13 UNL     1      27.612   7.652  -3.796  1.00  0.00     0.022 C 
HETATM   16  C14 UNL     1      28.184   8.467  -4.924  1.00  0.00     0.028 C 
HETATM   17  C15 UNL     1      27.104   9.477  -5.240  1.00  0.00     0.099 C 
HETATM   18  C17 UNL     1      23.536   8.624  -2.239  1.00  0.00     0.142 A 
ENDROOT
BRANCH   1  19
HETATM   19  C5  UNL     1      20.312   8.612   3.144  1.00  0.00     0.087 C 
HETATM   20  C4  UNL     1      18.847   8.795   3.455  1.00  0.00     0.026 C 
HETATM   21  C3  UNL     1      18.765   9.519   4.782  1.00  0.00     0.017 C 
HETATM   22  C2  UNL     1      20.112   9.235   5.395  1.00  0.00     0.089 C 
HETATM   23  C18 UNL     1      21.034   9.454   4.191  1.00  0.00     0.040 C 
BRANCH  22  24
HETATM   24  C1  UNL     1      20.451  10.136   6.507  1.00  0.00     0.177 C 
HETATM   25  O1  UNL     1      21.416  10.931   6.371  1.00  0.00    -0.648 OA
HETATM   26  O2  UNL     1      19.768  10.156   7.693  1.00  0.00    -0.648 OA
ENDBRANCH  22  24
ENDBRANCH   1  19
BRANCH  17  27
HETATM   27  C16 UNL     1      27.708  10.848  -4.970  1.00  0.00     0.110 C 
HETATM   28 BR1  UNL     1      29.604  10.756  -4.762  1.00  0.00    -0.094 Br
ENDBRANCH  17  27
TORSDOF 3
ENDMDL
MODEL 5
REMARK VINA RESULT: -7.456746256      2.356      3.084
REMARK  3 active torsions:
REMARK  status: ('A' for Active; 'I' for Inactive)
REMARK    1  A    between atoms: C1_2  and  C2_4 
REMARK    2  A    between atoms: C5_7  and  N1_8 
REMARK       I    between atoms: N1_8  and  C6_10 
REMARK       I    between atoms: C6_10  and  N2_12 
REMARK       I    between atoms: N3_17  and  C11_18 
REMARK       I    between atoms: C11_18  and  N4_20 
REMARK    3  A    between atoms: C15_24  and  C16_25 
ROOT
HETATM    1  N1  UNL     1      25.661  10.418  -3.651  1.00  0.00    -0.338 N 
ATOM      2  H1  UNL     1      24.786  10.641  -4.127  1.00  0.00     0.164 HD
HETATM    3  C6  UNL     1      25.762  10.686  -2.266  1.00  0.00     0.318 C 
HETATM    4  O3  UNL     1      26.885  10.385  -1.723  1.00  0.00    -0.247 OA
HETATM    5  N2  UNL     1      24.711  11.246  -1.506  1.00  0.00    -0.332 N 
HETATM    6  C7  UNL     1      23.367  11.691  -1.767  1.00  0.00     0.142 C 
HETATM    7  C8  UNL     1      23.064  11.472  -0.347  1.00  0.00     0.025 A 
HETATM    8  C9  UNL     1      24.524  11.621  -0.130  1.00  0.00     0.142 C 
HETATM    9  C10 UNL     1      22.109  12.298   0.371  1.00  0.00     0.142 A 
HETATM   10  N3  UNL     1      21.391  11.056   0.741  1.00  0.00    -0.332 N 
HETATM   11  C11 UNL     1      20.182  10.840   1.454  1.00  0.00     0.320 C 
HETATM   12  O4  UNL     1      19.533  11.854   1.887  1.00  0.00    -0.247 OA
HETATM   13  N4  UNL     1      19.625   9.596   1.729  1.00  0.00    -0.329 N 
HETATM   14  C12 UNL     1      20.127   8.292   1.391  1.00  0.00     0.128 C 
HETATM   15  C13 UNL     1      19.964   7.595   2.755  1.00  0.00     0.022 C 
HETATM   16  C14 UNL     1      18.568   8.011   3.132  1.00  0.00     0.028 C 
HETATM   17  C15 UNL     1      18.373   9.339   2.438  1.00  0.00     0.099 C 
HETATM   18  C17 UNL     1      22.393  10.241   0.095  1.00  0.00     0.142 A 
ENDROOT
BRANCH   1  19
HETATM   19  C5  UNL     1      26.734   9.847  -4.419  1.00  0.00     0.087 C 
HETATM   20  C4  UNL     1      27.153   8.481  -3.935  1.00  0.00     0.026 C 
HETATM   21  C3  UNL     1      28.663   8.494  -3.829  1.00  0.00     0.017 C 
HETATM   22  C2  UNL     1      29.047   9.632  -4.738  1.00  0.00     0.089 C 
HETATM   23  C18 UNL     1      28.006  10.686  -4.345  1.00  0.00     0.040 C 
BRANCH  22  24
HETATM   24  C1  UNL     1      30.417  10.119  -4.521  1.00  0.00     0.177 C 
HETATM   25  O1  UNL     1      30.723  10.591  -3.396  1.00  0.00    -0.648 OA
HETATM   26  O2  UNL     1      31.387  10.086  -5.487  1.00  0.00    -0.648 OA
ENDBRANCH  22  24
ENDBRANCH   1  19
BRANCH  17  27
HETATM   27  C16 UNL     1      17.221   9.145   1.459  1.00  0.00     0.110 C 
HETATM   28 BR1  UNL     1      17.641   9.837  -0.269  1.00  0.00    -0.094 Br
ENDBRANCH  17  27
TORSDOF 3
ENDMDL
