MODEL 1
REMARK VINA RESULT: -9.317562132      0.000      0.000
REMARK  7 active torsions:
REMARK  status: ('A' for Active; 'I' for Inactive)
REMARK       I    between atoms: N2_5  and  C4_6 
REMARK       I    between atoms: C4_6  and  N3_8 
REMARK    1  A    between atoms: N3_8  and  C5_10 
REMARK    2  A    between atoms: N4_13  and  C8_14 
REMARK    3  A    between atoms: C8_14  and  O2_15 
REMARK    4  A    between atoms: C8_14  and  N5_17 
REMARK    5  A    between atoms: C11_20  and  C12_22 
REMARK       I    between atoms: C12_22  and  N6_24 
REMARK    6  A    between atoms: N6_24  and  C13_26 
REMARK    7  A    between atoms: C13_26  and  C14_27 
ROOT
HETATM    1  C5  UNL     1      24.651   9.416  -2.923  1.00  0.00     0.089 C 
HETATM    2  C6  UNL     1      24.337   8.030  -3.429  1.00  0.00     0.045 C 
HETATM    3  C7  UNL     1      23.023   7.518  -2.986  1.00  0.00     0.128 C 
HETATM    4  N4  UNL     1      22.042   8.537  -2.622  1.00  0.00    -0.347 N 
HETATM    5  C18 UNL     1      22.434   9.792  -2.051  1.00  0.00     0.128 C 
HETATM    6  C19 UNL     1      23.912   9.574  -1.614  1.00  0.00     0.045 C 
ENDROOT
BRANCH   4   7
HETATM    7  C8  UNL     1      20.681   8.233  -2.833  1.00  0.00     0.220 C 
BRANCH   7   8
HETATM    8  O2  UNL     1      20.345   7.913  -4.056  1.00  0.00    -0.332 OA
ATOM      9  H2  UNL     1      19.791   8.535  -4.514  1.00  0.00     0.220 HD
ENDBRANCH   7   8
BRANCH   7  10
HETATM   10  N5  UNL     1      19.634   8.228  -1.891  1.00  0.00    -0.303 N 
HETATM   11  C9  UNL     1      18.302   7.572  -2.002  1.00  0.00     0.136 C 
HETATM   12  C10 UNL     1      17.784   8.573  -1.022  1.00  0.00     0.097 C 
HETATM   13  C11 UNL     1      19.251   8.688  -0.627  1.00  0.00     0.263 C 
HETATM   14  F1  UNL     1      19.574   9.959  -0.204  1.00  0.00    -0.208 F 
BRANCH  13  15
HETATM   15  C12 UNL     1      19.470   7.731   0.530  1.00  0.00     0.279 C 
HETATM   16  O3  UNL     1      19.569   6.547   0.200  1.00  0.00    -0.268 OA
HETATM   17  N6  UNL     1      19.544   8.205   1.825  1.00  0.00    -0.356 N 
ATOM     18  H6  UNL     1      19.432   9.214   1.922  1.00  0.00     0.162 HD
BRANCH  17  19
HETATM   19  C13 UNL     1      19.749   7.510   3.036  1.00  0.00     0.131 C 
BRANCH  19  20
HETATM   20  C14 UNL     1      20.717   7.981   4.036  1.00  0.00    -0.035 C 
HETATM   21  C15 UNL     1      20.266   8.663   5.260  1.00  0.00     0.016 C 
HETATM   22  C16 UNL     1      21.565   6.764   4.467  1.00  0.00     0.016 C 
HETATM   23  C17 UNL     1      21.699   8.946   3.317  1.00  0.00     0.016 C 
ENDBRANCH  19  20
ENDBRANCH  17  19
ENDBRANCH  13  15
ENDBRANCH   7  10
ENDBRANCH   4   7
BRANCH   1  24
HETATM   24  N3  UNL     1      26.060   9.596  -2.662  1.00  0.00    -0.338 N 
HETATM   25  C4  UNL     1      26.977  10.074  -3.612  1.00  0.00     0.318 C 
HETATM   26  N2  UNL     1      28.332  10.231  -3.309  1.00  0.00    -0.331 N 
HETATM   27  O1  UNL     1      26.565  10.364  -4.758  1.00  0.00    -0.247 OA
HETATM   28  C3  UNL     1      29.279  10.703  -4.298  1.00  0.00     0.147 C 
HETATM   29  C20 UNL     1      28.832   9.933  -1.995  1.00  0.00     0.147 C 
HETATM   30  C2  UNL     1      30.685  10.210  -4.037  1.00  0.00     0.136 C 
HETATM   31  N1  UNL     1      31.130  10.515  -2.701  1.00  0.00    -0.414 N 
HETATM   32  C1  UNL     1      32.202   9.695  -2.239  1.00  0.00     0.143 C 
HETATM   33  C21 UNL     1      30.081  10.761  -1.777  1.00  0.00     0.136 C 
ATOM     34  H3  UNL     1      26.409   9.361  -1.733  1.00  0.00     0.164 HD
ENDBRANCH   1  24
TORSDOF 7
ENDMDL
MODEL 2
REMARK VINA RESULT: -9.315815470      1.247      1.575
REMARK  7 active torsions:
REMARK  status: ('A' for Active; 'I' for Inactive)
REMARK       I    between atoms: N2_5  and  C4_6 
REMARK       I    between atoms: C4_6  and  N3_8 
REMARK    1  A    between atoms: N3_8  and  C5_10 
REMARK    2  A    between atoms: N4_13  and  C8_14 
REMARK    3  A    between atoms: C8_14  and  O2_15 
REMARK    4  A    between atoms: C8_14  and  N5_17 
REMARK    5  A    between atoms: C11_20  and  C12_22 
REMARK       I    between atoms: C12_22  and  N6_24 
REMARK    6  A    between atoms: N6_24  and  C13_26 
REMARK    7  A    between atoms: C13_26  and  C14_27 
ROOT
HETATM    1  C5  UNL     1      24.914   9.701  -2.780  1.00  0.00     0.089 C 
HETATM    2  C6  UNL     1      24.459   8.311  -3.150  1.00  0.00     0.045 C 
HETATM    3  C7  UNL     1      23.188   7.910  -2.511  1.00  0.00     0.128 C 
HETATM    4  N4  UNL     1      22.323   9.009  -2.090  1.00  0.00    -0.347 N 
HETATM    5  C18 UNL     1      22.857  10.266  -1.656  1.00  0.00     0.128 C 
HETATM    6  C19 UNL     1      24.365   9.979  -1.400  1.00  0.00     0.045 C 
ENDROOT
BRANCH   4   7
HETATM    7  C8  UNL     1      20.931   8.782  -2.105  1.00  0.00     0.220 C 
BRANCH   7   8
HETATM    8  O2  UNL     1      20.361   8.771  -3.282  1.00  0.00    -0.332 OA
ATOM      9  H2  UNL     1      20.481   7.982  -3.798  1.00  0.00     0.220 HD
ENDBRANCH   7   8
BRANCH   7  10
HETATM   10  N5  UNL     1      20.073   8.562  -1.010  1.00  0.00    -0.303 N 
HETATM   11  C9  UNL     1      19.932   7.330  -0.186  1.00  0.00     0.136 C 
HETATM   12  C10 UNL     1      18.547   7.774   0.151  1.00  0.00     0.097 C 
HETATM   13  C11 UNL     1      19.087   9.152  -0.212  1.00  0.00     0.263 C 
HETATM   14  F1  UNL     1      18.115   9.959  -0.763  1.00  0.00    -0.208 F 
BRANCH  13  15
HETATM   15  C12 UNL     1      19.562   9.792   1.079  1.00  0.00     0.279 C 
HETATM   16  O3  UNL     1      20.479  10.605   0.937  1.00  0.00    -0.268 OA
HETATM   17  N6  UNL     1      18.978   9.452   2.284  1.00  0.00    -0.356 N 
ATOM     18  H6  UNL     1      18.238   8.754   2.222  1.00  0.00     0.162 HD
BRANCH  17  19
HETATM   19  C13 UNL     1      19.248   9.921   3.587  1.00  0.00     0.131 C 
BRANCH  19  20
HETATM   20  C14 UNL     1      20.264   9.284   4.436  1.00  0.00    -0.035 C 
HETATM   21  C15 UNL     1      20.594   7.858   4.278  1.00  0.00     0.016 C 
HETATM   22  C16 UNL     1      21.574  10.086   4.268  1.00  0.00     0.016 C 
HETATM   23  C17 UNL     1      19.831   9.487   5.914  1.00  0.00     0.016 C 
ENDBRANCH  19  20
ENDBRANCH  17  19
ENDBRANCH  13  15
ENDBRANCH   7  10
ENDBRANCH   4   7
BRANCH   1  24
HETATM   24  N3  UNL     1      26.354   9.804  -2.714  1.00  0.00    -0.338 N 
HETATM   25  C4  UNL     1      27.156  10.250  -3.776  1.00  0.00     0.318 C 
HETATM   26  N2  UNL     1      28.546  10.333  -3.662  1.00  0.00    -0.331 N 
HETATM   27  O1  UNL     1      26.606  10.580  -4.853  1.00  0.00    -0.247 OA
HETATM   28  C3  UNL     1      29.371  10.772  -4.767  1.00  0.00     0.147 C 
HETATM   29  C20 UNL     1      29.205   9.988  -2.433  1.00  0.00     0.147 C 
HETATM   30  C2  UNL     1      30.772  10.204  -4.708  1.00  0.00     0.136 C 
HETATM   31  N1  UNL     1      31.412  10.464  -3.443  1.00  0.00    -0.414 N 
HETATM   32  C1  UNL     1      32.492   9.582  -3.140  1.00  0.00     0.143 C 
HETATM   33  C21 UNL     1      30.514  10.748  -2.381  1.00  0.00     0.136 C 
ATOM     34  H3  UNL     1      26.814   9.536  -1.844  1.00  0.00     0.164 HD
ENDBRANCH   1  24
TORSDOF 7
ENDMDL
MODEL 3
REMARK VINA RESULT: -9.222732084      1.234      1.485
REMARK  7 active torsions:
REMARK  status: ('A' for Active; 'I' for Inactive)
REMARK       I    between atoms: N2_5  and  C4_6 
REMARK       I    between atoms: C4_6  and  N3_8 
REMARK    1  A    between atoms: N3_8  and  C5_10 
REMARK    2  A    between atoms: N4_13  and  C8_14 
REMARK    3  A    between atoms: C8_14  and  O2_15 
REMARK    4  A    between atoms: C8_14  and  N5_17 
REMARK    5  A    between atoms: C11_20  and  C12_22 
REMARK       I    between atoms: C12_22  and  N6_24 
REMARK    6  A    between atoms: N6_24  and  C13_26 
REMARK    7  A    between atoms: C13_26  and  C14_27 
ROOT
HETATM    1  C5  UNL     1      23.995   9.726  -2.130  1.00  0.00     0.089 C 
HETATM    2  C6  UNL     1      23.573   8.363  -2.620  1.00  0.00     0.045 C 
HETATM    3  C7  UNL     1      22.274   7.911  -2.078  1.00  0.00     0.128 C 
HETATM    4  N4  UNL     1      21.378   8.973  -1.629  1.00  0.00    -0.347 N 
HETATM    5  C18 UNL     1      21.876  10.200  -1.081  1.00  0.00     0.128 C 
HETATM    6  C19 UNL     1      23.371   9.904  -0.765  1.00  0.00     0.045 C 
ENDROOT
BRANCH   4   7
HETATM    7  C8  UNL     1      19.991   8.739  -1.733  1.00  0.00     0.220 C 
BRANCH   7   8
HETATM    8  O2  UNL     1      19.589   8.126  -2.817  1.00  0.00    -0.332 OA
ATOM      9  H2  UNL     1      19.211   8.676  -3.493  1.00  0.00     0.220 HD
ENDBRANCH   7   8
BRANCH   7  10
HETATM   10  N5  UNL     1      18.980   9.081  -0.815  1.00  0.00    -0.303 N 
HETATM   11  C9  UNL     1      17.541   8.696  -0.847  1.00  0.00     0.136 C 
HETATM   12  C10 UNL     1      17.249   9.912  -0.031  1.00  0.00     0.097 C 
HETATM   13  C11 UNL     1      18.716   9.787   0.364  1.00  0.00     0.263 C 
HETATM   14  F1  UNL     1      19.293  11.016   0.601  1.00  0.00    -0.208 F 
BRANCH  13  15
HETATM   15  C12 UNL     1      18.758   8.985   1.650  1.00  0.00     0.279 C 
HETATM   16  O3  UNL     1      17.845   9.239   2.439  1.00  0.00    -0.268 OA
HETATM   17  N6  UNL     1      19.761   8.059   1.865  1.00  0.00    -0.356 N 
ATOM     18  H6  UNL     1      20.443   7.980   1.111  1.00  0.00     0.162 HD
BRANCH  17  19
HETATM   19  C13 UNL     1      19.988   7.206   2.965  1.00  0.00     0.131 C 
BRANCH  19  20
HETATM   20  C14 UNL     1      21.048   7.482   3.944  1.00  0.00    -0.035 C 
HETATM   21  C15 UNL     1      21.798   6.382   4.573  1.00  0.00     0.016 C 
HETATM   22  C16 UNL     1      22.074   8.415   3.264  1.00  0.00     0.016 C 
HETATM   23  C17 UNL     1      20.417   8.314   5.093  1.00  0.00     0.016 C 
ENDBRANCH  19  20
ENDBRANCH  17  19
ENDBRANCH  13  15
ENDBRANCH   7  10
ENDBRANCH   4   7
BRANCH   1  24
HETATM   24  N3  UNL     1      25.428   9.833  -1.981  1.00  0.00    -0.338 N 
HETATM   25  C4  UNL     1      26.304  10.137  -3.035  1.00  0.00     0.318 C 
HETATM   26  N2  UNL     1      27.685  10.230  -2.839  1.00  0.00    -0.331 N 
HETATM   27  O1  UNL     1      25.831  10.327  -4.179  1.00  0.00    -0.247 OA
HETATM   28  C3  UNL     1      28.587  10.521  -3.933  1.00  0.00     0.147 C 
HETATM   29  C20 UNL     1      28.256  10.044  -1.533  1.00  0.00     0.147 C 
HETATM   30  C2  UNL     1      29.974   9.962  -3.707  1.00  0.00     0.136 C 
HETATM   31  N1  UNL     1      30.531  10.381  -2.445  1.00  0.00    -0.414 N 
HETATM   32  C1  UNL     1      31.579   9.542  -1.960  1.00  0.00     0.143 C 
HETATM   33  C21 UNL     1      29.568  10.801  -1.491  1.00  0.00     0.136 C 
ATOM     34  H3  UNL     1      25.827   9.679  -1.055  1.00  0.00     0.164 HD
ENDBRANCH   1  24
TORSDOF 7
ENDMDL
MODEL 4
REMARK VINA RESULT: -9.148937420      5.267      8.063
REMARK  7 active torsions:
REMARK  status: ('A' for Active; 'I' for Inactive)
REMARK       I    between atoms: N2_5  and  C4_6 
REMARK       I    between atoms: C4_6  and  N3_8 
REMARK    1  A    between atoms: N3_8  and  C5_10 
REMARK    2  A    between atoms: N4_13  and  C8_14 
REMARK    3  A    between atoms: C8_14  and  O2_15 
REMARK    4  A    between atoms: C8_14  and  N5_17 
REMARK    5  A    between atoms: C11_20  and  C12_22 
REMARK       I    between atoms: C12_22  and  N6_24 
REMARK    6  A    between atoms: N6_24  and  C13_26 
REMARK    7  A    between atoms: C13_26  and  C14_27 
ROOT
HETATM    1  C5  UNL     1      19.626   8.281  -2.791  1.00  0.00     0.089 C 
HETATM    2  C6  UNL     1      21.083   8.591  -2.554  1.00  0.00     0.045 C 
HETATM    3  C7  UNL     1      21.477   8.552  -1.130  1.00  0.00     0.128 C 
HETATM    4  N4  UNL     1      20.625   7.739  -0.266  1.00  0.00    -0.347 N 
HETATM    5  C18 UNL     1      19.223   7.586  -0.518  1.00  0.00     0.128 C 
HETATM    6  C19 UNL     1      18.888   8.707  -1.543  1.00  0.00     0.045 C 
ENDROOT
BRANCH   4   7
HETATM    7  C8  UNL     1      21.231   7.123   0.849  1.00  0.00     0.220 C 
BRANCH   7   8
HETATM    8  O2  UNL     1      21.918   6.037   0.604  1.00  0.00    -0.332 OA
ATOM      9  H2  UNL     1      22.853   6.089   0.764  1.00  0.00     0.220 HD
ENDBRANCH   7   8
BRANCH   7  10
HETATM   10  N5  UNL     1      21.192   7.530   2.196  1.00  0.00    -0.303 N 
HETATM   11  C9  UNL     1      22.322   7.618   3.162  1.00  0.00     0.136 C 
HETATM   12  C10 UNL     1      21.326   7.462   4.264  1.00  0.00     0.097 C 
HETATM   13  C11 UNL     1      20.346   7.977   3.217  1.00  0.00     0.263 C 
HETATM   14  F1  UNL     1      19.087   7.442   3.382  1.00  0.00    -0.208 F 
BRANCH  13  15
HETATM   15  C12 UNL     1      20.254   9.480   3.402  1.00  0.00     0.279 C 
HETATM   16  O3  UNL     1      20.164   9.843   4.577  1.00  0.00    -0.268 OA
HETATM   17  N6  UNL     1      20.274  10.322   2.307  1.00  0.00    -0.356 N 
ATOM     18  H6  UNL     1      20.343   9.853   1.404  1.00  0.00     0.162 HD
BRANCH  17  19
HETATM   19  C13 UNL     1      20.212  11.729   2.243  1.00  0.00     0.131 C 
BRANCH  19  20
HETATM   20  C14 UNL     1      21.383  12.532   1.864  1.00  0.00    -0.035 C 
HETATM   21  C15 UNL     1      21.235  13.946   1.479  1.00  0.00     0.016 C 
HETATM   22  C16 UNL     1      22.384  12.473   3.040  1.00  0.00     0.016 C 
HETATM   23  C17 UNL     1      22.080  11.811   0.679  1.00  0.00     0.016 C 
ENDBRANCH  19  20
ENDBRANCH  17  19
ENDBRANCH  13  15
ENDBRANCH   7  10
ENDBRANCH   4   7
BRANCH   1  24
HETATM   24  N3  UNL     1      19.084   9.025  -3.904  1.00  0.00    -0.338 N 
HETATM   25  C4  UNL     1      18.239   8.470  -4.879  1.00  0.00     0.318 C 
HETATM   26  N2  UNL     1      17.739   9.234  -5.938  1.00  0.00    -0.331 N 
HETATM   27  O1  UNL     1      17.931   7.259  -4.795  1.00  0.00    -0.247 OA
HETATM   28  C3  UNL     1      16.888   8.653  -6.954  1.00  0.00     0.147 C 
HETATM   29  C20 UNL     1      18.052  10.632  -6.049  1.00  0.00     0.147 C 
HETATM   30  C2  UNL     1      16.983   9.379  -8.277  1.00  0.00     0.136 C 
HETATM   31  N1  UNL     1      16.743  10.794  -8.141  1.00  0.00    -0.414 N 
HETATM   32  C1  UNL     1      17.273  11.583  -9.204  1.00  0.00     0.143 C 
HETATM   33  C21 UNL     1      16.935  11.296  -6.827  1.00  0.00     0.136 C 
ATOM     34  H3  UNL     1      19.329  10.012  -3.986  1.00  0.00     0.164 HD
ENDBRANCH   1  24
TORSDOF 7
ENDMDL
MODEL 5
REMARK VINA RESULT: -9.101528808      1.504      1.746
REMARK  7 active torsions:
REMARK  status: ('A' for Active; 'I' for Inactive)
REMARK       I    between atoms: N2_5  and  C4_6 
REMARK       I    between atoms: C4_6  and  N3_8 
REMARK    1  A    between atoms: N3_8  and  C5_10 
REMARK    2  A    between atoms: N4_13  and  C8_14 
REMARK    3  A    between atoms: C8_14  and  O2_15 
REMARK    4  A    between atoms: C8_14  and  N5_17 
REMARK    5  A    between atoms: C11_20  and  C12_22 
REMARK       I    between atoms: C12_22  and  N6_24 
REMARK    6  A    between atoms: N6_24  and  C13_26 
REMARK    7  A    between atoms: C13_26  and  C14_27 
ROOT
HETATM    1  C5  UNL     1      24.491   9.863  -2.335  1.00  0.00     0.089 C 
HETATM    2  C6  UNL     1      24.046   8.474  -2.721  1.00  0.00     0.045 C 
HETATM    3  C7  UNL     1      22.755   8.074  -2.124  1.00  0.00     0.128 C 
HETATM    4  N4  UNL     1      21.877   9.174  -1.732  1.00  0.00    -0.347 N 
HETATM    5  C18 UNL     1      22.398  10.431  -1.281  1.00  0.00     0.128 C 
HETATM    6  C19 UNL     1      23.896  10.141  -0.974  1.00  0.00     0.045 C 
ENDROOT
BRANCH   4   7
HETATM    7  C8  UNL     1      20.486   8.948  -1.794  1.00  0.00     0.220 C 
BRANCH   7   8
HETATM    8  O2  UNL     1      19.983   8.769  -2.988  1.00  0.00    -0.332 OA
ATOM      9  H2  UNL     1      19.049   8.920  -3.075  1.00  0.00     0.220 HD
ENDBRANCH   7   8
BRANCH   7  10
HETATM   10  N5  UNL     1      19.567   8.889  -0.729  1.00  0.00    -0.303 N 
HETATM   11  C9  UNL     1      19.337   7.768   0.226  1.00  0.00     0.136 C 
HETATM   12  C10 UNL     1      17.955   8.294   0.432  1.00  0.00     0.097 C 
HETATM   13  C11 UNL     1      18.565   9.601  -0.061  1.00  0.00     0.263 C 
HETATM   14  F1  UNL     1      17.653  10.367  -0.755  1.00  0.00    -0.208 F 
BRANCH  13  15
HETATM   15  C12 UNL     1      18.999  10.375   1.170  1.00  0.00     0.279 C 
HETATM   16  O3  UNL     1      18.114  11.073   1.670  1.00  0.00    -0.268 OA
HETATM   17  N6  UNL     1      20.292  10.267   1.643  1.00  0.00    -0.356 N 
ATOM     18  H6  UNL     1      20.899   9.651   1.103  1.00  0.00     0.162 HD
BRANCH  17  19
HETATM   19  C13 UNL     1      20.903  10.876   2.759  1.00  0.00     0.131 C 
BRANCH  19  20
HETATM   20  C14 UNL     1      21.309  10.093   3.934  1.00  0.00    -0.035 C 
HETATM   21  C15 UNL     1      20.303   9.541   4.857  1.00  0.00     0.016 C 
HETATM   22  C16 UNL     1      22.173   8.916   3.430  1.00  0.00     0.016 C 
HETATM   23  C17 UNL     1      22.260  10.982   4.782  1.00  0.00     0.016 C 
ENDBRANCH  19  20
ENDBRANCH  17  19
ENDBRANCH  13  15
ENDBRANCH   7  10
ENDBRANCH   4   7
BRANCH   1  24
HETATM   24  N3  UNL     1      25.927   9.965  -2.222  1.00  0.00    -0.338 N 
HETATM   25  C4  UNL     1      26.777  10.277  -3.295  1.00  0.00     0.318 C 
HETATM   26  N2  UNL     1      28.162  10.364  -3.133  1.00  0.00    -0.331 N 
HETATM   27  O1  UNL     1      26.276  10.479  -4.425  1.00  0.00    -0.247 OA
HETATM   28  C3  UNL     1      29.037  10.663  -4.247  1.00  0.00     0.147 C 
HETATM   29  C20 UNL     1      28.767  10.164  -1.845  1.00  0.00     0.147 C 
HETATM   30  C2  UNL     1      30.428  10.098  -4.061  1.00  0.00     0.136 C 
HETATM   31  N1  UNL     1      31.018  10.503  -2.811  1.00  0.00    -0.414 N 
HETATM   32  C1  UNL     1      32.075   9.658  -2.360  1.00  0.00     0.143 C 
HETATM   33  C21 UNL     1      30.081  10.917  -1.828  1.00  0.00     0.136 C 
ATOM     34  H3  UNL     1      26.349   9.800  -1.308  1.00  0.00     0.164 HD
ENDBRANCH   1  24
TORSDOF 7
ENDMDL
