MODEL 1
REMARK VINA RESULT: -8.024199535      0.000      0.000
REMARK  9 active torsions:
REMARK  status: ('A' for Active; 'I' for Inactive)
REMARK       I    between atoms: N1_2  and  C2_4 
REMARK       I    between atoms: C2_4  and  N2_6 
REMARK    1  A    between atoms: N2_6  and  C3_8 
REMARK    2  A    between atoms: C3_8  and  C4_9 
REMARK    3  A    between atoms: C5_10  and  C6_11 
REMARK    4  A    between atoms: C6_11  and  O2_12 
REMARK    5  A    between atoms: C6_11  and  C7_14 
REMARK    6  A    between atoms: N3_17  and  C10_18 
REMARK    7  A    between atoms: C10_18  and  O3_19 
REMARK    8  A    between atoms: C10_18  and  N4_21 
REMARK    9  A    between atoms: C15_26  and  C16_27 
ROOT
HETATM    1  C7  UNL     1      21.908   7.641  -4.631  1.00  0.00     0.029 C 
HETATM    2  C8  UNL     1      22.363   7.342  -3.212  1.00  0.00     0.028 C 
HETATM    3  C9  UNL     1      21.307   6.456  -2.594  1.00  0.00     0.127 C 
HETATM    4  N3  UNL     1      20.150   7.334  -2.332  1.00  0.00    -0.347 N 
HETATM    5  C17 UNL     1      19.744   8.132  -3.445  1.00  0.00     0.127 C 
HETATM    6  C18 UNL     1      20.420   7.564  -4.708  1.00  0.00     0.028 C 
ENDROOT
BRANCH   1   7
HETATM    7  C6  UNL     1      22.348   9.047  -5.046  1.00  0.00     0.201 C 
BRANCH   7   8
HETATM    8  C5  UNL     1      23.336   9.567  -4.075  1.00  0.00    -0.073 C 
HETATM    9  C4  UNL     1      24.124  10.004  -3.273  1.00  0.00    -0.084 C 
BRANCH   9  10
HETATM   10  C3  UNL     1      25.058  10.540  -2.283  1.00  0.00     0.219 C 
BRANCH  10  11
HETATM   11  N2  UNL     1      24.490  10.524  -0.961  1.00  0.00    -0.333 N 
HETATM   12  C2  UNL     1      23.725  11.629  -0.518  1.00  0.00     0.316 C 
HETATM   13  N1  UNL     1      23.172  11.609   0.778  1.00  0.00    -0.347 N 
HETATM   14  O1  UNL     1      23.537  12.630  -1.280  1.00  0.00    -0.247 OA
HETATM   15  C1  UNL     1      22.388  12.726   1.240  1.00  0.00     0.151 C 
ATOM     16  H1  UNL     1      23.327  10.806   1.387  1.00  0.00     0.163 HD
ATOM     17  H2  UNL     1      24.637   9.723  -0.348  1.00  0.00     0.165 HD
ENDBRANCH  10  11
ENDBRANCH   9  10
ENDBRANCH   7   8
BRANCH   7  18
HETATM   18  O2  UNL     1      22.913   8.936  -6.308  1.00  0.00    -0.383 OA
ATOM     19  H2  UNL     1      22.291   8.563  -6.922  1.00  0.00     0.211 HD
ENDBRANCH   7  18
ENDBRANCH   1   7
BRANCH   4  20
HETATM   20  C10 UNL     1      19.519   7.352  -1.096  1.00  0.00     0.218 C 
BRANCH  20  21
HETATM   21  O3  UNL     1      18.453   6.609  -1.036  1.00  0.00    -0.332 OA
ATOM     22  H3  UNL     1      17.671   7.028  -1.374  1.00  0.00     0.220 HD
ENDBRANCH  20  21
BRANCH  20  23
HETATM   23  N4  UNL     1      19.870   8.061   0.097  1.00  0.00    -0.331 N 
HETATM   24  C11 UNL     1      19.506   9.474   0.297  1.00  0.00     0.084 C 
HETATM   25  C12 UNL     1      18.148   9.801  -0.295  1.00  0.00     0.032 C 
HETATM   26  C13 UNL     1      19.504   9.713   1.773  1.00  0.00     0.027 C 
HETATM   27  C14 UNL     1      19.802   8.374   2.387  1.00  0.00     0.036 C 
HETATM   28  C15 UNL     1      20.589   7.654   1.269  1.00  0.00     0.170 C 
BRANCH  28  29
HETATM   29  C16 UNL     1      21.981   8.226   1.282  1.00  0.00     0.217 C 
HETATM   30  O4  UNL     1      22.571   8.465   0.246  1.00  0.00    -0.283 OA
HETATM   31 BR1  UNL     1      22.886   8.601   2.919  1.00  0.00    -0.007 Br
ENDBRANCH  28  29
ENDBRANCH  20  23
ENDBRANCH   4  20
TORSDOF 9
ENDMDL
MODEL 2
REMARK VINA RESULT: -8.003797300      2.501      4.293
REMARK  9 active torsions:
REMARK  status: ('A' for Active; 'I' for Inactive)
REMARK       I    between atoms: N1_2  and  C2_4 
REMARK       I    between atoms: C2_4  and  N2_6 
REMARK    1  A    between atoms: N2_6  and  C3_8 
REMARK    2  A    between atoms: C3_8  and  C4_9 
REMARK    3  A    between atoms: C5_10  and  C6_11 
REMARK    4  A    between atoms: C6_11  and  O2_12 
REMARK    5  A    between atoms: C6_11  and  C7_14 
REMARK    6  A    between atoms: N3_17  and  C10_18 
REMARK    7  A    between atoms: C10_18  and  O3_19 
REMARK    8  A    between atoms: C10_18  and  N4_21 
REMARK    9  A    between atoms: C15_26  and  C16_27 
ROOT
HETATM    1  C7  UNL     1      18.740   7.488  -1.884  1.00  0.00     0.029 C 
HETATM    2  C8  UNL     1      19.991   7.799  -1.078  1.00  0.00     0.028 C 
HETATM    3  C9  UNL     1      19.547   8.017   0.349  1.00  0.00     0.127 C 
HETATM    4  N3  UNL     1      18.877   9.332   0.364  1.00  0.00    -0.347 N 
HETATM    5  C17 UNL     1      17.884   9.505  -0.649  1.00  0.00     0.127 C 
HETATM    6  C18 UNL     1      17.554   8.118  -1.234  1.00  0.00     0.028 C 
ENDROOT
BRANCH   1   7
HETATM    7  C6  UNL     1      18.872   8.040  -3.305  1.00  0.00     0.201 C 
BRANCH   7   8
HETATM    8  C5  UNL     1      20.196   7.682  -3.858  1.00  0.00    -0.073 C 
HETATM    9  C4  UNL     1      21.283   7.414  -4.308  1.00  0.00    -0.084 C 
BRANCH   9  10
HETATM   10  C3  UNL     1      22.611   7.113  -4.841  1.00  0.00     0.219 C 
BRANCH  10  11
HETATM   11  N2  UNL     1      23.633   7.299  -3.845  1.00  0.00    -0.333 N 
HETATM   12  C2  UNL     1      24.279   8.553  -3.735  1.00  0.00     0.316 C 
HETATM   13  N1  UNL     1      25.279   8.730  -2.759  1.00  0.00    -0.347 N 
HETATM   14  O1  UNL     1      23.960   9.512  -4.508  1.00  0.00    -0.247 OA
HETATM   15  C1  UNL     1      25.942  10.003  -2.634  1.00  0.00     0.151 C 
ATOM     16  H1  UNL     1      25.534   7.958  -2.143  1.00  0.00     0.163 HD
ATOM     17  H2  UNL     1      23.890   6.533  -3.223  1.00  0.00     0.165 HD
ENDBRANCH  10  11
ENDBRANCH   9  10
ENDBRANCH   7   8
BRANCH   7  18
HETATM   18  O2  UNL     1      17.856   7.466  -4.056  1.00  0.00    -0.383 OA
ATOM     19  H2  UNL     1      17.536   8.077  -4.709  1.00  0.00     0.211 HD
ENDBRANCH   7  18
ENDBRANCH   1   7
BRANCH   4  20
HETATM   20  C10 UNL     1      19.198  10.298   1.307  1.00  0.00     0.218 C 
BRANCH  20  21
HETATM   21  O3  UNL     1      18.302  11.232   1.433  1.00  0.00    -0.332 OA
ATOM     22  H3  UNL     1      18.657  12.113   1.418  1.00  0.00     0.220 HD
ENDBRANCH  20  21
BRANCH  20  23
HETATM   23  N4  UNL     1      20.354  10.408   2.143  1.00  0.00    -0.331 N 
HETATM   24  C11 UNL     1      20.297  10.129   3.588  1.00  0.00     0.084 C 
HETATM   25  C12 UNL     1      19.352   8.987   3.909  1.00  0.00     0.032 C 
HETATM   26  C13 UNL     1      21.690   9.790   4.015  1.00  0.00     0.027 C 
HETATM   27  C14 UNL     1      22.505   9.816   2.752  1.00  0.00     0.036 C 
HETATM   28  C15 UNL     1      21.707  10.786   1.852  1.00  0.00     0.170 C 
BRANCH  28  29
HETATM   29  C16 UNL     1      22.004  12.177   2.344  1.00  0.00     0.217 C 
HETATM   30  O4  UNL     1      22.838  12.372   3.207  1.00  0.00    -0.283 OA
HETATM   31 BR1  UNL     1      21.090  13.696   1.640  1.00  0.00    -0.007 Br
ENDBRANCH  28  29
ENDBRANCH  20  23
ENDBRANCH   4  20
TORSDOF 9
ENDMDL
MODEL 3
REMARK VINA RESULT: -7.873326166      2.551      3.177
REMARK  9 active torsions:
REMARK  status: ('A' for Active; 'I' for Inactive)
REMARK       I    between atoms: N1_2  and  C2_4 
REMARK       I    between atoms: C2_4  and  N2_6 
REMARK    1  A    between atoms: N2_6  and  C3_8 
REMARK    2  A    between atoms: C3_8  and  C4_9 
REMARK    3  A    between atoms: C5_10  and  C6_11 
REMARK    4  A    between atoms: C6_11  and  O2_12 
REMARK    5  A    between atoms: C6_11  and  C7_14 
REMARK    6  A    between atoms: N3_17  and  C10_18 
REMARK    7  A    between atoms: C10_18  and  O3_19 
REMARK    8  A    between atoms: C10_18  and  N4_21 
REMARK    9  A    between atoms: C15_26  and  C16_27 
ROOT
HETATM    1  C7  UNL     1      21.919   7.972  -3.843  1.00  0.00     0.029 C 
HETATM    2  C8  UNL     1      22.176   7.116  -2.613  1.00  0.00     0.028 C 
HETATM    3  C9  UNL     1      20.868   6.443  -2.270  1.00  0.00     0.127 C 
HETATM    4  N3  UNL     1      20.013   7.498  -1.694  1.00  0.00    -0.347 N 
HETATM    5  C17 UNL     1      19.932   8.691  -2.477  1.00  0.00     0.127 C 
HETATM    6  C18 UNL     1      20.482   8.376  -3.881  1.00  0.00     0.028 C 
ENDROOT
BRANCH   1   7
HETATM    7  C6  UNL     1      22.782   9.234  -3.803  1.00  0.00     0.201 C 
BRANCH   7   8
HETATM    8  C5  UNL     1      24.208   8.859  -3.676  1.00  0.00    -0.073 C 
HETATM    9  C4  UNL     1      25.369   8.541  -3.593  1.00  0.00    -0.084 C 
BRANCH   9  10
HETATM   10  C3  UNL     1      26.777   8.153  -3.520  1.00  0.00     0.219 C 
BRANCH  10  11
HETATM   11  N2  UNL     1      27.447   8.804  -2.426  1.00  0.00    -0.333 N 
HETATM   12  C2  UNL     1      28.722   9.381  -2.634  1.00  0.00     0.316 C 
HETATM   13  N1  UNL     1      29.374  10.016  -1.558  1.00  0.00    -0.347 N 
HETATM   14  O1  UNL     1      29.274   9.329  -3.779  1.00  0.00    -0.247 OA
HETATM   15  C1  UNL     1      30.671  10.611  -1.757  1.00  0.00     0.151 C 
ATOM     16  H1  UNL     1      28.929  10.055  -0.641  1.00  0.00     0.163 HD
ATOM     17  H2  UNL     1      27.006   8.849  -1.507  1.00  0.00     0.165 HD
ENDBRANCH  10  11
ENDBRANCH   9  10
ENDBRANCH   7   8
BRANCH   7  18
HETATM   18  O2  UNL     1      22.559   9.913  -4.992  1.00  0.00    -0.383 OA
ATOM     19  H2  UNL     1      22.077   9.369  -5.604  1.00  0.00     0.211 HD
ENDBRANCH   7  18
ENDBRANCH   1   7
BRANCH   4  20
HETATM   20  C10 UNL     1      19.342   7.314  -0.494  1.00  0.00     0.218 C 
BRANCH  20  21
HETATM   21  O3  UNL     1      18.373   6.449  -0.557  1.00  0.00    -0.332 OA
ATOM     22  H3  UNL     1      17.822   6.428   0.217  1.00  0.00     0.220 HD
ENDBRANCH  20  21
BRANCH  20  23
HETATM   23  N4  UNL     1      19.564   7.930   0.779  1.00  0.00    -0.331 N 
HETATM   24  C11 UNL     1      19.013   9.257   1.105  1.00  0.00     0.084 C 
HETATM   25  C12 UNL     1      17.641   9.469   0.494  1.00  0.00     0.032 C 
HETATM   26  C13 UNL     1      18.937   9.336   2.597  1.00  0.00     0.027 C 
HETATM   27  C14 UNL     1      19.391   7.987   3.084  1.00  0.00     0.036 C 
HETATM   28  C15 UNL     1      20.296   7.497   1.932  1.00  0.00     0.170 C 
BRANCH  28  29
HETATM   29  C16 UNL     1      21.601   8.236   2.062  1.00  0.00     0.217 C 
HETATM   30  O4  UNL     1      22.147   8.360   3.141  1.00  0.00    -0.283 OA
HETATM   31 BR1  UNL     1      22.458   9.010   0.544  1.00  0.00    -0.007 Br
ENDBRANCH  28  29
ENDBRANCH  20  23
ENDBRANCH   4  20
TORSDOF 9
ENDMDL
MODEL 4
REMARK VINA RESULT: -7.832371681      1.751      2.060
REMARK  9 active torsions:
REMARK  status: ('A' for Active; 'I' for Inactive)
REMARK       I    between atoms: N1_2  and  C2_4 
REMARK       I    between atoms: C2_4  and  N2_6 
REMARK    1  A    between atoms: N2_6  and  C3_8 
REMARK    2  A    between atoms: C3_8  and  C4_9 
REMARK    3  A    between atoms: C5_10  and  C6_11 
REMARK    4  A    between atoms: C6_11  and  O2_12 
REMARK    5  A    between atoms: C6_11  and  C7_14 
REMARK    6  A    between atoms: N3_17  and  C10_18 
REMARK    7  A    between atoms: C10_18  and  O3_19 
REMARK    8  A    between atoms: C10_18  and  N4_21 
REMARK    9  A    between atoms: C15_26  and  C16_27 
ROOT
HETATM    1  C7  UNL     1      21.876   6.710  -2.860  1.00  0.00     0.029 C 
HETATM    2  C8  UNL     1      22.120   7.333  -1.495  1.00  0.00     0.028 C 
HETATM    3  C9  UNL     1      21.059   6.785  -0.570  1.00  0.00     0.127 C 
HETATM    4  N3  UNL     1      19.803   7.454  -0.957  1.00  0.00    -0.347 N 
HETATM    5  C17 UNL     1      19.514   7.415  -2.356  1.00  0.00     0.127 C 
HETATM    6  C18 UNL     1      20.433   6.359  -3.001  1.00  0.00     0.028 C 
ENDROOT
BRANCH   1   7
HETATM    7  C6  UNL     1      22.253   7.693  -3.969  1.00  0.00     0.201 C 
BRANCH   7   8
HETATM    8  C5  UNL     1      23.147   8.739  -3.426  1.00  0.00    -0.073 C 
HETATM    9  C4  UNL     1      23.885   9.597  -3.006  1.00  0.00    -0.084 C 
BRANCH   9  10
HETATM   10  C3  UNL     1      24.778  10.649  -2.522  1.00  0.00     0.219 C 
BRANCH  10  11
HETATM   11  N2  UNL     1      24.066  11.878  -2.291  1.00  0.00    -0.333 N 
HETATM   12  C2  UNL     1      23.717  12.244  -0.970  1.00  0.00     0.316 C 
HETATM   13  N1  UNL     1      23.020  13.448  -0.750  1.00  0.00    -0.347 N 
HETATM   14  O1  UNL     1      24.030  11.495   0.010  1.00  0.00    -0.247 OA
HETATM   15  C1  UNL     1      22.661  13.834   0.592  1.00  0.00     0.151 C 
ATOM     16  H1  UNL     1      22.769  14.045  -1.538  1.00  0.00     0.163 HD
ATOM     17  H2  UNL     1      23.816  12.482  -3.074  1.00  0.00     0.165 HD
ENDBRANCH  10  11
ENDBRANCH   9  10
ENDBRANCH   7   8
BRANCH   7  18
HETATM   18  O2  UNL     1      22.897   6.962  -4.956  1.00  0.00    -0.383 OA
ATOM     19  H2  UNL     1      22.937   6.042  -4.719  1.00  0.00     0.211 HD
ENDBRANCH   7  18
ENDBRANCH   1   7
BRANCH   4  20
HETATM   20  C10 UNL     1      18.981   8.055  -0.014  1.00  0.00     0.218 C 
BRANCH  20  21
HETATM   21  O3  UNL     1      17.712   7.856  -0.215  1.00  0.00    -0.332 OA
ATOM     22  H3  UNL     1      17.147   8.448   0.267  1.00  0.00     0.220 HD
ENDBRANCH  20  21
BRANCH  20  23
HETATM   23  N4  UNL     1      19.328   8.848   1.126  1.00  0.00    -0.331 N 
HETATM   24  C11 UNL     1      20.475   9.772   1.109  1.00  0.00     0.084 C 
HETATM   25  C12 UNL     1      20.647  10.440  -0.242  1.00  0.00     0.032 C 
HETATM   26  C13 UNL     1      20.218  10.796   2.168  1.00  0.00     0.027 C 
HETATM   27  C14 UNL     1      18.861  10.456   2.721  1.00  0.00     0.036 C 
HETATM   28  C15 UNL     1      18.747   8.942   2.433  1.00  0.00     0.170 C 
BRANCH  28  29
HETATM   29  C16 UNL     1      19.593   8.240   3.460  1.00  0.00     0.217 C 
HETATM   30  O4  UNL     1      20.059   7.139   3.242  1.00  0.00    -0.283 OA
HETATM   31 BR1  UNL     1      19.974   9.041   5.149  1.00  0.00    -0.007 Br
ENDBRANCH  28  29
ENDBRANCH  20  23
ENDBRANCH   4  20
TORSDOF 9
ENDMDL
MODEL 5
REMARK VINA RESULT: -7.713138608      2.380      3.220
REMARK  9 active torsions:
REMARK  status: ('A' for Active; 'I' for Inactive)
REMARK       I    between atoms: N1_2  and  C2_4 
REMARK       I    between atoms: C2_4  and  N2_6 
REMARK    1  A    between atoms: N2_6  and  C3_8 
REMARK    2  A    between atoms: C3_8  and  C4_9 
REMARK    3  A    between atoms: C5_10  and  C6_11 
REMARK    4  A    between atoms: C6_11  and  O2_12 
REMARK    5  A    between atoms: C6_11  and  C7_14 
REMARK    6  A    between atoms: N3_17  and  C10_18 
REMARK    7  A    between atoms: C10_18  and  O3_19 
REMARK    8  A    between atoms: C10_18  and  N4_21 
REMARK    9  A    between atoms: C15_26  and  C16_27 
ROOT
HETATM    1  C7  UNL     1      22.111   7.623  -4.531  1.00  0.00     0.029 C 
HETATM    2  C8  UNL     1      22.475   7.312  -3.088  1.00  0.00     0.028 C 
HETATM    3  C9  UNL     1      21.373   6.435  -2.541  1.00  0.00     0.127 C 
HETATM    4  N3  UNL     1      20.212   7.324  -2.345  1.00  0.00    -0.347 N 
HETATM    5  C17 UNL     1      19.884   8.132  -3.477  1.00  0.00     0.127 C 
HETATM    6  C18 UNL     1      20.630   7.562  -4.700  1.00  0.00     0.028 C 
ENDROOT
BRANCH   1   7
HETATM    7  C6  UNL     1      22.591   9.026  -4.909  1.00  0.00     0.201 C 
BRANCH   7   8
HETATM    8  C5  UNL     1      23.852   9.331  -4.198  1.00  0.00    -0.073 C 
HETATM    9  C4  UNL     1      24.888   9.592  -3.637  1.00  0.00    -0.084 C 
BRANCH   9  10
HETATM   10  C3  UNL     1      26.145   9.933  -2.973  1.00  0.00     0.219 C 
BRANCH  10  11
HETATM   11  N2  UNL     1      27.074  10.544  -3.887  1.00  0.00    -0.333 N 
HETATM   12  C2  UNL     1      28.420  10.105  -3.910  1.00  0.00     0.316 C 
HETATM   13  N1  UNL     1      29.325  10.708  -4.806  1.00  0.00    -0.347 N 
HETATM   14  O1  UNL     1      28.808   9.177  -3.132  1.00  0.00    -0.247 OA
HETATM   15  C1  UNL     1      30.697  10.268  -4.842  1.00  0.00     0.151 C 
ATOM     16  H1  UNL     1      29.010  11.454  -5.427  1.00  0.00     0.163 HD
ATOM     17  H2  UNL     1      26.766  11.287  -4.513  1.00  0.00     0.165 HD
ENDBRANCH  10  11
ENDBRANCH   9  10
ENDBRANCH   7   8
BRANCH   7  18
HETATM   18  O2  UNL     1      22.790   9.027  -6.282  1.00  0.00    -0.383 OA
ATOM     19  H2  UNL     1      22.281   9.715  -6.694  1.00  0.00     0.211 HD
ENDBRANCH   7  18
ENDBRANCH   1   7
BRANCH   4  20
HETATM   20  C10 UNL     1      19.506   7.343  -1.151  1.00  0.00     0.218 C 
BRANCH  20  21
HETATM   21  O3  UNL     1      18.395   6.667  -1.182  1.00  0.00    -0.332 OA
ATOM     22  H3  UNL     1      17.732   6.987  -0.582  1.00  0.00     0.220 HD
ENDBRANCH  20  21
BRANCH  20  23
HETATM   23  N4  UNL     1      19.824   7.989   0.086  1.00  0.00    -0.331 N 
HETATM   24  C11 UNL     1      19.487   9.401   0.334  1.00  0.00     0.084 C 
HETATM   25  C12 UNL     1      18.163   9.789  -0.298  1.00  0.00     0.032 C 
HETATM   26  C13 UNL     1      19.428   9.576   1.817  1.00  0.00     0.027 C 
HETATM   27  C14 UNL     1      19.667   8.203   2.383  1.00  0.00     0.036 C 
HETATM   28  C15 UNL     1      20.483   7.513   1.267  1.00  0.00     0.170 C 
BRANCH  28  29
HETATM   29  C16 UNL     1      21.887   8.047   1.363  1.00  0.00     0.217 C 
HETATM   30  O4  UNL     1      22.538   8.281   0.363  1.00  0.00    -0.283 OA
HETATM   31 BR1  UNL     1      22.710   8.381   3.051  1.00  0.00    -0.007 Br
ENDBRANCH  28  29
ENDBRANCH  20  23
ENDBRANCH   4  20
TORSDOF 9
ENDMDL
