MODEL 1
REMARK VINA RESULT: -11.031491804      0.000      0.000
REMARK  3 active torsions:
REMARK  status: ('A' for Active; 'I' for Inactive)
REMARK    1  A    between atoms: C5_5  and  C6_6 
REMARK       I    between atoms: C6_6  and  N1_8 
REMARK       I    between atoms: N2_11  and  C9_12 
REMARK    2  A    between atoms: C9_12  and  C10_14 
REMARK    3  A    between atoms: C19_24  and  C21_26 
REMARK       I    between atoms: C21_26  and  N3_28 
ROOT
HETATM    1  C10 UNL     1      21.276   9.717   1.629  1.00  0.00     0.061 C 
HETATM    2  C11 UNL     1      22.437   8.945   2.175  1.00  0.00     0.025 C 
HETATM    3  C12 UNL     1      22.064   8.793   3.661  1.00  0.00    -0.010 C 
HETATM    4  C13 UNL     1      21.858  10.269   3.931  1.00  0.00     0.011 C 
HETATM    5  C14 UNL     1      20.798  10.512   2.848  1.00  0.00     0.008 C 
HETATM    6  C15 UNL     1      19.546  10.009   3.481  1.00  0.00     0.049 C 
HETATM    7  C16 UNL     1      19.583   8.491   3.383  1.00  0.00     0.105 C 
HETATM    8  F1  UNL     1      18.532   7.994   4.154  1.00  0.00    -0.243 F 
HETATM    9  C17 UNL     1      20.873   7.940   3.864  1.00  0.00     0.048 C 
HETATM   10  C18 UNL     1      19.269   8.204   1.949  1.00  0.00     0.063 C 
HETATM   11  C19 UNL     1      20.195   8.930   0.996  1.00  0.00     0.057 C 
HETATM   12  C20 UNL     1      20.713   7.852   0.071  1.00  0.00     0.027 C 
ENDROOT
BRANCH   1  13
HETATM   13  C9  UNL     1      21.841  10.743   0.717  1.00  0.00     0.231 C 
HETATM   14  N2  UNL     1      22.607  10.608  -0.437  1.00  0.00    -0.333 N 
HETATM   15  C8  UNL     1      23.090  11.789  -1.224  1.00  0.00     0.147 C 
HETATM   16  C23 UNL     1      23.128   9.488  -1.162  1.00  0.00     0.255 C 
HETATM   17  C7  UNL     1      24.539  11.310  -1.407  1.00  0.00     0.147 C 
HETATM   18  N1  UNL     1      24.285   9.996  -1.920  1.00  0.00    -0.334 N 
HETATM   19  C6  UNL     1      24.996   9.339  -2.937  1.00  0.00     0.226 C 
HETATM   20  O1  UNL     1      24.620   8.163  -3.264  1.00  0.00    -0.273 OA
HETATM   21  O2  UNL     1      21.582  11.969   1.044  1.00  0.00    -0.272 OA
BRANCH  19  22
HETATM   22  C5  UNL     1      26.135   9.983  -3.603  1.00  0.00     0.086 A 
HETATM   23  C2  UNL     1      27.310   9.194  -4.053  1.00  0.00    -0.035 A 
HETATM   24  C1  UNL     1      27.339   7.696  -3.885  1.00  0.00     0.015 C 
HETATM   25  C3  UNL     1      28.102   9.699  -5.241  1.00  0.00     0.015 C 
HETATM   26  C4  UNL     1      27.422   9.974  -2.806  1.00  0.00     0.024 A 
ENDBRANCH  19  22
ENDBRANCH   1  13
BRANCH  11  27
HETATM   27  C21 UNL     1      19.307   9.764   0.099  1.00  0.00     0.233 C 
HETATM   28  O3  UNL     1      18.543  10.636   0.576  1.00  0.00    -0.272 OA
HETATM   29  N3  UNL     1      19.275   9.623  -1.311  1.00  0.00    -0.303 N 
HETATM   30  C22 UNL     1      18.210   9.497  -2.016  1.00  0.00     0.203 C 
ATOM     31  H3  UNL     1      20.167   9.623  -1.805  1.00  0.00     0.171 HD
HETATM   32  N4  UNL     1      18.377   9.367  -3.427  1.00  0.00    -0.066 NA
HETATM   33  N5  UNL     1      16.903   9.479  -1.495  1.00  0.00    -0.066 NA
ENDBRANCH  11  27
TORSDOF 3
ENDMDL
MODEL 2
REMARK VINA RESULT: -9.685838873      1.360      1.507
REMARK  3 active torsions:
REMARK  status: ('A' for Active; 'I' for Inactive)
REMARK    1  A    between atoms: C5_5  and  C6_6 
REMARK       I    between atoms: C6_6  and  N1_8 
REMARK       I    between atoms: N2_11  and  C9_12 
REMARK    2  A    between atoms: C9_12  and  C10_14 
REMARK    3  A    between atoms: C19_24  and  C21_26 
REMARK       I    between atoms: C21_26  and  N3_28 
ROOT
HETATM    1  C10 UNL     1      21.995   9.765   0.700  1.00  0.00     0.061 C 
HETATM    2  C11 UNL     1      23.215   9.387   1.480  1.00  0.00     0.025 C 
HETATM    3  C12 UNL     1      22.744   9.555   2.936  1.00  0.00    -0.010 C 
HETATM    4  C13 UNL     1      22.271  10.987   2.792  1.00  0.00     0.011 C 
HETATM    5  C14 UNL     1      21.285  10.745   1.641  1.00  0.00     0.008 C 
HETATM    6  C15 UNL     1      20.084  10.200   2.334  1.00  0.00     0.049 C 
HETATM    7  C16 UNL     1      20.381   8.741   2.649  1.00  0.00     0.105 C 
HETATM    8  F1  UNL     1      19.365   8.274   3.481  1.00  0.00    -0.243 F 
HETATM    9  C17 UNL     1      21.698   8.579   3.311  1.00  0.00     0.048 C 
HETATM   10  C18 UNL     1      20.247   8.043   1.332  1.00  0.00     0.063 C 
HETATM   11  C19 UNL     1      21.119   8.658   0.258  1.00  0.00     0.057 C 
HETATM   12  C20 UNL     1      21.890   7.493  -0.323  1.00  0.00     0.027 C 
ENDROOT
BRANCH   1  13
HETATM   13  C9  UNL     1      22.458  10.609  -0.430  1.00  0.00     0.231 C 
HETATM   14  N2  UNL     1      23.283  10.307  -1.509  1.00  0.00    -0.333 N 
HETATM   15  C8  UNL     1      23.640  11.318  -2.556  1.00  0.00     0.147 C 
HETATM   16  C23 UNL     1      23.976   9.127  -1.934  1.00  0.00     0.255 C 
HETATM   17  C7  UNL     1      25.146  11.011  -2.604  1.00  0.00     0.147 C 
HETATM   18  N1  UNL     1      25.087   9.590  -2.784  1.00  0.00    -0.334 N 
HETATM   19  C6  UNL     1      25.919   8.812  -3.602  1.00  0.00     0.226 C 
HETATM   20  O1  UNL     1      25.714   7.552  -3.636  1.00  0.00    -0.273 OA
HETATM   21  O2  UNL     1      22.028  11.831  -0.414  1.00  0.00    -0.272 OA
BRANCH  19  22
HETATM   22  C5  UNL     1      26.991   9.426  -4.396  1.00  0.00     0.086 A 
HETATM   23  C2  UNL     1      28.303   9.763  -3.787  1.00  0.00    -0.035 A 
HETATM   24  C1  UNL     1      28.588   9.433  -2.345  1.00  0.00     0.015 C 
HETATM   25  C3  UNL     1      29.529   9.762  -4.676  1.00  0.00     0.015 C 
HETATM   26  C4  UNL     1      27.329  10.850  -4.008  1.00  0.00     0.024 A 
ENDBRANCH  19  22
ENDBRANCH   1  13
BRANCH  11  27
HETATM   27  C21 UNL     1      20.188   9.055  -0.865  1.00  0.00     0.233 C 
HETATM   28  O3  UNL     1      19.133   9.693  -0.635  1.00  0.00    -0.272 OA
HETATM   29  N3  UNL     1      20.432   8.743  -2.226  1.00  0.00    -0.303 N 
HETATM   30  C22 UNL     1      19.583   8.204  -3.023  1.00  0.00     0.203 C 
ATOM     31  H3  UNL     1      21.354   8.964  -2.601  1.00  0.00     0.171 HD
HETATM   32  N4  UNL     1      20.012   7.964  -4.363  1.00  0.00    -0.066 NA
HETATM   33  N5  UNL     1      18.271   7.838  -2.669  1.00  0.00    -0.066 NA
ENDBRANCH  11  27
TORSDOF 3
ENDMDL
MODEL 3
REMARK VINA RESULT: -9.643032401      2.503      4.371
REMARK  3 active torsions:
REMARK  status: ('A' for Active; 'I' for Inactive)
REMARK    1  A    between atoms: C5_5  and  C6_6 
REMARK       I    between atoms: C6_6  and  N1_8 
REMARK       I    between atoms: N2_11  and  C9_12 
REMARK    2  A    between atoms: C9_12  and  C10_14 
REMARK    3  A    between atoms: C19_24  and  C21_26 
REMARK       I    between atoms: C21_26  and  N3_28 
ROOT
HETATM    1  C10 UNL     1      20.027   8.600  -1.069  1.00  0.00     0.061 C 
HETATM    2  C11 UNL     1      19.590   9.548  -2.143  1.00  0.00     0.025 C 
HETATM    3  C12 UNL     1      18.057   9.414  -2.101  1.00  0.00    -0.010 C 
HETATM    4  C13 UNL     1      18.019   7.909  -2.268  1.00  0.00     0.011 C 
HETATM    5  C14 UNL     1      18.898   7.563  -1.058  1.00  0.00     0.008 C 
HETATM    6  C15 UNL     1      17.953   7.668   0.088  1.00  0.00     0.049 C 
HETATM    7  C16 UNL     1      17.783   9.150   0.385  1.00  0.00     0.105 C 
HETATM    8  F1  UNL     1      16.745   9.280   1.307  1.00  0.00    -0.243 F 
HETATM    9  C17 UNL     1      17.475   9.925  -0.842  1.00  0.00     0.048 C 
HETATM   10  C18 UNL     1      19.053   9.538   1.074  1.00  0.00     0.063 C 
HETATM   11  C19 UNL     1      20.284   9.182   0.266  1.00  0.00     0.057 C 
HETATM   12  C20 UNL     1      21.086  10.463   0.206  1.00  0.00     0.027 C 
ENDROOT
BRANCH   1  13
HETATM   13  C9  UNL     1      21.199   7.864  -1.604  1.00  0.00     0.231 C 
HETATM   14  N2  UNL     1      22.427   8.328  -2.067  1.00  0.00    -0.333 N 
HETATM   15  C8  UNL     1      23.493   7.407  -2.579  1.00  0.00     0.147 C 
HETATM   16  C23 UNL     1      23.013   9.628  -2.206  1.00  0.00     0.255 C 
HETATM   17  C7  UNL     1      23.842   8.211  -3.842  1.00  0.00     0.147 C 
HETATM   18  N1  UNL     1      24.049   9.499  -3.247  1.00  0.00    -0.334 N 
HETATM   19  C6  UNL     1      25.037  10.434  -3.590  1.00  0.00     0.226 C 
HETATM   20  O1  UNL     1      25.067  11.535  -2.943  1.00  0.00    -0.273 OA
HETATM   21  O2  UNL     1      21.064   6.577  -1.652  1.00  0.00    -0.272 OA
BRANCH  19  22
HETATM   22  C5  UNL     1      26.005  10.157  -4.658  1.00  0.00     0.086 A 
HETATM   23  C2  UNL     1      27.328   9.551  -4.359  1.00  0.00    -0.035 A 
HETATM   24  C1  UNL     1      27.690   9.153  -2.952  1.00  0.00     0.015 C 
HETATM   25  C3  UNL     1      27.991   8.710  -5.430  1.00  0.00     0.015 C 
HETATM   26  C4  UNL     1      27.260  11.003  -4.610  1.00  0.00     0.024 A 
ENDBRANCH  19  22
ENDBRANCH   1  13
BRANCH  11  27
HETATM   27  C21 UNL     1      21.123   8.285   1.148  1.00  0.00     0.233 C 
HETATM   28  O3  UNL     1      20.781   7.100   1.377  1.00  0.00    -0.272 OA
HETATM   29  N3  UNL     1      22.326   8.707   1.767  1.00  0.00    -0.303 N 
HETATM   30  C22 UNL     1      22.610   8.554   3.009  1.00  0.00     0.203 C 
ATOM     31  H3  UNL     1      23.020   9.169   1.180  1.00  0.00     0.171 HD
HETATM   32  N4  UNL     1      23.875   9.046   3.451  1.00  0.00    -0.066 NA
HETATM   33  N5  UNL     1      21.768   7.939   3.954  1.00  0.00    -0.066 NA
ENDBRANCH  11  27
TORSDOF 3
ENDMDL
MODEL 4
REMARK VINA RESULT: -9.313094747      1.979      2.680
REMARK  3 active torsions:
REMARK  status: ('A' for Active; 'I' for Inactive)
REMARK    1  A    between atoms: C5_5  and  C6_6 
REMARK       I    between atoms: C6_6  and  N1_8 
REMARK       I    between atoms: N2_11  and  C9_12 
REMARK    2  A    between atoms: C9_12  and  C10_14 
REMARK    3  A    between atoms: C19_24  and  C21_26 
REMARK       I    between atoms: C21_26  and  N3_28 
ROOT
HETATM    1  C10 UNL     1      21.672  10.175   1.143  1.00  0.00     0.061 C 
HETATM    2  C11 UNL     1      22.449  11.417   1.453  1.00  0.00     0.025 C 
HETATM    3  C12 UNL     1      21.497  12.179   2.392  1.00  0.00    -0.010 C 
HETATM    4  C13 UNL     1      20.302  12.167   1.461  1.00  0.00     0.011 C 
HETATM    5  C14 UNL     1      20.220  10.645   1.279  1.00  0.00     0.008 C 
HETATM    6  C15 UNL     1      19.522  10.194   2.516  1.00  0.00     0.049 C 
HETATM    7  C16 UNL     1      20.555  10.204   3.633  1.00  0.00     0.105 C 
HETATM    8  F1  UNL     1      19.879   9.993   4.834  1.00  0.00    -0.243 F 
HETATM    9  C17 UNL     1      21.298  11.486   3.684  1.00  0.00     0.048 C 
HETATM   10  C18 UNL     1      21.398   8.996   3.369  1.00  0.00     0.063 C 
HETATM   11  C19 UNL     1      21.969   8.983   1.966  1.00  0.00     0.057 C 
HETATM   12  C20 UNL     1      23.452   8.755   2.160  1.00  0.00     0.027 C 
ENDROOT
BRANCH   1  13
HETATM   13  C9  UNL     1      21.843   9.920  -0.309  1.00  0.00     0.231 C 
HETATM   14  N2  UNL     1      22.995   9.792  -1.079  1.00  0.00    -0.333 N 
HETATM   15  C8  UNL     1      22.952   9.536  -2.555  1.00  0.00     0.147 C 
HETATM   16  C23 UNL     1      24.397   9.854  -0.791  1.00  0.00     0.255 C 
HETATM   17  C7  UNL     1      24.004  10.583  -2.956  1.00  0.00     0.147 C 
HETATM   18  N1  UNL     1      25.058  10.206  -2.061  1.00  0.00    -0.334 N 
HETATM   19  C6  UNL     1      26.432  10.179  -2.345  1.00  0.00     0.226 C 
HETATM   20  O1  UNL     1      27.227   9.811  -1.415  1.00  0.00    -0.273 OA
HETATM   21  O2  UNL     1      20.739   9.796  -0.978  1.00  0.00    -0.272 OA
BRANCH  19  22
HETATM   22  C5  UNL     1      26.940  10.560  -3.668  1.00  0.00     0.086 A 
HETATM   23  C2  UNL     1      27.501   9.548  -4.599  1.00  0.00    -0.035 A 
HETATM   24  C1  UNL     1      27.514   8.087  -4.227  1.00  0.00     0.015 C 
HETATM   25  C3  UNL     1      27.402   9.807  -6.087  1.00  0.00     0.015 C 
HETATM   26  C4  UNL     1      28.436  10.403  -3.841  1.00  0.00     0.024 A 
ENDBRANCH  19  22
ENDBRANCH   1  13
BRANCH  11  27
HETATM   27  C21 UNL     1      21.497   7.695   1.331  1.00  0.00     0.233 C 
HETATM   28  O3  UNL     1      22.300   6.764   1.082  1.00  0.00    -0.272 OA
HETATM   29  N3  UNL     1      20.146   7.451   0.977  1.00  0.00    -0.303 N 
HETATM   30  C22 UNL     1      19.749   7.017  -0.163  1.00  0.00     0.203 C 
ATOM     31  H3  UNL     1      19.434   7.634   1.683  1.00  0.00     0.171 HD
HETATM   32  N4  UNL     1      18.344   6.832  -0.334  1.00  0.00    -0.066 NA
HETATM   33  N5  UNL     1      20.597   6.713  -1.245  1.00  0.00    -0.066 NA
ENDBRANCH  11  27
TORSDOF 3
ENDMDL
MODEL 5
REMARK VINA RESULT: -9.214589164      1.753      2.599
REMARK  3 active torsions:
REMARK  status: ('A' for Active; 'I' for Inactive)
REMARK    1  A    between atoms: C5_5  and  C6_6 
REMARK       I    between atoms: C6_6  and  N1_8 
REMARK       I    between atoms: N2_11  and  C9_12 
REMARK    2  A    between atoms: C9_12  and  C10_14 
REMARK    3  A    between atoms: C19_24  and  C21_26 
REMARK       I    between atoms: C21_26  and  N3_28 
ROOT
HETATM    1  C10 UNL     1      20.418   8.079   2.414  1.00  0.00     0.061 C 
HETATM    2  C11 UNL     1      20.498   6.838   3.250  1.00  0.00     0.025 C 
HETATM    3  C12 UNL     1      21.234   7.332   4.508  1.00  0.00    -0.010 C 
HETATM    4  C13 UNL     1      22.430   7.913   3.782  1.00  0.00     0.011 C 
HETATM    5  C14 UNL     1      21.650   8.869   2.869  1.00  0.00     0.008 C 
HETATM    6  C15 UNL     1      21.365  10.029   3.759  1.00  0.00     0.049 C 
HETATM    7  C16 UNL     1      20.205   9.623   4.655  1.00  0.00     0.105 C 
HETATM    8  F1  UNL     1      20.063  10.606   5.633  1.00  0.00    -0.243 F 
HETATM    9  C17 UNL     1      20.436   8.302   5.289  1.00  0.00     0.048 C 
HETATM   10  C18 UNL     1      19.005   9.693   3.763  1.00  0.00     0.063 C 
HETATM   11  C19 UNL     1      19.167   8.863   2.507  1.00  0.00     0.057 C 
HETATM   12  C20 UNL     1      17.926   8.000   2.456  1.00  0.00     0.027 C 
ENDROOT
BRANCH   1  13
HETATM   13  C9  UNL     1      20.733   7.673   1.022  1.00  0.00     0.231 C 
HETATM   14  N2  UNL     1      21.686   8.155   0.130  1.00  0.00    -0.333 N 
HETATM   15  C8  UNL     1      21.842   7.603  -1.256  1.00  0.00     0.147 C 
HETATM   16  C23 UNL     1      22.685   9.179   0.196  1.00  0.00     0.255 C 
HETATM   17  C7  UNL     1      21.932   8.955  -1.984  1.00  0.00     0.147 C 
HETATM   18  N1  UNL     1      22.958   9.574  -1.197  1.00  0.00    -0.334 N 
HETATM   19  C6  UNL     1      24.002  10.384  -1.667  1.00  0.00     0.226 C 
HETATM   20  O1  UNL     1      24.829  10.849  -0.811  1.00  0.00    -0.273 OA
HETATM   21  O2  UNL     1      20.002   6.711   0.553  1.00  0.00    -0.272 OA
BRANCH  19  22
HETATM   22  C5  UNL     1      24.142  10.688  -3.097  1.00  0.00     0.086 A 
HETATM   23  C2  UNL     1      24.807   9.737  -4.024  1.00  0.00    -0.035 A 
HETATM   24  C1  UNL     1      25.309   8.405  -3.529  1.00  0.00     0.015 C 
HETATM   25  C3  UNL     1      24.383   9.737  -5.478  1.00  0.00     0.015 C 
HETATM   26  C4  UNL     1      25.566  10.914  -3.559  1.00  0.00     0.024 A 
ENDBRANCH  19  22
ENDBRANCH   1  13
BRANCH  11  27
HETATM   27  C21 UNL     1      18.980   9.814   1.346  1.00  0.00     0.233 C 
HETATM   28  O3  UNL     1      18.922  11.053   1.529  1.00  0.00    -0.272 OA
HETATM   29  N3  UNL     1      18.859   9.385   0.000  1.00  0.00    -0.303 N 
HETATM   30  C22 UNL     1      17.940   9.759  -0.813  1.00  0.00     0.203 C 
ATOM     31  H3  UNL     1      19.556   8.728  -0.348  1.00  0.00     0.171 HD
HETATM   32  N4  UNL     1      17.981   9.218  -2.133  1.00  0.00    -0.066 NA
HETATM   33  N5  UNL     1      16.905  10.657  -0.494  1.00  0.00    -0.066 NA
ENDBRANCH  11  27
TORSDOF 3
ENDMDL
