MODEL 1
REMARK VINA RESULT: -9.236312188      0.000      0.000
REMARK  3 active torsions:
REMARK  status: ('A' for Active; 'I' for Inactive)
REMARK       I    between atoms: N2_4  and  C3_5 
REMARK       I    between atoms: C3_5  and  N3_7 
REMARK    1  A    between atoms: N3_7  and  C4_9 
REMARK    2  A    between atoms: C9_15  and  C10_16 
REMARK       I    between atoms: C10_16  and  N4_18 
REMARK    3  A    between atoms: C13_21  and  N5_22 
ROOT
HETATM    1  C1  UNL     1      17.993   7.747  -4.631  1.00  0.00     0.033 C 
HETATM    2  C2  UNL     1      18.887   7.504  -3.455  1.00  0.00     0.129 C 
HETATM    3  N1  UNL     1      19.566   8.750  -3.110  1.00  0.00    -0.127 NA
HETATM    4  N2  UNL     1      20.805   8.528  -2.569  1.00  0.00    -0.232 N 
HETATM    5  C3  UNL     1      21.138   8.842  -1.237  1.00  0.00     0.335 C 
HETATM    6  O1  UNL     1      22.320   8.613  -0.788  1.00  0.00    -0.246 OA
HETATM    7  N3  UNL     1      20.248   9.417  -0.291  1.00  0.00    -0.337 N 
ATOM      8  H3  UNL     1      19.291   9.628  -0.573  1.00  0.00     0.164 HD
HETATM    9  C9  UNL     1      21.846   7.924  -3.415  1.00  0.00     0.204 C 
HETATM   10  C22 UNL     1      21.070   7.164  -4.488  1.00  0.00     0.075 C 
HETATM   11  C23 UNL     1      19.931   6.433  -3.772  1.00  0.00     0.193 C 
HETATM   12  F1  UNL     1      19.424   5.409  -4.509  1.00  0.00    -0.248 F 
ENDROOT
BRANCH   9  13
HETATM   13  C10 UNL     1      22.628   8.949  -4.099  1.00  0.00     0.244 C 
HETATM   14  O3  UNL     1      22.037   9.584  -5.051  1.00  0.00    -0.271 OA
HETATM   15  N4  UNL     1      23.953   9.250  -3.763  1.00  0.00    -0.350 N 
HETATM   16  C11 UNL     1      24.611   8.596  -2.677  1.00  0.00     0.128 C 
HETATM   17  C21 UNL     1      24.640  10.249  -4.584  1.00  0.00     0.128 C 
HETATM   18  C12 UNL     1      25.910   8.026  -3.275  1.00  0.00     0.053 C 
HETATM   19  C13 UNL     1      26.689   9.216  -3.778  1.00  0.00     0.193 C 
HETATM   20  C20 UNL     1      26.012   9.702  -5.017  1.00  0.00     0.053 C 
BRANCH  19  21
HETATM   21  N5  UNL     1      28.105   8.926  -3.968  1.00  0.00    -0.067 N 
HETATM   22  C14 UNL     1      28.155   7.467  -4.230  1.00  0.00     0.273 C 
HETATM   23  C15 UNL     1      28.947   9.199  -2.887  1.00  0.00     0.237 C 
HETATM   24  C16 UNL     1      29.917  10.317  -2.985  1.00  0.00     0.028 C 
HETATM   25  C17 UNL     1      30.349  10.687  -4.363  1.00  0.00     0.003 C 
HETATM   26  C18 UNL     1      29.041  10.882  -5.145  1.00  0.00     0.028 C 
HETATM   27  C19 UNL     1      28.467   9.511  -5.242  1.00  0.00     0.237 C 
ENDBRANCH  19  21
ENDBRANCH   9  13
BRANCH   7  28
HETATM   28  C4  UNL     1      20.674   9.716   1.085  1.00  0.00     0.090 C 
HETATM   29  C5  UNL     1      20.359   8.574   2.014  1.00  0.00     0.051 C 
HETATM   30  C6  UNL     1      18.918   8.700   2.438  1.00  0.00     0.169 C 
HETATM   31  O2  UNL     1      18.788   9.881   3.179  1.00  0.00    -0.391 OA
HETATM   32  C7  UNL     1      18.810  10.924   2.240  1.00  0.00     0.169 C 
HETATM   33  C8  UNL     1      20.136  11.034   1.545  1.00  0.00     0.051 C 
ENDBRANCH   7  28
TORSDOF 3
ENDMDL
MODEL 2
REMARK VINA RESULT: -8.333549444      3.815      8.443
REMARK  3 active torsions:
REMARK  status: ('A' for Active; 'I' for Inactive)
REMARK       I    between atoms: N2_4  and  C3_5 
REMARK       I    between atoms: C3_5  and  N3_7 
REMARK    1  A    between atoms: N3_7  and  C4_9 
REMARK    2  A    between atoms: C9_15  and  C10_16 
REMARK       I    between atoms: C10_16  and  N4_18 
REMARK    3  A    between atoms: C13_21  and  N5_22 
ROOT
HETATM    1  C1  UNL     1      23.273   9.443  -4.839  1.00  0.00     0.033 C 
HETATM    2  C2  UNL     1      22.058   8.777  -5.406  1.00  0.00     0.129 C 
HETATM    3  N1  UNL     1      20.908   9.659  -5.232  1.00  0.00    -0.127 NA
HETATM    4  N2  UNL     1      19.740   8.959  -5.078  1.00  0.00    -0.232 N 
HETATM    5  C3  UNL     1      18.687   8.992  -6.013  1.00  0.00     0.335 C 
HETATM    6  O1  UNL     1      17.614   8.315  -5.811  1.00  0.00    -0.246 OA
HETATM    7  N3  UNL     1      18.696   9.738  -7.221  1.00  0.00    -0.337 N 
ATOM      8  H3  UNL     1      19.514  10.300  -7.453  1.00  0.00     0.164 HD
HETATM    9  C9  UNL     1      19.572   8.123  -3.880  1.00  0.00     0.204 C 
HETATM   10  C22 UNL     1      20.997   7.805  -3.436  1.00  0.00     0.075 C 
HETATM   11  C23 UNL     1      21.783   7.448  -4.702  1.00  0.00     0.193 C 
HETATM   12  F1  UNL     1      22.919   6.753  -4.432  1.00  0.00    -0.248 F 
ENDROOT
BRANCH   9  13
HETATM   13  C10 UNL     1      18.946   8.875  -2.797  1.00  0.00     0.244 C 
HETATM   14  O3  UNL     1      18.179   9.850  -3.143  1.00  0.00    -0.271 OA
HETATM   15  N4  UNL     1      19.148   8.578  -1.445  1.00  0.00    -0.350 N 
HETATM   16  C11 UNL     1      19.952   7.470  -1.039  1.00  0.00     0.128 C 
HETATM   17  C21 UNL     1      18.517   9.464  -0.465  1.00  0.00     0.128 C 
HETATM   18  C12 UNL     1      20.994   8.057  -0.070  1.00  0.00     0.053 C 
HETATM   19  C13 UNL     1      20.206   8.638   1.079  1.00  0.00     0.193 C 
HETATM   20  C20 UNL     1      19.557   9.890   0.588  1.00  0.00     0.053 C 
BRANCH  19  21
HETATM   21  N5  UNL     1      21.013   8.835   2.276  1.00  0.00    -0.067 N 
HETATM   22  C14 UNL     1      22.137   9.694   1.831  1.00  0.00     0.273 C 
HETATM   23  C15 UNL     1      21.553   7.686   2.859  1.00  0.00     0.237 C 
HETATM   24  C16 UNL     1      21.039   7.227   4.173  1.00  0.00     0.028 C 
HETATM   25  C17 UNL     1      20.440   8.279   5.043  1.00  0.00     0.003 C 
HETATM   26  C18 UNL     1      19.413   8.990   4.148  1.00  0.00     0.028 C 
HETATM   27  C19 UNL     1      20.243   9.706   3.140  1.00  0.00     0.237 C 
ENDBRANCH  19  21
ENDBRANCH   9  13
BRANCH   7  28
HETATM   28  C4  UNL     1      17.553   9.718  -8.147  1.00  0.00     0.090 C 
HETATM   29  C5  UNL     1      17.891   8.983  -9.417  1.00  0.00     0.051 C 
HETATM   30  C6  UNL     1      18.611   9.939 -10.333  1.00  0.00     0.169 C 
HETATM   31  O2  UNL     1      17.719  10.962 -10.676  1.00  0.00    -0.391 OA
HETATM   32  C7  UNL     1      17.639  11.793  -9.547  1.00  0.00     0.169 C 
HETATM   33  C8  UNL     1      17.014  11.095  -8.373  1.00  0.00     0.051 C 
ENDBRANCH   7  28
TORSDOF 3
ENDMDL
MODEL 3
REMARK VINA RESULT: -8.214640180      2.505      8.316
REMARK  3 active torsions:
REMARK  status: ('A' for Active; 'I' for Inactive)
REMARK       I    between atoms: N2_4  and  C3_5 
REMARK       I    between atoms: C3_5  and  N3_7 
REMARK    1  A    between atoms: N3_7  and  C4_9 
REMARK    2  A    between atoms: C9_15  and  C10_16 
REMARK       I    between atoms: C10_16  and  N4_18 
REMARK    3  A    between atoms: C13_21  and  N5_22 
ROOT
HETATM    1  C1  UNL     1      21.934   6.476  -5.517  1.00  0.00     0.033 C 
HETATM    2  C2  UNL     1      22.427   7.800  -5.021  1.00  0.00     0.129 C 
HETATM    3  N1  UNL     1      23.414   7.575  -3.969  1.00  0.00    -0.127 NA
HETATM    4  N2  UNL     1      23.417   8.584  -3.042  1.00  0.00    -0.232 N 
HETATM    5  C3  UNL     1      24.505   9.458  -2.852  1.00  0.00     0.335 C 
HETATM    6  O1  UNL     1      24.451  10.385  -1.963  1.00  0.00    -0.246 OA
HETATM    7  N3  UNL     1      25.721   9.415  -3.585  1.00  0.00    -0.337 N 
ATOM      8  H3  UNL     1      25.840   8.707  -4.309  1.00  0.00     0.164 HD
HETATM    9  C9  UNL     1      22.225   8.776  -2.202  1.00  0.00     0.204 C 
HETATM   10  C22 UNL     1      21.086   8.167  -3.017  1.00  0.00     0.075 C 
HETATM   11  C23 UNL     1      21.277   8.638  -4.462  1.00  0.00     0.193 C 
HETATM   12  F1  UNL     1      20.141   8.529  -5.200  1.00  0.00    -0.248 F 
ENDROOT
BRANCH   9  13
HETATM   13  C10 UNL     1      22.324   8.008  -0.966  1.00  0.00     0.244 C 
HETATM   14  O3  UNL     1      22.213   6.729  -1.072  1.00  0.00    -0.271 OA
HETATM   15  N4  UNL     1      22.528   8.599   0.286  1.00  0.00    -0.350 N 
HETATM   16  C11 UNL     1      22.707  10.010   0.422  1.00  0.00     0.128 C 
HETATM   17  C21 UNL     1      22.531   7.712   1.451  1.00  0.00     0.128 C 
HETATM   18  C12 UNL     1      21.659  10.453   1.459  1.00  0.00     0.053 C 
HETATM   19  C13 UNL     1      21.999   9.712   2.730  1.00  0.00     0.193 C 
HETATM   20  C20 UNL     1      21.601   8.286   2.536  1.00  0.00     0.053 C 
BRANCH  19  21
HETATM   21  N5  UNL     1      21.410  10.322   3.915  1.00  0.00    -0.067 N 
HETATM   22  C14 UNL     1      22.165  11.585   4.100  1.00  0.00     0.273 C 
HETATM   23  C15 UNL     1      21.496   9.590   5.101  1.00  0.00     0.237 C 
HETATM   24  C16 UNL     1      20.265   9.009   5.689  1.00  0.00     0.028 C 
HETATM   25  C17 UNL     1      18.988   9.698   5.345  1.00  0.00     0.003 C 
HETATM   26  C18 UNL     1      19.000   9.801   3.811  1.00  0.00     0.028 C 
HETATM   27  C19 UNL     1      20.091  10.772   3.520  1.00  0.00     0.237 C 
ENDBRANCH  19  21
ENDBRANCH   9  13
BRANCH   7  28
HETATM   28  C4  UNL     1      26.812  10.367  -3.325  1.00  0.00     0.090 C 
HETATM   29  C5  UNL     1      27.341  10.954  -4.606  1.00  0.00     0.051 C 
HETATM   30  C6  UNL     1      28.334   9.983  -5.192  1.00  0.00     0.169 C 
HETATM   31  O2  UNL     1      29.414   9.887  -4.307  1.00  0.00    -0.391 OA
HETATM   32  C7  UNL     1      28.965   9.091  -3.241  1.00  0.00     0.169 C 
HETATM   33  C8  UNL     1      27.869   9.758  -2.460  1.00  0.00     0.051 C 
ENDBRANCH   7  28
TORSDOF 3
ENDMDL
MODEL 4
REMARK VINA RESULT: -7.998648919      3.384      8.695
REMARK  3 active torsions:
REMARK  status: ('A' for Active; 'I' for Inactive)
REMARK       I    between atoms: N2_4  and  C3_5 
REMARK       I    between atoms: C3_5  and  N3_7 
REMARK    1  A    between atoms: N3_7  and  C4_9 
REMARK    2  A    between atoms: C9_15  and  C10_16 
REMARK       I    between atoms: C10_16  and  N4_18 
REMARK    3  A    between atoms: C13_21  and  N5_22 
ROOT
HETATM    1  C1  UNL     1      23.741  12.475  -0.449  1.00  0.00     0.033 C 
HETATM    2  C2  UNL     1      24.493  11.201  -0.679  1.00  0.00     0.129 C 
HETATM    3  N1  UNL     1      25.028  11.204  -2.038  1.00  0.00    -0.127 NA
HETATM    4  N2  UNL     1      25.117   9.941  -2.559  1.00  0.00    -0.232 N 
HETATM    5  C3  UNL     1      26.339   9.315  -2.872  1.00  0.00     0.335 C 
HETATM    6  O1  UNL     1      26.358   8.127  -3.363  1.00  0.00    -0.246 OA
HETATM    7  N3  UNL     1      27.621   9.897  -2.688  1.00  0.00    -0.337 N 
ATOM      8  H3  UNL     1      27.689  10.839  -2.301  1.00  0.00     0.164 HD
HETATM    9  C9  UNL     1      23.876   9.189  -2.803  1.00  0.00     0.204 C 
HETATM   10  C22 UNL     1      22.863   9.808  -1.844  1.00  0.00     0.075 C 
HETATM   11  C23 UNL     1      23.579   9.987  -0.502  1.00  0.00     0.193 C 
HETATM   12  F1  UNL     1      22.714  10.130   0.536  1.00  0.00    -0.248 F 
ENDROOT
BRANCH   9  13
HETATM   13  C10 UNL     1      23.379   9.419  -4.156  1.00  0.00     0.244 C 
HETATM   14  O3  UNL     1      24.118  10.140  -4.925  1.00  0.00    -0.271 OA
HETATM   15  N4  UNL     1      22.167   8.898  -4.623  1.00  0.00    -0.350 N 
HETATM   16  C11 UNL     1      21.357   8.053  -3.804  1.00  0.00     0.128 C 
HETATM   17  C21 UNL     1      21.757   9.272  -5.977  1.00  0.00     0.128 C 
HETATM   18  C12 UNL     1      19.963   8.707  -3.802  1.00  0.00     0.053 C 
HETATM   19  C13 UNL     1      19.508   8.711  -5.240  1.00  0.00     0.193 C 
HETATM   20  C20 UNL     1      20.296   9.757  -5.956  1.00  0.00     0.053 C 
BRANCH  19  21
HETATM   21  N5  UNL     1      18.066   8.877  -5.377  1.00  0.00    -0.067 N 
HETATM   22  C14 UNL     1      17.495   7.597  -4.890  1.00  0.00     0.273 C 
HETATM   23  C15 UNL     1      17.584   9.101  -6.669  1.00  0.00     0.237 C 
HETATM   24  C16 UNL     1      17.029  10.431  -7.018  1.00  0.00     0.028 C 
HETATM   25  C17 UNL     1      16.484  11.230  -5.883  1.00  0.00     0.003 C 
HETATM   26  C18 UNL     1      17.607  11.240  -4.835  1.00  0.00     0.028 C 
HETATM   27  C19 UNL     1      17.674   9.831  -4.359  1.00  0.00     0.237 C 
ENDBRANCH  19  21
ENDBRANCH   9  13
BRANCH   7  28
HETATM   28  C4  UNL     1      28.854   9.175  -3.040  1.00  0.00     0.090 C 
HETATM   29  C5  UNL     1      29.984   9.540  -2.114  1.00  0.00     0.051 C 
HETATM   30  C6  UNL     1      30.599  10.823  -2.609  1.00  0.00     0.169 C 
HETATM   31  O2  UNL     1      31.163  10.573  -3.866  1.00  0.00    -0.391 OA
HETATM   32  C7  UNL     1      30.084  10.513  -4.762  1.00  0.00     0.169 C 
HETATM   33  C8  UNL     1      29.185   9.342  -4.489  1.00  0.00     0.051 C 
ENDBRANCH   7  28
TORSDOF 3
ENDMDL
MODEL 5
REMARK VINA RESULT: -7.681644596      0.715      1.097
REMARK  3 active torsions:
REMARK  status: ('A' for Active; 'I' for Inactive)
REMARK       I    between atoms: N2_4  and  C3_5 
REMARK       I    between atoms: C3_5  and  N3_7 
REMARK    1  A    between atoms: N3_7  and  C4_9 
REMARK    2  A    between atoms: C9_15  and  C10_16 
REMARK       I    between atoms: C10_16  and  N4_18 
REMARK    3  A    between atoms: C13_21  and  N5_22 
ROOT
HETATM    1  C1  UNL     1      18.273   7.726  -4.647  1.00  0.00     0.033 C 
HETATM    2  C2  UNL     1      19.159   7.465  -3.469  1.00  0.00     0.129 C 
HETATM    3  N1  UNL     1      19.745   8.727  -3.027  1.00  0.00    -0.127 NA
HETATM    4  N2  UNL     1      20.986   8.553  -2.473  1.00  0.00    -0.232 N 
HETATM    5  C3  UNL     1      21.271   8.798  -1.116  1.00  0.00     0.335 C 
HETATM    6  O1  UNL     1      22.457   8.619  -0.655  1.00  0.00    -0.246 OA
HETATM    7  N3  UNL     1      20.327   9.248  -0.155  1.00  0.00    -0.337 N 
ATOM      8  H3  UNL     1      19.363   9.412  -0.444  1.00  0.00     0.164 HD
HETATM    9  C9  UNL     1      22.082   8.079  -3.332  1.00  0.00     0.204 C 
HETATM   10  C22 UNL     1      21.380   7.342  -4.470  1.00  0.00     0.075 C 
HETATM   11  C23 UNL     1      20.279   6.489  -3.831  1.00  0.00     0.193 C 
HETATM   12  F1  UNL     1      19.858   5.486  -4.645  1.00  0.00    -0.248 F 
ENDROOT
BRANCH   9  13
HETATM   13  C10 UNL     1      22.804   9.197  -3.928  1.00  0.00     0.244 C 
HETATM   14  O3  UNL     1      22.268   9.741  -4.966  1.00  0.00    -0.271 OA
HETATM   15  N4  UNL     1      24.018   9.678  -3.424  1.00  0.00    -0.350 N 
HETATM   16  C11 UNL     1      24.605   9.125  -2.245  1.00  0.00     0.128 C 
HETATM   17  C21 UNL     1      24.670  10.757  -4.169  1.00  0.00     0.128 C 
HETATM   18  C12 UNL     1      26.037   8.734  -2.650  1.00  0.00     0.053 C 
HETATM   19  C13 UNL     1      26.711  10.017  -3.072  1.00  0.00     0.193 C 
HETATM   20  C20 UNL     1      26.149  10.400  -4.401  1.00  0.00     0.053 C 
BRANCH  19  21
HETATM   21  N5  UNL     1      28.165   9.921  -3.063  1.00  0.00    -0.067 N 
HETATM   22  C14 UNL     1      28.522   9.787  -1.629  1.00  0.00     0.273 C 
HETATM   23  C15 UNL     1      28.864  11.014  -3.581  1.00  0.00     0.237 C 
HETATM   24  C16 UNL     1      29.598  10.868  -4.862  1.00  0.00     0.028 C 
HETATM   25  C17 UNL     1      30.035   9.486  -5.210  1.00  0.00     0.003 C 
HETATM   26  C18 UNL     1      28.767   8.628  -5.076  1.00  0.00     0.028 C 
HETATM   27  C19 UNL     1      28.485   8.621  -3.614  1.00  0.00     0.237 C 
ENDBRANCH  19  21
ENDBRANCH   9  13
BRANCH   7  28
HETATM   28  C4  UNL     1      20.705   9.481   1.247  1.00  0.00     0.090 C 
HETATM   29  C5  UNL     1      20.072   8.465   2.160  1.00  0.00     0.051 C 
HETATM   30  C6  UNL     1      18.669   8.921   2.468  1.00  0.00     0.169 C 
HETATM   31  O2  UNL     1      18.754  10.120   3.184  1.00  0.00    -0.391 OA
HETATM   32  C7  UNL     1      19.080  11.107   2.240  1.00  0.00     0.169 C 
HETATM   33  C8  UNL     1      20.445  10.897   1.651  1.00  0.00     0.051 C 
ENDBRANCH   7  28
TORSDOF 3
ENDMDL
