MODEL 1
REMARK VINA RESULT: -8.990823500      0.000      0.000
REMARK  5 active torsions:
REMARK  status: ('A' for Active; 'I' for Inactive)
REMARK    1  A    between atoms: C3_3  and  C4_4 
REMARK    2  A    between atoms: C5_5  and  C6_6 
REMARK       I    between atoms: N1_8  and  C8_9 
REMARK       I    between atoms: C8_9  and  N2_11 
REMARK    3  A    between atoms: N2_11  and  C9_13 
REMARK    4  A    between atoms: C16_20  and  C17_21 
REMARK    5  A    between atoms: C22_28  and  S1_30 
ROOT
HETATM    1  C1  UNL     1      32.835  10.183  -1.357  1.00  0.00     0.113 C 
HETATM    2  C2  UNL     1      31.369  10.166  -1.464  1.00  0.00    -0.097 C 
HETATM    3  C3  UNL     1      30.165  10.130  -1.551  1.00  0.00    -0.015 C 
ENDROOT
BRANCH   3   4
HETATM    4  C4  UNL     1      28.757  10.065  -1.655  1.00  0.00    -0.015 C 
HETATM    5  C5  UNL     1      27.534  10.004  -1.724  1.00  0.00    -0.082 C 
BRANCH   5   6
HETATM    6  C6  UNL     1      26.095   9.894  -1.829  1.00  0.00     0.137 C 
HETATM    7  C7  UNL     1      25.439  10.810  -0.771  1.00  0.00     0.149 C 
HETATM    8  N1  UNL     1      24.030  10.463  -0.726  1.00  0.00    -0.333 N 
HETATM    9  C8  UNL     1      23.450  10.101   0.518  1.00  0.00     0.318 C 
HETATM   10  C20 UNL     1      23.318  10.514  -1.962  1.00  0.00     0.132 C 
HETATM   11  O1  UNL     1      24.188  10.088   1.553  1.00  0.00    -0.247 OA
HETATM   12  N2  UNL     1      22.092   9.744   0.706  1.00  0.00    -0.338 N 
ATOM     13  H2  UNL     1      21.457   9.738  -0.092  1.00  0.00     0.164 HD
HETATM   14  C21 UNL     1      24.048   9.896  -3.109  1.00  0.00     0.079 C 
HETATM   15  C22 UNL     1      25.543  10.288  -3.136  1.00  0.00     0.196 C 
HETATM   16  F1  UNL     1      25.494  11.696  -3.215  1.00  0.00    -0.227 F 
BRANCH  12  17
HETATM   17  C9  UNL     1      21.595   9.388   2.021  1.00  0.00     0.094 C 
HETATM   18  C10 UNL     1      20.891   8.064   1.972  1.00  0.00     0.010 C 
HETATM   19  C11 UNL     1      20.625   7.638   3.410  1.00  0.00     0.011 C 
HETATM   20  C19 UNL     1      19.587   8.155   1.219  1.00  0.00     0.025 C 
HETATM   21  C12 UNL     1      19.753   8.668   4.072  1.00  0.00    -0.013 C 
HETATM   22  C13 UNL     1      20.377  10.024   4.029  1.00  0.00     0.011 C 
HETATM   23  C18 UNL     1      18.429   8.730   3.331  1.00  0.00     0.023 C 
HETATM   24  C14 UNL     1      20.666  10.435   2.578  1.00  0.00     0.010 C 
HETATM   25  C15 UNL     1      19.348  10.488   1.869  1.00  0.00     0.025 C 
HETATM   26  C16 UNL     1      18.661   9.136   1.900  1.00  0.00     0.040 C 
BRANCH  26  27
HETATM   27  C17 UNL     1      17.376   9.219   1.183  1.00  0.00     0.239 C 
HETATM   28  N3  UNL     1      17.138   8.384   0.062  1.00  0.00    -0.061 NA
HETATM   29  O2  UNL     1      16.491  10.031   1.565  1.00  0.00    -0.276 OA
ENDBRANCH  26  27
ENDBRANCH  12  17
BRANCH  15  30
HETATM   30  S1  UNL     1      26.302   9.726  -4.585  1.00  0.00     0.053 S 
HETATM   31  C23 UNL     1      27.614  10.661  -5.232  1.00  0.00     0.131 C 
HETATM   32  O3  UNL     1      26.555   8.096  -4.661  1.00  0.00    -0.255 OA
ENDBRANCH  15  30
ENDBRANCH   5   6
ENDBRANCH   3   4
TORSDOF 5
ENDMDL
MODEL 2
REMARK VINA RESULT: -8.933827120      0.986      1.054
REMARK  5 active torsions:
REMARK  status: ('A' for Active; 'I' for Inactive)
REMARK    1  A    between atoms: C3_3  and  C4_4 
REMARK    2  A    between atoms: C5_5  and  C6_6 
REMARK       I    between atoms: N1_8  and  C8_9 
REMARK       I    between atoms: C8_9  and  N2_11 
REMARK    3  A    between atoms: N2_11  and  C9_13 
REMARK    4  A    between atoms: C16_20  and  C17_21 
REMARK    5  A    between atoms: C22_28  and  S1_30 
ROOT
HETATM    1  C1  UNL     1      32.992  10.107  -1.160  1.00  0.00     0.113 C 
HETATM    2  C2  UNL     1      31.539  10.122  -1.385  1.00  0.00    -0.097 C 
HETATM    3  C3  UNL     1      30.345  10.114  -1.562  1.00  0.00    -0.015 C 
ENDROOT
BRANCH   3   4
HETATM    4  C4  UNL     1      28.945  10.082  -1.763  1.00  0.00    -0.015 C 
HETATM    5  C5  UNL     1      27.730  10.039  -1.921  1.00  0.00    -0.082 C 
BRANCH   5   6
HETATM    6  C6  UNL     1      26.303   9.970  -2.148  1.00  0.00     0.137 C 
HETATM    7  C7  UNL     1      25.606  11.078  -1.326  1.00  0.00     0.149 C 
HETATM    8  N1  UNL     1      24.182  10.799  -1.365  1.00  0.00    -0.333 N 
HETATM    9  C8  UNL     1      23.472  10.678  -0.141  1.00  0.00     0.318 C 
HETATM   10  C20 UNL     1      23.589  10.668  -2.656  1.00  0.00     0.132 C 
HETATM   11  O1  UNL     1      24.110  10.813   0.949  1.00  0.00    -0.247 OA
HETATM   12  N2  UNL     1      22.084  10.413  -0.032  1.00  0.00    -0.338 N 
ATOM     13  H2  UNL     1      21.525  10.296  -0.877  1.00  0.00     0.164 HD
HETATM   14  C21 UNL     1      24.384   9.834  -3.606  1.00  0.00     0.079 C 
HETATM   15  C22 UNL     1      25.895  10.156  -3.550  1.00  0.00     0.196 C 
HETATM   16  F1  UNL     1      25.932  11.532  -3.866  1.00  0.00    -0.227 F 
BRANCH  12  17
HETATM   17  C9  UNL     1      21.451  10.306   1.268  1.00  0.00     0.094 C 
HETATM   18  C10 UNL     1      21.347   8.868   1.681  1.00  0.00     0.010 C 
HETATM   19  C11 UNL     1      20.914   8.846   3.142  1.00  0.00     0.011 C 
HETATM   20  C19 UNL     1      20.341   8.120   0.842  1.00  0.00     0.025 C 
HETATM   21  C12 UNL     1      19.578   9.523   3.268  1.00  0.00    -0.013 C 
HETATM   22  C13 UNL     1      19.622  10.923   2.750  1.00  0.00     0.011 C 
HETATM   23  C18 UNL     1      18.563   8.745   2.448  1.00  0.00     0.023 C 
HETATM   24  C14 UNL     1      20.083  10.939   1.286  1.00  0.00     0.010 C 
HETATM   25  C15 UNL     1      19.069  10.167   0.500  1.00  0.00     0.025 C 
HETATM   26  C16 UNL     1      18.970   8.737   0.999  1.00  0.00     0.040 C 
BRANCH  26  27
HETATM   27  C17 UNL     1      17.976   8.002   0.197  1.00  0.00     0.239 C 
HETATM   28  N3  UNL     1      18.357   6.822  -0.490  1.00  0.00    -0.061 NA
HETATM   29  O2  UNL     1      16.790   8.422   0.123  1.00  0.00    -0.276 OA
ENDBRANCH  26  27
ENDBRANCH  12  17
BRANCH  15  30
HETATM   30  S1  UNL     1      26.750   9.327  -4.804  1.00  0.00     0.053 S 
HETATM   31  C23 UNL     1      28.045  10.166  -5.600  1.00  0.00     0.131 C 
HETATM   32  O3  UNL     1      27.085   7.740  -4.495  1.00  0.00    -0.255 OA
ENDBRANCH  15  30
ENDBRANCH   5   6
ENDBRANCH   3   4
TORSDOF 5
ENDMDL
MODEL 3
REMARK VINA RESULT: -8.259760200      3.815      6.566
REMARK  5 active torsions:
REMARK  status: ('A' for Active; 'I' for Inactive)
REMARK    1  A    between atoms: C3_3  and  C4_4 
REMARK    2  A    between atoms: C5_5  and  C6_6 
REMARK       I    between atoms: N1_8  and  C8_9 
REMARK       I    between atoms: C8_9  and  N2_11 
REMARK    3  A    between atoms: N2_11  and  C9_13 
REMARK    4  A    between atoms: C16_20  and  C17_21 
REMARK    5  A    between atoms: C22_28  and  S1_30 
ROOT
HETATM    1  C1  UNL     1      16.531   9.575  -8.599  1.00  0.00     0.113 C 
HETATM    2  C2  UNL     1      17.481   9.415  -7.488  1.00  0.00    -0.097 C 
HETATM    3  C3  UNL     1      18.267   9.266  -6.585  1.00  0.00    -0.015 C 
ENDROOT
BRANCH   3   4
HETATM    4  C4  UNL     1      19.195   9.070  -5.536  1.00  0.00    -0.015 C 
HETATM    5  C5  UNL     1      19.992   8.918  -4.616  1.00  0.00    -0.082 C 
BRANCH   5   6
HETATM    6  C6  UNL     1      20.966   8.748  -3.559  1.00  0.00     0.137 C 
HETATM    7  C7  UNL     1      20.548   7.551  -2.674  1.00  0.00     0.149 C 
HETATM    8  N1  UNL     1      21.385   7.592  -1.489  1.00  0.00    -0.333 N 
HETATM    9  C8  UNL     1      20.766   7.611  -0.211  1.00  0.00     0.318 C 
HETATM   10  C20 UNL     1      22.796   7.606  -1.699  1.00  0.00     0.132 C 
HETATM   11  O1  UNL     1      19.496   7.598  -0.149  1.00  0.00    -0.247 OA
HETATM   12  N2  UNL     1      21.457   7.646   1.025  1.00  0.00    -0.338 N 
ATOM     13  H2  UNL     1      22.478   7.657   1.032  1.00  0.00     0.164 HD
HETATM   14  C21 UNL     1      23.239   8.546  -2.772  1.00  0.00     0.079 C 
HETATM   15  C22 UNL     1      22.335   8.478  -4.025  1.00  0.00     0.196 C 
HETATM   16  F1  UNL     1      22.438   7.123  -4.409  1.00  0.00    -0.227 F 
BRANCH  12  17
HETATM   17  C9  UNL     1      20.732   7.665   2.280  1.00  0.00     0.094 C 
HETATM   18  C10 UNL     1      19.863   8.884   2.362  1.00  0.00     0.010 C 
HETATM   19  C11 UNL     1      18.951   8.711   3.571  1.00  0.00     0.011 C 
HETATM   20  C19 UNL     1      20.682  10.141   2.519  1.00  0.00     0.025 C 
HETATM   21  C12 UNL     1      19.796   8.588   4.808  1.00  0.00    -0.013 C 
HETATM   22  C13 UNL     1      20.759   7.451   4.704  1.00  0.00     0.011 C 
HETATM   23  C18 UNL     1      20.592   9.870   4.979  1.00  0.00     0.023 C 
HETATM   24  C14 UNL     1      21.655   7.619   3.470  1.00  0.00     0.010 C 
HETATM   25  C15 UNL     1      22.428   8.888   3.661  1.00  0.00     0.025 C 
HETATM   26  C16 UNL     1      21.494  10.077   3.792  1.00  0.00     0.040 C 
BRANCH  26  27
HETATM   27  C17 UNL     1      22.285  11.308   3.965  1.00  0.00     0.239 C 
HETATM   28  N3  UNL     1      22.444  12.204   2.877  1.00  0.00    -0.061 NA
HETATM   29  O2  UNL     1      22.819  11.565   5.078  1.00  0.00    -0.276 OA
ENDBRANCH  26  27
ENDBRANCH  12  17
BRANCH  15  30
HETATM   30  S1  UNL     1      22.998   9.420  -5.316  1.00  0.00     0.053 S 
HETATM   31  C23 UNL     1      24.674   9.864  -5.223  1.00  0.00     0.131 C 
HETATM   32  O3  UNL     1      22.518   8.972  -6.831  1.00  0.00    -0.255 OA
ENDBRANCH  15  30
ENDBRANCH   5   6
ENDBRANCH   3   4
TORSDOF 5
ENDMDL
MODEL 4
REMARK VINA RESULT: -7.198132399      1.986      2.650
REMARK  5 active torsions:
REMARK  status: ('A' for Active; 'I' for Inactive)
REMARK    1  A    between atoms: C3_3  and  C4_4 
REMARK    2  A    between atoms: C5_5  and  C6_6 
REMARK       I    between atoms: N1_8  and  C8_9 
REMARK       I    between atoms: C8_9  and  N2_11 
REMARK    3  A    between atoms: N2_11  and  C9_13 
REMARK    4  A    between atoms: C16_20  and  C17_21 
REMARK    5  A    between atoms: C22_28  and  S1_30 
ROOT
HETATM    1  C1  UNL     1      32.890  10.290  -1.269  1.00  0.00     0.113 C 
HETATM    2  C2  UNL     1      31.436  10.201  -1.471  1.00  0.00    -0.097 C 
HETATM    3  C3  UNL     1      30.242  10.112  -1.623  1.00  0.00    -0.015 C 
ENDROOT
BRANCH   3   4
HETATM    4  C4  UNL     1      28.843   9.989  -1.786  1.00  0.00    -0.015 C 
HETATM    5  C5  UNL     1      27.627   9.884  -1.906  1.00  0.00    -0.082 C 
BRANCH   5   6
HETATM    6  C6  UNL     1      26.198   9.716  -2.063  1.00  0.00     0.137 C 
HETATM    7  C7  UNL     1      25.482  10.991  -1.560  1.00  0.00     0.149 C 
HETATM    8  N1  UNL     1      24.068  10.675  -1.477  1.00  0.00    -0.333 N 
HETATM    9  C8  UNL     1      23.389  10.880  -0.247  1.00  0.00     0.318 C 
HETATM   10  C20 UNL     1      23.452  10.173  -2.663  1.00  0.00     0.132 C 
HETATM   11  O1  UNL     1      24.046  11.329   0.744  1.00  0.00    -0.247 OA
HETATM   12  N2  UNL     1      22.014  10.619  -0.027  1.00  0.00    -0.338 N 
ATOM     13  H2  UNL     1      21.440  10.257  -0.789  1.00  0.00     0.164 HD
HETATM   14  C21 UNL     1      24.255   9.130  -3.368  1.00  0.00     0.079 C 
HETATM   15  C22 UNL     1      25.755   9.495  -3.448  1.00  0.00     0.196 C 
HETATM   16  F1  UNL     1      25.738  10.729  -4.134  1.00  0.00    -0.227 F 
BRANCH  12  17
HETATM   17  C9  UNL     1      21.412  10.861   1.270  1.00  0.00     0.094 C 
HETATM   18  C10 UNL     1      22.440  10.730   2.355  1.00  0.00     0.010 C 
HETATM   19  C11 UNL     1      21.807  11.241   3.643  1.00  0.00     0.011 C 
HETATM   20  C19 UNL     1      22.876   9.297   2.537  1.00  0.00     0.025 C 
HETATM   21  C12 UNL     1      20.601  10.404   3.963  1.00  0.00    -0.013 C 
HETATM   22  C13 UNL     1      19.611  10.418   2.845  1.00  0.00     0.011 C 
HETATM   23  C18 UNL     1      21.052   8.969   4.179  1.00  0.00     0.023 C 
HETATM   24  C14 UNL     1      20.263   9.927   1.545  1.00  0.00     0.010 C 
HETATM   25  C15 UNL     1      20.699   8.514   1.783  1.00  0.00     0.025 C 
HETATM   26  C16 UNL     1      21.695   8.439   2.925  1.00  0.00     0.040 C 
BRANCH  26  27
HETATM   27  C17 UNL     1      22.113   7.040   3.123  1.00  0.00     0.239 C 
HETATM   28  N3  UNL     1      22.134   6.487   4.429  1.00  0.00    -0.061 NA
HETATM   29  O2  UNL     1      22.453   6.336   2.134  1.00  0.00    -0.276 OA
ENDBRANCH  26  27
ENDBRANCH  12  17
BRANCH  15  30
HETATM   30  S1  UNL     1      26.610   8.372  -4.448  1.00  0.00     0.053 S 
HETATM   31  C23 UNL     1      27.816   8.998  -5.529  1.00  0.00     0.131 C 
HETATM   32  O3  UNL     1      27.057   6.968  -3.704  1.00  0.00    -0.255 OA
ENDBRANCH  15  30
ENDBRANCH   5   6
ENDBRANCH   3   4
TORSDOF 5
ENDMDL
MODEL 5
REMARK VINA RESULT: -7.170572823      1.070      1.076
REMARK  5 active torsions:
REMARK  status: ('A' for Active; 'I' for Inactive)
REMARK    1  A    between atoms: C3_3  and  C4_4 
REMARK    2  A    between atoms: C5_5  and  C6_6 
REMARK       I    between atoms: N1_8  and  C8_9 
REMARK       I    between atoms: C8_9  and  N2_11 
REMARK    3  A    between atoms: N2_11  and  C9_13 
REMARK    4  A    between atoms: C16_20  and  C17_21 
REMARK    5  A    between atoms: C22_28  and  S1_30 
ROOT
HETATM    1  C1  UNL     1      32.723  10.233  -3.081  1.00  0.00     0.113 C 
HETATM    2  C2  UNL     1      31.258  10.194  -2.958  1.00  0.00    -0.097 C 
HETATM    3  C3  UNL     1      30.057  10.172  -2.839  1.00  0.00    -0.015 C 
ENDROOT
BRANCH   3   4
HETATM    4  C4  UNL     1      28.653  10.155  -2.677  1.00  0.00    -0.015 C 
HETATM    5  C5  UNL     1      27.435  10.119  -2.534  1.00  0.00    -0.082 C 
BRANCH   5   6
HETATM    6  C6  UNL     1      25.994  10.089  -2.410  1.00  0.00     0.137 C 
HETATM    7  C7  UNL     1      25.571  10.974  -1.215  1.00  0.00     0.149 C 
HETATM    8  N1  UNL     1      24.169  10.696  -0.960  1.00  0.00    -0.333 N 
HETATM    9  C8  UNL     1      23.775  10.292   0.342  1.00  0.00     0.318 C 
HETATM   10  C20 UNL     1      23.273  10.855  -2.059  1.00  0.00     0.132 C 
HETATM   11  O1  UNL     1      24.665  10.181   1.242  1.00  0.00    -0.247 OA
HETATM   12  N2  UNL     1      22.445   9.994   0.731  1.00  0.00    -0.338 N 
ATOM     13  H2  UNL     1      21.691  10.066   0.048  1.00  0.00     0.164 HD
HETATM   14  C21 UNL     1      23.773  10.268  -3.338  1.00  0.00     0.079 C 
HETATM   15  C22 UNL     1      25.265  10.585  -3.589  1.00  0.00     0.196 C 
HETATM   16  F1  UNL     1      25.288  11.997  -3.589  1.00  0.00    -0.227 F 
BRANCH  12  17
HETATM   17  C9  UNL     1      22.143   9.587   2.090  1.00  0.00     0.094 C 
HETATM   18  C10 UNL     1      21.400   8.285   2.092  1.00  0.00     0.010 C 
HETATM   19  C11 UNL     1      21.343   7.797   3.534  1.00  0.00     0.011 C 
HETATM   20  C19 UNL     1      20.000   8.443   1.554  1.00  0.00     0.025 C 
HETATM   21  C12 UNL     1      20.615   8.814   4.367  1.00  0.00    -0.013 C 
HETATM   22  C13 UNL     1      21.267  10.156   4.287  1.00  0.00     0.011 C 
HETATM   23  C18 UNL     1      19.196   8.944   3.842  1.00  0.00     0.023 C 
HETATM   24  C14 UNL     1      21.344  10.628   2.829  1.00  0.00     0.010 C 
HETATM   25  C15 UNL     1      19.936  10.748   2.334  1.00  0.00     0.025 C 
HETATM   26  C16 UNL     1      19.219   9.412   2.412  1.00  0.00     0.040 C 
BRANCH  26  27
HETATM   27  C17 UNL     1      17.843   9.560   1.905  1.00  0.00     0.239 C 
HETATM   28  N3  UNL     1      16.918   8.496   2.053  1.00  0.00    -0.061 NA
HETATM   29  O2  UNL     1      17.490  10.631   1.342  1.00  0.00    -0.276 OA
ENDBRANCH  26  27
ENDBRANCH  12  17
BRANCH  15  30
HETATM   30  S1  UNL     1      25.749  10.072  -5.168  1.00  0.00     0.053 S 
HETATM   31  C23 UNL     1      27.145   9.049  -5.300  1.00  0.00     0.131 C 
HETATM   32  O3  UNL     1      24.514   9.634  -6.173  1.00  0.00    -0.255 OA
ENDBRANCH  15  30
ENDBRANCH   5   6
ENDBRANCH   3   4
TORSDOF 5
ENDMDL
