MODEL 1
REMARK VINA RESULT: -9.735142752      0.000      0.000
REMARK  4 active torsions:
REMARK  status: ('A' for Active; 'I' for Inactive)
REMARK       I    between atoms: C1_2  and  N1_3 
REMARK       I    between atoms: C1_2  and  N2_17 
REMARK    1  A    between atoms: C2_5  and  C3_6 
REMARK    2  A    between atoms: N2_17  and  N3_19 
REMARK       I    between atoms: N3_19  and  C14_21 
REMARK    3  A    between atoms: C14_21  and  C15_23 
REMARK    4  A    between atoms: C16_26  and  C17_27 
ROOT
HETATM    1  O1  UNL     1     -23.932  12.316   1.678  1.00  0.00    -0.245 OA
HETATM    2  C1  UNL     1     -23.785  11.228   1.094  1.00  0.00     0.338 C 
HETATM    3  N1  UNL     1     -22.673  11.057   0.181  1.00  0.00    -0.321 N 
ATOM      4  H1  UNL     1     -21.719  11.291   0.454  1.00  0.00     0.169 HD
HETATM    5  C2  UNL     1     -22.940  10.602  -0.973  1.00  0.00     0.070 C 
HETATM    6  N2  UNL     1     -24.632  10.110   1.244  1.00  0.00    -0.249 N 
ATOM      7  H2  UNL     1     -24.454   9.243   0.737  1.00  0.00     0.192 HD
ENDROOT
BRANCH   6   8
HETATM    8  N3  UNL     1     -25.734  10.231   2.117  1.00  0.00    -0.264 N 
HETATM    9  C14 UNL     1     -25.939   9.231   3.059  1.00  0.00     0.271 C 
HETATM   10  O2  UNL     1     -25.150   8.224   3.132  1.00  0.00    -0.269 OA
ATOM     11  H3  UNL     1     -26.363  11.032   2.059  1.00  0.00     0.190 HD
BRANCH   9  12
HETATM   12  C15 UNL     1     -27.042   9.240   4.023  1.00  0.00     0.286 C 
HETATM   13  O3  UNL     1     -27.367   8.084   4.676  1.00  0.00    -0.223 OA
HETATM   14  O4  UNL     1     -28.653   8.440   4.552  1.00  0.00    -0.231 OA
HETATM   15  C16 UNL     1     -28.356   8.934   3.314  1.00  0.00     0.211 C 
BRANCH  15  16
HETATM   16  C17 UNL     1     -29.019  10.213   2.876  1.00  0.00     0.123 C 
HETATM   17 BR1  UNL     1     -30.721   9.758   2.033  1.00  0.00    -0.094 Br
ENDBRANCH  15  16
ENDBRANCH   9  12
ENDBRANCH   6   8
BRANCH   5  18
HETATM   18  C3  UNL     1     -21.825  10.411  -1.939  1.00  0.00     0.028 C 
HETATM   19  C4  UNL     1     -20.747   9.672  -1.226  1.00  0.00     0.014 C 
HETATM   20  C5  UNL     1     -19.743   9.009  -2.112  1.00  0.00    -0.013 C 
HETATM   21  C6  UNL     1     -19.418   9.744  -3.363  1.00  0.00     0.009 C 
HETATM   22  C10 UNL     1     -20.119   7.573  -2.430  1.00  0.00     0.009 C 
HETATM   23  C7  UNL     1     -20.315   9.484  -4.533  1.00  0.00    -0.013 C 
HETATM   24  C8  UNL     1     -20.651   8.054  -4.777  1.00  0.00     0.009 C 
HETATM   25  C13 UNL     1     -21.626  10.215  -4.354  1.00  0.00     0.010 C 
HETATM   26  C9  UNL     1     -21.190   7.491  -3.481  1.00  0.00    -0.013 C 
HETATM   27  C11 UNL     1     -22.398   8.219  -3.033  1.00  0.00     0.010 C 
HETATM   28  C12 UNL     1     -22.373   9.704  -3.143  1.00  0.00    -0.005 C 
ENDBRANCH   5  18
TORSDOF 4
ENDMDL
MODEL 2
REMARK VINA RESULT: -9.701252520      0.775      1.404
REMARK  4 active torsions:
REMARK  status: ('A' for Active; 'I' for Inactive)
REMARK       I    between atoms: C1_2  and  N1_3 
REMARK       I    between atoms: C1_2  and  N2_17 
REMARK    1  A    between atoms: C2_5  and  C3_6 
REMARK    2  A    between atoms: N2_17  and  N3_19 
REMARK       I    between atoms: N3_19  and  C14_21 
REMARK    3  A    between atoms: C14_21  and  C15_23 
REMARK    4  A    between atoms: C16_26  and  C17_27 
ROOT
HETATM    1  O1  UNL     1     -23.776  12.186   0.909  1.00  0.00    -0.245 OA
HETATM    2  C1  UNL     1     -23.429  10.996   0.819  1.00  0.00     0.338 C 
HETATM    3  N1  UNL     1     -22.196  10.667   0.131  1.00  0.00    -0.321 N 
ATOM      4  H1  UNL     1     -21.319  11.136   0.355  1.00  0.00     0.169 HD
HETATM    5  C2  UNL     1     -22.257   9.769  -0.762  1.00  0.00     0.070 C 
HETATM    6  N2  UNL     1     -24.149   9.902   1.340  1.00  0.00    -0.249 N 
ATOM      7  H2  UNL     1     -23.806   8.947   1.235  1.00  0.00     0.192 HD
ENDROOT
BRANCH   6   8
HETATM    8  N3  UNL     1     -25.360  10.171   2.013  1.00  0.00    -0.264 N 
HETATM    9  C14 UNL     1     -25.781   9.280   2.992  1.00  0.00     0.271 C 
HETATM   10  O2  UNL     1     -25.089   8.239   3.275  1.00  0.00    -0.269 OA
ATOM     11  H3  UNL     1     -25.912  10.999   1.787  1.00  0.00     0.190 HD
BRANCH   9  12
HETATM   12  C15 UNL     1     -27.015   9.447   3.762  1.00  0.00     0.286 C 
HETATM   13  O3  UNL     1     -27.406   8.456   4.619  1.00  0.00    -0.223 OA
HETATM   14  O4  UNL     1     -28.668   8.698   4.236  1.00  0.00    -0.231 OA
HETATM   15  C16 UNL     1     -28.201   8.907   2.970  1.00  0.00     0.211 C 
BRANCH  15  16
HETATM   16  C17 UNL     1     -28.822  10.009   2.152  1.00  0.00     0.123 C 
HETATM   17 BR1  UNL     1     -30.737   9.653   2.007  1.00  0.00    -0.094 Br
ENDBRANCH  15  16
ENDBRANCH   9  12
ENDBRANCH   6   8
BRANCH   5  18
HETATM   18  C3  UNL     1     -21.013   9.402  -1.491  1.00  0.00     0.028 C 
HETATM   19  C4  UNL     1     -21.178   7.999  -1.962  1.00  0.00     0.014 C 
HETATM   20  C5  UNL     1     -20.252   7.589  -3.061  1.00  0.00    -0.013 C 
HETATM   21  C6  UNL     1     -18.891   8.183  -3.000  1.00  0.00     0.009 C 
HETATM   22  C10 UNL     1     -20.861   7.814  -4.435  1.00  0.00     0.009 C 
HETATM   23  C7  UNL     1     -18.726   9.525  -3.641  1.00  0.00    -0.013 C 
HETATM   24  C8  UNL     1     -19.358   9.676  -4.980  1.00  0.00     0.009 C 
HETATM   25  C13 UNL     1     -19.317  10.598  -2.756  1.00  0.00     0.010 C 
HETATM   26  C9  UNL     1     -20.805   9.259  -4.845  1.00  0.00    -0.013 C 
HETATM   27  C11 UNL     1     -21.522  10.094  -3.856  1.00  0.00     0.010 C 
HETATM   28  C12 UNL     1     -20.806  10.405  -2.587  1.00  0.00    -0.005 C 
ENDBRANCH   5  18
TORSDOF 4
ENDMDL
MODEL 3
REMARK VINA RESULT: -9.393712226      1.822      2.712
REMARK  4 active torsions:
REMARK  status: ('A' for Active; 'I' for Inactive)
REMARK       I    between atoms: C1_2  and  N1_3 
REMARK       I    between atoms: C1_2  and  N2_17 
REMARK    1  A    between atoms: C2_5  and  C3_6 
REMARK    2  A    between atoms: N2_17  and  N3_19 
REMARK       I    between atoms: N3_19  and  C14_21 
REMARK    3  A    between atoms: C14_21  and  C15_23 
REMARK    4  A    between atoms: C16_26  and  C17_27 
ROOT
HETATM    1  O1  UNL     1     -22.676   7.985   4.113  1.00  0.00    -0.245 OA
HETATM    2  C1  UNL     1     -23.082   7.651   2.986  1.00  0.00     0.338 C 
HETATM    3  N1  UNL     1     -22.127   7.480   1.910  1.00  0.00    -0.321 N 
ATOM      4  H1  UNL     1     -21.293   6.904   2.024  1.00  0.00     0.169 HD
HETATM    5  C2  UNL     1     -22.374   8.079   0.820  1.00  0.00     0.070 C 
HETATM    6  N2  UNL     1     -24.431   7.418   2.649  1.00  0.00    -0.249 N 
ATOM      7  H2  UNL     1     -24.698   7.142   1.704  1.00  0.00     0.192 HD
ENDROOT
BRANCH   6   8
HETATM    8  N3  UNL     1     -25.400   7.579   3.663  1.00  0.00    -0.264 N 
HETATM    9  C14 UNL     1     -26.265   8.663   3.579  1.00  0.00     0.271 C 
HETATM   10  O2  UNL     1     -26.183   9.496   2.609  1.00  0.00    -0.269 OA
ATOM     11  H3  UNL     1     -25.465   6.917   4.435  1.00  0.00     0.190 HD
BRANCH   9  12
HETATM   12  C15 UNL     1     -27.314   8.940   4.563  1.00  0.00     0.286 C 
HETATM   13  O3  UNL     1     -27.857   7.902   5.268  1.00  0.00    -0.223 OA
HETATM   14  O4  UNL     1     -29.042   8.518   5.154  1.00  0.00    -0.231 OA
HETATM   15  C16 UNL     1     -28.682   8.893   3.892  1.00  0.00     0.211 C 
BRANCH  15  16
HETATM   16  C17 UNL     1     -29.073  10.267   3.415  1.00  0.00     0.123 C 
HETATM   17 BR1  UNL     1     -30.379  10.064   1.978  1.00  0.00    -0.094 Br
ENDBRANCH  15  16
ENDBRANCH   9  12
ENDBRANCH   6   8
BRANCH   5  18
HETATM   18  C3  UNL     1     -21.417   7.929  -0.309  1.00  0.00     0.028 C 
HETATM   19  C4  UNL     1     -22.195   7.442  -1.482  1.00  0.00     0.014 C 
HETATM   20  C5  UNL     1     -21.529   7.635  -2.806  1.00  0.00    -0.013 C 
HETATM   21  C6  UNL     1     -20.050   7.488  -2.800  1.00  0.00     0.009 C 
HETATM   22  C10 UNL     1     -21.923   8.950  -3.458  1.00  0.00     0.009 C 
HETATM   23  C7  UNL     1     -19.265   8.715  -2.459  1.00  0.00    -0.013 C 
HETATM   24  C8  UNL     1     -19.715   9.968  -3.126  1.00  0.00     0.009 C 
HETATM   25  C13 UNL     1     -19.322   8.970  -0.970  1.00  0.00     0.010 C 
HETATM   26  C9  UNL     1     -21.195  10.118  -2.853  1.00  0.00    -0.013 C 
HETATM   27  C11 UNL     1     -21.475  10.194  -1.402  1.00  0.00     0.010 C 
HETATM   28  C12 UNL     1     -20.737   9.249  -0.519  1.00  0.00    -0.005 C 
ENDBRANCH   5  18
TORSDOF 4
ENDMDL
MODEL 4
REMARK VINA RESULT: -9.327687049      4.031      8.809
REMARK  4 active torsions:
REMARK  status: ('A' for Active; 'I' for Inactive)
REMARK       I    between atoms: C1_2  and  N1_3 
REMARK       I    between atoms: C1_2  and  N2_17 
REMARK    1  A    between atoms: C2_5  and  C3_6 
REMARK    2  A    between atoms: N2_17  and  N3_19 
REMARK       I    between atoms: N3_19  and  C14_21 
REMARK    3  A    between atoms: C14_21  and  C15_23 
REMARK    4  A    between atoms: C16_26  and  C17_27 
ROOT
HETATM    1  O1  UNL     1     -22.921  10.392  -0.267  1.00  0.00    -0.245 OA
HETATM    2  C1  UNL     1     -23.050   9.974   0.897  1.00  0.00     0.338 C 
HETATM    3  N1  UNL     1     -24.365   9.971   1.507  1.00  0.00    -0.321 N 
ATOM      4  H1  UNL     1     -25.171   9.561   1.034  1.00  0.00     0.169 HD
HETATM    5  C2  UNL     1     -24.469  10.500   2.655  1.00  0.00     0.070 C 
HETATM    6  N2  UNL     1     -22.001   9.490   1.704  1.00  0.00    -0.249 N 
ATOM      7  H2  UNL     1     -22.175   9.157   2.652  1.00  0.00     0.192 HD
ENDROOT
BRANCH   6   8
HETATM    8  N3  UNL     1     -20.700   9.480   1.156  1.00  0.00    -0.264 N 
HETATM    9  C14 UNL     1     -20.188   8.273   0.697  1.00  0.00     0.271 C 
HETATM   10  O2  UNL     1     -20.878   7.196   0.772  1.00  0.00    -0.269 OA
ATOM     11  H3  UNL     1     -20.150  10.337   1.098  1.00  0.00     0.190 HD
BRANCH   9  12
HETATM   12  C15 UNL     1     -18.856   8.130   0.106  1.00  0.00     0.286 C 
HETATM   13  O3  UNL     1     -17.754   8.267   0.904  1.00  0.00    -0.223 OA
HETATM   14  O4  UNL     1     -17.162   8.903  -0.117  1.00  0.00    -0.231 OA
HETATM   15  C16 UNL     1     -18.366   9.481  -0.404  1.00  0.00     0.211 C 
BRANCH  15  16
HETATM   16  C17 UNL     1     -18.748   9.658  -1.850  1.00  0.00     0.123 C 
HETATM   17 BR1  UNL     1     -19.751  11.325  -2.014  1.00  0.00    -0.094 Br
ENDBRANCH  15  16
ENDBRANCH   9  12
ENDBRANCH   6   8
BRANCH   5  18
HETATM   18  C3  UNL     1     -25.802  10.516   3.315  1.00  0.00     0.028 C 
HETATM   19  C4  UNL     1     -26.824  10.346   2.245  1.00  0.00     0.014 C 
HETATM   20  C5  UNL     1     -28.170   9.906   2.721  1.00  0.00    -0.013 C 
HETATM   21  C6  UNL     1     -28.582  10.446   4.044  1.00  0.00     0.009 C 
HETATM   22  C10 UNL     1     -28.319   8.395   2.702  1.00  0.00     0.009 C 
HETATM   23  C7  UNL     1     -28.134   9.670   5.243  1.00  0.00    -0.013 C 
HETATM   24  C8  UNL     1     -28.299   8.193   5.147  1.00  0.00     0.009 C 
HETATM   25  C13 UNL     1     -26.668   9.928   5.509  1.00  0.00     0.010 C 
HETATM   26  C9  UNL     1     -27.628   7.746   3.868  1.00  0.00    -0.013 C 
HETATM   27  C11 UNL     1     -26.189   8.091   3.860  1.00  0.00     0.010 C 
HETATM   28  C12 UNL     1     -25.813   9.442   4.362  1.00  0.00    -0.005 C 
ENDBRANCH   5  18
TORSDOF 4
ENDMDL
MODEL 5
REMARK VINA RESULT: -9.301863008      1.560      2.349
REMARK  4 active torsions:
REMARK  status: ('A' for Active; 'I' for Inactive)
REMARK       I    between atoms: C1_2  and  N1_3 
REMARK       I    between atoms: C1_2  and  N2_17 
REMARK    1  A    between atoms: C2_5  and  C3_6 
REMARK    2  A    between atoms: N2_17  and  N3_19 
REMARK       I    between atoms: N3_19  and  C14_21 
REMARK    3  A    between atoms: C14_21  and  C15_23 
REMARK    4  A    between atoms: C16_26  and  C17_27 
ROOT
HETATM    1  O1  UNL     1     -23.150   8.832   3.239  1.00  0.00    -0.245 OA
HETATM    2  C1  UNL     1     -23.633   8.960   2.100  1.00  0.00     0.338 C 
HETATM    3  N1  UNL     1     -22.974   8.326   0.976  1.00  0.00    -0.321 N 
ATOM      4  H1  UNL     1     -22.716   7.340   0.996  1.00  0.00     0.169 HD
HETATM    5  C2  UNL     1     -22.734   9.053  -0.036  1.00  0.00     0.070 C 
HETATM    6  N2  UNL     1     -24.799   9.691   1.794  1.00  0.00    -0.249 N 
ATOM      7  H2  UNL     1     -25.145   9.754   0.837  1.00  0.00     0.192 HD
ENDROOT
BRANCH   6   8
HETATM    8  N3  UNL     1     -25.472  10.333   2.856  1.00  0.00    -0.264 N 
HETATM    9  C14 UNL     1     -26.594   9.715   3.392  1.00  0.00     0.271 C 
HETATM   10  O2  UNL     1     -27.009   8.593   2.934  1.00  0.00    -0.269 OA
ATOM     11  H3  UNL     1     -25.142  11.226   3.220  1.00  0.00     0.190 HD
BRANCH   9  12
HETATM   12  C15 UNL     1     -27.377  10.275   4.496  1.00  0.00     0.286 C 
HETATM   13  O3  UNL     1     -27.354   9.653   5.713  1.00  0.00    -0.223 OA
HETATM   14  O4  UNL     1     -28.659   9.939   5.822  1.00  0.00    -0.231 OA
HETATM   15  C16 UNL     1     -28.785   9.690   4.485  1.00  0.00     0.211 C 
BRANCH  15  16
HETATM   16  C17 UNL     1     -29.704  10.568   3.678  1.00  0.00     0.123 C 
HETATM   17 BR1  UNL     1     -30.434   9.502   2.214  1.00  0.00    -0.094 Br
ENDBRANCH  15  16
ENDBRANCH   9  12
ENDBRANCH   6   8
BRANCH   5  18
HETATM   18  C3  UNL     1     -22.060   8.439  -1.211  1.00  0.00     0.028 C 
HETATM   19  C4  UNL     1     -22.872   8.782  -2.411  1.00  0.00     0.014 C 
HETATM   20  C5  UNL     1     -22.159   8.640  -3.718  1.00  0.00    -0.013 C 
HETATM   21  C6  UNL     1     -21.186   7.518  -3.791  1.00  0.00     0.009 C 
HETATM   22  C10 UNL     1     -21.498   9.936  -4.153  1.00  0.00     0.009 C 
HETATM   23  C7  UNL     1     -19.802   7.810  -3.303  1.00  0.00    -0.013 C 
HETATM   24  C8  UNL     1     -19.223   9.104  -3.760  1.00  0.00     0.009 C 
HETATM   25  C13 UNL     1     -19.778   7.833  -1.792  1.00  0.00     0.010 C 
HETATM   26  C9  UNL     1     -20.215  10.190  -3.412  1.00  0.00    -0.013 C 
HETATM   27  C11 UNL     1     -20.473  10.244  -1.956  1.00  0.00     0.010 C 
HETATM   28  C12 UNL     1     -20.648   8.944  -1.250  1.00  0.00    -0.005 C 
ENDBRANCH   5  18
TORSDOF 4
ENDMDL
