MODEL 1
REMARK VINA RESULT: -10.214060985      0.000      0.000
REMARK  5 active torsions:
REMARK  status: ('A' for Active; 'I' for Inactive)
REMARK       I    between atoms: C2_5  and  N3_6 
REMARK       I    between atoms: C2_5  and  N4_15 
REMARK    1  A    between atoms: N3_6  and  C3_8 
REMARK    2  A    between atoms: C3_8  and  C4_9 
REMARK    3  A    between atoms: N5_18  and  C11_19 
REMARK    4  A    between atoms: C11_19  and  N6_21 
REMARK    5  A    between atoms: N6_21  and  C12_23 
ROOT
HETATM    1  N1  UNL     1     -17.641   9.095   1.499  1.00  0.00    -0.171 NA
HETATM    2  C1  UNL     1     -18.775   9.128   1.687  1.00  0.00     0.196 C 
HETATM    3  N2  UNL     1     -20.118   9.175   1.946  1.00  0.00    -0.126 N 
ATOM      4  H2  UNL     1     -20.344   9.323   2.929  1.00  0.00     0.197 HD
HETATM    5  C2  UNL     1     -21.128   9.070   1.200  1.00  0.00     0.685 C 
HETATM    6  N3  UNL     1     -21.184   8.861  -0.191  1.00  0.00    -0.225 N 
ATOM      7  H3  UNL     1     -22.088   8.704  -0.638  1.00  0.00     0.177 HD
HETATM    8  N4  UNL     1     -22.393   9.187   1.922  1.00  0.00    -0.214 N 
HETATM    9  C9  UNL     1     -22.578   8.523   3.187  1.00  0.00     0.161 C 
HETATM   10  C10 UNL     1     -23.995   8.076   3.308  1.00  0.00     0.145 C 
HETATM   11  N5  UNL     1     -24.939   9.135   2.962  1.00  0.00    -0.355 N 
HETATM   12  C18 UNL     1     -24.391  10.366   2.437  1.00  0.00     0.145 C 
HETATM   13  C19 UNL     1     -23.426   9.984   1.317  1.00  0.00     0.161 C 
ENDROOT
BRANCH   6  14
HETATM   14  C3  UNL     1     -20.002   8.866  -0.989  1.00  0.00     0.142 C 
BRANCH  14  15
HETATM   15  C4  UNL     1     -20.291   8.882  -2.475  1.00  0.00     0.008 C 
HETATM   16  C5  UNL     1     -20.166   7.549  -3.122  1.00  0.00     0.032 C 
HETATM   17  C6  UNL     1     -20.781   7.634  -4.503  1.00  0.00     0.168 C 
HETATM   18  O1  UNL     1     -20.563   8.865  -5.071  1.00  0.00    -0.391 OA
HETATM   19  C7  UNL     1     -19.396   9.490  -4.682  1.00  0.00     0.168 C 
HETATM   20  C8  UNL     1     -19.409   9.856  -3.207  1.00  0.00     0.032 C 
ENDBRANCH  14  15
ENDBRANCH   6  14
BRANCH  11  21
HETATM   21  C11 UNL     1     -26.362   8.940   3.144  1.00  0.00     0.174 C 
HETATM   22  S1  UNL     1     -26.791   7.478   3.683  1.00  0.00    -0.041 SA
BRANCH  21  23
HETATM   23  N6  UNL     1     -27.198  10.012   2.817  1.00  0.00    -0.333 N 
ATOM     24  H6  UNL     1     -26.727  10.859   2.501  1.00  0.00     0.168 HD
BRANCH  23  25
HETATM   25  C12 UNL     1     -28.608  10.077   2.867  1.00  0.00     0.037 A 
HETATM   26  C13 UNL     1     -29.434  10.050   1.776  1.00  0.00     0.029 A 
HETATM   27  C14 UNL     1     -30.826  10.144   1.877  1.00  0.00     0.005 A 
HETATM   28  C15 UNL     1     -31.380  10.267   3.115  1.00  0.00     0.042 A 
HETATM   29  C16 UNL     1     -30.609  10.300   4.253  1.00  0.00     0.118 A 
HETATM   30  F1  UNL     1     -31.238  10.424   5.444  1.00  0.00    -0.206 F 
HETATM   31  C17 UNL     1     -29.247  10.205   4.097  1.00  0.00     0.071 A 
ENDBRANCH  23  25
ENDBRANCH  21  23
ENDBRANCH  11  21
TORSDOF 5
ENDMDL
MODEL 2
REMARK VINA RESULT: -10.202449447      0.847      1.229
REMARK  5 active torsions:
REMARK  status: ('A' for Active; 'I' for Inactive)
REMARK       I    between atoms: C2_5  and  N3_6 
REMARK       I    between atoms: C2_5  and  N4_15 
REMARK    1  A    between atoms: N3_6  and  C3_8 
REMARK    2  A    between atoms: C3_8  and  C4_9 
REMARK    3  A    between atoms: N5_18  and  C11_19 
REMARK    4  A    between atoms: C11_19  and  N6_21 
REMARK    5  A    between atoms: N6_21  and  C12_23 
ROOT
HETATM    1  N1  UNL     1     -17.674   9.125   1.509  1.00  0.00    -0.171 NA
HETATM    2  C1  UNL     1     -18.809   9.149   1.698  1.00  0.00     0.196 C 
HETATM    3  N2  UNL     1     -20.152   9.185   1.957  1.00  0.00    -0.126 N 
ATOM      4  H2  UNL     1     -20.379   9.314   2.943  1.00  0.00     0.197 HD
HETATM    5  C2  UNL     1     -21.162   9.088   1.209  1.00  0.00     0.685 C 
HETATM    6  N3  UNL     1     -21.216   8.904  -0.186  1.00  0.00    -0.225 N 
ATOM      7  H3  UNL     1     -22.119   8.750  -0.636  1.00  0.00     0.177 HD
HETATM    8  N4  UNL     1     -22.428   9.186   1.933  1.00  0.00    -0.214 N 
HETATM    9  C9  UNL     1     -22.609   8.499   3.185  1.00  0.00     0.161 C 
HETATM   10  C10 UNL     1     -24.024   8.043   3.298  1.00  0.00     0.145 C 
HETATM   11  N5  UNL     1     -24.973   9.103   2.970  1.00  0.00    -0.355 N 
HETATM   12  C18 UNL     1     -24.431  10.347   2.467  1.00  0.00     0.145 C 
HETATM   13  C19 UNL     1     -23.464   9.988   1.341  1.00  0.00     0.161 C 
ENDROOT
BRANCH   6  14
HETATM   14  C3  UNL     1     -20.034   8.929  -0.983  1.00  0.00     0.142 C 
BRANCH  14  15
HETATM   15  C4  UNL     1     -20.321   8.912  -2.469  1.00  0.00     0.008 C 
HETATM   16  C5  UNL     1     -20.183   7.568  -3.089  1.00  0.00     0.032 C 
HETATM   17  C6  UNL     1     -20.798   7.619  -4.472  1.00  0.00     0.168 C 
HETATM   18  O1  UNL     1     -20.591   8.841  -5.064  1.00  0.00    -0.391 OA
HETATM   19  C7  UNL     1     -19.430   9.485  -4.687  1.00  0.00     0.168 C 
HETATM   20  C8  UNL     1     -19.448   9.879  -3.219  1.00  0.00     0.032 C 
ENDBRANCH  14  15
ENDBRANCH   6  14
BRANCH  11  21
HETATM   21  C11 UNL     1     -26.395   8.899   3.148  1.00  0.00     0.174 C 
HETATM   22  S1  UNL     1     -26.813   7.451   3.733  1.00  0.00    -0.041 SA
BRANCH  21  23
HETATM   23  N6  UNL     1     -27.241   9.949   2.779  1.00  0.00    -0.333 N 
ATOM     24  H6  UNL     1     -26.798  10.716   2.273  1.00  0.00     0.168 HD
BRANCH  23  25
HETATM   25  C12 UNL     1     -28.626  10.089   3.014  1.00  0.00     0.037 A 
HETATM   26  C13 UNL     1     -29.195  10.315   4.239  1.00  0.00     0.029 A 
HETATM   27  C14 UNL     1     -30.579  10.420   4.423  1.00  0.00     0.005 A 
HETATM   28  C15 UNL     1     -31.390  10.291   3.337  1.00  0.00     0.042 A 
HETATM   29  C16 UNL     1     -30.884  10.064   2.079  1.00  0.00     0.118 A 
HETATM   30  F1  UNL     1     -31.759   9.949   1.054  1.00  0.00    -0.206 F 
HETATM   31  C17 UNL     1     -29.520   9.969   1.954  1.00  0.00     0.071 A 
ENDBRANCH  23  25
ENDBRANCH  21  23
ENDBRANCH  11  21
TORSDOF 5
ENDMDL
MODEL 3
REMARK VINA RESULT: -10.156459952      1.129      1.701
REMARK  5 active torsions:
REMARK  status: ('A' for Active; 'I' for Inactive)
REMARK       I    between atoms: C2_5  and  N3_6 
REMARK       I    between atoms: C2_5  and  N4_15 
REMARK    1  A    between atoms: N3_6  and  C3_8 
REMARK    2  A    between atoms: C3_8  and  C4_9 
REMARK    3  A    between atoms: N5_18  and  C11_19 
REMARK    4  A    between atoms: C11_19  and  N6_21 
REMARK    5  A    between atoms: N6_21  and  C12_23 
ROOT
HETATM    1  N1  UNL     1     -17.908   9.096   1.209  1.00  0.00    -0.171 NA
HETATM    2  C1  UNL     1     -19.023   9.137   1.491  1.00  0.00     0.196 C 
HETATM    3  N2  UNL     1     -20.339   9.190   1.860  1.00  0.00    -0.126 N 
ATOM      4  H2  UNL     1     -20.482   9.274   2.866  1.00  0.00     0.197 HD
HETATM    5  C2  UNL     1     -21.408   9.154   1.193  1.00  0.00     0.685 C 
HETATM    6  N3  UNL     1     -21.580   9.041  -0.200  1.00  0.00    -0.225 N 
ATOM      7  H3  UNL     1     -22.519   8.931  -0.581  1.00  0.00     0.177 HD
HETATM    8  N4  UNL     1     -22.608   9.244   2.022  1.00  0.00    -0.214 N 
HETATM    9  C9  UNL     1     -22.707   8.499   3.250  1.00  0.00     0.161 C 
HETATM   10  C10 UNL     1     -24.120   8.070   3.456  1.00  0.00     0.145 C 
HETATM   11  N5  UNL     1     -25.063   9.165   3.259  1.00  0.00    -0.355 N 
HETATM   12  C18 UNL     1     -24.531  10.420   2.774  1.00  0.00     0.145 C 
HETATM   13  C19 UNL     1     -23.667  10.098   1.557  1.00  0.00     0.161 C 
ENDROOT
BRANCH   6  14
HETATM   14  C3  UNL     1     -20.465   9.080  -1.089  1.00  0.00     0.142 C 
BRANCH  14  15
HETATM   15  C4  UNL     1     -20.671   8.243  -2.333  1.00  0.00     0.008 C 
HETATM   16  C5  UNL     1     -20.704   9.037  -3.589  1.00  0.00     0.032 C 
HETATM   17  C6  UNL     1     -20.589   8.081  -4.757  1.00  0.00     0.168 C 
HETATM   18  O1  UNL     1     -21.235   6.897  -4.497  1.00  0.00    -0.391 OA
HETATM   19  C7  UNL     1     -22.325   6.998  -3.657  1.00  0.00     0.168 C 
HETATM   20  C8  UNL     1     -21.926   7.419  -2.253  1.00  0.00     0.032 C 
ENDBRANCH  14  15
ENDBRANCH   6  14
BRANCH  11  21
HETATM   21  C11 UNL     1     -26.471   8.984   3.542  1.00  0.00     0.174 C 
HETATM   22  S1  UNL     1     -26.925   7.458   3.820  1.00  0.00    -0.041 SA
BRANCH  21  23
HETATM   23  N6  UNL     1     -27.277  10.126   3.523  1.00  0.00    -0.333 N 
ATOM     24  H6  UNL     1     -26.786  11.012   3.398  1.00  0.00     0.168 HD
BRANCH  23  25
HETATM   25  C12 UNL     1     -28.680  10.217   3.653  1.00  0.00     0.037 A 
HETATM   26  C13 UNL     1     -29.351  10.354   4.839  1.00  0.00     0.029 A 
HETATM   27  C14 UNL     1     -30.747  10.413   4.917  1.00  0.00     0.005 A 
HETATM   28  C15 UNL     1     -31.466  10.331   3.764  1.00  0.00     0.042 A 
HETATM   29  C16 UNL     1     -30.856  10.193   2.540  1.00  0.00     0.118 A 
HETATM   30  F1  UNL     1     -31.643  10.120   1.442  1.00  0.00    -0.206 F 
HETATM   31  C17 UNL     1     -29.483  10.140   2.519  1.00  0.00     0.071 A 
ENDBRANCH  23  25
ENDBRANCH  21  23
ENDBRANCH  11  21
TORSDOF 5
ENDMDL
MODEL 4
REMARK VINA RESULT: -10.097681551      0.648      1.083
REMARK  5 active torsions:
REMARK  status: ('A' for Active; 'I' for Inactive)
REMARK       I    between atoms: C2_5  and  N3_6 
REMARK       I    between atoms: C2_5  and  N4_15 
REMARK    1  A    between atoms: N3_6  and  C3_8 
REMARK    2  A    between atoms: C3_8  and  C4_9 
REMARK    3  A    between atoms: N5_18  and  C11_19 
REMARK    4  A    between atoms: C11_19  and  N6_21 
REMARK    5  A    between atoms: N6_21  and  C12_23 
ROOT
HETATM    1  N1  UNL     1     -17.756   9.111   1.276  1.00  0.00    -0.171 NA
HETATM    2  C1  UNL     1     -18.878   9.146   1.528  1.00  0.00     0.196 C 
HETATM    3  N2  UNL     1     -20.205   9.190   1.861  1.00  0.00    -0.126 N 
ATOM      4  H2  UNL     1     -20.376   9.218   2.866  1.00  0.00     0.197 HD
HETATM    5  C2  UNL     1     -21.254   9.202   1.163  1.00  0.00     0.685 C 
HETATM    6  N3  UNL     1     -21.386   9.171  -0.238  1.00  0.00    -0.225 N 
ATOM      7  H3  UNL     1     -22.315   9.091  -0.652  1.00  0.00     0.177 HD
HETATM    8  N4  UNL     1     -22.477   9.255   1.961  1.00  0.00    -0.214 N 
HETATM    9  C9  UNL     1     -22.617   8.442   3.141  1.00  0.00     0.161 C 
HETATM   10  C10 UNL     1     -24.039   8.015   3.281  1.00  0.00     0.145 C 
HETATM   11  N5  UNL     1     -24.968   9.129   3.121  1.00  0.00    -0.355 N 
HETATM   12  C18 UNL     1     -24.412  10.405   2.724  1.00  0.00     0.145 C 
HETATM   13  C19 UNL     1     -23.516  10.144   1.515  1.00  0.00     0.161 C 
ENDROOT
BRANCH   6  14
HETATM   14  C3  UNL     1     -20.246   9.250  -1.092  1.00  0.00     0.142 C 
BRANCH  14  15
HETATM   15  C4  UNL     1     -20.425   8.495  -2.391  1.00  0.00     0.008 C 
HETATM   16  C5  UNL     1     -20.589   9.377  -3.577  1.00  0.00     0.032 C 
HETATM   17  C6  UNL     1     -20.435   8.530  -4.822  1.00  0.00     0.168 C 
HETATM   18  O1  UNL     1     -20.952   7.271  -4.635  1.00  0.00    -0.391 OA
HETATM   19  C7  UNL     1     -22.009   7.198  -3.751  1.00  0.00     0.168 C 
HETATM   20  C8  UNL     1     -21.591   7.547  -2.332  1.00  0.00     0.032 C 
ENDBRANCH  14  15
ENDBRANCH   6  14
BRANCH  11  21
HETATM   21  C11 UNL     1     -26.385   8.945   3.352  1.00  0.00     0.174 C 
HETATM   22  S1  UNL     1     -26.827   7.439   3.738  1.00  0.00    -0.041 SA
BRANCH  21  23
HETATM   23  N6  UNL     1     -27.206  10.065   3.198  1.00  0.00    -0.333 N 
ATOM     24  H6  UNL     1     -26.723  10.959   3.109  1.00  0.00     0.168 HD
BRANCH  23  25
HETATM   25  C12 UNL     1     -28.617  10.124   3.149  1.00  0.00     0.037 A 
HETATM   26  C13 UNL     1     -29.363  10.103   2.002  1.00  0.00     0.029 A 
HETATM   27  C14 UNL     1     -30.760  10.191   2.006  1.00  0.00     0.005 A 
HETATM   28  C15 UNL     1     -31.400  10.302   3.202  1.00  0.00     0.042 A 
HETATM   29  C16 UNL     1     -30.711  10.329   4.392  1.00  0.00     0.118 A 
HETATM   30  F1  UNL     1     -31.423  10.440   5.536  1.00  0.00    -0.206 F 
HETATM   31  C17 UNL     1     -29.342  10.239   4.331  1.00  0.00     0.071 A 
ENDBRANCH  23  25
ENDBRANCH  21  23
ENDBRANCH  11  21
TORSDOF 5
ENDMDL
MODEL 5
REMARK VINA RESULT: -9.811001910      1.508      1.850
REMARK  5 active torsions:
REMARK  status: ('A' for Active; 'I' for Inactive)
REMARK       I    between atoms: C2_5  and  N3_6 
REMARK       I    between atoms: C2_5  and  N4_15 
REMARK    1  A    between atoms: N3_6  and  C3_8 
REMARK    2  A    between atoms: C3_8  and  C4_9 
REMARK    3  A    between atoms: N5_18  and  C11_19 
REMARK    4  A    between atoms: C11_19  and  N6_21 
REMARK    5  A    between atoms: N6_21  and  C12_23 
ROOT
HETATM    1  N1  UNL     1     -18.821   9.824   0.054  1.00  0.00    -0.171 NA
HETATM    2  C1  UNL     1     -19.870   9.796   0.527  1.00  0.00     0.196 C 
HETATM    3  N2  UNL     1     -21.101   9.760   1.122  1.00  0.00    -0.126 N 
ATOM      4  H2  UNL     1     -21.068   9.605   2.130  1.00  0.00     0.197 HD
HETATM    5  C2  UNL     1     -22.268   9.880   0.662  1.00  0.00     0.685 C 
HETATM    6  N3  UNL     1     -22.678  10.098  -0.667  1.00  0.00    -0.225 N 
ATOM      7  H3  UNL     1     -23.673  10.079  -0.894  1.00  0.00     0.177 HD
HETATM    8  N4  UNL     1     -23.306   9.772   1.685  1.00  0.00    -0.214 N 
HETATM    9  C9  UNL     1     -23.224   8.759   2.706  1.00  0.00     0.161 C 
HETATM   10  C10 UNL     1     -24.598   8.292   3.050  1.00  0.00     0.145 C 
HETATM   11  N5  UNL     1     -25.516   9.403   3.280  1.00  0.00    -0.355 N 
HETATM   12  C18 UNL     1     -25.024  10.737   3.013  1.00  0.00     0.145 C 
HETATM   13  C19 UNL     1     -24.394  10.710   1.623  1.00  0.00     0.161 C 
ENDROOT
BRANCH   6  14
HETATM   14  C3  UNL     1     -21.730  10.345  -1.704  1.00  0.00     0.142 C 
BRANCH  14  15
HETATM   15  C4  UNL     1     -21.663   9.229  -2.724  1.00  0.00     0.008 C 
HETATM   16  C5  UNL     1     -22.275   7.957  -2.259  1.00  0.00     0.032 C 
HETATM   17  C6  UNL     1     -22.433   7.042  -3.455  1.00  0.00     0.168 C 
HETATM   18  O1  UNL     1     -21.397   7.199  -4.342  1.00  0.00    -0.391 OA
HETATM   19  C7  UNL     1     -20.193   7.565  -3.777  1.00  0.00     0.168 C 
HETATM   20  C8  UNL     1     -20.251   8.953  -3.159  1.00  0.00     0.032 C 
ENDBRANCH  14  15
ENDBRANCH   6  14
BRANCH  11  21
HETATM   21  C11 UNL     1     -26.862   9.159   3.754  1.00  0.00     0.174 C 
HETATM   22  S1  UNL     1     -27.176   7.629   4.173  1.00  0.00    -0.041 SA
BRANCH  21  23
HETATM   23  N6  UNL     1     -27.737  10.249   3.777  1.00  0.00    -0.333 N 
ATOM     24  H6  UNL     1     -27.297  11.168   3.806  1.00  0.00     0.168 HD
BRANCH  23  25
HETATM   25  C12 UNL     1     -29.149  10.246   3.766  1.00  0.00     0.037 A 
HETATM   26  C13 UNL     1     -29.943  10.416   4.869  1.00  0.00     0.029 A 
HETATM   27  C14 UNL     1     -31.341  10.378   4.809  1.00  0.00     0.005 A 
HETATM   28  C15 UNL     1     -31.933  10.163   3.602  1.00  0.00     0.042 A 
HETATM   29  C16 UNL     1     -31.195   9.985   2.455  1.00  0.00     0.118 A 
HETATM   30  F1  UNL     1     -31.862   9.778   1.297  1.00  0.00    -0.206 F 
HETATM   31  C17 UNL     1     -29.827  10.031   2.570  1.00  0.00     0.071 A 
ENDBRANCH  23  25
ENDBRANCH  21  23
ENDBRANCH  11  21
TORSDOF 5
ENDMDL
