MODEL 1
REMARK VINA RESULT: -8.724078287      0.000      0.000
REMARK  4 active torsions:
REMARK  status: ('A' for Active; 'I' for Inactive)
REMARK       I    between atoms: N1_4  and  C4_5 
REMARK    1  A    between atoms: C4_5  and  C5_7 
REMARK    2  A    between atoms: C7_9  and  O2_10 
REMARK    3  A    between atoms: C11_15  and  C12_16 
REMARK    4  A    between atoms: C14_20  and  C15_22 
ROOT
HETATM    1  C5  UNL     1     -21.048   9.788  -1.823  1.00  0.00     0.067 C 
HETATM    2  C6  UNL     1     -21.675   8.563  -2.434  1.00  0.00     0.060 C 
HETATM    3  C7  UNL     1     -20.758   8.334  -3.646  1.00  0.00     0.075 C 
HETATM    4  C8  UNL     1     -19.470   7.796  -3.037  1.00  0.00     0.045 C 
HETATM    5  C9  UNL     1     -18.831   9.111  -2.637  1.00  0.00     0.015 C 
HETATM    6  C10 UNL     1     -18.971   9.899  -3.919  1.00  0.00     0.028 C 
HETATM    7  C11 UNL     1     -20.482   9.710  -4.131  1.00  0.00     0.071 C 
HETATM    8  C13 UNL     1     -21.118  10.651  -3.150  1.00  0.00     0.043 C 
HETATM    9  C14 UNL     1     -19.637   9.756  -1.485  1.00  0.00     0.061 C 
HETATM   10 CL1  UNL     1     -19.078  11.496  -1.578  1.00  0.00    -0.117 Cl
ENDROOT
BRANCH   1  11
HETATM   11  C4  UNL     1     -21.949  10.576  -0.979  1.00  0.00     0.233 C 
HETATM   12  N1  UNL     1     -22.633  10.096   0.156  1.00  0.00    -0.317 N 
HETATM   13  C3  UNL     1     -22.570   8.759   0.712  1.00  0.00     0.160 C 
HETATM   14  C19 UNL     1     -23.562  10.814   1.014  1.00  0.00     0.139 A 
HETATM   15  C2  UNL     1     -23.216   8.911   2.070  1.00  0.00     0.138 C 
HETATM   16  C1  UNL     1     -22.359   8.259   3.121  1.00  0.00     0.041 C 
HETATM   17  O4  UNL     1     -23.382  10.275   2.289  1.00  0.00    -0.354 OA
HETATM   18  C20 UNL     1     -24.001  12.184   0.839  1.00  0.00     0.066 A 
HETATM   19  C21 UNL     1     -24.920  11.026   0.477  1.00  0.00     0.066 A 
HETATM   20  O1  UNL     1     -22.125  11.794  -1.298  1.00  0.00    -0.272 OA
ENDBRANCH   1  11
BRANCH   9  21
HETATM   21  C15 UNL     1     -19.057   9.256  -0.249  1.00  0.00     0.015 A 
HETATM   22  C16 UNL     1     -17.644   8.912  -0.017  1.00  0.00     0.011 A 
HETATM   23  C17 UNL     1     -18.784   7.913   0.240  1.00  0.00    -0.012 A 
HETATM   24  C18 UNL     1     -18.909   7.598   1.752  1.00  0.00     0.010 C 
ENDBRANCH   9  21
BRANCH   3  25
HETATM   25  O2  UNL     1     -21.316   7.467  -4.548  1.00  0.00    -0.389 OA
ATOM     26  H2  UNL     1     -21.017   6.576  -4.412  1.00  0.00     0.210 HD
ENDBRANCH   3  25
BRANCH   7  27
HETATM   27  C12 UNL     1     -20.857   9.986  -5.521  1.00  0.00     0.242 C 
HETATM   28  N2  UNL     1     -22.020  10.751  -5.790  1.00  0.00    -0.061 NA
HETATM   29  O3  UNL     1     -20.176   9.562  -6.456  1.00  0.00    -0.276 OA
ENDBRANCH   7  27
TORSDOF 4
ENDMDL
MODEL 2
REMARK VINA RESULT: -8.450200193      1.966      2.539
REMARK  4 active torsions:
REMARK  status: ('A' for Active; 'I' for Inactive)
REMARK       I    between atoms: N1_4  and  C4_5 
REMARK    1  A    between atoms: C4_5  and  C5_7 
REMARK    2  A    between atoms: C7_9  and  O2_10 
REMARK    3  A    between atoms: C11_15  and  C12_16 
REMARK    4  A    between atoms: C14_20  and  C15_22 
ROOT
HETATM    1  C5  UNL     1     -22.079   9.048  -0.059  1.00  0.00     0.067 C 
HETATM    2  C6  UNL     1     -22.338   7.705  -0.687  1.00  0.00     0.060 C 
HETATM    3  C7  UNL     1     -21.824   7.941  -2.116  1.00  0.00     0.075 C 
HETATM    4  C8  UNL     1     -20.309   7.964  -1.963  1.00  0.00     0.045 C 
HETATM    5  C9  UNL     1     -20.139   9.404  -1.523  1.00  0.00     0.015 C 
HETATM    6  C10 UNL     1     -20.957  10.122  -2.571  1.00  0.00     0.028 C 
HETATM    7  C11 UNL     1     -22.264   9.328  -2.412  1.00  0.00     0.071 C 
HETATM    8  C13 UNL     1     -22.879   9.866  -1.154  1.00  0.00     0.043 C 
HETATM    9  C14 UNL     1     -20.735   9.595  -0.109  1.00  0.00     0.061 C 
HETATM   10 CL1  UNL     1     -20.948  11.411  -0.044  1.00  0.00    -0.117 Cl
ENDROOT
BRANCH   1  11
HETATM   11  C4  UNL     1     -22.907   9.344   1.112  1.00  0.00     0.233 C 
HETATM   12  N1  UNL     1     -22.936   8.590   2.302  1.00  0.00    -0.317 N 
HETATM   13  C3  UNL     1     -22.157   7.406   2.605  1.00  0.00     0.160 C 
HETATM   14  C19 UNL     1     -23.756   8.809   3.484  1.00  0.00     0.139 A 
HETATM   15  C2  UNL     1     -22.343   7.233   4.095  1.00  0.00     0.138 C 
HETATM   16  C1  UNL     1     -21.011   7.004   4.756  1.00  0.00     0.041 C 
HETATM   17  O4  UNL     1     -22.978   8.380   4.561  1.00  0.00    -0.354 OA
HETATM   18  C20 UNL     1     -24.751   9.850   3.651  1.00  0.00     0.066 A 
HETATM   19  C21 UNL     1     -25.174   8.412   3.381  1.00  0.00     0.066 A 
HETATM   20  O1  UNL     1     -23.660  10.366   1.047  1.00  0.00    -0.272 OA
ENDBRANCH   1  11
BRANCH   9  21
HETATM   21  C15 UNL     1     -19.658   9.325   0.830  1.00  0.00     0.015 A 
HETATM   22  C16 UNL     1     -18.214   9.442   0.569  1.00  0.00     0.011 A 
HETATM   23  C17 UNL     1     -18.849   8.142   1.090  1.00  0.00    -0.012 A 
HETATM   24  C18 UNL     1     -18.368   7.834   2.530  1.00  0.00     0.010 C 
ENDBRANCH   9  21
BRANCH   3  25
HETATM   25  O2  UNL     1     -22.252   6.965  -2.977  1.00  0.00    -0.389 OA
ATOM     26  H2  UNL     1     -22.538   7.329  -3.806  1.00  0.00     0.210 HD
ENDBRANCH   3  25
BRANCH   7  27
HETATM   27  C12 UNL     1     -23.124   9.489  -3.590  1.00  0.00     0.242 C 
HETATM   28  N2  UNL     1     -22.759  10.418  -4.596  1.00  0.00    -0.061 NA
HETATM   29  O3  UNL     1     -24.156   8.827  -3.714  1.00  0.00    -0.276 OA
ENDBRANCH   7  27
TORSDOF 4
ENDMDL
MODEL 3
REMARK VINA RESULT: -8.359672698      2.460      4.812
REMARK  4 active torsions:
REMARK  status: ('A' for Active; 'I' for Inactive)
REMARK       I    between atoms: N1_4  and  C4_5 
REMARK    1  A    between atoms: C4_5  and  C5_7 
REMARK    2  A    between atoms: C7_9  and  O2_10 
REMARK    3  A    between atoms: C11_15  and  C12_16 
REMARK    4  A    between atoms: C14_20  and  C15_22 
ROOT
HETATM    1  C5  UNL     1     -20.587   9.475  -0.932  1.00  0.00     0.067 C 
HETATM    2  C6  UNL     1     -19.242   9.056  -0.401  1.00  0.00     0.060 C 
HETATM    3  C7  UNL     1     -19.557   7.649   0.130  1.00  0.00     0.075 C 
HETATM    4  C8  UNL     1     -19.709   6.805  -1.129  1.00  0.00     0.045 C 
HETATM    5  C9  UNL     1     -21.147   7.142  -1.466  1.00  0.00     0.015 C 
HETATM    6  C10 UNL     1     -21.816   6.911  -0.131  1.00  0.00     0.028 C 
HETATM    7  C11 UNL     1     -20.907   7.804   0.729  1.00  0.00     0.071 C 
HETATM    8  C13 UNL     1     -21.358   9.202   0.425  1.00  0.00     0.043 C 
HETATM    9  C14 UNL     1     -21.250   8.622  -1.902  1.00  0.00     0.061 C 
HETATM   10 CL1  UNL     1     -23.039   8.944  -1.687  1.00  0.00    -0.117 Cl
ENDROOT
BRANCH   1  11
HETATM   11  C4  UNL     1     -20.781  10.923  -1.029  1.00  0.00     0.233 C 
HETATM   12  N1  UNL     1     -21.903  11.629  -0.552  1.00  0.00    -0.317 N 
HETATM   13  C3  UNL     1     -23.057  11.078   0.130  1.00  0.00     0.160 C 
HETATM   14  C19 UNL     1     -22.171  13.056  -0.645  1.00  0.00     0.139 A 
HETATM   15  C2  UNL     1     -23.753  12.298   0.689  1.00  0.00     0.138 C 
HETATM   16  C1  UNL     1     -24.098  12.074   2.135  1.00  0.00     0.041 C 
HETATM   17  O4  UNL     1     -22.890  13.375   0.508  1.00  0.00    -0.354 OA
HETATM   18  C20 UNL     1     -21.331  14.041  -1.295  1.00  0.00     0.066 A 
HETATM   19  C21 UNL     1     -22.611  13.556  -1.963  1.00  0.00     0.066 A 
HETATM   20  O1  UNL     1     -19.859  11.595  -1.589  1.00  0.00    -0.272 OA
ENDBRANCH   1  11
BRANCH   9  21
HETATM   21  C15 UNL     1     -21.052   8.640  -3.343  1.00  0.00     0.015 A 
HETATM   22  C16 UNL     1     -20.780   7.479  -4.207  1.00  0.00     0.011 A 
HETATM   23  C17 UNL     1     -19.859   8.711  -4.174  1.00  0.00    -0.012 A 
HETATM   24  C18 UNL     1     -19.901   9.464  -5.527  1.00  0.00     0.010 C 
ENDBRANCH   9  21
BRANCH   3  25
HETATM   25  O2  UNL     1     -18.569   7.186   0.959  1.00  0.00    -0.389 OA
ATOM     26  H2  UNL     1     -18.725   6.289   1.226  1.00  0.00     0.210 HD
ENDBRANCH   3  25
BRANCH   7  27
HETATM   27  C12 UNL     1     -21.020   7.458   2.150  1.00  0.00     0.242 C 
HETATM   28  N2  UNL     1     -21.441   8.445   3.076  1.00  0.00    -0.061 NA
HETATM   29  O3  UNL     1     -20.755   6.322   2.547  1.00  0.00    -0.276 OA
ENDBRANCH   7  27
TORSDOF 4
ENDMDL
MODEL 4
REMARK VINA RESULT: -8.357017291      1.435      1.903
REMARK  4 active torsions:
REMARK  status: ('A' for Active; 'I' for Inactive)
REMARK       I    between atoms: N1_4  and  C4_5 
REMARK    1  A    between atoms: C4_5  and  C5_7 
REMARK    2  A    between atoms: C7_9  and  O2_10 
REMARK    3  A    between atoms: C11_15  and  C12_16 
REMARK    4  A    between atoms: C14_20  and  C15_22 
ROOT
HETATM    1  C5  UNL     1     -21.553   9.098  -0.234  1.00  0.00     0.067 C 
HETATM    2  C6  UNL     1     -22.331   7.944  -0.809  1.00  0.00     0.060 C 
HETATM    3  C7  UNL     1     -21.379   7.466  -1.917  1.00  0.00     0.075 C 
HETATM    4  C8  UNL     1     -20.250   6.778  -1.160  1.00  0.00     0.045 C 
HETATM    5  C9  UNL     1     -19.429   8.000  -0.800  1.00  0.00     0.015 C 
HETATM    6  C10 UNL     1     -19.336   8.688  -2.142  1.00  0.00     0.028 C 
HETATM    7  C11 UNL     1     -20.837   8.733  -2.472  1.00  0.00     0.071 C 
HETATM    8  C13 UNL     1     -21.376   9.845  -1.620  1.00  0.00     0.043 C 
HETATM    9  C14 UNL     1     -20.197   8.864   0.227  1.00  0.00     0.061 C 
HETATM   10 CL1  UNL     1     -19.344  10.475   0.061  1.00  0.00    -0.117 Cl
ENDROOT
BRANCH   1  11
HETATM   11  C4  UNL     1     -22.367  10.092   0.469  1.00  0.00     0.233 C 
HETATM   12  N1  UNL     1     -23.109   9.855   1.643  1.00  0.00    -0.317 N 
HETATM   13  C3  UNL     1     -23.201   8.612   2.382  1.00  0.00     0.160 C 
HETATM   14  C19 UNL     1     -23.960  10.785   2.370  1.00  0.00     0.139 A 
HETATM   15  C2  UNL     1     -23.837   9.025   3.690  1.00  0.00     0.138 C 
HETATM   16  C1  UNL     1     -23.067   8.439   4.842  1.00  0.00     0.041 C 
HETATM   17  O4  UNL     1     -23.852  10.416   3.712  1.00  0.00    -0.354 OA
HETATM   18  C20 UNL     1     -24.241  12.156   1.994  1.00  0.00     0.066 A 
HETATM   19  C21 UNL     1     -25.281  11.066   1.776  1.00  0.00     0.066 A 
HETATM   20  O1  UNL     1     -22.403  11.264  -0.021  1.00  0.00    -0.272 OA
ENDBRANCH   1  11
BRANCH   9  21
HETATM   21  C15 UNL     1     -19.804   8.383   1.543  1.00  0.00     0.015 A 
HETATM   22  C16 UNL     1     -18.487   7.849   1.926  1.00  0.00     0.011 A 
HETATM   23  C17 UNL     1     -19.787   7.057   2.143  1.00  0.00    -0.012 A 
HETATM   24  C18 UNL     1     -20.081   6.886   3.654  1.00  0.00     0.010 C 
ENDBRANCH   9  21
BRANCH   3  25
HETATM   25  O2  UNL     1     -22.008   6.630  -2.801  1.00  0.00    -0.389 OA
ATOM     26  H2  UNL     1     -22.950   6.634  -2.680  1.00  0.00     0.210 HD
ENDBRANCH   3  25
BRANCH   7  27
HETATM   27  C12 UNL     1     -21.055   8.947  -3.906  1.00  0.00     0.242 C 
HETATM   28  N2  UNL     1     -21.771  10.092  -4.338  1.00  0.00    -0.061 NA
HETATM   29  O3  UNL     1     -20.624   8.147  -4.738  1.00  0.00    -0.276 OA
ENDBRANCH   7  27
TORSDOF 4
ENDMDL
MODEL 5
REMARK VINA RESULT: -8.023797852      2.719      4.625
REMARK  4 active torsions:
REMARK  status: ('A' for Active; 'I' for Inactive)
REMARK       I    between atoms: N1_4  and  C4_5 
REMARK    1  A    between atoms: C4_5  and  C5_7 
REMARK    2  A    between atoms: C7_9  and  O2_10 
REMARK    3  A    between atoms: C11_15  and  C12_16 
REMARK    4  A    between atoms: C14_20  and  C15_22 
ROOT
HETATM    1  C5  UNL     1     -21.391   9.400  -0.474  1.00  0.00     0.067 C 
HETATM    2  C6  UNL     1     -22.806   9.368   0.039  1.00  0.00     0.060 C 
HETATM    3  C7  UNL     1     -23.451  10.481  -0.802  1.00  0.00     0.075 C 
HETATM    4  C8  UNL     1     -23.574   9.868  -2.191  1.00  0.00     0.045 C 
HETATM    5  C9  UNL     1     -22.166  10.128  -2.688  1.00  0.00     0.015 C 
HETATM    6  C10 UNL     1     -22.010  11.593  -2.353  1.00  0.00     0.028 C 
HETATM    7  C11 UNL     1     -22.392  11.520  -0.865  1.00  0.00     0.071 C 
HETATM    8  C13 UNL     1     -21.180  10.944  -0.194  1.00  0.00     0.043 C 
HETATM    9  C14 UNL     1     -21.162   9.256  -1.900  1.00  0.00     0.061 C 
HETATM   10 CL1  UNL     1     -19.586  10.126  -2.228  1.00  0.00    -0.117 Cl
ENDROOT
BRANCH   1  11
HETATM   11  C4  UNL     1     -20.395   8.853   0.450  1.00  0.00     0.233 C 
HETATM   12  N1  UNL     1     -20.616   8.570   1.813  1.00  0.00    -0.317 N 
HETATM   13  C3  UNL     1     -21.850   8.746   2.553  1.00  0.00     0.160 C 
HETATM   14  C19 UNL     1     -19.666   8.059   2.789  1.00  0.00     0.139 A 
HETATM   15  C2  UNL     1     -21.603   7.987   3.837  1.00  0.00     0.138 C 
HETATM   16  C1  UNL     1     -22.774   7.091   4.136  1.00  0.00     0.041 C 
HETATM   17  O4  UNL     1     -20.419   7.277   3.667  1.00  0.00    -0.354 OA
HETATM   18  C20 UNL     1     -18.267   7.770   2.548  1.00  0.00     0.066 A 
HETATM   19  C21 UNL     1     -18.677   9.024   3.309  1.00  0.00     0.066 A 
HETATM   20  O1  UNL     1     -19.238   8.612  -0.019  1.00  0.00    -0.272 OA
ENDBRANCH   1  11
BRANCH   9  21
HETATM   21  C15 UNL     1     -21.042   8.005  -2.633  1.00  0.00     0.015 A 
HETATM   22  C16 UNL     1     -19.847   7.508  -3.334  1.00  0.00     0.011 A 
HETATM   23  C17 UNL     1     -21.205   7.666  -4.039  1.00  0.00    -0.012 A 
HETATM   24  C18 UNL     1     -21.779   6.284  -4.441  1.00  0.00     0.010 C 
ENDBRANCH   9  21
BRANCH   3  25
HETATM   25  O2  UNL     1     -24.661  10.869  -0.289  1.00  0.00    -0.389 OA
ATOM     26  H2  UNL     1     -24.839  10.452   0.545  1.00  0.00     0.210 HD
ENDBRANCH   3  25
BRANCH   7  27
HETATM   27  C12 UNL     1     -22.763  12.843  -0.351  1.00  0.00     0.242 C 
HETATM   28  N2  UNL     1     -23.229  12.966   0.982  1.00  0.00    -0.061 NA
HETATM   29  O3  UNL     1     -22.674  13.845  -1.063  1.00  0.00    -0.276 OA
ENDBRANCH   7  27
TORSDOF 4
ENDMDL
