MODEL 1
REMARK VINA RESULT: -8.052046659      0.000      0.000
REMARK  5 active torsions:
REMARK  status: ('A' for Active; 'I' for Inactive)
REMARK       I    between atoms: C2_4  and  N2_5 
REMARK       I    between atoms: C2_4  and  N4_12 
REMARK    1  A    between atoms: C3_7  and  N3_9 
REMARK    2  A    between atoms: N4_12  and  C5_14 
REMARK    3  A    between atoms: C5_14  and  C6_15 
REMARK    4  A    between atoms: C6_15  and  C7_16 
REMARK    5  A    between atoms: C7_16  and  O1_17 
ROOT
HETATM    1  C5  UNL     1     -23.482  10.231   0.577  1.00  0.00     0.141 C 
ENDROOT
BRANCH   1   2
HETATM    2  N4  UNL     1     -22.809   9.928   1.827  1.00  0.00    -0.226 N 
HETATM    3  C2  UNL     1     -22.671   8.596   2.316  1.00  0.00     0.675 C 
HETATM    4  N1  UNL     1     -21.466   8.113   2.334  1.00  0.00    -0.231 N 
HETATM    5  N2  UNL     1     -23.735   7.801   2.766  1.00  0.00    -0.166 N 
HETATM    6  C1  UNL     1     -21.183   6.768   2.810  1.00  0.00     0.165 C 
ATOM      7  H1  UNL     1     -20.695   8.694   2.006  1.00  0.00     0.177 HD
HETATM    8  C3  UNL     1     -24.740   8.251   3.423  1.00  0.00     0.189 C 
ATOM      9  H2  UNL     1     -23.708   6.802   2.558  1.00  0.00     0.186 HD
HETATM   10 CL1  UNL     1     -24.818   9.945   3.794  1.00  0.00    -0.045 Cl
ATOM     11  H4  UNL     1     -22.422  10.696   2.375  1.00  0.00     0.177 HD
BRANCH   8  12
HETATM   12  N3  UNL     1     -25.759   7.351   3.827  1.00  0.00    -0.370 N 
HETATM   13  C4  UNL     1     -27.154   7.669   3.742  1.00  0.00     0.148 C 
ATOM     14  H3  UNL     1     -25.488   6.439   4.194  1.00  0.00     0.161 HD
ENDBRANCH   8  12
ENDBRANCH   1   2
BRANCH   1  15
HETATM   15  C6  UNL     1     -22.795   9.439  -0.510  1.00  0.00     0.059 C 
BRANCH  15  16
HETATM   16  C7  UNL     1     -21.807  10.259  -1.293  1.00  0.00     0.071 C 
HETATM   17  C8  UNL     1     -22.262  11.641  -1.584  1.00  0.00     0.065 C 
HETATM   18  C9  UNL     1     -22.231  12.066  -3.000  1.00  0.00     0.170 C 
HETATM   19  O2  UNL     1     -22.474  11.117  -3.942  1.00  0.00    -0.390 OA
HETATM   20  C10 UNL     1     -22.662   9.832  -3.505  1.00  0.00     0.180 C 
HETATM   21  C11 UNL     1     -21.505   9.505  -2.569  1.00  0.00     0.012 C 
HETATM   22  C12 UNL     1     -20.202   9.936  -3.207  1.00  0.00     0.014 C 
HETATM   23  C15 UNL     1     -21.352   8.015  -2.354  1.00  0.00     0.014 C 
HETATM   24  C13 UNL     1     -19.419   8.713  -3.556  1.00  0.00     0.001 C 
HETATM   25  C14 UNL     1     -20.397   7.561  -3.464  1.00  0.00     0.001 C 
BRANCH  16  26
HETATM   26  O1  UNL     1     -20.604  10.238  -0.547  1.00  0.00    -0.389 OA
ATOM     27  H1  UNL     1     -20.210  11.096  -0.659  1.00  0.00     0.210 HD
ENDBRANCH  16  26
ENDBRANCH  15  16
ENDBRANCH   1  15
TORSDOF 5
ENDMDL
MODEL 2
REMARK VINA RESULT: -7.997258197      1.928      3.203
REMARK  5 active torsions:
REMARK  status: ('A' for Active; 'I' for Inactive)
REMARK       I    between atoms: C2_4  and  N2_5 
REMARK       I    between atoms: C2_4  and  N4_12 
REMARK    1  A    between atoms: C3_7  and  N3_9 
REMARK    2  A    between atoms: N4_12  and  C5_14 
REMARK    3  A    between atoms: C5_14  and  C6_15 
REMARK    4  A    between atoms: C6_15  and  C7_16 
REMARK    5  A    between atoms: C7_16  and  O1_17 
ROOT
HETATM    1  C5  UNL     1     -21.440   6.953   0.367  1.00  0.00     0.141 C 
ENDROOT
BRANCH   1   2
HETATM    2  N4  UNL     1     -22.374   6.928   1.478  1.00  0.00    -0.226 N 
HETATM    3  C2  UNL     1     -22.711   8.099   2.219  1.00  0.00     0.675 C 
HETATM    4  N1  UNL     1     -23.929   8.530   2.086  1.00  0.00    -0.231 N 
HETATM    5  N2  UNL     1     -21.826   8.791   3.057  1.00  0.00    -0.166 N 
HETATM    6  C1  UNL     1     -24.405   9.713   2.786  1.00  0.00     0.165 C 
ATOM      7  H1  UNL     1     -24.570   8.025   1.474  1.00  0.00     0.177 HD
HETATM    8  C3  UNL     1     -20.944   8.222   3.795  1.00  0.00     0.189 C 
ATOM      9  H2  UNL     1     -21.887   9.808   3.083  1.00  0.00     0.186 HD
HETATM   10 CL1  UNL     1     -20.812   6.492   3.775  1.00  0.00    -0.045 Cl
ATOM     11  H4  UNL     1     -22.804   6.040   1.738  1.00  0.00     0.177 HD
BRANCH   8  12
HETATM   12  N3  UNL     1     -20.101   9.025   4.605  1.00  0.00    -0.370 N 
HETATM   13  C4  UNL     1     -18.830   8.574   5.089  1.00  0.00     0.148 C 
ATOM     14  H3  UNL     1     -20.413   9.964   4.854  1.00  0.00     0.161 HD
ENDBRANCH   8  12
ENDBRANCH   1   2
BRANCH   1  15
HETATM   15  C6  UNL     1     -22.132   7.630  -0.791  1.00  0.00     0.059 C 
BRANCH  15  16
HETATM   16  C7  UNL     1     -21.439   8.891  -1.228  1.00  0.00     0.071 C 
HETATM   17  C8  UNL     1     -21.999  10.128  -0.630  1.00  0.00     0.065 C 
HETATM   18  C9  UNL     1     -22.395  11.200  -1.570  1.00  0.00     0.170 C 
HETATM   19  O2  UNL     1     -22.875  10.821  -2.783  1.00  0.00    -0.390 OA
HETATM   20  C10 UNL     1     -22.891   9.479  -3.060  1.00  0.00     0.180 C 
HETATM   21  C11 UNL     1     -21.502   8.941  -2.740  1.00  0.00     0.012 C 
HETATM   22  C12 UNL     1     -20.455   9.856  -3.337  1.00  0.00     0.014 C 
HETATM   23  C15 UNL     1     -21.251   7.596  -3.386  1.00  0.00     0.014 C 
HETATM   24  C13 UNL     1     -19.774   9.130  -4.451  1.00  0.00     0.001 C 
HETATM   25  C14 UNL     1     -20.649   7.933  -4.755  1.00  0.00     0.001 C 
BRANCH  16  26
HETATM   26  O1  UNL     1     -20.071   8.715  -0.912  1.00  0.00    -0.389 OA
ATOM     27  H1  UNL     1     -19.683   8.273  -1.658  1.00  0.00     0.210 HD
ENDBRANCH  16  26
ENDBRANCH  15  16
ENDBRANCH   1  15
TORSDOF 5
ENDMDL
MODEL 3
REMARK VINA RESULT: -7.987835912      2.185      3.417
REMARK  5 active torsions:
REMARK  status: ('A' for Active; 'I' for Inactive)
REMARK       I    between atoms: C2_4  and  N2_5 
REMARK       I    between atoms: C2_4  and  N4_12 
REMARK    1  A    between atoms: C3_7  and  N3_9 
REMARK    2  A    between atoms: N4_12  and  C5_14 
REMARK    3  A    between atoms: C5_14  and  C6_15 
REMARK    4  A    between atoms: C6_15  and  C7_16 
REMARK    5  A    between atoms: C7_16  and  O1_17 
ROOT
HETATM    1  C5  UNL     1     -20.848   6.816   1.149  1.00  0.00     0.141 C 
ENDROOT
BRANCH   1   2
HETATM    2  N4  UNL     1     -21.685   6.378   2.251  1.00  0.00    -0.226 N 
HETATM    3  C2  UNL     1     -22.503   7.278   2.994  1.00  0.00     0.675 C 
HETATM    4  N1  UNL     1     -23.786   7.138   2.853  1.00  0.00    -0.231 N 
HETATM    5  N2  UNL     1     -22.012   8.280   3.844  1.00  0.00    -0.166 N 
HETATM    6  C1  UNL     1     -24.734   7.990   3.553  1.00  0.00     0.165 C 
ATOM      7  H1  UNL     1     -24.139   6.410   2.232  1.00  0.00     0.177 HD
HETATM    8  C3  UNL     1     -20.975   8.146   4.587  1.00  0.00     0.189 C 
ATOM      9  H2  UNL     1     -22.511   9.169   3.874  1.00  0.00     0.186 HD
HETATM   10 CL1  UNL     1     -20.103   6.646   4.560  1.00  0.00    -0.045 Cl
ATOM     11  H4  UNL     1     -21.687   5.389   2.503  1.00  0.00     0.177 HD
BRANCH   8  12
HETATM   12  N3  UNL     1     -20.571   9.229   5.408  1.00  0.00    -0.370 N 
HETATM   13  C4  UNL     1     -19.213   9.424   5.825  1.00  0.00     0.148 C 
ATOM     14  H3  UNL     1     -21.276   9.899   5.716  1.00  0.00     0.161 HD
ENDBRANCH   8  12
ENDBRANCH   1   2
BRANCH   1  15
HETATM   15  C6  UNL     1     -21.760   7.153  -0.006  1.00  0.00     0.059 C 
BRANCH  15  16
HETATM   16  C7  UNL     1     -21.687   8.602  -0.403  1.00  0.00     0.071 C 
HETATM   17  C8  UNL     1     -22.854   9.409   0.034  1.00  0.00     0.065 C 
HETATM   18  C9  UNL     1     -23.554  10.184  -1.013  1.00  0.00     0.170 C 
HETATM   19  O2  UNL     1     -23.597   9.651  -2.262  1.00  0.00    -0.390 OA
HETATM   20  C10 UNL     1     -22.931   8.470  -2.463  1.00  0.00     0.180 C 
HETATM   21  C11 UNL     1     -21.524   8.651  -1.907  1.00  0.00     0.012 C 
HETATM   22  C12 UNL     1     -20.955   9.968  -2.389  1.00  0.00     0.014 C 
HETATM   23  C15 UNL     1     -20.567   7.603  -2.432  1.00  0.00     0.014 C 
HETATM   24  C13 UNL     1     -19.844   9.680  -3.345  1.00  0.00     0.001 C 
HETATM   25  C14 UNL     1     -19.987   8.219  -3.711  1.00  0.00     0.001 C 
BRANCH  16  26
HETATM   26  O1  UNL     1     -20.469   9.091   0.126  1.00  0.00    -0.389 OA
ATOM     27  H1  UNL     1     -20.695   9.539   0.934  1.00  0.00     0.210 HD
ENDBRANCH  16  26
ENDBRANCH  15  16
ENDBRANCH   1  15
TORSDOF 5
ENDMDL
MODEL 4
REMARK VINA RESULT: -7.971959202      2.438      3.598
REMARK  5 active torsions:
REMARK  status: ('A' for Active; 'I' for Inactive)
REMARK       I    between atoms: C2_4  and  N2_5 
REMARK       I    between atoms: C2_4  and  N4_12 
REMARK    1  A    between atoms: C3_7  and  N3_9 
REMARK    2  A    between atoms: N4_12  and  C5_14 
REMARK    3  A    between atoms: C5_14  and  C6_15 
REMARK    4  A    between atoms: C6_15  and  C7_16 
REMARK    5  A    between atoms: C7_16  and  O1_17 
ROOT
HETATM    1  C5  UNL     1     -21.561   7.173   1.924  1.00  0.00     0.141 C 
ENDROOT
BRANCH   1   2
HETATM    2  N4  UNL     1     -22.911   7.324   2.436  1.00  0.00    -0.226 N 
HETATM    3  C2  UNL     1     -23.454   8.593   2.795  1.00  0.00     0.675 C 
HETATM    4  N1  UNL     1     -24.414   9.040   2.045  1.00  0.00    -0.231 N 
HETATM    5  N2  UNL     1     -23.019   9.363   3.883  1.00  0.00    -0.166 N 
HETATM    6  C1  UNL     1     -25.057  10.320   2.299  1.00  0.00     0.165 C 
ATOM      7  H1  UNL     1     -24.727   8.478   1.253  1.00  0.00     0.177 HD
HETATM    8  C3  UNL     1     -22.654   8.871   5.010  1.00  0.00     0.189 C 
ATOM      9  H2  UNL     1     -22.992  10.377   3.772  1.00  0.00     0.186 HD
HETATM   10 CL1  UNL     1     -22.686   7.151   5.233  1.00  0.00    -0.045 Cl
ATOM     11  H4  UNL     1     -23.492   6.493   2.543  1.00  0.00     0.177 HD
BRANCH   8  12
HETATM   12  N3  UNL     1     -22.232   9.749   6.041  1.00  0.00    -0.370 N 
HETATM   13  C4  UNL     1     -20.854   9.933   6.390  1.00  0.00     0.148 C 
ATOM     14  H3  UNL     1     -22.939  10.273   6.557  1.00  0.00     0.161 HD
ENDBRANCH   8  12
ENDBRANCH   1   2
BRANCH   1  15
HETATM   15  C6  UNL     1     -21.670   6.845   0.454  1.00  0.00     0.059 C 
BRANCH  15  16
HETATM   16  C7  UNL     1     -20.461   7.278  -0.330  1.00  0.00     0.071 C 
HETATM   17  C8  UNL     1     -19.532   8.155   0.425  1.00  0.00     0.065 C 
HETATM   18  C9  UNL     1     -19.173   9.442  -0.209  1.00  0.00     0.170 C 
HETATM   19  O2  UNL     1     -20.118  10.047  -0.976  1.00  0.00    -0.390 OA
HETATM   20  C10 UNL     1     -21.303   9.381  -1.151  1.00  0.00     0.180 C 
HETATM   21  C11 UNL     1     -20.957   7.962  -1.585  1.00  0.00     0.012 C 
HETATM   22  C12 UNL     1     -19.911   8.008  -2.677  1.00  0.00     0.014 C 
HETATM   23  C15 UNL     1     -22.139   7.257  -2.215  1.00  0.00     0.014 C 
HETATM   24  C13 UNL     1     -20.540   7.555  -3.954  1.00  0.00     0.001 C 
HETATM   25  C14 UNL     1     -22.033   7.587  -3.708  1.00  0.00     0.001 C 
BRANCH  16  26
HETATM   26  O1  UNL     1     -19.834   6.088  -0.770  1.00  0.00    -0.389 OA
ATOM     27  H1  UNL     1     -19.657   6.211  -1.696  1.00  0.00     0.210 HD
ENDBRANCH  16  26
ENDBRANCH  15  16
ENDBRANCH   1  15
TORSDOF 5
ENDMDL
MODEL 5
REMARK VINA RESULT: -7.971082661      2.326      3.948
REMARK  5 active torsions:
REMARK  status: ('A' for Active; 'I' for Inactive)
REMARK       I    between atoms: C2_4  and  N2_5 
REMARK       I    between atoms: C2_4  and  N4_12 
REMARK    1  A    between atoms: C3_7  and  N3_9 
REMARK    2  A    between atoms: N4_12  and  C5_14 
REMARK    3  A    between atoms: C5_14  and  C6_15 
REMARK    4  A    between atoms: C6_15  and  C7_16 
REMARK    5  A    between atoms: C7_16  and  O1_17 
ROOT
HETATM    1  C5  UNL     1     -21.397   6.926  -0.332  1.00  0.00     0.141 C 
ENDROOT
BRANCH   1   2
HETATM    2  N4  UNL     1     -22.416   7.247   0.651  1.00  0.00    -0.226 N 
HETATM    3  C2  UNL     1     -22.475   8.513   1.304  1.00  0.00     0.675 C 
HETATM    4  N1  UNL     1     -23.488   9.267   1.004  1.00  0.00    -0.231 N 
HETATM    5  N2  UNL     1     -21.525   8.976   2.226  1.00  0.00    -0.166 N 
HETATM    6  C1  UNL     1     -23.671  10.582   1.598  1.00  0.00     0.165 C 
ATOM      7  H1  UNL     1     -24.177   8.928   0.332  1.00  0.00     0.177 HD
HETATM    8  C3  UNL     1     -20.937   8.229   3.088  1.00  0.00     0.189 C 
ATOM      9  H2  UNL     1     -21.286   9.968   2.210  1.00  0.00     0.186 HD
HETATM   10 CL1  UNL     1     -21.319   6.538   3.141  1.00  0.00    -0.045 Cl
ATOM     11  H4  UNL     1     -23.115   6.541   0.884  1.00  0.00     0.177 HD
BRANCH   8  12
HETATM   12  N3  UNL     1     -19.992   8.809   3.971  1.00  0.00    -0.370 N 
HETATM   13  C4  UNL     1     -18.881   8.079   4.508  1.00  0.00     0.148 C 
ATOM     14  H3  UNL     1     -20.107   9.787   4.237  1.00  0.00     0.161 HD
ENDBRANCH   8  12
ENDBRANCH   1   2
BRANCH   1  15
HETATM   15  C6  UNL     1     -20.888   8.229  -0.898  1.00  0.00     0.059 C 
BRANCH  15  16
HETATM   16  C7  UNL     1     -21.498   8.563  -2.232  1.00  0.00     0.071 C 
HETATM   17  C8  UNL     1     -21.174   7.593  -3.306  1.00  0.00     0.065 C 
HETATM   18  C9  UNL     1     -20.594   8.147  -4.548  1.00  0.00     0.170 C 
HETATM   19  O2  UNL     1     -19.793   9.239  -4.431  1.00  0.00    -0.390 OA
HETATM   20  C10 UNL     1     -19.643   9.775  -3.179  1.00  0.00     0.180 C 
HETATM   21  C11 UNL     1     -21.040   9.958  -2.601  1.00  0.00     0.012 C 
HETATM   22  C12 UNL     1     -21.933  10.610  -3.635  1.00  0.00     0.014 C 
HETATM   23  C15 UNL     1     -21.049  10.914  -1.428  1.00  0.00     0.014 C 
HETATM   24  C13 UNL     1     -22.261  11.991  -3.171  1.00  0.00     0.001 C 
HETATM   25  C14 UNL     1     -21.283  12.292  -2.057  1.00  0.00     0.001 C 
BRANCH  16  26
HETATM   26  O1  UNL     1     -22.892   8.669  -2.008  1.00  0.00    -0.389 OA
ATOM     27  H1  UNL     1     -23.279   7.890  -2.390  1.00  0.00     0.210 HD
ENDBRANCH  16  26
ENDBRANCH  15  16
ENDBRANCH   1  15
TORSDOF 5
ENDMDL
