MODEL 1
REMARK VINA RESULT: -8.015613927      0.000      0.000
REMARK  4 active torsions:
REMARK  status: ('A' for Active; 'I' for Inactive)
REMARK    1  A    between atoms: C2_2  and  N2_6 
REMARK    2  A    between atoms: C4_8  and  N3_9 
REMARK       I    between atoms: N3_9  and  C5_11 
REMARK    3  A    between atoms: C5_11  and  C6_13 
REMARK    4  A    between atoms: C6_13  and  N4_14 
ROOT
HETATM    1  N2  UNL     1     -21.182  10.480  -2.463  1.00  0.00    -0.351 N 
HETATM    2  C3  UNL     1     -21.368   9.179  -1.856  1.00  0.00     0.151 C 
HETATM    3  C4  UNL     1     -20.040   8.480  -1.842  1.00  0.00     0.103 C 
HETATM    4  C12 UNL     1     -19.078   9.001  -2.879  1.00  0.00     0.038 C 
HETATM    5  C13 UNL     1     -19.818   9.353  -4.136  1.00  0.00    -0.011 C 
HETATM    6  C14 UNL     1     -20.625   8.231  -4.701  1.00  0.00     0.018 C 
HETATM    7  C15 UNL     1     -18.859   9.823  -5.222  1.00  0.00     0.018 C 
HETATM    8  C16 UNL     1     -20.730  10.516  -3.835  1.00  0.00     0.190 C 
HETATM    9 CL1  UNL     1     -22.068  10.653  -4.990  1.00  0.00    -0.102 Cl
ENDROOT
BRANCH   3  10
HETATM   10  N3  UNL     1     -19.439   8.481  -0.518  1.00  0.00    -0.350 N 
HETATM   11  C5  UNL     1     -19.440   7.349   0.331  1.00  0.00     0.265 C 
HETATM   12  O1  UNL     1     -19.988   6.316  -0.103  1.00  0.00    -0.267 OA
ATOM     13  H3  UNL     1     -18.996   9.337  -0.187  1.00  0.00     0.163 HD
BRANCH  11  14
HETATM   14  C6  UNL     1     -18.825   7.405   1.643  1.00  0.00     0.275 C 
BRANCH  14  15
HETATM   15  N4  UNL     1     -19.659   7.645   2.767  1.00  0.00    -0.042 N 
HETATM   16  C7  UNL     1     -18.769   8.310   3.760  1.00  0.00     0.279 C 
HETATM   17  C8  UNL     1     -20.736   8.568   2.511  1.00  0.00     0.268 C 
HETATM   18  C9  UNL     1     -21.963   8.243   3.353  1.00  0.00     0.196 C 
HETATM   19  O2  UNL     1     -21.651   7.900   4.650  1.00  0.00    -0.388 OA
HETATM   20  C10 UNL     1     -20.805   6.823   4.716  1.00  0.00     0.196 C 
HETATM   21  C11 UNL     1     -20.219   6.452   3.367  1.00  0.00     0.268 C 
ENDBRANCH  14  15
ENDBRANCH  11  14
ENDBRANCH   3  10
BRANCH   1  22
HETATM   22  C2  UNL     1     -21.438  11.672  -1.734  1.00  0.00     0.070 C 
HETATM   23  C1  UNL     1     -20.603  12.896  -1.844  1.00  0.00     0.088 C 
HETATM   24  N1  UNL     1     -22.453  11.739  -0.911  1.00  0.00    -0.389 N 
ATOM     25  H12 UNL     1     -22.636  12.595  -0.389  1.00  0.00     0.157 HD
ATOM     26  H11 UNL     1     -23.026  10.899  -0.837  1.00  0.00     0.157 HD
ENDBRANCH   1  22
TORSDOF 4
ENDMDL
MODEL 2
REMARK VINA RESULT: -7.816498367      0.897      1.197
REMARK  4 active torsions:
REMARK  status: ('A' for Active; 'I' for Inactive)
REMARK    1  A    between atoms: C2_2  and  N2_6 
REMARK    2  A    between atoms: C4_8  and  N3_9 
REMARK       I    between atoms: N3_9  and  C5_11 
REMARK    3  A    between atoms: C5_11  and  C6_13 
REMARK    4  A    between atoms: C6_13  and  N4_14 
ROOT
HETATM    1  N2  UNL     1     -21.443  10.579  -2.215  1.00  0.00    -0.351 N 
HETATM    2  C3  UNL     1     -21.788   9.329  -1.570  1.00  0.00     0.151 C 
HETATM    3  C4  UNL     1     -20.511   8.616  -1.230  1.00  0.00     0.103 C 
HETATM    4  C12 UNL     1     -19.341   9.045  -2.079  1.00  0.00     0.038 C 
HETATM    5  C13 UNL     1     -19.794   9.312  -3.483  1.00  0.00    -0.011 C 
HETATM    6  C14 UNL     1     -20.498   8.162  -4.125  1.00  0.00     0.018 C 
HETATM    7  C15 UNL     1     -18.619   9.687  -4.376  1.00  0.00     0.018 C 
HETATM    8  C16 UNL     1     -20.716  10.507  -3.462  1.00  0.00     0.190 C 
HETATM    9 CL1  UNL     1     -21.781  10.575  -4.877  1.00  0.00    -0.102 Cl
ENDROOT
BRANCH   3  10
HETATM   10  N3  UNL     1     -20.197   8.707   0.186  1.00  0.00    -0.350 N 
HETATM   11  C5  UNL     1     -19.765   7.600   0.954  1.00  0.00     0.265 C 
HETATM   12  O1  UNL     1     -19.658   6.508   0.362  1.00  0.00    -0.267 OA
ATOM     13  H3  UNL     1     -20.292   9.612   0.647  1.00  0.00     0.163 HD
BRANCH  11  14
HETATM   14  C6  UNL     1     -19.466   7.747   2.365  1.00  0.00     0.275 C 
BRANCH  14  15
HETATM   15  N4  UNL     1     -20.506   7.510   3.303  1.00  0.00    -0.042 N 
HETATM   16  C7  UNL     1     -20.275   6.114   3.774  1.00  0.00     0.279 C 
HETATM   17  C8  UNL     1     -20.438   8.346   4.475  1.00  0.00     0.268 C 
HETATM   18  C9  UNL     1     -21.826   8.643   5.030  1.00  0.00     0.196 C 
HETATM   19  O2  UNL     1     -22.657   7.543   5.020  1.00  0.00    -0.388 OA
HETATM   20  C10 UNL     1     -22.815   7.019   3.763  1.00  0.00     0.196 C 
HETATM   21  C11 UNL     1     -21.843   7.603   2.756  1.00  0.00     0.268 C 
ENDBRANCH  14  15
ENDBRANCH  11  14
ENDBRANCH   3  10
BRANCH   1  22
HETATM   22  C2  UNL     1     -21.810  11.825  -1.641  1.00  0.00     0.070 C 
HETATM   23  C1  UNL     1     -21.042  13.081  -1.844  1.00  0.00     0.088 C 
HETATM   24  N1  UNL     1     -22.875  11.917  -0.886  1.00  0.00    -0.389 N 
ATOM     25  H12 UNL     1     -23.138  12.813  -0.475  1.00  0.00     0.157 HD
ATOM     26  H11 UNL     1     -23.402  11.055  -0.747  1.00  0.00     0.157 HD
ENDBRANCH   1  22
TORSDOF 4
ENDMDL
MODEL 3
REMARK VINA RESULT: -7.697971632      4.064      5.794
REMARK  4 active torsions:
REMARK  status: ('A' for Active; 'I' for Inactive)
REMARK    1  A    between atoms: C2_2  and  N2_6 
REMARK    2  A    between atoms: C4_8  and  N3_9 
REMARK       I    between atoms: N3_9  and  C5_11 
REMARK    3  A    between atoms: C5_11  and  C6_13 
REMARK    4  A    between atoms: C6_13  and  N4_14 
ROOT
HETATM    1  N2  UNL     1     -20.907   8.842  -0.110  1.00  0.00    -0.351 N 
HETATM    2  C3  UNL     1     -21.495   9.654   0.935  1.00  0.00     0.151 C 
HETATM    3  C4  UNL     1     -22.943   9.863   0.599  1.00  0.00     0.103 C 
HETATM    4  C12 UNL     1     -23.247   9.700  -0.869  1.00  0.00     0.038 C 
HETATM    5  C13 UNL     1     -22.117  10.243  -1.692  1.00  0.00    -0.011 C 
HETATM    6  C14 UNL     1     -21.777  11.666  -1.394  1.00  0.00     0.018 C 
HETATM    7  C15 UNL     1     -22.428  10.147  -3.180  1.00  0.00     0.018 C 
HETATM    8  C16 UNL     1     -20.902   9.382  -1.450  1.00  0.00     0.190 C 
HETATM    9 CL1  UNL     1     -19.386  10.212  -1.845  1.00  0.00    -0.102 Cl
ENDROOT
BRANCH   3  10
HETATM   10  N3  UNL     1     -23.816   9.034   1.413  1.00  0.00    -0.350 N 
HETATM   11  C5  UNL     1     -24.336   9.453   2.661  1.00  0.00     0.265 C 
HETATM   12  O1  UNL     1     -24.014  10.592   3.054  1.00  0.00    -0.267 OA
ATOM     13  H3  UNL     1     -24.065   8.107   1.069  1.00  0.00     0.163 HD
BRANCH  11  14
HETATM   14  C6  UNL     1     -25.202   8.585   3.433  1.00  0.00     0.275 C 
BRANCH  14  15
HETATM   15  N4  UNL     1     -26.541   9.000   3.663  1.00  0.00    -0.042 N 
HETATM   16  C7  UNL     1     -27.307   7.731   3.819  1.00  0.00     0.279 C 
HETATM   17  C8  UNL     1     -26.723   9.733   4.891  1.00  0.00     0.268 C 
HETATM   18  C9  UNL     1     -27.839  10.763   4.766  1.00  0.00     0.196 C 
HETATM   19  O2  UNL     1     -28.938  10.288   4.083  1.00  0.00    -0.388 OA
HETATM   20  C10 UNL     1     -28.623   9.861   2.819  1.00  0.00     0.196 C 
HETATM   21  C11 UNL     1     -27.127   9.769   2.585  1.00  0.00     0.268 C 
ENDBRANCH  14  15
ENDBRANCH  11  14
ENDBRANCH   3  10
BRANCH   1  22
HETATM   22  C2  UNL     1     -20.356   7.565   0.178  1.00  0.00     0.070 C 
HETATM   23  C1  UNL     1     -19.031   7.369   0.821  1.00  0.00     0.088 C 
HETATM   24  N1  UNL     1     -21.017   6.477  -0.123  1.00  0.00    -0.389 N 
ATOM     25  H12 UNL     1     -20.621   5.560   0.084  1.00  0.00     0.157 HD
ATOM     26  H11 UNL     1     -21.927   6.612  -0.564  1.00  0.00     0.157 HD
ENDBRANCH   1  22
TORSDOF 4
ENDMDL
MODEL 4
REMARK VINA RESULT: -7.422431221      2.879      4.068
REMARK  4 active torsions:
REMARK  status: ('A' for Active; 'I' for Inactive)
REMARK    1  A    between atoms: C2_2  and  N2_6 
REMARK    2  A    between atoms: C4_8  and  N3_9 
REMARK       I    between atoms: N3_9  and  C5_11 
REMARK    3  A    between atoms: C5_11  and  C6_13 
REMARK    4  A    between atoms: C6_13  and  N4_14 
ROOT
HETATM    1  N2  UNL     1     -21.206   8.088  -2.287  1.00  0.00    -0.351 N 
HETATM    2  C3  UNL     1     -20.801   7.315  -1.131  1.00  0.00     0.151 C 
HETATM    3  C4  UNL     1     -20.831   8.221   0.065  1.00  0.00     0.103 C 
HETATM    4  C12 UNL     1     -20.711   9.683  -0.287  1.00  0.00     0.038 C 
HETATM    5  C13 UNL     1     -19.766   9.858  -1.438  1.00  0.00    -0.011 C 
HETATM    6  C14 UNL     1     -18.412   9.273  -1.208  1.00  0.00     0.018 C 
HETATM    7  C15 UNL     1     -19.579  11.332  -1.773  1.00  0.00     0.018 C 
HETATM    8  C16 UNL     1     -20.383   9.217  -2.656  1.00  0.00     0.190 C 
HETATM    9 CL1  UNL     1     -19.183   8.808  -3.895  1.00  0.00    -0.102 Cl
ENDROOT
BRANCH   3  10
HETATM   10  N3  UNL     1     -21.992   7.975   0.905  1.00  0.00    -0.350 N 
HETATM   11  C5  UNL     1     -21.936   7.980   2.319  1.00  0.00     0.265 C 
HETATM   12  O1  UNL     1     -20.827   8.210   2.841  1.00  0.00    -0.267 OA
ATOM     13  H3  UNL     1     -22.887   7.791   0.454  1.00  0.00     0.163 HD
BRANCH  11  14
HETATM   14  C6  UNL     1     -23.125   7.728   3.109  1.00  0.00     0.275 C 
BRANCH  14  15
HETATM   15  N4  UNL     1     -23.958   8.829   3.445  1.00  0.00    -0.042 N 
HETATM   16  C7  UNL     1     -23.474   9.272   4.783  1.00  0.00     0.279 C 
HETATM   17  C8  UNL     1     -23.808   9.963   2.568  1.00  0.00     0.268 C 
HETATM   18  C9  UNL     1     -25.113  10.738   2.430  1.00  0.00     0.196 C 
HETATM   19  O2  UNL     1     -25.784  10.880   3.625  1.00  0.00    -0.388 OA
HETATM   20  C10 UNL     1     -26.077   9.674   4.207  1.00  0.00     0.196 C 
HETATM   21  C11 UNL     1     -25.367   8.512   3.539  1.00  0.00     0.268 C 
ENDBRANCH  14  15
ENDBRANCH  11  14
ENDBRANCH   3  10
BRANCH   1  22
HETATM   22  C2  UNL     1     -22.369   7.745  -3.027  1.00  0.00     0.070 C 
HETATM   23  C1  UNL     1     -23.488   8.688  -3.283  1.00  0.00     0.088 C 
HETATM   24  N1  UNL     1     -22.502   6.543  -3.529  1.00  0.00    -0.389 N 
ATOM     25  H12 UNL     1     -23.337   6.297  -4.061  1.00  0.00     0.157 HD
ATOM     26  H11 UNL     1     -21.733   5.896  -3.354  1.00  0.00     0.157 HD
ENDBRANCH   1  22
TORSDOF 4
ENDMDL
MODEL 5
REMARK VINA RESULT: -7.408021003      1.764      2.481
REMARK  4 active torsions:
REMARK  status: ('A' for Active; 'I' for Inactive)
REMARK    1  A    between atoms: C2_2  and  N2_6 
REMARK    2  A    between atoms: C4_8  and  N3_9 
REMARK       I    between atoms: N3_9  and  C5_11 
REMARK    3  A    between atoms: C5_11  and  C6_13 
REMARK    4  A    between atoms: C6_13  and  N4_14 
ROOT
HETATM    1  N2  UNL     1     -22.788  10.799  -0.968  1.00  0.00    -0.351 N 
HETATM    2  C3  UNL     1     -22.748   9.357  -1.087  1.00  0.00     0.151 C 
HETATM    3  C4  UNL     1     -21.403   8.891  -0.611  1.00  0.00     0.103 C 
HETATM    4  C12 UNL     1     -20.339   9.957  -0.683  1.00  0.00     0.038 C 
HETATM    5  C13 UNL     1     -20.540  10.802  -1.906  1.00  0.00    -0.011 C 
HETATM    6  C14 UNL     1     -20.577  10.028  -3.182  1.00  0.00     0.018 C 
HETATM    7  C15 UNL     1     -19.441  11.849  -2.035  1.00  0.00     0.018 C 
HETATM    8  C16 UNL     1     -21.836  11.559  -1.747  1.00  0.00     0.190 C 
HETATM    9 CL1  UNL     1     -22.503  12.104  -3.296  1.00  0.00    -0.102 Cl
ENDROOT
BRANCH   3  10
HETATM   10  N3  UNL     1     -21.469   8.302   0.716  1.00  0.00    -0.350 N 
HETATM   11  C5  UNL     1     -20.779   7.118   1.071  1.00  0.00     0.265 C 
HETATM   12  O1  UNL     1     -20.088   6.578   0.183  1.00  0.00    -0.267 OA
ATOM     13  H3  UNL     1     -22.039   8.763   1.424  1.00  0.00     0.163 HD
BRANCH  11  14
HETATM   14  C6  UNL     1     -20.880   6.573   2.410  1.00  0.00     0.275 C 
BRANCH  14  15
HETATM   15  N4  UNL     1     -20.240   7.267   3.471  1.00  0.00    -0.042 N 
HETATM   16  C7  UNL     1     -19.950   6.216   4.487  1.00  0.00     0.279 C 
HETATM   17  C8  UNL     1     -18.967   7.839   3.110  1.00  0.00     0.268 C 
HETATM   18  C9  UNL     1     -18.689   9.119   3.889  1.00  0.00     0.196 C 
HETATM   19  O2  UNL     1     -19.048   9.030   5.217  1.00  0.00    -0.388 OA
HETATM   20  C10 UNL     1     -20.375   8.724   5.380  1.00  0.00     0.196 C 
HETATM   21  C11 UNL     1     -21.044   8.302   4.085  1.00  0.00     0.268 C 
ENDBRANCH  14  15
ENDBRANCH  11  14
ENDBRANCH   3  10
BRANCH   1  22
HETATM   22  C2  UNL     1     -23.730  11.439  -0.120  1.00  0.00     0.070 C 
HETATM   23  C1  UNL     1     -23.498  12.763   0.515  1.00  0.00     0.088 C 
HETATM   24  N1  UNL     1     -24.878  10.868   0.143  1.00  0.00    -0.389 N 
ATOM     25  H12 UNL     1     -25.554  11.328   0.753  1.00  0.00     0.157 HD
ATOM     26  H11 UNL     1     -25.037   9.960  -0.293  1.00  0.00     0.157 HD
ENDBRANCH   1  22
TORSDOF 4
ENDMDL
