MODEL 1
REMARK VINA RESULT: -7.423876022      0.000      0.000
REMARK  4 active torsions:
REMARK  status: ('A' for Active; 'I' for Inactive)
REMARK    1  A    between atoms: C2_2  and  C3_3 
REMARK       I    between atoms: N2_8  and  C6_9 
REMARK    2  A    between atoms: C6_9  and  C7_11 
REMARK    3  A    between atoms: C7_11  and  N3_12 
REMARK    4  A    between atoms: C7_11  and  C9_17 
REMARK       I    between atoms: N3_12  and  C8_14 
ROOT
HETATM    1  C1  UNL     1     -20.545   7.071   2.985  1.00  0.00     0.025 C 
HETATM    2  C2  UNL     1     -21.399   7.712   1.879  1.00  0.00     0.039 C 
HETATM    3  C4  UNL     1     -21.635   6.692   0.812  1.00  0.00     0.038 C 
HETATM    4  C5  UNL     1     -22.081   7.230  -0.504  1.00  0.00     0.129 C 
HETATM    5  N2  UNL     1     -21.303   8.406  -0.928  1.00  0.00    -0.333 N 
HETATM    6  C6  UNL     1     -21.611   9.040  -2.150  1.00  0.00     0.244 C 
HETATM    7  O2  UNL     1     -22.554   8.474  -2.835  1.00  0.00    -0.271 OA
HETATM    8  C13 UNL     1     -20.252   8.805  -0.059  1.00  0.00     0.185 C 
HETATM    9 CL1  UNL     1     -18.876   7.660  -0.084  1.00  0.00    -0.102 Cl
HETATM   10  C14 UNL     1     -20.730   8.968   1.368  1.00  0.00     0.060 C 
ENDROOT
BRANCH   6  11
HETATM   11  C7  UNL     1     -20.982  10.246  -2.708  1.00  0.00     0.185 C 
BRANCH  11  12
HETATM   12  N3  UNL     1     -20.992  10.234  -4.171  1.00  0.00    -0.331 N 
HETATM   13  C8  UNL     1     -19.897   9.791  -4.931  1.00  0.00     0.329 C 
HETATM   14  N4  UNL     1     -19.985   9.811  -6.344  1.00  0.00    -0.040 NA
HETATM   15  O3  UNL     1     -18.819   9.368  -4.436  1.00  0.00    -0.251 OA
ATOM     16  H3  UNL     1     -21.827  10.560  -4.658  1.00  0.00     0.164 HD
ENDBRANCH  11  12
BRANCH  11  17
HETATM   17  C9  UNL     1     -21.680  11.520  -2.280  1.00  0.00    -0.022 C 
HETATM   18  C10 UNL     1     -22.503  12.094  -3.428  1.00  0.00     0.017 C 
HETATM   19  C11 UNL     1     -22.607  11.315  -1.114  1.00  0.00     0.017 C 
HETATM   20  C12 UNL     1     -20.725  12.623  -1.882  1.00  0.00     0.017 C 
ENDBRANCH  11  17
ENDBRANCH   6  11
BRANCH   2  21
HETATM   21  C3  UNL     1     -22.672   8.077   2.531  1.00  0.00     0.239 C 
HETATM   22  N1  UNL     1     -23.231   9.345   2.261  1.00  0.00    -0.061 NA
HETATM   23  O1  UNL     1     -23.268   7.306   3.307  1.00  0.00    -0.276 OA
ENDBRANCH   2  21
TORSDOF 4
ENDMDL
MODEL 2
REMARK VINA RESULT: -7.421549116      1.758      2.854
REMARK  4 active torsions:
REMARK  status: ('A' for Active; 'I' for Inactive)
REMARK    1  A    between atoms: C2_2  and  C3_3 
REMARK       I    between atoms: N2_8  and  C6_9 
REMARK    2  A    between atoms: C6_9  and  C7_11 
REMARK    3  A    between atoms: C7_11  and  N3_12 
REMARK    4  A    between atoms: C7_11  and  C9_17 
REMARK       I    between atoms: N3_12  and  C8_14 
ROOT
HETATM    1  C1  UNL     1     -20.435   8.020   2.519  1.00  0.00     0.025 C 
HETATM    2  C2  UNL     1     -21.405   8.493   1.425  1.00  0.00     0.039 C 
HETATM    3  C4  UNL     1     -21.843   7.302   0.633  1.00  0.00     0.038 C 
HETATM    4  C5  UNL     1     -22.446   7.601  -0.695  1.00  0.00     0.129 C 
HETATM    5  N2  UNL     1     -21.679   8.604  -1.453  1.00  0.00    -0.333 N 
HETATM    6  C6  UNL     1     -22.128   9.004  -2.729  1.00  0.00     0.244 C 
HETATM    7  O2  UNL     1     -23.187   8.389  -3.153  1.00  0.00    -0.271 OA
HETATM    8  C13 UNL     1     -20.496   9.085  -0.831  1.00  0.00     0.185 C 
HETATM    9 CL1  UNL     1     -19.197   7.855  -0.796  1.00  0.00    -0.102 Cl
HETATM   10  C14 UNL     1     -20.756   9.565   0.581  1.00  0.00     0.060 C 
ENDROOT
BRANCH   6  11
HETATM   11  C7  UNL     1     -21.527  10.023  -3.603  1.00  0.00     0.185 C 
BRANCH  11  12
HETATM   12  N3  UNL     1     -20.940  11.118  -2.832  1.00  0.00    -0.331 N 
HETATM   13  C8  UNL     1     -21.660  12.277  -2.498  1.00  0.00     0.329 C 
HETATM   14  N4  UNL     1     -21.020  13.295  -1.748  1.00  0.00    -0.040 NA
HETATM   15  O3  UNL     1     -22.860  12.482  -2.823  1.00  0.00    -0.251 OA
ATOM     16  H3  UNL     1     -19.971  11.038  -2.526  1.00  0.00     0.164 HD
ENDBRANCH  11  12
BRANCH  11  17
HETATM   17  C9  UNL     1     -20.421   9.465  -4.475  1.00  0.00    -0.022 C 
HETATM   18  C10 UNL     1     -20.524  10.018  -5.892  1.00  0.00     0.017 C 
HETATM   19  C11 UNL     1     -19.048   9.793  -3.958  1.00  0.00     0.017 C 
HETATM   20  C12 UNL     1     -20.476   7.961  -4.626  1.00  0.00     0.017 C 
ENDBRANCH  11  17
ENDBRANCH   6  11
BRANCH   2  21
HETATM   21  C3  UNL     1     -22.553   9.078   2.148  1.00  0.00     0.239 C 
HETATM   22  N1  UNL     1     -22.966   8.481   3.358  1.00  0.00    -0.061 NA
HETATM   23  O1  UNL     1     -23.165  10.078   1.725  1.00  0.00    -0.276 OA
ENDBRANCH   2  21
TORSDOF 4
ENDMDL
MODEL 3
REMARK VINA RESULT: -7.411119087      1.631      2.792
REMARK  4 active torsions:
REMARK  status: ('A' for Active; 'I' for Inactive)
REMARK    1  A    between atoms: C2_2  and  C3_3 
REMARK       I    between atoms: N2_8  and  C6_9 
REMARK    2  A    between atoms: C6_9  and  C7_11 
REMARK    3  A    between atoms: C7_11  and  N3_12 
REMARK    4  A    between atoms: C7_11  and  C9_17 
REMARK       I    between atoms: N3_12  and  C8_14 
ROOT
HETATM    1  C1  UNL     1     -20.492   8.047   2.512  1.00  0.00     0.025 C 
HETATM    2  C2  UNL     1     -21.459   8.494   1.404  1.00  0.00     0.039 C 
HETATM    3  C4  UNL     1     -21.857   7.291   0.610  1.00  0.00     0.038 C 
HETATM    4  C5  UNL     1     -22.450   7.572  -0.727  1.00  0.00     0.129 C 
HETATM    5  N2  UNL     1     -21.698   8.592  -1.478  1.00  0.00    -0.333 N 
HETATM    6  C6  UNL     1     -22.140   8.978  -2.761  1.00  0.00     0.244 C 
HETATM    7  O2  UNL     1     -23.178   8.336  -3.196  1.00  0.00    -0.271 OA
HETATM    8  C13 UNL     1     -20.536   9.103  -0.841  1.00  0.00     0.185 C 
HETATM    9 CL1  UNL     1     -19.207   7.905  -0.787  1.00  0.00    -0.102 Cl
HETATM   10  C14 UNL     1     -20.825   9.580   0.566  1.00  0.00     0.060 C 
ENDROOT
BRANCH   6  11
HETATM   11  C7  UNL     1     -21.552  10.008  -3.629  1.00  0.00     0.185 C 
BRANCH  11  12
HETATM   12  N3  UNL     1     -20.958  11.095  -2.853  1.00  0.00    -0.331 N 
HETATM   13  C8  UNL     1     -21.670  12.257  -2.511  1.00  0.00     0.329 C 
HETATM   14  N4  UNL     1     -21.024  13.266  -1.756  1.00  0.00    -0.040 NA
HETATM   15  O3  UNL     1     -22.869  12.471  -2.834  1.00  0.00    -0.251 OA
ATOM     16  H3  UNL     1     -19.989  11.007  -2.548  1.00  0.00     0.164 HD
ENDBRANCH  11  12
BRANCH  11  17
HETATM   17  C9  UNL     1     -20.457   9.464  -4.523  1.00  0.00    -0.022 C 
HETATM   18  C10 UNL     1     -19.083   9.835  -3.975  1.00  0.00     0.017 C 
HETATM   19  C11 UNL     1     -20.503   7.967  -4.658  1.00  0.00     0.017 C 
HETATM   20  C12 UNL     1     -20.493  10.025  -5.927  1.00  0.00     0.017 C 
ENDBRANCH  11  17
ENDBRANCH   6  11
BRANCH   2  21
HETATM   21  C3  UNL     1     -22.630   9.053   2.110  1.00  0.00     0.239 C 
HETATM   22  N1  UNL     1     -23.215  10.238   1.615  1.00  0.00    -0.061 NA
HETATM   23  O1  UNL     1     -23.115   8.515   3.123  1.00  0.00    -0.276 OA
ENDBRANCH   2  21
TORSDOF 4
ENDMDL
MODEL 4
REMARK VINA RESULT: -7.403882348      2.545      6.024
REMARK  4 active torsions:
REMARK  status: ('A' for Active; 'I' for Inactive)
REMARK    1  A    between atoms: C2_2  and  C3_3 
REMARK       I    between atoms: N2_8  and  C6_9 
REMARK    2  A    between atoms: C6_9  and  C7_11 
REMARK    3  A    between atoms: C7_11  and  N3_12 
REMARK    4  A    between atoms: C7_11  and  C9_17 
REMARK       I    between atoms: N3_12  and  C8_14 
ROOT
HETATM    1  C1  UNL     1     -18.933   9.790  -4.679  1.00  0.00     0.025 C 
HETATM    2  C2  UNL     1     -20.114   9.366  -3.792  1.00  0.00     0.039 C 
HETATM    3  C4  UNL     1     -21.262  10.285  -4.060  1.00  0.00     0.038 C 
HETATM    4  C5  UNL     1     -22.334  10.292  -3.025  1.00  0.00     0.129 C 
HETATM    5  N2  UNL     1     -21.798  10.350  -1.655  1.00  0.00    -0.333 N 
HETATM    6  C6  UNL     1     -22.687  10.353  -0.560  1.00  0.00     0.244 C 
HETATM    7  O2  UNL     1     -23.943  10.356  -0.877  1.00  0.00    -0.271 OA
HETATM    8  C13 UNL     1     -20.384  10.428  -1.541  1.00  0.00     0.185 C 
HETATM    9 CL1  UNL     1     -19.747  12.021  -2.050  1.00  0.00    -0.102 Cl
HETATM   10  C14 UNL     1     -19.692   9.344  -2.340  1.00  0.00     0.060 C 
ENDROOT
BRANCH   6  11
HETATM   11  C7  UNL     1     -22.337  10.355   0.868  1.00  0.00     0.185 C 
BRANCH  11  12
HETATM   12  N3  UNL     1     -23.361  11.017   1.675  1.00  0.00    -0.331 N 
HETATM   13  C8  UNL     1     -23.621  12.394   1.585  1.00  0.00     0.329 C 
HETATM   14  N4  UNL     1     -24.630  12.961   2.402  1.00  0.00    -0.040 NA
HETATM   15  O3  UNL     1     -23.008  13.180   0.814  1.00  0.00    -0.251 OA
ATOM     16  H3  UNL     1     -23.908  10.457   2.329  1.00  0.00     0.164 HD
ENDBRANCH  11  12
BRANCH  11  17
HETATM   17  C9  UNL     1     -22.176   8.958   1.432  1.00  0.00    -0.022 C 
HETATM   18  C10 UNL     1     -20.783   8.774   2.023  1.00  0.00     0.017 C 
HETATM   19  C11 UNL     1     -23.173   8.647   2.515  1.00  0.00     0.017 C 
HETATM   20  C12 UNL     1     -22.318   7.870   0.391  1.00  0.00     0.017 C 
ENDBRANCH  11  17
ENDBRANCH   6  11
BRANCH   2  21
HETATM   21  C3  UNL     1     -20.446   7.991  -4.216  1.00  0.00     0.239 C 
HETATM   22  N1  UNL     1     -20.286   6.939  -3.288  1.00  0.00    -0.061 NA
HETATM   23  O1  UNL     1     -20.863   7.730  -5.361  1.00  0.00    -0.276 OA
ENDBRANCH   2  21
TORSDOF 4
ENDMDL
MODEL 5
REMARK VINA RESULT: -7.322560183      0.738      1.141
REMARK  4 active torsions:
REMARK  status: ('A' for Active; 'I' for Inactive)
REMARK    1  A    between atoms: C2_2  and  C3_3 
REMARK       I    between atoms: N2_8  and  C6_9 
REMARK    2  A    between atoms: C6_9  and  C7_11 
REMARK    3  A    between atoms: C7_11  and  N3_12 
REMARK    4  A    between atoms: C7_11  and  C9_17 
REMARK       I    between atoms: N3_12  and  C8_14 
ROOT
HETATM    1  C1  UNL     1     -20.564   6.709   3.188  1.00  0.00     0.025 C 
HETATM    2  C2  UNL     1     -21.340   7.466   2.099  1.00  0.00     0.039 C 
HETATM    3  C4  UNL     1     -21.497   6.565   0.916  1.00  0.00     0.038 C 
HETATM    4  C5  UNL     1     -21.852   7.240  -0.363  1.00  0.00     0.129 C 
HETATM    5  N2  UNL     1     -21.051   8.452  -0.605  1.00  0.00    -0.333 N 
HETATM    6  C6  UNL     1     -21.275   9.212  -1.772  1.00  0.00     0.244 C 
HETATM    7  O2  UNL     1     -22.166   8.725  -2.578  1.00  0.00    -0.271 OA
HETATM    8  C13 UNL     1     -20.065   8.753   0.372  1.00  0.00     0.185 C 
HETATM    9 CL1  UNL     1     -18.687   7.614   0.323  1.00  0.00    -0.102 Cl
HETATM   10  C14 UNL     1     -20.643   8.766   1.771  1.00  0.00     0.060 C 
ENDROOT
BRANCH   6  11
HETATM   11  C7  UNL     1     -20.614  10.468  -2.154  1.00  0.00     0.185 C 
BRANCH  11  12
HETATM   12  N3  UNL     1     -20.135  10.429  -3.535  1.00  0.00    -0.331 N 
HETATM   13  C8  UNL     1     -18.912   9.839  -3.895  1.00  0.00     0.329 C 
HETATM   14  N4  UNL     1     -18.518   9.842  -5.256  1.00  0.00    -0.040 NA
HETATM   15  O3  UNL     1     -18.123   9.296  -3.077  1.00  0.00    -0.251 OA
ATOM     16  H3  UNL     1     -20.711  10.846  -4.266  1.00  0.00     0.164 HD
ENDBRANCH  11  12
BRANCH  11  17
HETATM   17  C9  UNL     1     -21.532  11.668  -2.048  1.00  0.00    -0.022 C 
HETATM   18  C10 UNL     1     -20.730  12.937  -1.783  1.00  0.00     0.017 C 
HETATM   19  C11 UNL     1     -22.343  11.896  -3.294  1.00  0.00     0.017 C 
HETATM   20  C12 UNL     1     -22.518  11.571  -0.904  1.00  0.00     0.017 C 
ENDBRANCH  11  17
ENDBRANCH   6  11
BRANCH   2  21
HETATM   21  C3  UNL     1     -22.658   7.764   2.695  1.00  0.00     0.239 C 
HETATM   22  N1  UNL     1     -23.281   8.991   2.380  1.00  0.00    -0.061 NA
HETATM   23  O1  UNL     1     -23.236   6.972   3.464  1.00  0.00    -0.276 OA
ENDBRANCH   2  21
TORSDOF 4
ENDMDL
