MODEL 1
REMARK VINA RESULT: -7.061165569      0.000      0.000
REMARK  5 active torsions:
REMARK  status: ('A' for Active; 'I' for Inactive)
REMARK    1  A    between atoms: C2_2  and  C4_13 
REMARK    2  A    between atoms: N1_3  and  N2_5 
REMARK       I    between atoms: N2_5  and  C3_7 
REMARK    3  A    between atoms: N4_9  and  O1_11 
REMARK    4  A    between atoms: C5_15  and  N5_16 
REMARK    5  A    between atoms: C11_22  and  C12_23 
ROOT
HETATM    1  C4  UNL     1     -24.209   9.591   2.519  1.00  0.00     0.108 A 
HETATM    2  O2  UNL     1     -23.455   8.745   3.238  1.00  0.00    -0.285 OA
HETATM    3  C5  UNL     1     -22.230   8.430   2.973  1.00  0.00     0.248 A 
HETATM    4  C9  UNL     1     -21.633   8.982   1.888  1.00  0.00     0.065 A 
HETATM    5  C10 UNL     1     -22.324   9.851   1.100  1.00  0.00     0.015 A 
HETATM    6  C11 UNL     1     -23.644  10.175   1.407  1.00  0.00    -0.012 A 
ENDROOT
BRANCH   1   7
HETATM    7  C2  UNL     1     -25.563   9.839   2.950  1.00  0.00     0.056 C 
HETATM    8  C1  UNL     1     -26.107  10.835   3.860  1.00  0.00     0.072 C 
HETATM    9  N1  UNL     1     -26.473   9.022   2.437  1.00  0.00    -0.300 N 
ATOM     10  H1  UNL     1     -26.158   8.299   1.790  1.00  0.00     0.186 HD
BRANCH   9  11
HETATM   11  N2  UNL     1     -27.814   9.092   2.725  1.00  0.00    -0.272 N 
HETATM   12  C3  UNL     1     -28.801   9.501   1.788  1.00  0.00     0.227 C 
HETATM   13  N3  UNL     1     -28.504  10.161   0.572  1.00  0.00    -0.060 NA
HETATM   14  N4  UNL     1     -30.035   9.260   2.052  1.00  0.00    -0.240 N 
ATOM     15  H4  UNL     1     -30.231   8.783   2.931  1.00  0.00     0.197 HD
ATOM     16  H2  UNL     1     -28.119   8.836   3.663  1.00  0.00     0.189 HD
BRANCH  14  17
HETATM   17  O1  UNL     1     -31.098   9.574   1.282  1.00  0.00    -0.287 OA
ATOM     18  H1  UNL     1     -32.014   9.497   1.523  1.00  0.00     0.244 HD
ENDBRANCH  14  17
ENDBRANCH   9  11
ENDBRANCH   1   7
BRANCH   6  19
HETATM   19  C12 UNL     1     -24.343  11.104   0.524  1.00  0.00     0.126 C 
HETATM   20 BR1  UNL     1     -23.804  12.932   1.005  1.00  0.00    -0.091 Br
ENDBRANCH   6  19
BRANCH   3  21
HETATM   21  N5  UNL     1     -21.462   7.525   3.765  1.00  0.00    -0.028 N 
HETATM   22  C6  UNL     1     -20.949   6.434   2.963  1.00  0.00     0.281 C 
HETATM   23  C7  UNL     1     -22.319   6.964   4.784  1.00  0.00     0.281 C 
HETATM   24  C8  UNL     1     -20.364   8.198   4.390  1.00  0.00     0.281 C 
ENDBRANCH   3  21
TORSDOF 5
ENDMDL
MODEL 2
REMARK VINA RESULT: -7.016230929      4.341      6.451
REMARK  5 active torsions:
REMARK  status: ('A' for Active; 'I' for Inactive)
REMARK    1  A    between atoms: C2_2  and  C4_13 
REMARK    2  A    between atoms: N1_3  and  N2_5 
REMARK       I    between atoms: N2_5  and  C3_7 
REMARK    3  A    between atoms: N4_9  and  O1_11 
REMARK    4  A    between atoms: C5_15  and  N5_16 
REMARK    5  A    between atoms: C11_22  and  C12_23 
ROOT
HETATM    1  C4  UNL     1     -21.529   9.870  -1.242  1.00  0.00     0.108 A 
HETATM    2  O2  UNL     1     -20.933   9.409  -2.352  1.00  0.00    -0.285 OA
HETATM    3  C5  UNL     1     -20.945   9.997  -3.503  1.00  0.00     0.248 A 
HETATM    4  C9  UNL     1     -21.605  11.174  -3.628  1.00  0.00     0.065 A 
HETATM    5  C10 UNL     1     -22.241  11.716  -2.553  1.00  0.00     0.015 A 
HETATM    6  C11 UNL     1     -22.213  11.062  -1.323  1.00  0.00    -0.012 A 
ENDROOT
BRANCH   1   7
HETATM    7  C2  UNL     1     -21.421   9.092  -0.032  1.00  0.00     0.056 C 
HETATM    8  C1  UNL     1     -20.397   9.073   1.003  1.00  0.00     0.072 C 
HETATM    9  N1  UNL     1     -22.418   8.244   0.181  1.00  0.00    -0.300 N 
ATOM     10  H1  UNL     1     -23.170   8.206  -0.507  1.00  0.00     0.186 HD
BRANCH   9  11
HETATM   11  N2  UNL     1     -22.498   7.413   1.272  1.00  0.00    -0.272 N 
HETATM   12  C3  UNL     1     -23.152   7.764   2.483  1.00  0.00     0.227 C 
HETATM   13  N3  UNL     1     -23.526   9.088   2.819  1.00  0.00    -0.060 NA
HETATM   14  N4  UNL     1     -23.424   6.834   3.326  1.00  0.00    -0.240 N 
ATOM     15  H4  UNL     1     -23.149   5.887   3.069  1.00  0.00     0.197 HD
ATOM     16  H2  UNL     1     -22.064   6.493   1.210  1.00  0.00     0.189 HD
BRANCH  14  17
HETATM   17  O1  UNL     1     -24.038   6.983   4.518  1.00  0.00    -0.287 OA
ATOM     18  H1  UNL     1     -23.948   6.418   5.276  1.00  0.00     0.244 HD
ENDBRANCH  14  17
ENDBRANCH   9  11
ENDBRANCH   1   7
BRANCH   6  19
HETATM   19  C12 UNL     1     -22.920  11.680  -0.204  1.00  0.00     0.126 C 
HETATM   20 BR1  UNL     1     -22.816  13.632  -0.414  1.00  0.00    -0.091 Br
ENDBRANCH   6  19
BRANCH   3  21
HETATM   21  N5  UNL     1     -20.296   9.473  -4.660  1.00  0.00    -0.028 N 
HETATM   22  C6  UNL     1     -20.747  10.144  -5.862  1.00  0.00     0.281 C 
HETATM   23  C7  UNL     1     -20.630   8.072  -4.780  1.00  0.00     0.281 C 
HETATM   24  C8  UNL     1     -18.875   9.613  -4.557  1.00  0.00     0.281 C 
ENDBRANCH   3  21
TORSDOF 5
ENDMDL
MODEL 3
REMARK VINA RESULT: -6.998476548      3.849      5.780
REMARK  5 active torsions:
REMARK  status: ('A' for Active; 'I' for Inactive)
REMARK    1  A    between atoms: C2_2  and  C4_13 
REMARK    2  A    between atoms: N1_3  and  N2_5 
REMARK       I    between atoms: N2_5  and  C3_7 
REMARK    3  A    between atoms: N4_9  and  O1_11 
REMARK    4  A    between atoms: C5_15  and  N5_16 
REMARK    5  A    between atoms: C11_22  and  C12_23 
ROOT
HETATM    1  C4  UNL     1     -22.691  10.124  -0.955  1.00  0.00     0.108 A 
HETATM    2  O2  UNL     1     -22.288   9.042  -1.639  1.00  0.00    -0.285 OA
HETATM    3  C5  UNL     1     -21.612   9.065  -2.740  1.00  0.00     0.248 A 
HETATM    4  C9  UNL     1     -21.268  10.264  -3.270  1.00  0.00     0.065 A 
HETATM    5  C10 UNL     1     -21.635  11.416  -2.644  1.00  0.00     0.015 A 
HETATM    6  C11 UNL     1     -22.365  11.364  -1.458  1.00  0.00    -0.012 A 
ENDROOT
BRANCH   1   7
HETATM    7  C2  UNL     1     -23.440   9.928   0.262  1.00  0.00     0.056 C 
HETATM    8  C1  UNL     1     -24.402  10.785   0.939  1.00  0.00     0.072 C 
HETATM    9  N1  UNL     1     -23.219   8.774   0.877  1.00  0.00    -0.300 N 
ATOM     10  H1  UNL     1     -22.554   8.126   0.455  1.00  0.00     0.186 HD
BRANCH   9  11
HETATM   11  N2  UNL     1     -23.831   8.400   2.048  1.00  0.00    -0.272 N 
HETATM   12  C3  UNL     1     -23.221   7.572   3.028  1.00  0.00     0.227 C 
HETATM   13  N3  UNL     1     -22.058   6.801   2.789  1.00  0.00    -0.060 NA
HETATM   14  N4  UNL     1     -23.746   7.517   4.199  1.00  0.00    -0.240 N 
ATOM     15  H4  UNL     1     -24.582   8.080   4.353  1.00  0.00     0.197 HD
ATOM     16  H2  UNL     1     -24.777   8.736   2.225  1.00  0.00     0.189 HD
BRANCH  14  17
HETATM   17  O1  UNL     1     -23.303   6.790   5.245  1.00  0.00    -0.287 OA
ATOM     18  H1  UNL     1     -23.020   7.124   6.088  1.00  0.00     0.244 HD
ENDBRANCH  14  17
ENDBRANCH   9  11
ENDBRANCH   1   7
BRANCH   6  19
HETATM   19  C12 UNL     1     -22.743  12.628  -0.832  1.00  0.00     0.126 C 
HETATM   20 BR1  UNL     1     -21.440  13.996  -1.375  1.00  0.00    -0.091 Br
ENDBRANCH   6  19
BRANCH   3  21
HETATM   21  N5  UNL     1     -21.203   7.888  -3.436  1.00  0.00    -0.028 N 
HETATM   22  C6  UNL     1     -22.308   6.968  -3.603  1.00  0.00     0.281 C 
HETATM   23  C7  UNL     1     -20.184   7.224  -2.656  1.00  0.00     0.281 C 
HETATM   24  C8  UNL     1     -20.672   8.216  -4.724  1.00  0.00     0.281 C 
ENDBRANCH   3  21
TORSDOF 5
ENDMDL
MODEL 4
REMARK VINA RESULT: -6.914287027      3.086      4.555
REMARK  5 active torsions:
REMARK  status: ('A' for Active; 'I' for Inactive)
REMARK    1  A    between atoms: C2_2  and  C4_13 
REMARK    2  A    between atoms: N1_3  and  N2_5 
REMARK       I    between atoms: N2_5  and  C3_7 
REMARK    3  A    between atoms: N4_9  and  O1_11 
REMARK    4  A    between atoms: C5_15  and  N5_16 
REMARK    5  A    between atoms: C11_22  and  C12_23 
ROOT
HETATM    1  C4  UNL     1     -22.408   7.871   2.003  1.00  0.00     0.108 A 
HETATM    2  O2  UNL     1     -22.669   8.504   0.849  1.00  0.00    -0.285 OA
HETATM    3  C5  UNL     1     -21.976   8.393  -0.236  1.00  0.00     0.248 A 
HETATM    4  C9  UNL     1     -20.891   7.580  -0.237  1.00  0.00     0.065 A 
HETATM    5  C10 UNL     1     -20.550   6.898   0.891  1.00  0.00     0.015 A 
HETATM    6  C11 UNL     1     -21.314   7.035   2.048  1.00  0.00    -0.012 A 
ENDROOT
BRANCH   1   7
HETATM    7  C2  UNL     1     -23.283   8.102   3.126  1.00  0.00     0.056 C 
HETATM    8  C1  UNL     1     -23.109   8.918   4.319  1.00  0.00     0.072 C 
HETATM    9  N1  UNL     1     -24.444   7.465   3.073  1.00  0.00    -0.300 N 
ATOM     10  H1  UNL     1     -24.631   6.875   2.262  1.00  0.00     0.186 HD
BRANCH   9  11
HETATM   11  N2  UNL     1     -25.411   7.553   4.045  1.00  0.00    -0.272 N 
HETATM   12  C3  UNL     1     -26.579   8.352   3.925  1.00  0.00     0.227 C 
HETATM   13  N3  UNL     1     -26.740   9.366   2.951  1.00  0.00    -0.060 NA
HETATM   14  N4  UNL     1     -27.550   8.148   4.742  1.00  0.00    -0.240 N 
ATOM     15  H4  UNL     1     -27.417   7.413   5.436  1.00  0.00     0.197 HD
ATOM     16  H2  UNL     1     -25.284   7.013   4.900  1.00  0.00     0.189 HD
BRANCH  14  17
HETATM   17  O1  UNL     1     -28.726   8.808   4.773  1.00  0.00    -0.287 OA
ATOM     18  H1  UNL     1     -29.410   8.714   5.426  1.00  0.00     0.244 HD
ENDBRANCH  14  17
ENDBRANCH   9  11
ENDBRANCH   1   7
BRANCH   6  19
HETATM   19  C12 UNL     1     -20.899   6.291   3.233  1.00  0.00     0.126 C 
HETATM   20 BR1  UNL     1     -19.547   7.355   4.185  1.00  0.00    -0.091 Br
ENDBRANCH   6  19
BRANCH   3  21
HETATM   21  N5  UNL     1     -22.289   9.084  -1.444  1.00  0.00    -0.028 N 
HETATM   22  C6  UNL     1     -21.180   9.908  -1.878  1.00  0.00     0.281 C 
HETATM   23  C7  UNL     1     -23.419   9.951  -1.198  1.00  0.00     0.281 C 
HETATM   24  C8  UNL     1     -22.619   8.163  -2.488  1.00  0.00     0.281 C 
ENDBRANCH   3  21
TORSDOF 5
ENDMDL
MODEL 5
REMARK VINA RESULT: -6.895394318      4.022      5.897
REMARK  5 active torsions:
REMARK  status: ('A' for Active; 'I' for Inactive)
REMARK    1  A    between atoms: C2_2  and  C4_13 
REMARK    2  A    between atoms: N1_3  and  N2_5 
REMARK       I    between atoms: N2_5  and  C3_7 
REMARK    3  A    between atoms: N4_9  and  O1_11 
REMARK    4  A    between atoms: C5_15  and  N5_16 
REMARK    5  A    between atoms: C11_22  and  C12_23 
ROOT
HETATM    1  C4  UNL     1     -20.651   7.610   0.326  1.00  0.00     0.108 A 
HETATM    2  O2  UNL     1     -21.324   7.628  -0.835  1.00  0.00    -0.285 OA
HETATM    3  C5  UNL     1     -20.840   8.009  -1.971  1.00  0.00     0.248 A 
HETATM    4  C9  UNL     1     -19.552   8.430  -2.024  1.00  0.00     0.065 A 
HETATM    5  C10 UNL     1     -18.794   8.447  -0.894  1.00  0.00     0.015 A 
HETATM    6  C11 UNL     1     -19.340   8.031   0.319  1.00  0.00    -0.012 A 
ENDROOT
BRANCH   1   7
HETATM    7  C2  UNL     1     -21.337   7.154   1.510  1.00  0.00     0.056 C 
HETATM    8  C1  UNL     1     -20.847   6.450   2.685  1.00  0.00     0.072 C 
HETATM    9  N1  UNL     1     -22.637   7.413   1.540  1.00  0.00    -0.300 N 
ATOM     10  H1  UNL     1     -23.046   7.906   0.745  1.00  0.00     0.186 HD
BRANCH   9  11
HETATM   11  N2  UNL     1     -23.465   7.059   2.576  1.00  0.00    -0.272 N 
HETATM   12  C3  UNL     1     -24.480   7.904   3.100  1.00  0.00     0.227 C 
HETATM   13  N3  UNL     1     -24.560   9.292   2.832  1.00  0.00    -0.060 NA
HETATM   14  N4  UNL     1     -25.379   7.388   3.858  1.00  0.00    -0.240 N 
ATOM     15  H4  UNL     1     -25.307   6.388   4.039  1.00  0.00     0.197 HD
ATOM     16  H2  UNL     1     -23.346   6.137   2.994  1.00  0.00     0.189 HD
BRANCH  14  17
HETATM   17  O1  UNL     1     -26.410   8.036   4.438  1.00  0.00    -0.287 OA
ATOM     18  H1  UNL     1     -26.400   8.921   4.785  1.00  0.00     0.244 HD
ENDBRANCH  14  17
ENDBRANCH   9  11
ENDBRANCH   1   7
BRANCH   6  19
HETATM   19  C12 UNL     1     -18.487   8.078   1.503  1.00  0.00     0.126 C 
HETATM   20 BR1  UNL     1     -17.152   9.497   1.244  1.00  0.00    -0.091 Br
ENDBRANCH   6  19
BRANCH   3  21
HETATM   21  N5  UNL     1     -21.591   8.013  -3.184  1.00  0.00    -0.028 N 
HETATM   22  C6  UNL     1     -20.718   8.008  -4.340  1.00  0.00     0.281 C 
HETATM   23  C7  UNL     1     -22.385   9.218  -3.230  1.00  0.00     0.281 C 
HETATM   24  C8  UNL     1     -22.456   6.874  -3.252  1.00  0.00     0.281 C 
ENDBRANCH   3  21
TORSDOF 5
ENDMDL
