MODEL 1
REMARK VINA RESULT: -5.316434983      0.000      0.000
REMARK  3 active torsions:
REMARK  status: ('A' for Active; 'I' for Inactive)
REMARK    1  A    between atoms: C3_6  and  C4_7 
REMARK    2  A    between atoms: C4_7  and  N2_8 
REMARK    3  A    between atoms: N2_8  and  C5_11 
ROOT
HETATM    1  N2  UNL     1      -6.290 -83.954   2.673  1.00  0.00    -0.020 N 
ATOM      2  H21 UNL     1      -5.287 -84.032   2.838  1.00  0.00     0.281 HD
ATOM      3  H22 UNL     1      -6.581 -84.887   2.964  1.00  0.00     0.281 HD
ENDROOT
BRANCH   1   4
HETATM    4  C4  UNL     1      -6.564 -83.743   1.288  1.00  0.00     0.269 C 
BRANCH   4   5
HETATM    5  C3  UNL     1      -7.823 -84.484   0.928  1.00  0.00     0.211 C 
HETATM    6  N1  UNL     1      -7.899 -84.748  -0.515  1.00  0.00    -0.069 N 
HETATM    7  C2  UNL     1      -8.959 -85.749  -0.600  1.00  0.00     0.233 C 
ATOM      8  H12 UNL     1      -7.016 -85.020  -0.948  1.00  0.00     0.277 HD
ATOM      9  H11 UNL     1      -8.043 -83.921  -1.095  1.00  0.00     0.277 HD
HETATM   10  C1  UNL     1      -8.951 -86.511   0.682  1.00  0.00     0.029 C 
HETATM   11  C8  UNL     1      -7.785 -85.921   1.448  1.00  0.00     0.036 C 
ENDBRANCH   4   5
ENDBRANCH   1   4
BRANCH   1  12
HETATM   12  C5  UNL     1      -6.878 -82.939   3.528  1.00  0.00     0.580 C 
HETATM   13  N3  UNL     1      -6.230 -82.898   4.824  1.00  0.00    -0.020 N 
HETATM   14  C6  UNL     1      -6.171 -81.462   5.138  1.00  0.00     0.264 C 
ATOM     15  H32 UNL     1      -6.682 -83.468   5.540  1.00  0.00     0.281 HD
ATOM     16  H31 UNL     1      -5.329 -83.374   4.861  1.00  0.00     0.281 HD
HETATM   17  C7  UNL     1      -5.755 -80.914   3.768  1.00  0.00     0.264 C 
HETATM   18  N4  UNL     1      -6.669 -81.659   2.904  1.00  0.00    -0.020 N 
ATOM     19  H42 UNL     1      -6.343 -81.729   1.940  1.00  0.00     0.281 HD
ATOM     20  H41 UNL     1      -7.537 -81.159   2.711  1.00  0.00     0.281 HD
ENDBRANCH   1  12
TORSDOF 3
ENDMDL
MODEL 2
REMARK VINA RESULT: -5.269053278      1.431      1.759
REMARK  3 active torsions:
REMARK  status: ('A' for Active; 'I' for Inactive)
REMARK    1  A    between atoms: C3_6  and  C4_7 
REMARK    2  A    between atoms: C4_7  and  N2_8 
REMARK    3  A    between atoms: N2_8  and  C5_11 
ROOT
HETATM    1  N2  UNL     1      -5.726 -82.827   3.044  1.00  0.00    -0.020 N 
ATOM      2  H21 UNL     1      -4.752 -82.664   2.787  1.00  0.00     0.281 HD
ATOM      3  H22 UNL     1      -5.631 -83.741   3.487  1.00  0.00     0.281 HD
ENDROOT
BRANCH   1   4
HETATM    4  C4  UNL     1      -6.553 -82.906   1.884  1.00  0.00     0.269 C 
BRANCH   4   5
HETATM    5  C3  UNL     1      -6.465 -84.301   1.325  1.00  0.00     0.211 C 
HETATM    6  N1  UNL     1      -7.683 -85.073   1.611  1.00  0.00    -0.069 N 
HETATM    7  C2  UNL     1      -7.553 -86.215   0.709  1.00  0.00     0.233 C 
ATOM      8  H12 UNL     1      -8.554 -84.550   1.518  1.00  0.00     0.277 HD
ATOM      9  H11 UNL     1      -7.816 -85.315   2.593  1.00  0.00     0.277 HD
HETATM   10  C1  UNL     1      -6.764 -85.760  -0.471  1.00  0.00     0.029 C 
HETATM   11  C8  UNL     1      -6.525 -84.288  -0.202  1.00  0.00     0.036 C 
ENDBRANCH   4   5
ENDBRANCH   1   4
BRANCH   1  12
HETATM   12  C5  UNL     1      -6.182 -81.834   3.998  1.00  0.00     0.580 C 
HETATM   13  N3  UNL     1      -5.255 -81.696   5.105  1.00  0.00    -0.020 N 
HETATM   14  C6  UNL     1      -5.249 -80.250   5.375  1.00  0.00     0.264 C 
ATOM     15  H32 UNL     1      -5.477 -82.276   5.915  1.00  0.00     0.281 HD
ATOM     16  H31 UNL     1      -4.333 -82.097   4.934  1.00  0.00     0.281 HD
HETATM   17  C7  UNL     1      -5.214 -79.718   3.937  1.00  0.00     0.264 C 
HETATM   18  N4  UNL     1      -6.236 -80.563   3.325  1.00  0.00    -0.020 N 
ATOM     19  H42 UNL     1      -6.141 -80.641   2.312  1.00  0.00     0.281 HD
ATOM     20  H41 UNL     1      -7.165 -80.142   3.334  1.00  0.00     0.281 HD
ENDBRANCH   1  12
TORSDOF 3
ENDMDL
MODEL 3
REMARK VINA RESULT: -5.262611216      0.769      1.334
REMARK  3 active torsions:
REMARK  status: ('A' for Active; 'I' for Inactive)
REMARK    1  A    between atoms: C3_6  and  C4_7 
REMARK    2  A    between atoms: C4_7  and  N2_8 
REMARK    3  A    between atoms: N2_8  and  C5_11 
ROOT
HETATM    1  N2  UNL     1      -7.114 -82.756   2.524  1.00  0.00    -0.020 N 
ATOM      2  H21 UNL     1      -7.548 -83.362   3.221  1.00  0.00     0.281 HD
ATOM      3  H22 UNL     1      -7.907 -82.153   2.309  1.00  0.00     0.281 HD
ENDROOT
BRANCH   1   4
HETATM    4  C4  UNL     1      -6.717 -83.504   1.375  1.00  0.00     0.269 C 
BRANCH   4   5
HETATM    5  C3  UNL     1      -7.884 -84.334   0.914  1.00  0.00     0.211 C 
HETATM    6  N1  UNL     1      -7.787 -84.653  -0.517  1.00  0.00    -0.069 N 
HETATM    7  C2  UNL     1      -8.773 -85.720  -0.672  1.00  0.00     0.233 C 
ATOM      8  H12 UNL     1      -6.848 -84.886  -0.841  1.00  0.00     0.277 HD
ATOM      9  H11 UNL     1      -7.915 -83.858  -1.143  1.00  0.00     0.277 HD
HETATM   10  C1  UNL     1      -8.861 -86.434   0.634  1.00  0.00     0.029 C 
HETATM   11  C8  UNL     1      -7.821 -85.747   1.495  1.00  0.00     0.036 C 
ENDBRANCH   4   5
ENDBRANCH   1   4
BRANCH   1  12
HETATM   12  C5  UNL     1      -6.026 -81.994   3.108  1.00  0.00     0.580 C 
HETATM   13  N3  UNL     1      -6.321 -80.574   3.120  1.00  0.00    -0.020 N 
HETATM   14  C6  UNL     1      -5.777 -80.118   4.409  1.00  0.00     0.264 C 
ATOM     15  H32 UNL     1      -5.970 -80.064   2.310  1.00  0.00     0.281 HD
ATOM     16  H31 UNL     1      -7.304 -80.347   2.973  1.00  0.00     0.281 HD
HETATM   17  C7  UNL     1      -6.244 -81.269   5.309  1.00  0.00     0.264 C 
HETATM   18  N4  UNL     1      -5.876 -82.412   4.477  1.00  0.00    -0.020 N 
ATOM     19  H42 UNL     1      -6.402 -83.257   4.699  1.00  0.00     0.281 HD
ATOM     20  H41 UNL     1      -4.948 -82.779   4.686  1.00  0.00     0.281 HD
ENDBRANCH   1  12
TORSDOF 3
ENDMDL
MODEL 4
REMARK VINA RESULT: -5.169508792      1.111      1.368
REMARK  3 active torsions:
REMARK  status: ('A' for Active; 'I' for Inactive)
REMARK    1  A    between atoms: C3_6  and  C4_7 
REMARK    2  A    between atoms: C4_7  and  N2_8 
REMARK    3  A    between atoms: N2_8  and  C5_11 
ROOT
HETATM    1  N2  UNL     1      -6.310 -83.815   2.749  1.00  0.00    -0.020 N 
ATOM      2  H21 UNL     1      -5.302 -83.832   2.901  1.00  0.00     0.281 HD
ATOM      3  H22 UNL     1      -6.520 -84.800   2.908  1.00  0.00     0.281 HD
ENDROOT
BRANCH   1   4
HETATM    4  C4  UNL     1      -6.616 -83.439   1.406  1.00  0.00     0.269 C 
BRANCH   4   5
HETATM    5  C3  UNL     1      -6.881 -84.685   0.606  1.00  0.00     0.211 C 
HETATM    6  N1  UNL     1      -8.130 -84.578  -0.161  1.00  0.00    -0.069 N 
HETATM    7  C2  UNL     1      -8.017 -85.686  -1.107  1.00  0.00     0.233 C 
ATOM      8  H12 UNL     1      -8.294 -83.666  -0.586  1.00  0.00     0.277 HD
ATOM      9  H11 UNL     1      -8.980 -84.581   0.402  1.00  0.00     0.277 HD
HETATM   10  C1  UNL     1      -6.564 -85.910  -1.354  1.00  0.00     0.029 C 
HETATM   11  C8  UNL     1      -5.886 -84.823  -0.546  1.00  0.00     0.036 C 
ENDBRANCH   4   5
ENDBRANCH   1   4
BRANCH   1  12
HETATM   12  C5  UNL     1      -6.967 -82.979   3.735  1.00  0.00     0.580 C 
HETATM   13  N3  UNL     1      -6.332 -83.092   5.034  1.00  0.00    -0.020 N 
HETATM   14  C6  UNL     1      -6.369 -81.718   5.559  1.00  0.00     0.264 C 
ATOM     15  H32 UNL     1      -6.751 -83.790   5.649  1.00  0.00     0.281 HD
ATOM     16  H31 UNL     1      -5.402 -83.510   5.013  1.00  0.00     0.281 HD
HETATM   17  C7  UNL     1      -5.980 -80.946   4.293  1.00  0.00     0.264 C 
HETATM   18  N4  UNL     1      -6.838 -81.609   3.313  1.00  0.00    -0.020 N 
ATOM     19  H42 UNL     1      -6.502 -81.513   2.354  1.00  0.00     0.281 HD
ATOM     20  H41 UNL     1      -7.735 -81.141   3.182  1.00  0.00     0.281 HD
ENDBRANCH   1  12
TORSDOF 3
ENDMDL
MODEL 5
REMARK VINA RESULT: -5.163189414      1.319      1.957
REMARK  3 active torsions:
REMARK  status: ('A' for Active; 'I' for Inactive)
REMARK    1  A    between atoms: C3_6  and  C4_7 
REMARK    2  A    between atoms: C4_7  and  N2_8 
REMARK    3  A    between atoms: N2_8  and  C5_11 
ROOT
HETATM    1  N2  UNL     1      -7.397 -82.457   3.145  1.00  0.00    -0.020 N 
ATOM      2  H21 UNL     1      -7.977 -82.261   3.961  1.00  0.00     0.281 HD
ATOM      3  H22 UNL     1      -8.000 -82.076   2.416  1.00  0.00     0.281 HD
ENDROOT
BRANCH   1   4
HETATM    4  C4  UNL     1      -7.216 -83.862   2.973  1.00  0.00     0.269 C 
BRANCH   4   5
HETATM    5  C3  UNL     1      -7.370 -84.193   1.514  1.00  0.00     0.211 C 
HETATM    6  N1  UNL     1      -6.067 -84.297   0.844  1.00  0.00    -0.069 N 
HETATM    7  C2  UNL     1      -6.408 -84.956  -0.415  1.00  0.00     0.233 C 
ATOM      8  H12 UNL     1      -5.341 -84.763   1.388  1.00  0.00     0.277 HD
ATOM      9  H11 UNL     1      -5.565 -83.415   0.743  1.00  0.00     0.277 HD
HETATM   10  C1  UNL     1      -7.609 -85.801  -0.160  1.00  0.00     0.029 C 
HETATM   11  C8  UNL     1      -7.870 -85.625   1.322  1.00  0.00     0.036 C 
ENDBRANCH   4   5
ENDBRANCH   1   4
BRANCH   1  12
HETATM   12  C5  UNL     1      -6.144 -81.728   3.214  1.00  0.00     0.580 C 
HETATM   13  N3  UNL     1      -6.358 -80.298   3.119  1.00  0.00    -0.020 N 
HETATM   14  C6  UNL     1      -5.386 -79.738   4.071  1.00  0.00     0.264 C 
ATOM     15  H32 UNL     1      -6.285 -79.922   2.173  1.00  0.00     0.281 HD
ATOM     16  H31 UNL     1      -7.321 -80.003   3.278  1.00  0.00     0.281 HD
HETATM   17  C7  UNL     1      -5.562 -80.725   5.232  1.00  0.00     0.264 C 
HETATM   18  N4  UNL     1      -5.550 -81.988   4.499  1.00  0.00    -0.020 N 
ATOM     19  H42 UNL     1      -6.002 -82.751   5.004  1.00  0.00     0.281 HD
ATOM     20  H41 UNL     1      -4.623 -82.408   4.436  1.00  0.00     0.281 HD
ENDBRANCH   1  12
TORSDOF 3
ENDMDL
