MODEL 1
REMARK VINA RESULT: -5.594517296      0.000      0.000
REMARK  4 active torsions:
REMARK  status: ('A' for Active; 'I' for Inactive)
REMARK    1  A    between atoms: N1_1  and  C1_4 
REMARK    2  A    between atoms: C2_11  and  C3_12 
REMARK    3  A    between atoms: N5_13  and  N6_15 
REMARK    4  A    between atoms: N6_15  and  C4_17 
ROOT
HETATM    1  C1  UNL     1      -7.529 -85.217   1.006  1.00  0.00     0.144 A 
HETATM    2  N2  UNL     1      -7.472 -85.547  -0.283  1.00  0.00    -0.269 N 
ATOM      3  H2  UNL     1      -7.756 -86.454  -0.655  1.00  0.00     0.190 HD
HETATM    4  N3  UNL     1      -7.004 -84.564  -1.019  1.00  0.00    -0.241 N 
ATOM      5  H3  UNL     1      -6.863 -84.563  -2.029  1.00  0.00     0.208 HD
HETATM    6  N4  UNL     1      -6.754 -83.577  -0.178  1.00  0.00    -0.281 N 
ATOM      7  H4  UNL     1      -6.378 -82.670  -0.456  1.00  0.00     0.188 HD
HETATM    8  C2  UNL     1      -7.055 -83.910   1.083  1.00  0.00     0.111 A 
ENDROOT
BRANCH   8   9
HETATM    9  C3  UNL     1      -6.913 -83.083   2.271  1.00  0.00     0.141 C 
HETATM   10  N5  UNL     1      -5.771 -83.038   2.846  1.00  0.00    -0.314 N 
ATOM     11  H5  UNL     1      -4.999 -83.579   2.457  1.00  0.00     0.185 HD
BRANCH  10  12
HETATM   12  N6  UNL     1      -5.555 -82.280   3.974  1.00  0.00    -0.332 N 
ATOM     13  H6  UNL     1      -6.013 -82.561   4.841  1.00  0.00     0.180 HD
BRANCH  12  14
HETATM   14  C4  UNL     1      -4.715 -81.110   3.992  1.00  0.00     0.099 A 
HETATM   15  C5  UNL     1      -5.247 -79.750   3.974  1.00  0.00     0.029 A 
HETATM   16  C6  UNL     1      -4.774 -80.347   5.288  1.00  0.00     0.029 A 
ENDBRANCH  12  14
ENDBRANCH  10  12
ENDBRANCH   8   9
BRANCH   1  17
HETATM   17  N1  UNL     1      -7.938 -85.945   1.996  1.00  0.00    -0.382 N 
ATOM     18  H12 UNL     1      -8.399 -85.613   2.842  1.00  0.00     0.157 HD
ATOM     19  H11 UNL     1      -7.870 -86.958   2.098  1.00  0.00     0.157 HD
ENDBRANCH   1  17
TORSDOF 4
ENDMDL
MODEL 2
REMARK VINA RESULT: -5.474228399      1.885      5.716
REMARK  4 active torsions:
REMARK  status: ('A' for Active; 'I' for Inactive)
REMARK    1  A    between atoms: N1_1  and  C1_4 
REMARK    2  A    between atoms: C2_11  and  C3_12 
REMARK    3  A    between atoms: N5_13  and  N6_15 
REMARK    4  A    between atoms: N6_15  and  C4_17 
ROOT
HETATM    1  C1  UNL     1      -6.357 -82.103   3.561  1.00  0.00     0.144 A 
HETATM    2  N2  UNL     1      -6.204 -82.464   4.835  1.00  0.00    -0.269 N 
ATOM      3  H2  UNL     1      -5.993 -81.814   5.593  1.00  0.00     0.190 HD
HETATM    4  N3  UNL     1      -6.359 -83.759   4.997  1.00  0.00    -0.241 N 
ATOM      5  H3  UNL     1      -6.294 -84.282   5.870  1.00  0.00     0.208 HD
HETATM    6  N4  UNL     1      -6.617 -84.241   3.796  1.00  0.00    -0.281 N 
ATOM      7  H4  UNL     1      -6.785 -85.228   3.600  1.00  0.00     0.188 HD
HETATM    8  C2  UNL     1      -6.631 -83.278   2.866  1.00  0.00     0.111 A 
ENDROOT
BRANCH   8   9
HETATM    9  C3  UNL     1      -6.879 -83.431   1.441  1.00  0.00     0.141 C 
HETATM   10  N5  UNL     1      -7.765 -84.276   1.067  1.00  0.00    -0.314 N 
ATOM     11  H5  UNL     1      -8.266 -84.813   1.773  1.00  0.00     0.185 HD
BRANCH  10  12
HETATM   12  N6  UNL     1      -8.058 -84.478  -0.262  1.00  0.00    -0.332 N 
ATOM     13  H6  UNL     1      -8.494 -83.717  -0.783  1.00  0.00     0.180 HD
BRANCH  12  14
HETATM   14  C4  UNL     1      -7.782 -85.710  -0.955  1.00  0.00     0.099 A 
HETATM   15  C5  UNL     1      -7.379 -85.759  -2.358  1.00  0.00     0.029 A 
HETATM   16  C6  UNL     1      -6.324 -85.906  -1.275  1.00  0.00     0.029 A 
ENDBRANCH  12  14
ENDBRANCH  10  12
ENDBRANCH   8   9
BRANCH   1  17
HETATM   17  N1  UNL     1      -6.271 -80.913   3.056  1.00  0.00    -0.382 N 
ATOM     18  H12 UNL     1      -5.709 -80.636   2.252  1.00  0.00     0.157 HD
ATOM     19  H11 UNL     1      -6.742 -80.064   3.370  1.00  0.00     0.157 HD
ENDBRANCH   1  17
TORSDOF 4
ENDMDL
MODEL 3
REMARK VINA RESULT: -5.371870399      1.397      1.893
REMARK  4 active torsions:
REMARK  status: ('A' for Active; 'I' for Inactive)
REMARK    1  A    between atoms: N1_1  and  C1_4 
REMARK    2  A    between atoms: C2_11  and  C3_12 
REMARK    3  A    between atoms: N5_13  and  N6_15 
REMARK    4  A    between atoms: N6_15  and  C4_17 
ROOT
HETATM    1  C1  UNL     1      -6.864 -85.460  -0.894  1.00  0.00     0.144 A 
HETATM    2  N2  UNL     1      -8.070 -85.558  -1.452  1.00  0.00    -0.269 N 
ATOM      3  H2  UNL     1      -8.279 -86.138  -2.265  1.00  0.00     0.190 HD
HETATM    4  N3  UNL     1      -8.958 -84.817  -0.829  1.00  0.00    -0.241 N 
ATOM      5  H3  UNL     1      -9.947 -84.718  -1.057  1.00  0.00     0.208 HD
HETATM    6  N4  UNL     1      -8.305 -84.227   0.155  1.00  0.00    -0.281 N 
ATOM      7  H4  UNL     1      -8.732 -83.583   0.821  1.00  0.00     0.188 HD
HETATM    8  C2  UNL     1      -7.013 -84.579   0.174  1.00  0.00     0.111 A 
ENDROOT
BRANCH   8   9
HETATM    9  C3  UNL     1      -5.991 -84.133   1.108  1.00  0.00     0.141 C 
HETATM   10  N5  UNL     1      -6.327 -83.307   2.026  1.00  0.00    -0.314 N 
ATOM     11  H5  UNL     1      -7.295 -82.988   2.076  1.00  0.00     0.185 HD
BRANCH  10  12
HETATM   12  N6  UNL     1      -5.420 -82.839   2.949  1.00  0.00    -0.332 N 
ATOM     13  H6  UNL     1      -4.473 -83.217   2.932  1.00  0.00     0.180 HD
BRANCH  12  14
HETATM   14  C4  UNL     1      -5.740 -81.841   3.937  1.00  0.00     0.099 A 
HETATM   15  C5  UNL     1      -4.792 -80.816   4.366  1.00  0.00     0.029 A 
HETATM   16  C6  UNL     1      -5.879 -80.454   3.368  1.00  0.00     0.029 A 
ENDBRANCH  12  14
ENDBRANCH  10  12
ENDBRANCH   8   9
BRANCH   1  17
HETATM   17  N1  UNL     1      -5.770 -86.052  -1.255  1.00  0.00    -0.382 N 
ATOM     18  H12 UNL     1      -4.825 -85.679  -1.176  1.00  0.00     0.157 HD
ATOM     19  H11 UNL     1      -5.668 -86.978  -1.672  1.00  0.00     0.157 HD
ENDBRANCH   1  17
TORSDOF 4
ENDMDL
MODEL 4
REMARK VINA RESULT: -5.332154423      0.669      1.772
REMARK  4 active torsions:
REMARK  status: ('A' for Active; 'I' for Inactive)
REMARK    1  A    between atoms: N1_1  and  C1_4 
REMARK    2  A    between atoms: C2_11  and  C3_12 
REMARK    3  A    between atoms: N5_13  and  N6_15 
REMARK    4  A    between atoms: N6_15  and  C4_17 
ROOT
HETATM    1  C1  UNL     1      -7.141 -84.719   0.458  1.00  0.00     0.144 A 
HETATM    2  N2  UNL     1      -7.546 -85.966   0.215  1.00  0.00    -0.269 N 
ATOM      3  H2  UNL     1      -7.556 -86.394  -0.711  1.00  0.00     0.190 HD
HETATM    4  N3  UNL     1      -7.932 -86.577   1.312  1.00  0.00    -0.241 N 
ATOM      5  H3  UNL     1      -8.283 -87.530   1.396  1.00  0.00     0.208 HD
HETATM    6  N4  UNL     1      -7.771 -85.699   2.285  1.00  0.00    -0.281 N 
ATOM      7  H4  UNL     1      -7.988 -85.884   3.265  1.00  0.00     0.188 HD
HETATM    8  C2  UNL     1      -7.287 -84.536   1.831  1.00  0.00     0.111 A 
ENDROOT
BRANCH   8   9
HETATM    9  C3  UNL     1      -6.983 -83.343   2.606  1.00  0.00     0.141 C 
HETATM   10  N5  UNL     1      -6.248 -83.468   3.646  1.00  0.00    -0.314 N 
ATOM     11  H5  UNL     1      -5.900 -84.392   3.899  1.00  0.00     0.185 HD
BRANCH  10  12
HETATM   12  N6  UNL     1      -5.914 -82.388   4.431  1.00  0.00    -0.332 N 
ATOM     13  H6  UNL     1      -6.282 -82.349   5.382  1.00  0.00     0.180 HD
BRANCH  12  14
HETATM   14  C4  UNL     1      -5.070 -81.312   3.979  1.00  0.00     0.099 A 
HETATM   15  C5  UNL     1      -5.538 -79.934   3.856  1.00  0.00     0.029 A 
HETATM   16  C6  UNL     1      -4.710 -80.334   5.065  1.00  0.00     0.029 A 
ENDBRANCH  12  14
ENDBRANCH  10  12
ENDBRANCH   8   9
BRANCH   1  17
HETATM   17  N1  UNL     1      -6.701 -83.847  -0.391  1.00  0.00    -0.382 N 
ATOM     18  H12 UNL     1      -6.408 -82.893  -0.182  1.00  0.00     0.157 HD
ATOM     19  H11 UNL     1      -6.573 -83.961  -1.397  1.00  0.00     0.157 HD
ENDBRANCH   1  17
TORSDOF 4
ENDMDL
MODEL 5
REMARK VINA RESULT: -5.226838584      1.709      5.670
REMARK  4 active torsions:
REMARK  status: ('A' for Active; 'I' for Inactive)
REMARK    1  A    between atoms: N1_1  and  C1_4 
REMARK    2  A    between atoms: C2_11  and  C3_12 
REMARK    3  A    between atoms: N5_13  and  N6_15 
REMARK    4  A    between atoms: N6_15  and  C4_17 
ROOT
HETATM    1  C1  UNL     1      -6.333 -82.126   3.765  1.00  0.00     0.144 A 
HETATM    2  N2  UNL     1      -6.169 -82.458   5.045  1.00  0.00    -0.269 N 
ATOM      3  H2  UNL     1      -5.918 -81.796   5.780  1.00  0.00     0.190 HD
HETATM    4  N3  UNL     1      -6.370 -83.741   5.246  1.00  0.00    -0.241 N 
ATOM      5  H3  UNL     1      -6.308 -84.243   6.131  1.00  0.00     0.208 HD
HETATM    6  N4  UNL     1      -6.670 -84.245   4.063  1.00  0.00    -0.281 N 
ATOM      7  H4  UNL     1      -6.880 -85.230   3.898  1.00  0.00     0.188 HD
HETATM    8  C2  UNL     1      -6.666 -83.308   3.108  1.00  0.00     0.111 A 
ENDROOT
BRANCH   8   9
HETATM    9  C3  UNL     1      -6.948 -83.489   1.692  1.00  0.00     0.141 C 
HETATM   10  N5  UNL     1      -6.795 -84.656   1.189  1.00  0.00    -0.314 N 
ATOM     11  H5  UNL     1      -6.482 -85.418   1.789  1.00  0.00     0.185 HD
BRANCH  10  12
HETATM   12  N6  UNL     1      -7.042 -84.910  -0.141  1.00  0.00    -0.332 N 
ATOM     13  H6  UNL     1      -6.396 -84.530  -0.834  1.00  0.00     0.180 HD
BRANCH  12  14
HETATM   14  C4  UNL     1      -8.164 -85.684  -0.604  1.00  0.00     0.099 A 
HETATM   15  C5  UNL     1      -9.061 -86.401   0.299  1.00  0.00     0.029 A 
HETATM   16  C6  UNL     1      -9.497 -85.065  -0.279  1.00  0.00     0.029 A 
ENDBRANCH  12  14
ENDBRANCH  10  12
ENDBRANCH   8   9
BRANCH   1  17
HETATM   17  N1  UNL     1      -6.212 -80.955   3.226  1.00  0.00    -0.382 N 
ATOM     18  H12 UNL     1      -6.865 -80.516   2.577  1.00  0.00     0.157 HD
ATOM     19  H11 UNL     1      -5.456 -80.281   3.354  1.00  0.00     0.157 HD
ENDBRANCH   1  17
TORSDOF 4
ENDMDL
