MODEL 1
REMARK VINA RESULT: -5.439670724      0.000      0.000
REMARK  5 active torsions:
REMARK  status: ('A' for Active; 'I' for Inactive)
REMARK    1  A    between atoms: N1_1  and  C1_5 
REMARK    2  A    between atoms: C1_5  and  C2_6 
REMARK    3  A    between atoms: C2_6  and  C3_7 
REMARK    4  A    between atoms: C3_7  and  N2_8 
REMARK    5  A    between atoms: N2_8  and  C4_10 
ROOT
HETATM    1  C4  UNL     1      -7.564 -84.402   0.773  1.00  0.00     0.679 A 
HETATM    2  N3  UNL     1      -8.616 -84.181  -0.024  1.00  0.00    -0.202 N 
ATOM      3  H3  UNL     1      -8.731 -83.248  -0.418  1.00  0.00     0.183 HD
HETATM    4  C5  UNL     1      -9.527 -85.114  -0.337  1.00  0.00     0.109 A 
HETATM    5  C6  UNL     1      -9.398 -86.382   0.179  1.00  0.00     0.063 A 
HETATM    6  C7  UNL     1      -8.294 -86.600   1.012  1.00  0.00     0.133 A 
HETATM    7  N4  UNL     1      -8.138 -87.898   1.556  1.00  0.00    -0.082 NA
HETATM    8  N5  UNL     1      -7.411 -85.626   1.290  1.00  0.00    -0.179 N 
ATOM      9  H5  UNL     1      -6.618 -85.821   1.901  1.00  0.00     0.185 HD
ENDROOT
BRANCH   1  10
HETATM   10  N2  UNL     1      -6.694 -83.495   1.065  1.00  0.00    -0.226 N 
ATOM     11  H2  UNL     1      -6.345 -82.856   0.350  1.00  0.00     0.177 HD
BRANCH  10  12
HETATM   12  C3  UNL     1      -6.219 -83.406   2.442  1.00  0.00     0.139 C 
BRANCH  12  13
HETATM   13  C2  UNL     1      -6.367 -81.951   2.859  1.00  0.00     0.047 C 
BRANCH  13  14
HETATM   14  C1  UNL     1      -6.038 -81.881   4.335  1.00  0.00     0.231 C 
BRANCH  14  15
HETATM   15  N1  UNL     1      -6.333 -83.123   5.018  1.00  0.00    -0.079 N 
ATOM     16  H13 UNL     1      -5.919 -83.140   5.950  1.00  0.00     0.274 HD
ATOM     17  H12 UNL     1      -7.318 -83.177   5.278  1.00  0.00     0.274 HD
ATOM     18  H11 UNL     1      -6.049 -83.938   4.473  1.00  0.00     0.274 HD
ENDBRANCH  14  15
ENDBRANCH  13  14
ENDBRANCH  12  13
ENDBRANCH  10  12
ENDBRANCH   1  10
TORSDOF 5
ENDMDL
MODEL 2
REMARK VINA RESULT: -5.026090239      1.521      1.898
REMARK  5 active torsions:
REMARK  status: ('A' for Active; 'I' for Inactive)
REMARK    1  A    between atoms: N1_1  and  C1_5 
REMARK    2  A    between atoms: C1_5  and  C2_6 
REMARK    3  A    between atoms: C2_6  and  C3_7 
REMARK    4  A    between atoms: C3_7  and  N2_8 
REMARK    5  A    between atoms: N2_8  and  C4_10 
ROOT
HETATM    1  C4  UNL     1      -7.091 -84.693   2.237  1.00  0.00     0.679 A 
HETATM    2  N3  UNL     1      -6.741 -84.154   1.063  1.00  0.00    -0.202 N 
ATOM      3  H3  UNL     1      -6.185 -83.300   1.075  1.00  0.00     0.183 HD
HETATM    4  C5  UNL     1      -7.078 -84.671  -0.127  1.00  0.00     0.109 A 
HETATM    5  C6  UNL     1      -7.829 -85.822  -0.174  1.00  0.00     0.063 A 
HETATM    6  C7  UNL     1      -8.189 -86.374   1.061  1.00  0.00     0.133 A 
HETATM    7  N4  UNL     1      -8.963 -87.561   1.040  1.00  0.00    -0.082 NA
HETATM    8  N5  UNL     1      -7.822 -85.812   2.225  1.00  0.00    -0.179 N 
ATOM      9  H5  UNL     1      -8.102 -86.244   3.106  1.00  0.00     0.185 HD
ENDROOT
BRANCH   1  10
HETATM   10  N2  UNL     1      -6.759 -84.185   3.377  1.00  0.00    -0.226 N 
ATOM     11  H2  UNL     1      -6.028 -84.613   3.946  1.00  0.00     0.177 HD
BRANCH  10  12
HETATM   12  C3  UNL     1      -7.455 -82.985   3.831  1.00  0.00     0.139 C 
BRANCH  12  13
HETATM   13  C2  UNL     1      -6.488 -82.240   4.739  1.00  0.00     0.047 C 
BRANCH  13  14
HETATM   14  C1  UNL     1      -5.589 -81.416   3.843  1.00  0.00     0.231 C 
BRANCH  14  15
HETATM   15  N1  UNL     1      -6.333 -80.436   3.079  1.00  0.00    -0.079 N 
ATOM     16  H13 UNL     1      -6.015 -80.404   2.111  1.00  0.00     0.274 HD
ATOM     17  H12 UNL     1      -7.294 -80.741   2.923  1.00  0.00     0.274 HD
ATOM     18  H11 UNL     1      -6.303 -79.511   3.509  1.00  0.00     0.274 HD
ENDBRANCH  14  15
ENDBRANCH  13  14
ENDBRANCH  12  13
ENDBRANCH  10  12
ENDBRANCH   1  10
TORSDOF 5
ENDMDL
MODEL 3
REMARK VINA RESULT: -5.024925924      1.539      2.024
REMARK  5 active torsions:
REMARK  status: ('A' for Active; 'I' for Inactive)
REMARK    1  A    between atoms: N1_1  and  C1_5 
REMARK    2  A    between atoms: C1_5  and  C2_6 
REMARK    3  A    between atoms: C2_6  and  C3_7 
REMARK    4  A    between atoms: C3_7  and  N2_8 
REMARK    5  A    between atoms: N2_8  and  C4_10 
ROOT
HETATM    1  C4  UNL     1      -6.602 -84.320   0.975  1.00  0.00     0.679 A 
HETATM    2  N3  UNL     1      -5.965 -84.877  -0.062  1.00  0.00    -0.202 N 
ATOM      3  H3  UNL     1      -4.949 -84.794  -0.100  1.00  0.00     0.183 HD
HETATM    4  C5  UNL     1      -6.581 -85.537  -1.052  1.00  0.00     0.109 A 
HETATM    5  C6  UNL     1      -7.951 -85.664  -1.027  1.00  0.00     0.063 A 
HETATM    6  C7  UNL     1      -8.605 -85.076   0.061  1.00  0.00     0.133 A 
HETATM    7  N4  UNL     1     -10.016 -85.194   0.111  1.00  0.00    -0.082 NA
HETATM    8  N5  UNL     1      -7.934 -84.426   1.027  1.00  0.00    -0.179 N 
ATOM      9  H5  UNL     1      -8.445 -84.011   1.806  1.00  0.00     0.185 HD
ENDROOT
BRANCH   1  10
HETATM   10  N2  UNL     1      -5.996 -83.687   1.922  1.00  0.00    -0.226 N 
ATOM     11  H2  UNL     1      -5.122 -84.042   2.312  1.00  0.00     0.177 HD
BRANCH  10  12
HETATM   12  C3  UNL     1      -6.591 -82.452   2.424  1.00  0.00     0.139 C 
BRANCH  12  13
HETATM   13  C2  UNL     1      -6.317 -82.415   3.919  1.00  0.00     0.047 C 
BRANCH  13  14
HETATM   14  C1  UNL     1      -7.226 -83.442   4.558  1.00  0.00     0.231 C 
BRANCH  14  15
HETATM   15  N1  UNL     1      -6.510 -84.305   5.476  1.00  0.00    -0.079 N 
ATOM     16  H13 UNL     1      -7.150 -84.909   5.991  1.00  0.00     0.274 HD
ATOM     17  H12 UNL     1      -5.982 -85.020   4.975  1.00  0.00     0.274 HD
ATOM     18  H11 UNL     1      -5.910 -83.777   6.109  1.00  0.00     0.274 HD
ENDBRANCH  14  15
ENDBRANCH  13  14
ENDBRANCH  12  13
ENDBRANCH  10  12
ENDBRANCH   1  10
TORSDOF 5
ENDMDL
MODEL 4
REMARK VINA RESULT: -5.015633790      1.441      1.705
REMARK  5 active torsions:
REMARK  status: ('A' for Active; 'I' for Inactive)
REMARK    1  A    between atoms: N1_1  and  C1_5 
REMARK    2  A    between atoms: C1_5  and  C2_6 
REMARK    3  A    between atoms: C2_6  and  C3_7 
REMARK    4  A    between atoms: C3_7  and  N2_8 
REMARK    5  A    between atoms: N2_8  and  C4_10 
ROOT
HETATM    1  C4  UNL     1      -6.361 -84.245   1.559  1.00  0.00     0.679 A 
HETATM    2  N3  UNL     1      -6.044 -84.402   0.268  1.00  0.00    -0.202 N 
ATOM      3  H3  UNL     1      -5.261 -83.864  -0.103  1.00  0.00     0.183 HD
HETATM    4  C5  UNL     1      -6.695 -85.224  -0.567  1.00  0.00     0.109 A 
HETATM    5  C6  UNL     1      -7.757 -85.962  -0.096  1.00  0.00     0.063 A 
HETATM    6  C7  UNL     1      -8.077 -85.788   1.255  1.00  0.00     0.133 A 
HETATM    7  N4  UNL     1      -9.166 -86.537   1.765  1.00  0.00    -0.082 NA
HETATM    8  N5  UNL     1      -7.388 -84.949   2.046  1.00  0.00    -0.179 N 
ATOM      9  H5  UNL     1      -7.650 -84.848   3.027  1.00  0.00     0.185 HD
ENDROOT
BRANCH   1  10
HETATM   10  N2  UNL     1      -5.724 -83.451   2.352  1.00  0.00    -0.226 N 
ATOM     11  H2  UNL     1      -4.779 -83.673   2.667  1.00  0.00     0.177 HD
BRANCH  10  12
HETATM   12  C3  UNL     1      -6.389 -82.227   2.789  1.00  0.00     0.139 C 
BRANCH  12  13
HETATM   13  C2  UNL     1      -6.097 -82.080   4.274  1.00  0.00     0.047 C 
BRANCH  13  14
HETATM   14  C1  UNL     1      -7.112 -82.929   5.008  1.00  0.00     0.231 C 
BRANCH  14  15
HETATM   15  N1  UNL     1      -6.498 -84.065   5.665  1.00  0.00    -0.079 N 
ATOM     16  H13 UNL     1      -6.420 -84.861   5.033  1.00  0.00     0.274 HD
ATOM     17  H12 UNL     1      -5.506 -83.899   5.839  1.00  0.00     0.274 HD
ATOM     18  H11 UNL     1      -6.987 -84.321   6.523  1.00  0.00     0.274 HD
ENDBRANCH  14  15
ENDBRANCH  13  14
ENDBRANCH  12  13
ENDBRANCH  10  12
ENDBRANCH   1  10
TORSDOF 5
ENDMDL
MODEL 5
REMARK VINA RESULT: -5.006579053      1.744      2.167
REMARK  5 active torsions:
REMARK  status: ('A' for Active; 'I' for Inactive)
REMARK    1  A    between atoms: N1_1  and  C1_5 
REMARK    2  A    between atoms: C1_5  and  C2_6 
REMARK    3  A    between atoms: C2_6  and  C3_7 
REMARK    4  A    between atoms: C3_7  and  N2_8 
REMARK    5  A    between atoms: N2_8  and  C4_10 
ROOT
HETATM    1  C4  UNL     1      -6.602 -84.324   0.941  1.00  0.00     0.679 A 
HETATM    2  N3  UNL     1      -5.962 -84.870  -0.100  1.00  0.00    -0.202 N 
ATOM      3  H3  UNL     1      -4.948 -84.767  -0.146  1.00  0.00     0.183 HD
HETATM    4  C5  UNL     1      -6.573 -85.542  -1.085  1.00  0.00     0.109 A 
HETATM    5  C6  UNL     1      -7.940 -85.695  -1.050  1.00  0.00     0.063 A 
HETATM    6  C7  UNL     1      -8.597 -85.119   0.044  1.00  0.00     0.133 A 
HETATM    7  N4  UNL     1     -10.005 -85.263   0.104  1.00  0.00    -0.082 NA
HETATM    8  N5  UNL     1      -7.931 -84.456   1.004  1.00  0.00    -0.179 N 
ATOM      9  H5  UNL     1      -8.443 -84.050   1.787  1.00  0.00     0.185 HD
ENDROOT
BRANCH   1  10
HETATM   10  N2  UNL     1      -6.000 -83.680   1.884  1.00  0.00    -0.226 N 
ATOM     11  H2  UNL     1      -5.118 -84.019   2.269  1.00  0.00     0.177 HD
BRANCH  10  12
HETATM   12  C3  UNL     1      -6.612 -82.454   2.387  1.00  0.00     0.139 C 
BRANCH  12  13
HETATM   13  C2  UNL     1      -6.250 -82.361   3.861  1.00  0.00     0.047 C 
BRANCH  13  14
HETATM   14  C1  UNL     1      -5.386 -81.129   4.025  1.00  0.00     0.231 C 
BRANCH  14  15
HETATM   15  N1  UNL     1      -6.076 -79.923   3.617  1.00  0.00    -0.079 N 
ATOM     16  H13 UNL     1      -6.994 -80.135   3.227  1.00  0.00     0.274 HD
ATOM     17  H12 UNL     1      -6.367 -79.372   4.425  1.00  0.00     0.274 HD
ATOM     18  H11 UNL     1      -5.520 -79.364   2.969  1.00  0.00     0.274 HD
ENDBRANCH  14  15
ENDBRANCH  13  14
ENDBRANCH  12  13
ENDBRANCH  10  12
ENDBRANCH   1  10
TORSDOF 5
ENDMDL
