MODEL 1
REMARK VINA RESULT: -5.005448104      0.000      0.000
REMARK  5 active torsions:
REMARK  status: ('A' for Active; 'I' for Inactive)
REMARK    1  A    between atoms: N1_1  and  O1_4 
REMARK    2  A    between atoms: O1_4  and  C1_5 
REMARK    3  A    between atoms: C1_5  and  C2_6 
REMARK    4  A    between atoms: C2_6  and  N2_7 
REMARK    5  A    between atoms: N2_7  and  C3_9 
ROOT
HETATM    1  C3  UNL     1      -6.808 -84.369   1.163  1.00  0.00     0.177 C 
HETATM    2  C4  UNL     1      -7.642 -85.419   1.812  1.00  0.00     0.048 C 
HETATM    3  C5  UNL     1      -8.317 -86.376   0.918  1.00  0.00     0.023 C 
HETATM    4  C6  UNL     1      -8.916 -85.800  -0.332  1.00  0.00     0.120 C 
HETATM    5  N3  UNL     1      -7.926 -85.484  -1.342  1.00  0.00    -0.386 N 
ATOM      6  H3  UNL     1      -8.242 -85.380  -2.307  1.00  0.00     0.160 HD
HETATM    7  C7  UNL     1      -6.520 -85.307  -1.069  1.00  0.00     0.173 C 
HETATM    8  N4  UNL     1      -6.032 -84.818   0.027  1.00  0.00    -0.365 N 
ATOM      9  H4  UNL     1      -5.017 -84.744   0.095  1.00  0.00     0.162 HD
ENDROOT
BRANCH   1  10
HETATM   10  N2  UNL     1      -5.912 -83.834   2.151  1.00  0.00    -0.399 N 
ATOM     11  H2  UNL     1      -5.065 -84.324   2.437  1.00  0.00     0.155 HD
BRANCH  10  12
HETATM   12  C2  UNL     1      -6.284 -82.575   2.705  1.00  0.00     0.144 C 
BRANCH  12  13
HETATM   13  C1  UNL     1      -6.712 -82.760   4.135  1.00  0.00     0.219 C 
BRANCH  13  14
HETATM   14  O1  UNL     1      -8.097 -82.820   4.298  1.00  0.00    -0.286 OA
BRANCH  14  15
HETATM   15  N1  UNL     1      -8.433 -81.784   5.115  1.00  0.00    -0.311 N 
ATOM     16  H12 UNL     1      -8.426 -81.798   6.136  1.00  0.00     0.184 HD
ATOM     17  H11 UNL     1      -8.689 -81.007   4.505  1.00  0.00     0.184 HD
ENDBRANCH  14  15
ENDBRANCH  13  14
ENDBRANCH  12  13
ENDBRANCH  10  12
ENDBRANCH   1  10
TORSDOF 5
ENDMDL
MODEL 2
REMARK VINA RESULT: -4.921433433      1.441      1.441
REMARK  5 active torsions:
REMARK  status: ('A' for Active; 'I' for Inactive)
REMARK    1  A    between atoms: N1_1  and  O1_4 
REMARK    2  A    between atoms: O1_4  and  C1_5 
REMARK    3  A    between atoms: C1_5  and  C2_6 
REMARK    4  A    between atoms: C2_6  and  N2_7 
REMARK    5  A    between atoms: N2_7  and  C3_9 
ROOT
HETATM    1  C3  UNL     1      -6.809 -84.340   1.249  1.00  0.00     0.177 C 
HETATM    2  C4  UNL     1      -7.631 -85.408   1.885  1.00  0.00     0.048 C 
HETATM    3  C5  UNL     1      -8.265 -86.383   0.982  1.00  0.00     0.023 C 
HETATM    4  C6  UNL     1      -8.853 -85.826  -0.282  1.00  0.00     0.120 C 
HETATM    5  N3  UNL     1      -7.850 -85.489  -1.273  1.00  0.00    -0.386 N 
ATOM      6  H3  UNL     1      -8.150 -85.395  -2.244  1.00  0.00     0.160 HD
HETATM    7  C7  UNL     1      -6.454 -85.278  -0.973  1.00  0.00     0.173 C 
HETATM    8  N4  UNL     1      -6.000 -84.775   0.130  1.00  0.00    -0.365 N 
ATOM      9  H4  UNL     1      -4.989 -84.677   0.218  1.00  0.00     0.162 HD
ENDROOT
BRANCH   1  10
HETATM   10  N2  UNL     1      -5.945 -83.782   2.253  1.00  0.00    -0.399 N 
ATOM     11  H2  UNL     1      -5.139 -84.288   2.617  1.00  0.00     0.155 HD
BRANCH  10  12
HETATM   12  C2  UNL     1      -6.288 -82.475   2.706  1.00  0.00     0.144 C 
BRANCH  12  13
HETATM   13  C1  UNL     1      -6.364 -82.465   4.208  1.00  0.00     0.219 C 
BRANCH  13  14
HETATM   14  O1  UNL     1      -5.731 -81.365   4.789  1.00  0.00    -0.286 OA
BRANCH  14  15
HETATM   15  N1  UNL     1      -4.455 -81.360   4.311  1.00  0.00    -0.311 N 
ATOM     16  H12 UNL     1      -3.631 -81.015   4.804  1.00  0.00     0.184 HD
ATOM     17  H11 UNL     1      -4.496 -81.765   3.375  1.00  0.00     0.184 HD
ENDBRANCH  14  15
ENDBRANCH  13  14
ENDBRANCH  12  13
ENDBRANCH  10  12
ENDBRANCH   1  10
TORSDOF 5
ENDMDL
MODEL 3
REMARK VINA RESULT: -4.790084921      2.436      6.174
REMARK  5 active torsions:
REMARK  status: ('A' for Active; 'I' for Inactive)
REMARK    1  A    between atoms: N1_1  and  O1_4 
REMARK    2  A    between atoms: O1_4  and  C1_5 
REMARK    3  A    between atoms: C1_5  and  C2_6 
REMARK    4  A    between atoms: C2_6  and  N2_7 
REMARK    5  A    between atoms: N2_7  and  C3_9 
ROOT
HETATM    1  C3  UNL     1      -6.092 -82.030   4.103  1.00  0.00     0.177 C 
HETATM    2  C4  UNL     1      -5.118 -80.987   4.527  1.00  0.00     0.048 C 
HETATM    3  C5  UNL     1      -5.206 -80.526   5.923  1.00  0.00     0.023 C 
HETATM    4  C6  UNL     1      -6.590 -80.331   6.467  1.00  0.00     0.120 C 
HETATM    5  N3  UNL     1      -7.255 -81.579   6.788  1.00  0.00    -0.386 N 
ATOM      6  H3  UNL     1      -8.050 -81.548   7.426  1.00  0.00     0.160 HD
HETATM    7  C7  UNL     1      -6.861 -82.864   6.260  1.00  0.00     0.173 C 
HETATM    8  N4  UNL     1      -6.353 -83.060   5.086  1.00  0.00    -0.365 N 
ATOM      9  H4  UNL     1      -6.118 -84.019   4.832  1.00  0.00     0.162 HD
ENDROOT
BRANCH   1  10
HETATM   10  N2  UNL     1      -5.592 -82.651   2.907  1.00  0.00    -0.399 N 
ATOM     11  H2  UNL     1      -4.613 -82.919   2.803  1.00  0.00     0.155 HD
BRANCH  10  12
HETATM   12  C2  UNL     1      -6.551 -82.868   1.875  1.00  0.00     0.144 C 
BRANCH  12  13
HETATM   13  C1  UNL     1      -6.384 -84.254   1.314  1.00  0.00     0.219 C 
BRANCH  13  14
HETATM   14  O1  UNL     1      -5.112 -84.492   0.792  1.00  0.00    -0.286 OA
BRANCH  14  15
HETATM   15  N1  UNL     1      -5.300 -85.021  -0.449  1.00  0.00    -0.311 N 
ATOM     16  H12 UNL     1      -5.163 -85.998  -0.712  1.00  0.00     0.184 HD
ATOM     17  H11 UNL     1      -5.599 -84.252  -1.048  1.00  0.00     0.184 HD
ENDBRANCH  14  15
ENDBRANCH  13  14
ENDBRANCH  12  13
ENDBRANCH  10  12
ENDBRANCH   1  10
TORSDOF 5
ENDMDL
MODEL 4
REMARK VINA RESULT: -4.722213945      2.194      5.770
REMARK  5 active torsions:
REMARK  status: ('A' for Active; 'I' for Inactive)
REMARK    1  A    between atoms: N1_1  and  O1_4 
REMARK    2  A    between atoms: O1_4  and  C1_5 
REMARK    3  A    between atoms: C1_5  and  C2_6 
REMARK    4  A    between atoms: C2_6  and  N2_7 
REMARK    5  A    between atoms: N2_7  and  C3_9 
ROOT
HETATM    1  C3  UNL     1      -6.090 -82.275   3.724  1.00  0.00     0.177 C 
HETATM    2  C4  UNL     1      -5.105 -81.202   4.033  1.00  0.00     0.048 C 
HETATM    3  C5  UNL     1      -5.198 -80.579   5.364  1.00  0.00     0.023 C 
HETATM    4  C6  UNL     1      -6.585 -80.302   5.866  1.00  0.00     0.120 C 
HETATM    5  N3  UNL     1      -7.270 -81.495   6.325  1.00  0.00    -0.386 N 
ATOM      6  H3  UNL     1      -8.071 -81.377   6.946  1.00  0.00     0.160 HD
HETATM    7  C7  UNL     1      -6.891 -82.838   5.956  1.00  0.00     0.173 C 
HETATM    8  N4  UNL     1      -6.375 -83.178   4.819  1.00  0.00    -0.365 N 
ATOM      9  H4  UNL     1      -6.152 -84.163   4.682  1.00  0.00     0.162 HD
ENDROOT
BRANCH   1  10
HETATM   10  N2  UNL     1      -5.588 -83.039   2.615  1.00  0.00    -0.399 N 
ATOM     11  H2  UNL     1      -4.704 -82.816   2.158  1.00  0.00     0.155 HD
BRANCH  10  12
HETATM   12  C2  UNL     1      -6.405 -84.129   2.196  1.00  0.00     0.144 C 
BRANCH  12  13
HETATM   13  C1  UNL     1      -7.166 -83.742   0.958  1.00  0.00     0.219 C 
BRANCH  13  14
HETATM   14  O1  UNL     1      -8.487 -84.192   0.955  1.00  0.00    -0.286 OA
BRANCH  14  15
HETATM   15  N1  UNL     1      -8.792 -84.481  -0.341  1.00  0.00    -0.311 N 
ATOM     16  H12 UNL     1      -9.070 -83.809  -1.057  1.00  0.00     0.184 HD
ATOM     17  H11 UNL     1      -8.687 -85.491  -0.443  1.00  0.00     0.184 HD
ENDBRANCH  14  15
ENDBRANCH  13  14
ENDBRANCH  12  13
ENDBRANCH  10  12
ENDBRANCH   1  10
TORSDOF 5
ENDMDL
MODEL 5
REMARK VINA RESULT: -4.698529668      2.730      6.051
REMARK  5 active torsions:
REMARK  status: ('A' for Active; 'I' for Inactive)
REMARK    1  A    between atoms: N1_1  and  O1_4 
REMARK    2  A    between atoms: O1_4  and  C1_5 
REMARK    3  A    between atoms: C1_5  and  C2_6 
REMARK    4  A    between atoms: C2_6  and  N2_7 
REMARK    5  A    between atoms: N2_7  and  C3_9 
ROOT
HETATM    1  C3  UNL     1      -6.495 -82.008   4.066  1.00  0.00     0.177 C 
HETATM    2  C4  UNL     1      -7.110 -81.858   5.415  1.00  0.00     0.048 C 
HETATM    3  C5  UNL     1      -6.630 -80.737   6.241  1.00  0.00     0.023 C 
HETATM    4  C6  UNL     1      -5.152 -80.479   6.207  1.00  0.00     0.120 C 
HETATM    5  N3  UNL     1      -4.718 -79.826   4.987  1.00  0.00    -0.386 N 
ATOM      6  H3  UNL     1      -3.817 -79.348   4.995  1.00  0.00     0.160 HD
HETATM    7  C7  UNL     1      -5.481 -79.812   3.762  1.00  0.00     0.173 C 
HETATM    8  N4  UNL     1      -6.258 -80.767   3.360  1.00  0.00    -0.365 N 
ATOM      9  H4  UNL     1      -6.741 -80.634   2.472  1.00  0.00     0.162 HD
ENDROOT
BRANCH   1  10
HETATM   10  N2  UNL     1      -7.360 -82.833   3.269  1.00  0.00    -0.399 N 
ATOM     11  H2  UNL     1      -8.331 -82.581   3.083  1.00  0.00     0.155 HD
BRANCH  10  12
HETATM   12  C2  UNL     1      -6.774 -84.027   2.755  1.00  0.00     0.144 C 
BRANCH  12  13
HETATM   13  C1  UNL     1      -6.418 -83.831   1.307  1.00  0.00     0.219 C 
BRANCH  13  14
HETATM   14  O1  UNL     1      -5.195 -84.403   0.953  1.00  0.00    -0.286 OA
BRANCH  14  15
HETATM   15  N1  UNL     1      -5.359 -84.919  -0.297  1.00  0.00    -0.311 N 
ATOM     16  H12 UNL     1      -4.945 -84.555  -1.156  1.00  0.00     0.184 HD
ATOM     17  H11 UNL     1      -5.971 -85.729  -0.196  1.00  0.00     0.184 HD
ENDBRANCH  14  15
ENDBRANCH  13  14
ENDBRANCH  12  13
ENDBRANCH  10  12
ENDBRANCH   1  10
TORSDOF 5
ENDMDL
