MODEL 1
REMARK VINA RESULT: -4.903871477      0.000      0.000
REMARK  5 active torsions:
REMARK  status: ('A' for Active; 'I' for Inactive)
REMARK    1  A    between atoms: N1_1  and  C1_4 
REMARK    2  A    between atoms: C4_7  and  N2_8 
REMARK    3  A    between atoms: N2_8  and  C5_10 
REMARK    4  A    between atoms: C5_10  and  C6_11 
REMARK    5  A    between atoms: C6_11  and  N3_12 
ROOT
HETATM    1  C1  UNL     1      47.701 -29.010   2.010  1.00  0.00     0.104 A 
HETATM    2  C2  UNL     1      47.828 -28.686   0.697  1.00  0.00     0.051 A 
HETATM    3  C3  UNL     1      47.049 -29.125  -0.348  1.00  0.00     0.042 A 
HETATM    4  C4  UNL     1      45.994 -29.989  -0.185  1.00  0.00     0.086 A 
HETATM    5  S1  UNL     1      45.697 -30.495   1.400  1.00  0.00     0.005 SA
HETATM    6  N4  UNL     1      46.760 -29.845   2.528  1.00  0.00    -0.311 N 
ATOM      7  H4  UNL     1      46.704 -30.060   3.523  1.00  0.00     0.176 HD
ENDROOT
BRANCH   4   8
HETATM    8  N2  UNL     1      45.306 -30.363  -1.188  1.00  0.00    -0.382 N 
ATOM      9  H2  UNL     1      44.531 -31.017  -1.079  1.00  0.00     0.160 HD
BRANCH   8  10
HETATM   10  C5  UNL     1      45.658 -29.832  -2.494  1.00  0.00     0.147 C 
BRANCH  10  11
HETATM   11  C6  UNL     1      44.426 -29.483  -3.295  1.00  0.00     0.249 C 
BRANCH  11  12
HETATM   12  N3  UNL     1      44.299 -28.044  -3.312  1.00  0.00    -0.078 N 
ATOM     13  H33 UNL     1      44.964 -27.597  -3.944  1.00  0.00     0.274 HD
ATOM     14  H32 UNL     1      43.444 -27.728  -3.769  1.00  0.00     0.274 HD
ATOM     15  H31 UNL     1      44.382 -27.711  -2.352  1.00  0.00     0.274 HD
ENDBRANCH  11  12
ENDBRANCH  10  11
ENDBRANCH   8  10
ENDBRANCH   4   8
BRANCH   1  16
HETATM   16  N1  UNL     1      48.520 -28.515   2.913  1.00  0.00    -0.385 N 
ATOM     17  H12 UNL     1      49.319 -29.117   3.113  1.00  0.00     0.157 HD
ATOM     18  H11 UNL     1      48.338 -27.610   3.348  1.00  0.00     0.157 HD
ENDBRANCH   1  16
TORSDOF 5
ENDMDL
MODEL 2
REMARK VINA RESULT: -4.764832039      6.499      8.436
REMARK  5 active torsions:
REMARK  status: ('A' for Active; 'I' for Inactive)
REMARK    1  A    between atoms: N1_1  and  C1_4 
REMARK    2  A    between atoms: C4_7  and  N2_8 
REMARK    3  A    between atoms: N2_8  and  C5_10 
REMARK    4  A    between atoms: C5_10  and  C6_11 
REMARK    5  A    between atoms: C6_11  and  N3_12 
ROOT
HETATM    1  C1  UNL     1      45.581 -21.634  -5.657  1.00  0.00     0.104 A 
HETATM    2  C2  UNL     1      45.550 -21.728  -4.302  1.00  0.00     0.051 A 
HETATM    3  C3  UNL     1      44.979 -22.728  -3.550  1.00  0.00     0.042 A 
HETATM    4  C4  UNL     1      44.335 -23.808  -4.103  1.00  0.00     0.086 A 
HETATM    5  S1  UNL     1      44.282 -23.844  -5.792  1.00  0.00     0.005 SA
HETATM    6  N4  UNL     1      45.037 -22.533  -6.521  1.00  0.00    -0.311 N 
ATOM      7  H4  UNL     1      45.084 -22.419  -7.534  1.00  0.00     0.176 HD
ENDROOT
BRANCH   4   8
HETATM    8  N2  UNL     1      43.823 -24.704  -3.359  1.00  0.00    -0.382 N 
ATOM      9  H2  UNL     1      44.352 -25.113  -2.589  1.00  0.00     0.160 HD
BRANCH   8  10
HETATM   10  C5  UNL     1      42.462 -25.128  -3.640  1.00  0.00     0.147 C 
BRANCH  10  11
HETATM   11  C6  UNL     1      42.287 -26.609  -3.397  1.00  0.00     0.249 C 
BRANCH  11  12
HETATM   12  N3  UNL     1      43.597 -27.219  -3.411  1.00  0.00    -0.078 N 
ATOM     13  H33 UNL     1      44.342 -26.558  -3.194  1.00  0.00     0.274 HD
ATOM     14  H32 UNL     1      43.745 -27.853  -2.627  1.00  0.00     0.274 HD
ATOM     15  H31 UNL     1      43.722 -27.672  -4.315  1.00  0.00     0.274 HD
ENDBRANCH  11  12
ENDBRANCH  10  11
ENDBRANCH   8  10
ENDBRANCH   4   8
BRANCH   1  16
HETATM   16  N1  UNL     1      46.166 -20.617  -6.253  1.00  0.00    -0.385 N 
ATOM     17  H12 UNL     1      46.021 -19.726  -5.777  1.00  0.00     0.157 HD
ATOM     18  H11 UNL     1      46.706 -20.749  -7.109  1.00  0.00     0.157 HD
ENDBRANCH   1  16
TORSDOF 5
ENDMDL
MODEL 3
REMARK VINA RESULT: -4.727268425      7.108      8.570
REMARK  5 active torsions:
REMARK  status: ('A' for Active; 'I' for Inactive)
REMARK    1  A    between atoms: N1_1  and  C1_4 
REMARK    2  A    between atoms: C4_7  and  N2_8 
REMARK    3  A    between atoms: N2_8  and  C5_10 
REMARK    4  A    between atoms: C5_10  and  C6_11 
REMARK    5  A    between atoms: C6_11  and  N3_12 
ROOT
HETATM    1  C1  UNL     1      45.597 -21.613  -5.637  1.00  0.00     0.104 A 
HETATM    2  C2  UNL     1      45.575 -21.718  -4.282  1.00  0.00     0.051 A 
HETATM    3  C3  UNL     1      44.996 -22.717  -3.535  1.00  0.00     0.042 A 
HETATM    4  C4  UNL     1      44.335 -23.784  -4.093  1.00  0.00     0.086 A 
HETATM    5  S1  UNL     1      44.270 -23.806  -5.782  1.00  0.00     0.005 SA
HETATM    6  N4  UNL     1      45.037 -22.497  -6.505  1.00  0.00    -0.311 N 
ATOM      7  H4  UNL     1      45.078 -22.376  -7.517  1.00  0.00     0.176 HD
ENDROOT
BRANCH   4   8
HETATM    8  N2  UNL     1      43.817 -24.681  -3.353  1.00  0.00    -0.382 N 
ATOM      9  H2  UNL     1      44.083 -24.771  -2.372  1.00  0.00     0.160 HD
BRANCH   8  10
HETATM   10  C5  UNL     1      42.836 -25.572  -3.947  1.00  0.00     0.147 C 
BRANCH  10  11
HETATM   11  C6  UNL     1      41.635 -25.746  -3.047  1.00  0.00     0.249 C 
BRANCH  11  12
HETATM   12  N3  UNL     1      40.458 -25.382  -3.802  1.00  0.00    -0.078 N 
ATOM     13  H33 UNL     1      39.606 -25.414  -3.243  1.00  0.00     0.274 HD
ATOM     14  H32 UNL     1      40.430 -24.390  -4.036  1.00  0.00     0.274 HD
ATOM     15  H31 UNL     1      40.414 -25.984  -4.623  1.00  0.00     0.274 HD
ENDBRANCH  11  12
ENDBRANCH  10  11
ENDBRANCH   8  10
ENDBRANCH   4   8
BRANCH   1  16
HETATM   16  N1  UNL     1      46.190 -20.598  -6.228  1.00  0.00    -0.385 N 
ATOM     17  H12 UNL     1      45.780 -19.693  -5.996  1.00  0.00     0.157 HD
ATOM     18  H11 UNL     1      46.985 -20.744  -6.851  1.00  0.00     0.157 HD
ENDBRANCH   1  16
TORSDOF 5
ENDMDL
MODEL 4
REMARK VINA RESULT: -4.530719920      6.175      7.626
REMARK  5 active torsions:
REMARK  status: ('A' for Active; 'I' for Inactive)
REMARK    1  A    between atoms: N1_1  and  C1_4 
REMARK    2  A    between atoms: C4_7  and  N2_8 
REMARK    3  A    between atoms: N2_8  and  C5_10 
REMARK    4  A    between atoms: C5_10  and  C6_11 
REMARK    5  A    between atoms: C6_11  and  N3_12 
ROOT
HETATM    1  C1  UNL     1      42.075 -26.695  -3.109  1.00  0.00     0.104 A 
HETATM    2  C2  UNL     1      41.722 -25.451  -3.527  1.00  0.00     0.051 A 
HETATM    3  C3  UNL     1      42.455 -24.603  -4.324  1.00  0.00     0.042 A 
HETATM    4  C4  UNL     1      43.696 -24.923  -4.819  1.00  0.00     0.086 A 
HETATM    5  S1  UNL     1      44.287 -26.447  -4.388  1.00  0.00     0.005 SA
HETATM    6  N4  UNL     1      43.241 -27.327  -3.412  1.00  0.00    -0.311 N 
ATOM      7  H4  UNL     1      43.462 -28.263  -3.072  1.00  0.00     0.176 HD
ENDROOT
BRANCH   4   8
HETATM    8  N2  UNL     1      44.331 -24.099  -5.551  1.00  0.00    -0.382 N 
ATOM      9  H2  UNL     1      43.957 -23.801  -6.453  1.00  0.00     0.160 HD
BRANCH   8  10
HETATM   10  C5  UNL     1      45.604 -23.594  -5.066  1.00  0.00     0.147 C 
BRANCH  10  11
HETATM   11  C6  UNL     1      45.473 -22.183  -4.544  1.00  0.00     0.249 C 
BRANCH  11  12
HETATM   12  N3  UNL     1      45.673 -21.280  -5.654  1.00  0.00    -0.078 N 
ATOM     13  H33 UNL     1      45.190 -21.581  -6.500  1.00  0.00     0.274 HD
ATOM     14  H32 UNL     1      45.190 -20.390  -5.531  1.00  0.00     0.274 HD
ATOM     15  H31 UNL     1      46.677 -21.169  -5.791  1.00  0.00     0.274 HD
ENDBRANCH  11  12
ENDBRANCH  10  11
ENDBRANCH   8  10
ENDBRANCH   4   8
BRANCH   1  16
HETATM   16  N1  UNL     1      41.274 -27.405  -2.343  1.00  0.00    -0.385 N 
ATOM     17  H12 UNL     1      41.329 -28.409  -2.515  1.00  0.00     0.157 HD
ATOM     18  H11 UNL     1      40.671 -26.955  -1.653  1.00  0.00     0.157 HD
ENDBRANCH   1  16
TORSDOF 5
ENDMDL
MODEL 5
REMARK VINA RESULT: -4.495447960      6.095      7.308
REMARK  5 active torsions:
REMARK  status: ('A' for Active; 'I' for Inactive)
REMARK    1  A    between atoms: N1_1  and  C1_4 
REMARK    2  A    between atoms: C4_7  and  N2_8 
REMARK    3  A    between atoms: N2_8  and  C5_10 
REMARK    4  A    between atoms: C5_10  and  C6_11 
REMARK    5  A    between atoms: C6_11  and  N3_12 
ROOT
HETATM    1  C1  UNL     1      42.100 -26.596  -2.982  1.00  0.00     0.104 A 
HETATM    2  C2  UNL     1      42.201 -25.302  -3.384  1.00  0.00     0.051 A 
HETATM    3  C3  UNL     1      43.205 -24.741  -4.138  1.00  0.00     0.042 A 
HETATM    4  C4  UNL     1      44.284 -25.454  -4.599  1.00  0.00     0.086 A 
HETATM    5  S1  UNL     1      44.313 -27.093  -4.184  1.00  0.00     0.005 SA
HETATM    6  N4  UNL     1      42.997 -27.580  -3.261  1.00  0.00    -0.311 N 
ATOM      7  H4  UNL     1      42.879 -28.540  -2.936  1.00  0.00     0.176 HD
ENDROOT
BRANCH   4   8
HETATM    8  N2  UNL     1      45.186 -24.884  -5.293  1.00  0.00    -0.382 N 
ATOM      9  H2  UNL     1      45.724 -25.405  -5.985  1.00  0.00     0.160 HD
BRANCH   8  10
HETATM   10  C5  UNL     1      45.425 -23.468  -5.069  1.00  0.00     0.147 C 
BRANCH  10  11
HETATM   11  C6  UNL     1      45.749 -22.755  -6.361  1.00  0.00     0.249 C 
BRANCH  11  12
HETATM   12  N3  UNL     1      44.625 -22.921  -7.253  1.00  0.00    -0.078 N 
ATOM     13  H33 UNL     1      44.527 -22.149  -7.912  1.00  0.00     0.274 HD
ATOM     14  H32 UNL     1      44.769 -23.665  -7.935  1.00  0.00     0.274 HD
ATOM     15  H31 UNL     1      43.791 -23.063  -6.684  1.00  0.00     0.274 HD
ENDBRANCH  11  12
ENDBRANCH  10  11
ENDBRANCH   8  10
ENDBRANCH   4   8
BRANCH   1  16
HETATM   16  N1  UNL     1      41.079 -27.004  -2.258  1.00  0.00    -0.385 N 
ATOM     17  H12 UNL     1      40.828 -27.979  -2.419  1.00  0.00     0.157 HD
ATOM     18  H11 UNL     1      40.610 -26.372  -1.607  1.00  0.00     0.157 HD
ENDBRANCH   1  16
TORSDOF 5
ENDMDL
