MODEL 1
REMARK VINA RESULT: -5.486954280      0.000      0.000
REMARK  4 active torsions:
REMARK  status: ('A' for Active; 'I' for Inactive)
REMARK    1  A    between atoms: C2_3  and  C3_4 
REMARK    2  A    between atoms: C3_4  and  C4_5 
REMARK    3  A    between atoms: C4_5  and  N2_6 
REMARK    4  A    between atoms: C5_9  and  N4_10 
ROOT
HETATM    1  N1  UNL     1      44.975 -22.466  -2.631  1.00  0.00    -0.197 NA
HETATM    2  C1  UNL     1      44.996 -22.580  -3.790  1.00  0.00     0.059 C 
HETATM    3  C2  UNL     1      45.025 -22.748  -5.245  1.00  0.00     0.125 C 
ENDROOT
BRANCH   3   4
HETATM    4  C3  UNL     1      44.095 -23.888  -5.667  1.00  0.00     0.036 C 
BRANCH   4   5
HETATM    5  C4  UNL     1      44.419 -25.156  -4.940  1.00  0.00     0.169 C 
BRANCH   5   6
HETATM    6  N2  UNL     1      43.240 -25.700  -4.321  1.00  0.00    -0.109 N 
HETATM    7  N3  UNL     1      42.041 -25.180  -4.321  1.00  0.00    -0.115 N 
HETATM    8  C5  UNL     1      41.234 -26.005  -3.630  1.00  0.00     0.705 A 
ATOM      9  H3  UNL     1      41.766 -24.305  -4.767  1.00  0.00     0.206 HD
HETATM   10  N5  UNL     1      41.960 -27.050  -3.200  1.00  0.00    -0.020 N 
HETATM   11  C6  UNL     1      43.221 -26.866  -3.630  1.00  0.00     0.707 A 
ATOM     12  H5  UNL     1      41.619 -27.837  -2.648  1.00  0.00     0.203 HD
HETATM   13  N6  UNL     1      44.213 -27.642  -3.427  1.00  0.00    -0.233 N 
ATOM     14  H62 UNL     1      45.169 -27.503  -3.753  1.00  0.00     0.174 HD
ATOM     15  H61 UNL     1      44.199 -28.520  -2.907  1.00  0.00     0.174 HD
BRANCH   8  16
HETATM   16  N4  UNL     1      39.961 -25.800  -3.425  1.00  0.00    -0.233 N 
ATOM     17  H42 UNL     1      39.323 -25.272  -4.021  1.00  0.00     0.174 HD
ATOM     18  H41 UNL     1      39.437 -26.152  -2.623  1.00  0.00     0.174 HD
ENDBRANCH   8  16
ENDBRANCH   5   6
ENDBRANCH   4   5
ENDBRANCH   3   4
TORSDOF 4
ENDMDL
MODEL 2
REMARK VINA RESULT: -5.356779281      0.888      2.337
REMARK  4 active torsions:
REMARK  status: ('A' for Active; 'I' for Inactive)
REMARK    1  A    between atoms: C2_3  and  C3_4 
REMARK    2  A    between atoms: C3_4  and  C4_5 
REMARK    3  A    between atoms: C4_5  and  N2_6 
REMARK    4  A    between atoms: C5_9  and  N4_10 
ROOT
HETATM    1  N1  UNL     1      44.989 -22.437  -2.691  1.00  0.00    -0.197 NA
HETATM    2  C1  UNL     1      45.180 -22.488  -3.838  1.00  0.00     0.059 C 
HETATM    3  C2  UNL     1      45.430 -22.574  -5.280  1.00  0.00     0.125 C 
ENDROOT
BRANCH   3   4
HETATM    4  C3  UNL     1      44.979 -23.933  -5.818  1.00  0.00     0.036 C 
BRANCH   4   5
HETATM    5  C4  UNL     1      43.570 -24.240  -5.416  1.00  0.00     0.169 C 
BRANCH   5   6
HETATM    6  N2  UNL     1      43.516 -25.451  -4.641  1.00  0.00    -0.109 N 
HETATM    7  N3  UNL     1      44.485 -26.308  -4.455  1.00  0.00    -0.115 N 
HETATM    8  C5  UNL     1      44.016 -27.297  -3.673  1.00  0.00     0.705 A 
ATOM      9  H3  UNL     1      45.429 -26.239  -4.835  1.00  0.00     0.206 HD
HETATM   10  N5  UNL     1      42.733 -27.034  -3.377  1.00  0.00    -0.020 N 
HETATM   11  C6  UNL     1      42.412 -25.876  -3.981  1.00  0.00     0.707 A 
ATOM     12  H5  UNL     1      42.116 -27.606  -2.801  1.00  0.00     0.203 HD
HETATM   13  N6  UNL     1      41.280 -25.288  -3.941  1.00  0.00    -0.233 N 
ATOM     14  H62 UNL     1      41.037 -24.409  -4.399  1.00  0.00     0.174 HD
ATOM     15  H61 UNL     1      40.449 -25.607  -3.444  1.00  0.00     0.174 HD
BRANCH   8  16
HETATM   16  N4  UNL     1      44.714 -28.329  -3.281  1.00  0.00    -0.233 N 
ATOM     17  H42 UNL     1      45.330 -28.378  -2.470  1.00  0.00     0.174 HD
ATOM     18  H41 UNL     1      44.727 -29.234  -3.752  1.00  0.00     0.174 HD
ENDBRANCH   8  16
ENDBRANCH   5   6
ENDBRANCH   4   5
ENDBRANCH   3   4
TORSDOF 4
ENDMDL
MODEL 3
REMARK VINA RESULT: -5.321254531      1.935      2.183
REMARK  4 active torsions:
REMARK  status: ('A' for Active; 'I' for Inactive)
REMARK    1  A    between atoms: C2_3  and  C3_4 
REMARK    2  A    between atoms: C3_4  and  C4_5 
REMARK    3  A    between atoms: C4_5  and  N2_6 
REMARK    4  A    between atoms: C5_9  and  N4_10 
ROOT
HETATM    1  N1  UNL     1      47.406 -24.743  -6.384  1.00  0.00    -0.197 NA
HETATM    2  C1  UNL     1      46.486 -24.057  -6.580  1.00  0.00     0.059 C 
HETATM    3  C2  UNL     1      45.313 -23.214  -6.829  1.00  0.00     0.125 C 
ENDROOT
BRANCH   3   4
HETATM    4  C3  UNL     1      44.164 -23.615  -5.900  1.00  0.00     0.036 C 
BRANCH   4   5
HETATM    5  C4  UNL     1      44.664 -23.980  -4.538  1.00  0.00     0.169 C 
BRANCH   5   6
HETATM    6  N2  UNL     1      43.889 -25.060  -3.986  1.00  0.00    -0.109 N 
HETATM    7  N3  UNL     1      42.815 -24.959  -3.248  1.00  0.00    -0.115 N 
HETATM    8  C5  UNL     1      42.406 -26.203  -2.944  1.00  0.00     0.705 A 
ATOM      9  H3  UNL     1      42.367 -24.090  -2.957  1.00  0.00     0.206 HD
HETATM   10  N5  UNL     1      43.251 -27.080  -3.510  1.00  0.00    -0.020 N 
HETATM   11  C6  UNL     1      44.184 -26.370  -4.166  1.00  0.00     0.707 A 
ATOM     12  H5  UNL     1      43.195 -28.097  -3.452  1.00  0.00     0.203 HD
HETATM   13  N6  UNL     1      45.166 -26.840  -4.833  1.00  0.00    -0.233 N 
ATOM     14  H62 UNL     1      45.874 -26.301  -5.332  1.00  0.00     0.174 HD
ATOM     15  H61 UNL     1      45.388 -27.826  -4.970  1.00  0.00     0.174 HD
BRANCH   8  16
HETATM   16  N4  UNL     1      41.358 -26.484  -2.217  1.00  0.00    -0.233 N 
ATOM     17  H42 UNL     1      41.244 -26.314  -1.217  1.00  0.00     0.174 HD
ATOM     18  H41 UNL     1      40.505 -26.919  -2.570  1.00  0.00     0.174 HD
ENDBRANCH   8  16
ENDBRANCH   5   6
ENDBRANCH   4   5
ENDBRANCH   3   4
TORSDOF 4
ENDMDL
MODEL 4
REMARK VINA RESULT: -5.302118666      1.722      3.082
REMARK  4 active torsions:
REMARK  status: ('A' for Active; 'I' for Inactive)
REMARK    1  A    between atoms: C2_3  and  C3_4 
REMARK    2  A    between atoms: C3_4  and  C4_5 
REMARK    3  A    between atoms: C4_5  and  N2_6 
REMARK    4  A    between atoms: C5_9  and  N4_10 
ROOT
HETATM    1  N1  UNL     1      44.413 -23.519  -2.978  1.00  0.00    -0.197 NA
HETATM    2  C1  UNL     1      44.036 -24.254  -3.799  1.00  0.00     0.059 C 
HETATM    3  C2  UNL     1      43.580 -25.195  -4.826  1.00  0.00     0.125 C 
ENDROOT
BRANCH   3   4
HETATM    4  C3  UNL     1      43.508 -26.612  -4.254  1.00  0.00     0.036 C 
BRANCH   4   5
HETATM    5  C4  UNL     1      42.183 -27.249  -4.536  1.00  0.00     0.169 C 
BRANCH   5   6
HETATM    6  N2  UNL     1      41.359 -27.248  -3.357  1.00  0.00    -0.109 N 
HETATM    7  N3  UNL     1      41.383 -28.117  -2.381  1.00  0.00    -0.115 N 
HETATM    8  C5  UNL     1      40.454 -27.750  -1.480  1.00  0.00     0.705 A 
ATOM      9  H3  UNL     1      41.998 -28.928  -2.314  1.00  0.00     0.206 HD
HETATM   10  N5  UNL     1      39.853 -26.633  -1.919  1.00  0.00    -0.020 N 
HETATM   11  C6  UNL     1      40.416 -26.311  -3.096  1.00  0.00     0.707 A 
ATOM     12  H5  UNL     1      39.106 -26.123  -1.446  1.00  0.00     0.203 HD
HETATM   13  N6  UNL     1      40.118 -25.312  -3.832  1.00  0.00    -0.233 N 
ATOM     14  H62 UNL     1      40.545 -25.067  -4.725  1.00  0.00     0.174 HD
ATOM     15  H61 UNL     1      39.408 -24.606  -3.637  1.00  0.00     0.174 HD
BRANCH   8  16
HETATM   16  N4  UNL     1      40.200 -28.392  -0.371  1.00  0.00    -0.233 N 
ATOM     17  H42 UNL     1      39.656 -29.249  -0.272  1.00  0.00     0.174 HD
ATOM     18  H41 UNL     1      40.522 -28.105   0.553  1.00  0.00     0.174 HD
ENDBRANCH   8  16
ENDBRANCH   5   6
ENDBRANCH   4   5
ENDBRANCH   3   4
TORSDOF 4
ENDMDL
MODEL 5
REMARK VINA RESULT: -5.290239242      1.675      1.823
REMARK  4 active torsions:
REMARK  status: ('A' for Active; 'I' for Inactive)
REMARK    1  A    between atoms: C2_3  and  C3_4 
REMARK    2  A    between atoms: C3_4  and  C4_5 
REMARK    3  A    between atoms: C4_5  and  N2_6 
REMARK    4  A    between atoms: C5_9  and  N4_10 
ROOT
HETATM    1  N1  UNL     1      47.175 -24.743  -5.926  1.00  0.00    -0.197 NA
HETATM    2  C1  UNL     1      46.143 -24.203  -5.886  1.00  0.00     0.059 C 
HETATM    3  C2  UNL     1      44.835 -23.546  -5.836  1.00  0.00     0.125 C 
ENDROOT
BRANCH   3   4
HETATM    4  C3  UNL     1      43.984 -24.141  -4.712  1.00  0.00     0.036 C 
BRANCH   4   5
HETATM    5  C4  UNL     1      43.093 -25.232  -5.219  1.00  0.00     0.169 C 
BRANCH   5   6
HETATM    6  N2  UNL     1      42.226 -25.705  -4.173  1.00  0.00    -0.109 N 
HETATM    7  N3  UNL     1      41.064 -25.212  -3.832  1.00  0.00    -0.115 N 
HETATM    8  C5  UNL     1      40.589 -25.945  -2.810  1.00  0.00     0.705 A 
ATOM      9  H3  UNL     1      40.601 -24.414  -4.266  1.00  0.00     0.206 HD
HETATM   10  N5  UNL     1      41.483 -26.906  -2.523  1.00  0.00    -0.020 N 
HETATM   11  C6  UNL     1      42.513 -26.762  -3.375  1.00  0.00     0.707 A 
ATOM     12  H5  UNL     1      41.396 -27.614  -1.794  1.00  0.00     0.203 HD
HETATM   13  N6  UNL     1      43.564 -27.484  -3.423  1.00  0.00    -0.233 N 
ATOM     14  H62 UNL     1      44.346 -27.375  -4.070  1.00  0.00     0.174 HD
ATOM     15  H61 UNL     1      43.781 -28.280  -2.823  1.00  0.00     0.174 HD
BRANCH   8  16
HETATM   16  N4  UNL     1      39.446 -25.737  -2.213  1.00  0.00    -0.233 N 
ATOM     17  H42 UNL     1      39.236 -25.005  -1.535  1.00  0.00     0.174 HD
ATOM     18  H41 UNL     1      38.605 -26.295  -2.358  1.00  0.00     0.174 HD
ENDBRANCH   8  16
ENDBRANCH   5   6
ENDBRANCH   4   5
ENDBRANCH   3   4
TORSDOF 4
ENDMDL
