MODEL 1
REMARK VINA RESULT: -4.683909787      0.000      0.000
REMARK  4 active torsions:
REMARK  status: ('A' for Active; 'I' for Inactive)
REMARK    1  A    between atoms: C2_7  and  S1_8 
REMARK    2  A    between atoms: S1_8  and  C3_9 
REMARK    3  A    between atoms: C3_9  and  C4_10 
REMARK    4  A    between atoms: C4_10  and  N3_11 
ROOT
HETATM    1  N1  UNL     1      41.645 -26.374  -2.165  1.00  0.00    -0.233 N 
ATOM      2  H11 UNL     1      40.853 -27.015  -2.214  1.00  0.00     0.174 HD
ATOM      3  H12 UNL     1      41.872 -26.320  -1.172  1.00  0.00     0.174 HD
HETATM    4  C1  UNL     1      42.284 -25.734  -3.084  1.00  0.00     0.692 A 
HETATM    5  N2  UNL     1      43.327 -24.892  -3.020  1.00  0.00    -0.168 N 
ATOM      6  H2  UNL     1      43.800 -24.621  -2.157  1.00  0.00     0.186 HD
HETATM    7  C2  UNL     1      43.665 -24.455  -4.244  1.00  0.00     0.174 A 
HETATM    8  N4  UNL     1      42.814 -25.039  -5.099  1.00  0.00    -0.265 N 
ATOM      9  H4  UNL     1      42.808 -24.911  -6.111  1.00  0.00     0.189 HD
HETATM   10  N5  UNL     1      41.981 -25.807  -4.414  1.00  0.00    -0.130 N 
ATOM     11  H5  UNL     1      41.230 -26.367  -4.817  1.00  0.00     0.205 HD
ENDROOT
BRANCH   7  12
HETATM   12  S1  UNL     1      44.993 -23.307  -4.666  1.00  0.00    -0.090 SA
BRANCH  12  13
HETATM   13  C3  UNL     1      46.133 -24.249  -5.729  1.00  0.00     0.109 C 
BRANCH  13  14
HETATM   14  C4  UNL     1      46.121 -23.645  -7.138  1.00  0.00     0.240 C 
BRANCH  14  15
HETATM   15  N3  UNL     1      44.882 -22.900  -7.245  1.00  0.00    -0.079 N 
ATOM     16  H33 UNL     1      44.053 -23.460  -7.041  1.00  0.00     0.274 HD
ATOM     17  H32 UNL     1      44.753 -22.215  -6.501  1.00  0.00     0.274 HD
ATOM     18  H31 UNL     1      44.877 -22.492  -8.179  1.00  0.00     0.274 HD
ENDBRANCH  14  15
ENDBRANCH  13  14
ENDBRANCH  12  13
ENDBRANCH   7  12
TORSDOF 4
ENDMDL
MODEL 2
REMARK VINA RESULT: -4.681504613      1.419      1.419
REMARK  4 active torsions:
REMARK  status: ('A' for Active; 'I' for Inactive)
REMARK    1  A    between atoms: C2_7  and  S1_8 
REMARK    2  A    between atoms: S1_8  and  C3_9 
REMARK    3  A    between atoms: C3_9  and  C4_10 
REMARK    4  A    between atoms: C4_10  and  N3_11 
ROOT
HETATM    1  N1  UNL     1      41.263 -26.148  -1.805  1.00  0.00    -0.233 N 
ATOM      2  H11 UNL     1      40.358 -26.607  -1.695  1.00  0.00     0.174 HD
ATOM      3  H12 UNL     1      41.608 -26.027  -0.853  1.00  0.00     0.174 HD
HETATM    4  C1  UNL     1      41.907 -25.770  -2.856  1.00  0.00     0.692 A 
HETATM    5  N2  UNL     1      43.096 -25.167  -3.001  1.00  0.00    -0.168 N 
ATOM      6  H2  UNL     1      43.709 -24.903  -2.229  1.00  0.00     0.186 HD
HETATM    7  C2  UNL     1      43.372 -24.957  -4.298  1.00  0.00     0.174 A 
HETATM    8  N4  UNL     1      42.329 -25.443  -4.987  1.00  0.00    -0.265 N 
ATOM      9  H4  UNL     1      42.233 -25.436  -6.002  1.00  0.00     0.189 HD
HETATM   10  N5  UNL     1      41.445 -25.932  -4.132  1.00  0.00    -0.130 N 
ATOM     11  H5  UNL     1      40.556 -26.363  -4.386  1.00  0.00     0.205 HD
ENDROOT
BRANCH   7  12
HETATM   12  S1  UNL     1      44.844 -24.174  -4.991  1.00  0.00    -0.090 SA
BRANCH  12  13
HETATM   13  C3  UNL     1      45.011 -22.587  -4.112  1.00  0.00     0.109 C 
BRANCH  13  14
HETATM   14  C4  UNL     1      45.762 -21.595  -5.008  1.00  0.00     0.240 C 
BRANCH  14  15
HETATM   15  N3  UNL     1      45.548 -22.042  -6.370  1.00  0.00    -0.079 N 
ATOM     16  H33 UNL     1      46.180 -21.610  -7.044  1.00  0.00     0.274 HD
ATOM     17  H32 UNL     1      45.838 -23.007  -6.531  1.00  0.00     0.274 HD
ATOM     18  H31 UNL     1      44.562 -21.875  -6.571  1.00  0.00     0.274 HD
ENDBRANCH  14  15
ENDBRANCH  13  14
ENDBRANCH  12  13
ENDBRANCH   7  12
TORSDOF 4
ENDMDL
MODEL 3
REMARK VINA RESULT: -4.627124209      1.521      1.939
REMARK  4 active torsions:
REMARK  status: ('A' for Active; 'I' for Inactive)
REMARK    1  A    between atoms: C2_7  and  S1_8 
REMARK    2  A    between atoms: S1_8  and  C3_9 
REMARK    3  A    between atoms: C3_9  and  C4_10 
REMARK    4  A    between atoms: C4_10  and  N3_11 
ROOT
HETATM    1  N1  UNL     1      40.334 -26.797  -3.553  1.00  0.00    -0.233 N 
ATOM      2  H11 UNL     1      39.932 -27.314  -2.770  1.00  0.00     0.174 HD
ATOM      3  H12 UNL     1      39.695 -26.968  -4.329  1.00  0.00     0.174 HD
HETATM    4  C1  UNL     1      41.395 -26.070  -3.643  1.00  0.00     0.692 A 
HETATM    5  N2  UNL     1      41.923 -25.391  -4.673  1.00  0.00    -0.168 N 
ATOM      6  H2  UNL     1      41.520 -25.354  -5.608  1.00  0.00     0.186 HD
HETATM    7  C2  UNL     1      43.054 -24.768  -4.304  1.00  0.00     0.174 A 
HETATM    8  N4  UNL     1      43.240 -25.061  -3.009  1.00  0.00    -0.265 N 
ATOM      9  H4  UNL     1      44.017 -24.737  -2.433  1.00  0.00     0.189 HD
HETATM   10  N5  UNL     1      42.252 -25.842  -2.603  1.00  0.00    -0.130 N 
ATOM     11  H5  UNL     1      42.146 -26.215  -1.660  1.00  0.00     0.205 HD
ENDROOT
BRANCH   7  12
HETATM   12  S1  UNL     1      44.123 -23.743  -5.337  1.00  0.00    -0.090 SA
BRANCH  12  13
HETATM   13  C3  UNL     1      44.892 -22.543  -4.202  1.00  0.00     0.109 C 
BRANCH  13  14
HETATM   14  C4  UNL     1      45.768 -21.578  -5.011  1.00  0.00     0.240 C 
BRANCH  14  15
HETATM   15  N3  UNL     1      45.591 -21.946  -6.402  1.00  0.00    -0.079 N 
ATOM     16  H33 UNL     1      45.202 -21.197  -6.974  1.00  0.00     0.274 HD
ATOM     17  H32 UNL     1      46.469 -22.046  -6.911  1.00  0.00     0.274 HD
ATOM     18  H31 UNL     1      45.023 -22.794  -6.400  1.00  0.00     0.274 HD
ENDBRANCH  14  15
ENDBRANCH  13  14
ENDBRANCH  12  13
ENDBRANCH   7  12
TORSDOF 4
ENDMDL
MODEL 4
REMARK VINA RESULT: -4.599129550      6.890      8.030
REMARK  4 active torsions:
REMARK  status: ('A' for Active; 'I' for Inactive)
REMARK    1  A    between atoms: C2_7  and  S1_8 
REMARK    2  A    between atoms: S1_8  and  C3_9 
REMARK    3  A    between atoms: C3_9  and  C4_10 
REMARK    4  A    between atoms: C4_10  and  N3_11 
ROOT
HETATM    1  N1  UNL     1      48.737 -28.356   3.039  1.00  0.00    -0.233 N 
ATOM      2  H11 UNL     1      48.740 -28.496   4.049  1.00  0.00     0.174 HD
ATOM      3  H12 UNL     1      49.497 -27.698   2.867  1.00  0.00     0.174 HD
HETATM    4  C1  UNL     1      47.991 -28.849   2.110  1.00  0.00     0.692 A 
HETATM    5  N2  UNL     1      47.987 -28.665   0.781  1.00  0.00    -0.168 N 
ATOM      6  H2  UNL     1      48.633 -28.057   0.279  1.00  0.00     0.186 HD
HETATM    7  C2  UNL     1      47.017 -29.391   0.201  1.00  0.00     0.174 A 
HETATM    8  N4  UNL     1      46.397 -30.050   1.191  1.00  0.00    -0.265 N 
ATOM      9  H4  UNL     1      45.611 -30.690   1.077  1.00  0.00     0.189 HD
HETATM   10  N5  UNL     1      46.973 -29.732   2.340  1.00  0.00    -0.130 N 
ATOM     11  H5  UNL     1      46.699 -30.089   3.254  1.00  0.00     0.205 HD
ENDROOT
BRANCH   7  12
HETATM   12  S1  UNL     1      46.614 -29.470  -1.557  1.00  0.00    -0.090 SA
BRANCH  12  13
HETATM   13  C3  UNL     1      45.209 -30.623  -1.685  1.00  0.00     0.109 C 
BRANCH  13  14
HETATM   14  C4  UNL     1      44.304 -30.184  -2.841  1.00  0.00     0.240 C 
BRANCH  14  15
HETATM   15  N3  UNL     1      44.512 -28.758  -2.996  1.00  0.00    -0.079 N 
ATOM     16  H33 UNL     1      44.342 -28.227  -2.141  1.00  0.00     0.274 HD
ATOM     17  H32 UNL     1      45.493 -28.500  -3.107  1.00  0.00     0.274 HD
ATOM     18  H31 UNL     1      43.925 -28.469  -3.778  1.00  0.00     0.274 HD
ENDBRANCH  14  15
ENDBRANCH  13  14
ENDBRANCH  12  13
ENDBRANCH   7  12
TORSDOF 4
ENDMDL
MODEL 5
REMARK VINA RESULT: -4.584373231      1.247      1.679
REMARK  4 active torsions:
REMARK  status: ('A' for Active; 'I' for Inactive)
REMARK    1  A    between atoms: C2_7  and  S1_8 
REMARK    2  A    between atoms: S1_8  and  C3_9 
REMARK    3  A    between atoms: C3_9  and  C4_10 
REMARK    4  A    between atoms: C4_10  and  N3_11 
ROOT
HETATM    1  N1  UNL     1      41.467 -27.854  -4.726  1.00  0.00    -0.233 N 
ATOM      2  H11 UNL     1      41.327 -28.747  -4.253  1.00  0.00     0.174 HD
ATOM      3  H12 UNL     1      40.834 -27.883  -5.525  1.00  0.00     0.174 HD
HETATM    4  C1  UNL     1      42.237 -26.856  -4.456  1.00  0.00     0.692 A 
HETATM    5  N2  UNL     1      42.420 -25.681  -5.077  1.00  0.00    -0.168 N 
ATOM      6  H2  UNL     1      41.930 -25.391  -5.924  1.00  0.00     0.186 HD
HETATM    7  C2  UNL     1      43.336 -24.938  -4.435  1.00  0.00     0.174 A 
HETATM    8  N4  UNL     1      43.737 -25.664  -3.381  1.00  0.00    -0.265 N 
ATOM      9  H4  UNL     1      44.431 -25.376  -2.691  1.00  0.00     0.189 HD
HETATM   10  N5  UNL     1      43.084 -26.816  -3.385  1.00  0.00    -0.130 N 
ATOM     11  H5  UNL     1      43.197 -27.558  -2.695  1.00  0.00     0.205 HD
ENDROOT
BRANCH   7  12
HETATM   12  S1  UNL     1      43.924 -23.293  -4.890  1.00  0.00    -0.090 SA
BRANCH  12  13
HETATM   13  C3  UNL     1      45.682 -23.505  -5.321  1.00  0.00     0.109 C 
BRANCH  13  14
HETATM   14  C4  UNL     1      45.893 -23.093  -6.782  1.00  0.00     0.240 C 
BRANCH  14  15
HETATM   15  N3  UNL     1      44.569 -22.966  -7.359  1.00  0.00    -0.079 N 
ATOM     16  H33 UNL     1      44.123 -23.862  -7.552  1.00  0.00     0.274 HD
ATOM     17  H32 UNL     1      43.871 -22.619  -6.702  1.00  0.00     0.274 HD
ATOM     18  H31 UNL     1      44.677 -22.379  -8.186  1.00  0.00     0.274 HD
ENDBRANCH  14  15
ENDBRANCH  13  14
ENDBRANCH  12  13
ENDBRANCH   7  12
TORSDOF 4
ENDMDL
