MODEL 1
REMARK VINA RESULT: -4.817553583      0.000      0.000
REMARK  4 active torsions:
REMARK  status: ('A' for Active; 'I' for Inactive)
REMARK    1  A    between atoms: N1_1  and  C1_4 
REMARK    2  A    between atoms: N3_7  and  C2_8 
REMARK    3  A    between atoms: C2_8  and  C3_9 
REMARK    4  A    between atoms: C3_9  and  N4_10 
ROOT
HETATM    1  C1  UNL     1     -24.503 -12.890 -42.931  1.00  0.00     0.145 A 
HETATM    2  N2  UNL     1     -24.494 -13.674 -41.835  1.00  0.00    -0.280 N 
ATOM      3  H2  UNL     1     -23.671 -14.157 -41.475  1.00  0.00     0.189 HD
HETATM    4  N3  UNL     1     -25.698 -13.731 -41.290  1.00  0.00    -0.271 N 
HETATM    5  C4  UNL     1     -26.510 -12.970 -42.044  1.00  0.00     0.154 A 
HETATM    6  N5  UNL     1     -27.788 -12.509 -42.196  1.00  0.00    -0.335 N 
ATOM      7  H5  UNL     1     -28.571 -12.731 -41.582  1.00  0.00     0.168 HD
HETATM    8  C5  UNL     1     -27.851 -11.719 -43.278  1.00  0.00     0.182 A 
HETATM    9  N6  UNL     1     -26.602 -11.678 -43.819  1.00  0.00    -0.346 N 
ATOM     10  H6  UNL     1     -26.329 -11.158 -44.653  1.00  0.00     0.167 HD
HETATM   11  C6  UNL     1     -25.792 -12.438 -43.067  1.00  0.00     0.124 A 
ENDROOT
BRANCH   4  12
HETATM   12  C2  UNL     1     -26.120 -14.449 -40.121  1.00  0.00     0.178 C 
BRANCH  12  13
HETATM   13  C3  UNL     1     -24.985 -14.827 -39.206  1.00  0.00     0.251 C 
BRANCH  13  14
HETATM   14  N4  UNL     1     -25.302 -14.746 -37.825  1.00  0.00    -0.078 N 
ATOM     15  H43 UNL     1     -24.675 -14.094 -37.353  1.00  0.00     0.274 HD
ATOM     16  H42 UNL     1     -26.189 -14.261 -37.690  1.00  0.00     0.274 HD
ATOM     17  H41 UNL     1     -25.309 -15.646 -37.345  1.00  0.00     0.274 HD
ENDBRANCH  13  14
ENDBRANCH  12  13
ENDBRANCH   4  12
BRANCH   1  18
HETATM   18  N1  UNL     1     -23.483 -12.619 -43.705  1.00  0.00    -0.382 N 
ATOM     19  H12 UNL     1     -22.496 -12.627 -43.450  1.00  0.00     0.157 HD
ATOM     20  H11 UNL     1     -23.521 -12.357 -44.690  1.00  0.00     0.157 HD
ENDBRANCH   1  18
TORSDOF 4
ENDMDL
MODEL 2
REMARK VINA RESULT: -4.755897372      2.247      3.015
REMARK  4 active torsions:
REMARK  status: ('A' for Active; 'I' for Inactive)
REMARK    1  A    between atoms: N1_1  and  C1_4 
REMARK    2  A    between atoms: N3_7  and  C2_8 
REMARK    3  A    between atoms: C2_8  and  C3_9 
REMARK    4  A    between atoms: C3_9  and  N4_10 
ROOT
HETATM    1  C1  UNL     1     -25.591 -13.359 -40.730  1.00  0.00     0.145 A 
HETATM    2  N2  UNL     1     -25.283 -14.143 -39.677  1.00  0.00    -0.280 N 
ATOM      3  H2  UNL     1     -25.245 -13.824 -38.709  1.00  0.00     0.189 HD
HETATM    4  N3  UNL     1     -25.039 -15.381 -40.071  1.00  0.00    -0.271 N 
HETATM    5  C4  UNL     1     -25.190 -15.409 -41.408  1.00  0.00     0.154 A 
HETATM    6  N5  UNL     1     -25.137 -16.197 -42.523  1.00  0.00    -0.335 N 
ATOM      7  H5  UNL     1     -24.905 -17.190 -42.532  1.00  0.00     0.168 HD
HETATM    8  C5  UNL     1     -25.436 -15.461 -43.603  1.00  0.00     0.182 A 
HETATM    9  N6  UNL     1     -25.682 -14.193 -43.170  1.00  0.00    -0.346 N 
ATOM     10  H6  UNL     1     -25.936 -13.399 -43.759  1.00  0.00     0.167 HD
HETATM   11  C6  UNL     1     -25.532 -14.166 -41.838  1.00  0.00     0.124 A 
ENDROOT
BRANCH   4  12
HETATM   12  C2  UNL     1     -24.679 -16.521 -39.277  1.00  0.00     0.178 C 
BRANCH  12  13
HETATM   13  C3  UNL     1     -25.093 -16.402 -37.834  1.00  0.00     0.251 C 
BRANCH  13  14
HETATM   14  N4  UNL     1     -24.009 -16.374 -36.920  1.00  0.00    -0.078 N 
ATOM     15  H43 UNL     1     -24.010 -17.213 -36.339  1.00  0.00     0.274 HD
ATOM     16  H42 UNL     1     -23.124 -16.506 -37.410  1.00  0.00     0.274 HD
ATOM     17  H41 UNL     1     -23.974 -15.537 -36.339  1.00  0.00     0.274 HD
ENDBRANCH  13  14
ENDBRANCH  12  13
ENDBRANCH   4  12
BRANCH   1  18
HETATM   18  N1  UNL     1     -25.885 -12.084 -40.693  1.00  0.00    -0.382 N 
ATOM     19  H12 UNL     1     -25.395 -11.352 -40.179  1.00  0.00     0.157 HD
ATOM     20  H11 UNL     1     -26.656 -11.624 -41.178  1.00  0.00     0.157 HD
ENDBRANCH   1  18
TORSDOF 4
ENDMDL
MODEL 3
REMARK VINA RESULT: -4.737428400      1.772      4.174
REMARK  4 active torsions:
REMARK  status: ('A' for Active; 'I' for Inactive)
REMARK    1  A    between atoms: N1_1  and  C1_4 
REMARK    2  A    between atoms: N3_7  and  C2_8 
REMARK    3  A    between atoms: C2_8  and  C3_9 
REMARK    4  A    between atoms: C3_9  and  N4_10 
ROOT
HETATM    1  C1  UNL     1     -25.092 -14.258 -40.324  1.00  0.00     0.145 A 
HETATM    2  N2  UNL     1     -25.482 -12.989 -40.558  1.00  0.00    -0.280 N 
ATOM      3  H2  UNL     1     -25.500 -12.250 -39.857  1.00  0.00     0.189 HD
HETATM    4  N3  UNL     1     -25.837 -12.834 -41.823  1.00  0.00    -0.271 N 
HETATM    5  C4  UNL     1     -25.676 -14.025 -42.428  1.00  0.00     0.154 A 
HETATM    6  N5  UNL     1     -25.793 -14.704 -43.608  1.00  0.00    -0.335 N 
ATOM      7  H5  UNL     1     -26.116 -14.304 -44.489  1.00  0.00     0.168 HD
HETATM    8  C5  UNL     1     -25.415 -15.978 -43.429  1.00  0.00     0.182 A 
HETATM    9  N6  UNL     1     -25.056 -16.110 -42.121  1.00  0.00    -0.346 N 
ATOM     10  H6  UNL     1     -24.722 -16.966 -41.676  1.00  0.00     0.167 HD
HETATM   11  C6  UNL     1     -25.216 -14.923 -41.519  1.00  0.00     0.124 A 
ENDROOT
BRANCH   4  12
HETATM   12  C2  UNL     1     -26.310 -11.652 -42.484  1.00  0.00     0.178 C 
BRANCH  12  13
HETATM   13  C3  UNL     1     -27.803 -11.631 -42.681  1.00  0.00     0.251 C 
BRANCH  13  14
HETATM   14  N4  UNL     1     -28.215 -11.865 -44.018  1.00  0.00    -0.078 N 
ATOM     15  H43 UNL     1     -27.738 -11.227 -44.655  1.00  0.00     0.274 HD
ATOM     16  H42 UNL     1     -27.847 -12.754 -44.355  1.00  0.00     0.274 HD
ATOM     17  H41 UNL     1     -29.224 -11.820 -44.157  1.00  0.00     0.274 HD
ENDBRANCH  13  14
ENDBRANCH  12  13
ENDBRANCH   4  12
BRANCH   1  18
HETATM   18  N1  UNL     1     -24.680 -14.749 -39.183  1.00  0.00    -0.382 N 
ATOM     19  H12 UNL     1     -24.933 -14.432 -38.247  1.00  0.00     0.157 HD
ATOM     20  H11 UNL     1     -24.038 -15.532 -39.055  1.00  0.00     0.157 HD
ENDBRANCH   1  18
TORSDOF 4
ENDMDL
MODEL 4
REMARK VINA RESULT: -4.715325853      1.714      2.004
REMARK  4 active torsions:
REMARK  status: ('A' for Active; 'I' for Inactive)
REMARK    1  A    between atoms: N1_1  and  C1_4 
REMARK    2  A    between atoms: N3_7  and  C2_8 
REMARK    3  A    between atoms: C2_8  and  C3_9 
REMARK    4  A    between atoms: C3_9  and  N4_10 
ROOT
HETATM    1  C1  UNL     1     -25.732 -14.760 -42.376  1.00  0.00     0.145 A 
HETATM    2  N2  UNL     1     -25.530 -15.315 -41.165  1.00  0.00    -0.280 N 
ATOM      3  H2  UNL     1     -25.362 -16.307 -41.002  1.00  0.00     0.189 HD
HETATM    4  N3  UNL     1     -25.581 -14.395 -40.215  1.00  0.00    -0.271 N 
HETATM    5  C4  UNL     1     -25.820 -13.217 -40.817  1.00  0.00     0.154 A 
HETATM    6  N5  UNL     1     -26.007 -11.877 -40.619  1.00  0.00    -0.335 N 
ATOM      7  H5  UNL     1     -25.992 -11.408 -39.713  1.00  0.00     0.168 HD
HETATM    8  C5  UNL     1     -26.212 -11.276 -41.800  1.00  0.00     0.182 A 
HETATM    9  N6  UNL     1     -26.155 -12.243 -42.758  1.00  0.00    -0.346 N 
ATOM     10  H6  UNL     1     -26.274 -12.098 -43.761  1.00  0.00     0.167 HD
HETATM   11  C6  UNL     1     -25.917 -13.418 -42.157  1.00  0.00     0.124 A 
ENDROOT
BRANCH   4  12
HETATM   12  C2  UNL     1     -25.420 -14.559 -38.798  1.00  0.00     0.178 C 
BRANCH  12  13
HETATM   13  C3  UNL     1     -24.670 -15.809 -38.420  1.00  0.00     0.251 C 
BRANCH  13  14
HETATM   14  N4  UNL     1     -23.598 -15.592 -37.517  1.00  0.00    -0.078 N 
ATOM     15  H43 UNL     1     -23.313 -14.613 -37.530  1.00  0.00     0.274 HD
ATOM     16  H42 UNL     1     -23.923 -15.664 -36.552  1.00  0.00     0.274 HD
ATOM     17  H41 UNL     1     -22.794 -16.200 -37.670  1.00  0.00     0.274 HD
ENDBRANCH  13  14
ENDBRANCH  12  13
ENDBRANCH   4  12
BRANCH   1  18
HETATM   18  N1  UNL     1     -25.746 -15.384 -43.527  1.00  0.00    -0.382 N 
ATOM     19  H12 UNL     1     -25.271 -16.255 -43.763  1.00  0.00     0.157 HD
ATOM     20  H11 UNL     1     -26.239 -15.091 -44.371  1.00  0.00     0.157 HD
ENDBRANCH   1  18
TORSDOF 4
ENDMDL
MODEL 5
REMARK VINA RESULT: -4.664595936      1.829      2.669
REMARK  4 active torsions:
REMARK  status: ('A' for Active; 'I' for Inactive)
REMARK    1  A    between atoms: N1_1  and  C1_4 
REMARK    2  A    between atoms: N3_7  and  C2_8 
REMARK    3  A    between atoms: C2_8  and  C3_9 
REMARK    4  A    between atoms: C3_9  and  N4_10 
ROOT
HETATM    1  C1  UNL     1     -25.820 -12.694 -41.487  1.00  0.00     0.145 A 
HETATM    2  N2  UNL     1     -25.486 -13.015 -40.221  1.00  0.00    -0.280 N 
ATOM      3  H2  UNL     1     -25.484 -12.362 -39.438  1.00  0.00     0.189 HD
HETATM    4  N3  UNL     1     -25.161 -14.295 -40.133  1.00  0.00    -0.271 N 
HETATM    5  C4  UNL     1     -25.286 -14.820 -41.365  1.00  0.00     0.154 A 
HETATM    6  N5  UNL     1     -25.165 -15.958 -42.113  1.00  0.00    -0.335 N 
ATOM      7  H5  UNL     1     -24.875 -16.868 -41.758  1.00  0.00     0.168 HD
HETATM    8  C5  UNL     1     -25.488 -15.690 -43.387  1.00  0.00     0.182 A 
HETATM    9  N6  UNL     1     -25.817 -14.369 -43.449  1.00  0.00    -0.346 N 
ATOM     10  H6  UNL     1     -26.107 -13.865 -44.287  1.00  0.00     0.167 HD
HETATM   11  C6  UNL     1     -25.693 -13.846 -42.221  1.00  0.00     0.124 A 
ENDROOT
BRANCH   4  12
HETATM   12  C2  UNL     1     -24.748 -15.039 -38.978  1.00  0.00     0.178 C 
BRANCH  12  13
HETATM   13  C3  UNL     1     -25.896 -15.641 -38.210  1.00  0.00     0.251 C 
BRANCH  13  14
HETATM   14  N4  UNL     1     -25.923 -15.289 -36.836  1.00  0.00    -0.078 N 
ATOM     15  H43 UNL     1     -25.438 -14.404 -36.685  1.00  0.00     0.274 HD
ATOM     16  H42 UNL     1     -26.865 -15.020 -36.554  1.00  0.00     0.274 HD
ATOM     17  H41 UNL     1     -25.555 -16.008 -36.214  1.00  0.00     0.274 HD
ENDBRANCH  13  14
ENDBRANCH  12  13
ENDBRANCH   4  12
BRANCH   1  18
HETATM   18  N1  UNL     1     -26.190 -11.515 -41.920  1.00  0.00    -0.382 N 
ATOM     19  H12 UNL     1     -26.229 -11.197 -42.888  1.00  0.00     0.157 HD
ATOM     20  H11 UNL     1     -26.498 -10.728 -41.349  1.00  0.00     0.157 HD
ENDBRANCH   1  18
TORSDOF 4
ENDMDL
