MODEL 1
REMARK VINA RESULT: -4.702493190      0.000      0.000
REMARK  4 active torsions:
REMARK  status: ('A' for Active; 'I' for Inactive)
REMARK    1  A    between atoms: C2_7  and  S1_8 
REMARK    2  A    between atoms: S1_8  and  C3_9 
REMARK    3  A    between atoms: C3_9  and  C4_10 
REMARK    4  A    between atoms: C4_10  and  N3_11 
ROOT
HETATM    1  N1  UNL     1     -31.989 -21.387 -44.247  1.00  0.00    -0.233 N 
ATOM      2  H11 UNL     1     -32.908 -21.830 -44.278  1.00  0.00     0.174 HD
ATOM      3  H12 UNL     1     -31.458 -21.941 -43.576  1.00  0.00     0.174 HD
HETATM    4  C1  UNL     1     -31.513 -20.364 -44.871  1.00  0.00     0.692 A 
HETATM    5  N2  UNL     1     -30.305 -19.781 -44.831  1.00  0.00    -0.168 N 
ATOM      6  H2  UNL     1     -29.529 -20.098 -44.250  1.00  0.00     0.186 HD
HETATM    7  C2  UNL     1     -30.256 -18.725 -45.659  1.00  0.00     0.174 A 
HETATM    8  N4  UNL     1     -31.463 -18.644 -46.236  1.00  0.00    -0.265 N 
ATOM      9  H4  UNL     1     -31.748 -17.944 -46.921  1.00  0.00     0.189 HD
HETATM   10  N5  UNL     1     -32.225 -19.621 -45.770  1.00  0.00    -0.130 N 
ATOM     11  H5  UNL     1     -33.193 -19.793 -46.040  1.00  0.00     0.205 HD
ENDROOT
BRANCH   7  12
HETATM   12  S1  UNL     1     -28.854 -17.624 -45.944  1.00  0.00    -0.090 SA
BRANCH  12  13
HETATM   13  C3  UNL     1     -27.520 -18.245 -44.869  1.00  0.00     0.109 C 
BRANCH  13  14
HETATM   14  C4  UNL     1     -26.251 -17.422 -45.119  1.00  0.00     0.240 C 
BRANCH  14  15
HETATM   15  N3  UNL     1     -26.187 -16.449 -44.046  1.00  0.00    -0.079 N 
ATOM     16  H33 UNL     1     -27.095 -16.239 -43.632  1.00  0.00     0.274 HD
ATOM     17  H32 UNL     1     -25.745 -16.806 -43.199  1.00  0.00     0.274 HD
ATOM     18  H31 UNL     1     -25.718 -15.630 -44.434  1.00  0.00     0.274 HD
ENDBRANCH  14  15
ENDBRANCH  13  14
ENDBRANCH  12  13
ENDBRANCH   7  12
TORSDOF 4
ENDMDL
MODEL 2
REMARK VINA RESULT: -4.674180885      7.768      8.834
REMARK  4 active torsions:
REMARK  status: ('A' for Active; 'I' for Inactive)
REMARK    1  A    between atoms: C2_7  and  S1_8 
REMARK    2  A    between atoms: S1_8  and  C3_9 
REMARK    3  A    between atoms: C3_9  and  C4_10 
REMARK    4  A    between atoms: C4_10  and  N3_11 
ROOT
HETATM    1  N1  UNL     1     -27.079 -12.917 -42.634  1.00  0.00    -0.233 N 
ATOM      2  H11 UNL     1     -26.841 -12.343 -43.443  1.00  0.00     0.174 HD
ATOM      3  H12 UNL     1     -28.077 -13.102 -42.735  1.00  0.00     0.174 HD
HETATM    4  C1  UNL     1     -26.362 -13.359 -41.659  1.00  0.00     0.692 A 
HETATM    5  N2  UNL     1     -26.676 -14.113 -40.594  1.00  0.00    -0.168 N 
ATOM      6  H2  UNL     1     -27.609 -14.474 -40.396  1.00  0.00     0.186 HD
HETATM    7  C2  UNL     1     -25.595 -14.330 -39.826  1.00  0.00     0.174 A 
HETATM    8  N4  UNL     1     -24.576 -13.696 -40.425  1.00  0.00    -0.265 N 
ATOM      9  H4  UNL     1     -23.613 -13.670 -40.088  1.00  0.00     0.189 HD
HETATM   10  N5  UNL     1     -25.025 -13.111 -41.523  1.00  0.00    -0.130 N 
ATOM     11  H5  UNL     1     -24.460 -12.559 -42.169  1.00  0.00     0.205 HD
ENDROOT
BRANCH   7  12
HETATM   12  S1  UNL     1     -25.518 -15.277 -38.291  1.00  0.00    -0.090 SA
BRANCH  12  13
HETATM   13  C3  UNL     1     -24.665 -16.829 -38.718  1.00  0.00     0.109 C 
BRANCH  13  14
HETATM   14  C4  UNL     1     -23.416 -16.973 -37.841  1.00  0.00     0.240 C 
BRANCH  14  15
HETATM   15  N3  UNL     1     -23.156 -15.656 -37.294  1.00  0.00    -0.079 N 
ATOM     16  H33 UNL     1     -22.282 -15.245 -37.623  1.00  0.00     0.274 HD
ATOM     17  H32 UNL     1     -23.776 -14.934 -37.660  1.00  0.00     0.274 HD
ATOM     18  H31 UNL     1     -23.202 -15.756 -36.280  1.00  0.00     0.274 HD
ENDBRANCH  14  15
ENDBRANCH  13  14
ENDBRANCH  12  13
ENDBRANCH   7  12
TORSDOF 4
ENDMDL
MODEL 3
REMARK VINA RESULT: -4.628169028      7.787      8.926
REMARK  4 active torsions:
REMARK  status: ('A' for Active; 'I' for Inactive)
REMARK    1  A    between atoms: C2_7  and  S1_8 
REMARK    2  A    between atoms: S1_8  and  C3_9 
REMARK    3  A    between atoms: C3_9  and  C4_10 
REMARK    4  A    between atoms: C4_10  and  N3_11 
ROOT
HETATM    1  N1  UNL     1     -27.730 -12.609 -42.109  1.00  0.00    -0.233 N 
ATOM      2  H11 UNL     1     -27.749 -11.810 -42.743  1.00  0.00     0.174 HD
ATOM      3  H12 UNL     1     -28.694 -12.944 -42.089  1.00  0.00     0.174 HD
HETATM    4  C1  UNL     1     -26.768 -13.148 -41.443  1.00  0.00     0.692 A 
HETATM    5  N2  UNL     1     -26.744 -14.199 -40.609  1.00  0.00    -0.168 N 
ATOM      6  H2  UNL     1     -27.557 -14.766 -40.369  1.00  0.00     0.186 HD
HETATM    7  C2  UNL     1     -25.505 -14.405 -40.133  1.00  0.00     0.174 A 
HETATM    8  N4  UNL     1     -24.730 -13.459 -40.684  1.00  0.00    -0.265 N 
ATOM      9  H4  UNL     1     -23.729 -13.343 -40.523  1.00  0.00     0.189 HD
HETATM   10  N5  UNL     1     -25.477 -12.700 -41.470  1.00  0.00    -0.130 N 
ATOM     11  H5  UNL     1     -25.142 -11.905 -42.013  1.00  0.00     0.205 HD
ENDROOT
BRANCH   7  12
HETATM   12  S1  UNL     1     -24.976 -15.688 -38.979  1.00  0.00    -0.090 SA
BRANCH  12  13
HETATM   13  C3  UNL     1     -26.224 -15.695 -37.652  1.00  0.00     0.109 C 
BRANCH  13  14
HETATM   14  C4  UNL     1     -25.768 -16.646 -36.540  1.00  0.00     0.240 C 
BRANCH  14  15
HETATM   15  N3  UNL     1     -24.321 -16.566 -36.511  1.00  0.00    -0.079 N 
ATOM     16  H33 UNL     1     -23.969 -15.624 -36.341  1.00  0.00     0.274 HD
ATOM     17  H32 UNL     1     -23.905 -17.003 -35.689  1.00  0.00     0.274 HD
ATOM     18  H31 UNL     1     -23.998 -16.968 -37.392  1.00  0.00     0.274 HD
ENDBRANCH  14  15
ENDBRANCH  13  14
ENDBRANCH  12  13
ENDBRANCH   7  12
TORSDOF 4
ENDMDL
MODEL 4
REMARK VINA RESULT: -4.580677570      7.086      8.567
REMARK  4 active torsions:
REMARK  status: ('A' for Active; 'I' for Inactive)
REMARK    1  A    between atoms: C2_7  and  S1_8 
REMARK    2  A    between atoms: S1_8  and  C3_9 
REMARK    3  A    between atoms: C3_9  and  C4_10 
REMARK    4  A    between atoms: C4_10  and  N3_11 
ROOT
HETATM    1  N1  UNL     1     -25.922 -14.452 -43.682  1.00  0.00    -0.233 N 
ATOM      2  H11 UNL     1     -25.669 -13.873 -44.482  1.00  0.00     0.174 HD
ATOM      3  H12 UNL     1     -26.566 -15.147 -44.060  1.00  0.00     0.174 HD
HETATM    4  C1  UNL     1     -25.566 -14.402 -42.444  1.00  0.00     0.692 A 
HETATM    5  N2  UNL     1     -25.899 -15.164 -41.391  1.00  0.00    -0.168 N 
ATOM      6  H2  UNL     1     -26.536 -15.960 -41.432  1.00  0.00     0.186 HD
HETATM    7  C2  UNL     1     -25.281 -14.738 -40.277  1.00  0.00     0.174 A 
HETATM    8  N4  UNL     1     -24.539 -13.682 -40.640  1.00  0.00    -0.265 N 
ATOM      9  H4  UNL     1     -23.946 -13.131 -40.019  1.00  0.00     0.189 HD
HETATM   10  N5  UNL     1     -24.703 -13.471 -41.937  1.00  0.00    -0.130 N 
ATOM     11  H5  UNL     1     -24.254 -12.730 -42.474  1.00  0.00     0.205 HD
ENDROOT
BRANCH   7  12
HETATM   12  S1  UNL     1     -25.418 -15.434 -38.617  1.00  0.00    -0.090 SA
BRANCH  12  13
HETATM   13  C3  UNL     1     -24.552 -17.036 -38.687  1.00  0.00     0.109 C 
BRANCH  13  14
HETATM   14  C4  UNL     1     -23.370 -17.009 -37.712  1.00  0.00     0.240 C 
BRANCH  14  15
HETATM   15  N3  UNL     1     -23.183 -15.619 -37.345  1.00  0.00    -0.079 N 
ATOM     16  H33 UNL     1     -22.215 -15.306 -37.417  1.00  0.00     0.274 HD
ATOM     17  H32 UNL     1     -23.575 -14.964 -38.021  1.00  0.00     0.274 HD
ATOM     18  H31 UNL     1     -23.574 -15.519 -36.408  1.00  0.00     0.274 HD
ENDBRANCH  14  15
ENDBRANCH  13  14
ENDBRANCH  12  13
ENDBRANCH   7  12
TORSDOF 4
ENDMDL
MODEL 5
REMARK VINA RESULT: -4.554126676      7.757      8.902
REMARK  4 active torsions:
REMARK  status: ('A' for Active; 'I' for Inactive)
REMARK    1  A    between atoms: C2_7  and  S1_8 
REMARK    2  A    between atoms: S1_8  and  C3_9 
REMARK    3  A    between atoms: C3_9  and  C4_10 
REMARK    4  A    between atoms: C4_10  and  N3_11 
ROOT
HETATM    1  N1  UNL     1     -27.801 -11.326 -42.999  1.00  0.00    -0.233 N 
ATOM      2  H11 UNL     1     -27.887 -10.325 -43.180  1.00  0.00     0.174 HD
ATOM      3  H12 UNL     1     -28.460 -11.762 -43.645  1.00  0.00     0.174 HD
HETATM    4  C1  UNL     1     -27.064 -11.984 -42.172  1.00  0.00     0.692 A 
HETATM    5  N2  UNL     1     -26.951 -13.300 -41.935  1.00  0.00    -0.168 N 
ATOM      6  H2  UNL     1     -27.480 -14.024 -42.422  1.00  0.00     0.186 HD
HETATM    7  C2  UNL     1     -26.047 -13.537 -40.970  1.00  0.00     0.174 A 
HETATM    8  N4  UNL     1     -25.578 -12.338 -40.593  1.00  0.00    -0.265 N 
ATOM      9  H4  UNL     1     -24.873 -12.176 -39.874  1.00  0.00     0.189 HD
HETATM   10  N5  UNL     1     -26.182 -11.401 -41.307  1.00  0.00    -0.130 N 
ATOM     11  H5  UNL     1     -26.014 -10.399 -41.224  1.00  0.00     0.205 HD
ENDROOT
BRANCH   7  12
HETATM   12  S1  UNL     1     -25.556 -15.140 -40.302  1.00  0.00    -0.090 SA
BRANCH  12  13
HETATM   13  C3  UNL     1     -25.186 -14.842 -38.543  1.00  0.00     0.109 C 
BRANCH  13  14
HETATM   14  C4  UNL     1     -24.503 -16.084 -37.957  1.00  0.00     0.240 C 
BRANCH  14  15
HETATM   15  N3  UNL     1     -23.287 -15.611 -37.323  1.00  0.00    -0.079 N 
ATOM     16  H33 UNL     1     -23.242 -14.596 -37.236  1.00  0.00     0.274 HD
ATOM     17  H32 UNL     1     -23.241 -15.823 -36.326  1.00  0.00     0.274 HD
ATOM     18  H31 UNL     1     -22.516 -16.008 -37.859  1.00  0.00     0.274 HD
ENDBRANCH  14  15
ENDBRANCH  13  14
ENDBRANCH  12  13
ENDBRANCH   7  12
TORSDOF 4
ENDMDL
