MODEL 1
REMARK VINA RESULT: -5.298294641      0.000      0.000
REMARK  3 active torsions:
REMARK  status: ('A' for Active; 'I' for Inactive)
REMARK    1  A    between atoms: N4_13  and  C6_14 
REMARK    2  A    between atoms: C6_14  and  C7_15 
REMARK    3  A    between atoms: C7_15  and  N5_16 
ROOT
HETATM    1  N1  UNL     1     -24.261 -16.660 -36.171  1.00  0.00    -0.384 N 
ATOM      2  H11 UNL     1     -24.453 -15.998 -35.418  1.00  0.00     0.157 HD
ATOM      3  H12 UNL     1     -23.884 -17.573 -35.916  1.00  0.00     0.157 HD
HETATM    4  C1  UNL     1     -24.485 -16.359 -37.423  1.00  0.00     0.116 A 
HETATM    5  C2  UNL     1     -24.225 -17.253 -38.440  1.00  0.00     0.138 A 
HETATM    6  N2  UNL     1     -24.457 -16.943 -39.732  1.00  0.00    -0.345 N 
ATOM      7  H2  UNL     1     -24.254 -17.630 -40.458  1.00  0.00     0.167 HD
HETATM    8  C3  UNL     1     -24.952 -15.743 -40.074  1.00  0.00     0.153 A 
HETATM    9  C4  UNL     1     -25.215 -14.842 -39.058  1.00  0.00     0.153 A 
HETATM   10  N3  UNL     1     -25.694 -13.747 -39.674  1.00  0.00    -0.335 N 
ATOM     11  H3  UNL     1     -25.985 -12.895 -39.195  1.00  0.00     0.168 HD
HETATM   12  C5  UNL     1     -25.739 -13.924 -41.005  1.00  0.00     0.186 A 
HETATM   13  N4  UNL     1     -25.279 -15.164 -41.253  1.00  0.00    -0.325 N 
HETATM   14  N6  UNL     1     -24.982 -15.155 -37.759  1.00  0.00    -0.325 N 
ATOM     15  H6  UNL     1     -25.185 -14.471 -37.030  1.00  0.00     0.169 HD
ENDROOT
BRANCH  13  16
HETATM   16  C6  UNL     1     -25.155 -15.773 -42.561  1.00  0.00     0.158 C 
BRANCH  16  17
HETATM   17  C7  UNL     1     -25.195 -14.656 -43.599  1.00  0.00     0.249 C 
BRANCH  17  18
HETATM   18  N5  UNL     1     -26.018 -15.082 -44.707  1.00  0.00    -0.078 N 
ATOM     19  H53 UNL     1     -25.769 -16.013 -45.043  1.00  0.00     0.274 HD
ATOM     20  H52 UNL     1     -26.977 -15.286 -44.425  1.00  0.00     0.274 HD
ATOM     21  H51 UNL     1     -25.970 -14.377 -45.442  1.00  0.00     0.274 HD
ENDBRANCH  17  18
ENDBRANCH  16  17
ENDBRANCH  13  16
TORSDOF 3
ENDMDL
MODEL 2
REMARK VINA RESULT: -5.126749949      2.501      3.580
REMARK  3 active torsions:
REMARK  status: ('A' for Active; 'I' for Inactive)
REMARK    1  A    between atoms: N4_13  and  C6_14 
REMARK    2  A    between atoms: C6_14  and  C7_15 
REMARK    3  A    between atoms: C7_15  and  N5_16 
ROOT
HETATM    1  N1  UNL     1     -24.718 -16.329 -39.815  1.00  0.00    -0.384 N 
ATOM      2  H11 UNL     1     -24.504 -16.193 -38.827  1.00  0.00     0.157 HD
ATOM      3  H12 UNL     1     -24.596 -17.264 -40.204  1.00  0.00     0.157 HD
HETATM    4  C1  UNL     1     -25.136 -15.345 -40.569  1.00  0.00     0.116 A 
HETATM    5  C2  UNL     1     -25.426 -15.529 -41.904  1.00  0.00     0.138 A 
HETATM    6  N2  UNL     1     -25.858 -14.515 -42.681  1.00  0.00    -0.345 N 
ATOM      7  H2  UNL     1     -26.063 -14.687 -43.665  1.00  0.00     0.167 HD
HETATM    8  C3  UNL     1     -26.021 -13.282 -42.176  1.00  0.00     0.153 A 
HETATM    9  C4  UNL     1     -25.731 -13.092 -40.836  1.00  0.00     0.153 A 
HETATM   10  N3  UNL     1     -25.979 -11.790 -40.604  1.00  0.00    -0.335 N 
ATOM     11  H3  UNL     1     -25.863 -11.333 -39.700  1.00  0.00     0.168 HD
HETATM   12  C5  UNL     1     -26.401 -11.174 -41.720  1.00  0.00     0.186 A 
HETATM   13  N4  UNL     1     -26.427 -12.100 -42.696  1.00  0.00    -0.325 N 
HETATM   14  N6  UNL     1     -25.298 -14.112 -40.056  1.00  0.00    -0.325 N 
ATOM     15  H6  UNL     1     -25.092 -13.943 -39.071  1.00  0.00     0.169 HD
ENDROOT
BRANCH  13  16
HETATM   16  C6  UNL     1     -26.823 -11.869 -44.070  1.00  0.00     0.158 C 
BRANCH  16  17
HETATM   17  C7  UNL     1     -28.307 -11.518 -44.073  1.00  0.00     0.249 C 
BRANCH  17  18
HETATM   18  N5  UNL     1     -28.902 -12.027 -45.287  1.00  0.00    -0.078 N 
ATOM     19  H53 UNL     1     -29.210 -11.282 -45.913  1.00  0.00     0.274 HD
ATOM     20  H52 UNL     1     -28.216 -12.457 -45.907  1.00  0.00     0.274 HD
ATOM     21  H51 UNL     1     -29.658 -12.665 -45.039  1.00  0.00     0.274 HD
ENDBRANCH  17  18
ENDBRANCH  16  17
ENDBRANCH  13  16
TORSDOF 3
ENDMDL
MODEL 3
REMARK VINA RESULT: -5.065188144      0.905      4.939
REMARK  3 active torsions:
REMARK  status: ('A' for Active; 'I' for Inactive)
REMARK    1  A    between atoms: N4_13  and  C6_14 
REMARK    2  A    between atoms: C6_14  and  C7_15 
REMARK    3  A    between atoms: C7_15  and  N5_16 
ROOT
HETATM    1  N1  UNL     1     -25.799 -14.450 -44.623  1.00  0.00    -0.384 N 
ATOM      2  H11 UNL     1     -26.222 -13.548 -44.843  1.00  0.00     0.157 HD
ATOM      3  H12 UNL     1     -25.551 -15.061 -45.402  1.00  0.00     0.157 HD
HETATM    4  C1  UNL     1     -25.575 -14.821 -43.389  1.00  0.00     0.116 A 
HETATM    5  C2  UNL     1     -25.003 -16.039 -43.093  1.00  0.00     0.138 A 
HETATM    6  N2  UNL     1     -24.771 -16.422 -41.820  1.00  0.00    -0.345 N 
ATOM      7  H2  UNL     1     -24.345 -17.331 -41.638  1.00  0.00     0.167 HD
HETATM    8  C3  UNL     1     -25.095 -15.622 -40.791  1.00  0.00     0.153 A 
HETATM    9  C4  UNL     1     -25.670 -14.399 -41.084  1.00  0.00     0.153 A 
HETATM   10  N3  UNL     1     -25.884 -13.818 -39.890  1.00  0.00    -0.335 N 
ATOM     11  H3  UNL     1     -26.301 -12.895 -39.763  1.00  0.00     0.168 HD
HETATM   12  C5  UNL     1     -25.477 -14.612 -38.887  1.00  0.00     0.186 A 
HETATM   13  N4  UNL     1     -24.986 -15.733 -39.447  1.00  0.00    -0.325 N 
HETATM   14  N6  UNL     1     -25.901 -14.015 -42.363  1.00  0.00    -0.325 N 
ATOM     15  H6  UNL     1     -26.326 -13.106 -42.549  1.00  0.00     0.169 HD
ENDROOT
BRANCH  13  16
HETATM   16  C6  UNL     1     -24.436 -16.864 -38.729  1.00  0.00     0.158 C 
BRANCH  16  17
HETATM   17  C7  UNL     1     -23.496 -16.322 -37.657  1.00  0.00     0.249 C 
BRANCH  17  18
HETATM   18  N5  UNL     1     -24.021 -16.677 -36.358  1.00  0.00    -0.078 N 
ATOM     19  H53 UNL     1     -23.300 -16.689 -35.637  1.00  0.00     0.274 HD
ATOM     20  H52 UNL     1     -24.607 -15.943 -35.961  1.00  0.00     0.274 HD
ATOM     21  H51 UNL     1     -24.511 -17.568 -36.435  1.00  0.00     0.274 HD
ENDBRANCH  17  18
ENDBRANCH  16  17
ENDBRANCH  13  16
TORSDOF 3
ENDMDL
MODEL 4
REMARK VINA RESULT: -4.981780863      1.738      5.434
REMARK  3 active torsions:
REMARK  status: ('A' for Active; 'I' for Inactive)
REMARK    1  A    between atoms: N4_13  and  C6_14 
REMARK    2  A    between atoms: C6_14  and  C7_15 
REMARK    3  A    between atoms: C7_15  and  N5_16 
ROOT
HETATM    1  N1  UNL     1     -27.017 -11.536 -43.766  1.00  0.00    -0.384 N 
ATOM      2  H11 UNL     1     -27.196 -11.878 -44.711  1.00  0.00     0.157 HD
ATOM      3  H12 UNL     1     -27.228 -10.558 -43.567  1.00  0.00     0.157 HD
HETATM    4  C1  UNL     1     -26.534 -12.317 -42.834  1.00  0.00     0.116 A 
HETATM    5  C2  UNL     1     -26.294 -11.855 -41.558  1.00  0.00     0.138 A 
HETATM    6  N2  UNL     1     -25.796 -12.660 -40.596  1.00  0.00    -0.345 N 
ATOM      7  H2  UNL     1     -25.631 -12.285 -39.662  1.00  0.00     0.167 HD
HETATM    8  C3  UNL     1     -25.516 -13.947 -40.853  1.00  0.00     0.153 A 
HETATM    9  C4  UNL     1     -25.756 -14.415 -42.133  1.00  0.00     0.153 A 
HETATM   10  N3  UNL     1     -25.394 -15.710 -42.106  1.00  0.00    -0.335 N 
ATOM     11  H3  UNL     1     -25.451 -16.342 -42.905  1.00  0.00     0.168 HD
HETATM   12  C5  UNL     1     -24.947 -16.061 -40.890  1.00  0.00     0.186 A 
HETATM   13  N4  UNL     1     -25.023 -14.966 -40.111  1.00  0.00    -0.325 N 
HETATM   14  N6  UNL     1     -26.256 -13.606 -43.098  1.00  0.00    -0.325 N 
ATOM     15  H6  UNL     1     -26.424 -13.978 -44.033  1.00  0.00     0.169 HD
ENDROOT
BRANCH  13  16
HETATM   16  C6  UNL     1     -24.641 -14.894 -38.716  1.00  0.00     0.158 C 
BRANCH  16  17
HETATM   17  C7  UNL     1     -24.958 -16.241 -38.077  1.00  0.00     0.249 C 
BRANCH  17  18
HETATM   18  N5  UNL     1     -24.166 -16.383 -36.877  1.00  0.00    -0.078 N 
ATOM     19  H53 UNL     1     -23.340 -15.784 -36.881  1.00  0.00     0.274 HD
ATOM     20  H52 UNL     1     -24.625 -15.986 -36.057  1.00  0.00     0.274 HD
ATOM     21  H51 UNL     1     -23.932 -17.368 -36.754  1.00  0.00     0.274 HD
ENDBRANCH  17  18
ENDBRANCH  16  17
ENDBRANCH  13  16
TORSDOF 3
ENDMDL
MODEL 5
REMARK VINA RESULT: -4.970889926      1.288      5.273
REMARK  3 active torsions:
REMARK  status: ('A' for Active; 'I' for Inactive)
REMARK    1  A    between atoms: N4_13  and  C6_14 
REMARK    2  A    between atoms: C6_14  and  C7_15 
REMARK    3  A    between atoms: C7_15  and  N5_16 
ROOT
HETATM    1  N1  UNL     1     -26.251 -13.075 -43.453  1.00  0.00    -0.384 N 
ATOM      2  H11 UNL     1     -25.928 -13.368 -44.375  1.00  0.00     0.157 HD
ATOM      3  H12 UNL     1     -26.790 -12.211 -43.390  1.00  0.00     0.157 HD
HETATM    4  C1  UNL     1     -25.986 -13.773 -42.379  1.00  0.00     0.116 A 
HETATM    5  C2  UNL     1     -26.422 -13.377 -41.133  1.00  0.00     0.138 A 
HETATM    6  N2  UNL     1     -26.150 -14.097 -40.025  1.00  0.00    -0.345 N 
ATOM      7  H2  UNL     1     -26.489 -13.774 -39.119  1.00  0.00     0.167 HD
HETATM    8  C3  UNL     1     -25.439 -15.234 -40.101  1.00  0.00     0.153 A 
HETATM    9  C4  UNL     1     -25.000 -15.636 -41.350  1.00  0.00     0.153 A 
HETATM   10  N3  UNL     1     -24.330 -16.782 -41.133  1.00  0.00    -0.335 N 
ATOM     11  H3  UNL     1     -23.880 -17.334 -41.863  1.00  0.00     0.168 HD
HETATM   12  C5  UNL     1     -24.332 -17.104 -39.830  1.00  0.00     0.186 A 
HETATM   13  N4  UNL     1     -25.022 -16.142 -39.188  1.00  0.00    -0.325 N 
HETATM   14  N6  UNL     1     -25.274 -14.912 -42.462  1.00  0.00    -0.325 N 
ATOM     15  H6  UNL     1     -24.937 -15.232 -43.370  1.00  0.00     0.169 HD
ENDROOT
BRANCH  13  16
HETATM   16  C6  UNL     1     -25.272 -16.091 -37.763  1.00  0.00     0.158 C 
BRANCH  16  17
HETATM   17  C7  UNL     1     -24.071 -16.709 -37.057  1.00  0.00     0.249 C 
BRANCH  17  18
HETATM   18  N5  UNL     1     -24.348 -16.774 -35.640  1.00  0.00    -0.078 N 
ATOM     19  H53 UNL     1     -23.535 -17.062 -35.096  1.00  0.00     0.274 HD
ATOM     20  H52 UNL     1     -24.477 -15.852 -35.225  1.00  0.00     0.274 HD
ATOM     21  H51 UNL     1     -25.152 -17.384 -35.491  1.00  0.00     0.274 HD
ENDBRANCH  17  18
ENDBRANCH  16  17
ENDBRANCH  13  16
TORSDOF 3
ENDMDL
