MODEL 1
REMARK VINA RESULT: -9.237448430      0.000      0.000
REMARK  3 active torsions:
REMARK  status: ('A' for Active; 'I' for Inactive)
REMARK    1  A    between atoms: C3_3  and  O1_4 
REMARK    2  A    between atoms: C5_7  and  N1_8 
REMARK    3  A    between atoms: C11_15  and  N2_16 
ROOT
HETATM    1  C1  UNL     1       3.143  65.806 185.868  1.00  0.00     0.100 C 
HETATM    2  C2  UNL     1       2.854  65.213 186.903  1.00  0.00    -0.142 C 
HETATM    3  C3  UNL     1       2.519  64.477 188.126  1.00  0.00     0.177 C 
HETATM    4  C4  UNL     1       1.210  63.708 187.928  1.00  0.00     0.097 C 
HETATM    5  C5  UNL     1       0.692  63.189 189.219  1.00  0.00     0.251 C 
HETATM    6  C10 UNL     1       0.917  64.013 190.419  1.00  0.00     0.213 C 
HETATM    7  O2  UNL     1       2.018  64.798 190.462  1.00  0.00    -0.333 OA
HETATM    8  C11 UNL     1       2.314  65.412 189.287  1.00  0.00     0.173 C 
ENDROOT
BRANCH   3   9
HETATM    9  O1  UNL     1       3.457  63.491 188.265  1.00  0.00    -0.371 OA
ATOM     10  H1  UNL     1       4.103  63.626 187.581  1.00  0.00     0.212 HD
ENDBRANCH   3   9
BRANCH   8  11
HETATM   11  N2  UNL     1       2.956  66.664 189.221  1.00  0.00    -0.284 N 
HETATM   12  C12 UNL     1       4.263  66.891 189.596  1.00  0.00     0.191 A 
HETATM   13  N3  UNL     1       4.614  68.154 189.442  1.00  0.00    -0.347 N 
HETATM   14  C13 UNL     1       3.521  68.782 188.952  1.00  0.00     0.101 A 
ATOM     15  H3  UNL     1       5.522  68.569 189.649  1.00  0.00     0.167 HD
HETATM   16  C14 UNL     1       3.333  70.110 188.609  1.00  0.00     0.132 A 
HETATM   17  C17 UNL     1       2.484  67.849 188.815  1.00  0.00     0.095 A 
HETATM   18 CL1  UNL     1       4.673  71.234 188.803  1.00  0.00    -0.062 Cl
HETATM   19  N4  UNL     1       2.145  70.506 188.140  1.00  0.00    -0.353 N 
HETATM   20  C15 UNL     1       1.145  69.640 188.001  1.00  0.00     0.115 A 
ATOM     21  H4  UNL     1       2.004  71.484 187.885  1.00  0.00     0.166 HD
HETATM   22  C16 UNL     1       1.279  68.291 188.331  1.00  0.00     0.079 A 
HETATM   23 CL2  UNL     1      -0.049  67.196 188.130  1.00  0.00    -0.080 Cl
ENDBRANCH   8  11
BRANCH   5  24
HETATM   24  N1  UNL     1      -0.694  62.810 189.196  1.00  0.00     0.095 N 
HETATM   25  C6  UNL     1      -1.222  62.434 190.489  1.00  0.00     0.273 C 
HETATM   26  C7  UNL     1      -2.669  62.108 190.091  1.00  0.00     0.032 C 
HETATM   27  C8  UNL     1      -2.479  61.440 188.737  1.00  0.00     0.032 C 
HETATM   28  C9  UNL     1      -1.004  61.669 188.374  1.00  0.00     0.273 C 
ENDBRANCH   5  24
TORSDOF 3
ENDMDL
MODEL 2
REMARK VINA RESULT: -9.201607116      2.689      3.828
REMARK  3 active torsions:
REMARK  status: ('A' for Active; 'I' for Inactive)
REMARK    1  A    between atoms: C3_3  and  O1_4 
REMARK    2  A    between atoms: C5_7  and  N1_8 
REMARK    3  A    between atoms: C11_15  and  N2_16 
ROOT
HETATM    1  C1  UNL     1       5.203  63.650 190.487  1.00  0.00     0.100 C 
HETATM    2  C2  UNL     1       4.145  64.246 190.311  1.00  0.00    -0.142 C 
HETATM    3  C3  UNL     1       2.876  64.957 190.133  1.00  0.00     0.177 C 
HETATM    4  C4  UNL     1       1.709  63.972 190.237  1.00  0.00     0.097 C 
HETATM    5  C5  UNL     1       0.440  64.593 189.781  1.00  0.00     0.251 C 
HETATM    6  C10 UNL     1       0.520  65.565 188.677  1.00  0.00     0.213 C 
HETATM    7  O2  UNL     1       1.651  66.295 188.545  1.00  0.00    -0.333 OA
HETATM    8  C11 UNL     1       2.796  65.600 188.775  1.00  0.00     0.173 C 
ENDROOT
BRANCH   3   9
HETATM    9  O1  UNL     1       2.717  65.765 191.226  1.00  0.00    -0.371 OA
ATOM     10  H1  UNL     1       2.937  66.648 190.951  1.00  0.00     0.212 HD
ENDBRANCH   3   9
BRANCH   8  11
HETATM   11  N2  UNL     1       4.015  65.906 188.139  1.00  0.00    -0.284 N 
HETATM   12  C12 UNL     1       4.962  66.771 188.643  1.00  0.00     0.191 A 
HETATM   13  N3  UNL     1       6.007  66.885 187.846  1.00  0.00    -0.347 N 
HETATM   14  C13 UNL     1       5.754  66.080 186.790  1.00  0.00     0.101 A 
ATOM     15  H3  UNL     1       6.835  67.462 187.997  1.00  0.00     0.167 HD
HETATM   16  C14 UNL     1       6.514  65.822 185.661  1.00  0.00     0.132 A 
HETATM   17  C17 UNL     1       4.507  65.468 186.973  1.00  0.00     0.095 A 
HETATM   18 CL1  UNL     1       8.072  66.620 185.487  1.00  0.00    -0.062 Cl
HETATM   19  N4  UNL     1       6.049  64.977 184.735  1.00  0.00    -0.353 N 
HETATM   20  C15 UNL     1       4.868  64.384 184.886  1.00  0.00     0.115 A 
ATOM     21  H4  UNL     1       6.607  64.785 183.903  1.00  0.00     0.166 HD
HETATM   22  C16 UNL     1       4.062  64.607 186.003  1.00  0.00     0.079 A 
HETATM   23 CL2  UNL     1       2.531  63.811 186.161  1.00  0.00    -0.080 Cl
ENDBRANCH   8  11
BRANCH   5  24
HETATM   24  N1  UNL     1      -0.605  63.656 189.470  1.00  0.00     0.095 N 
HETATM   25  C6  UNL     1      -1.141  62.969 190.625  1.00  0.00     0.273 C 
HETATM   26  C7  UNL     1      -2.192  62.088 189.934  1.00  0.00     0.032 C 
HETATM   27  C8  UNL     1      -1.480  61.699 188.647  1.00  0.00     0.032 C 
HETATM   28  C9  UNL     1      -0.219  62.577 188.598  1.00  0.00     0.273 C 
ENDBRANCH   5  24
TORSDOF 3
ENDMDL
MODEL 3
REMARK VINA RESULT: -9.035351205      3.067      6.880
REMARK  3 active torsions:
REMARK  status: ('A' for Active; 'I' for Inactive)
REMARK    1  A    between atoms: C3_3  and  O1_4 
REMARK    2  A    between atoms: C5_7  and  N1_8 
REMARK    3  A    between atoms: C11_15  and  N2_16 
ROOT
HETATM    1  C1  UNL     1       0.396  66.979 188.012  1.00  0.00     0.100 C 
HETATM    2  C2  UNL     1       1.479  66.576 188.426  1.00  0.00    -0.142 C 
HETATM    3  C3  UNL     1       2.780  66.125 188.928  1.00  0.00     0.177 C 
HETATM    4  C4  UNL     1       3.869  66.426 187.893  1.00  0.00     0.097 C 
HETATM    5  C5  UNL     1       5.137  65.734 188.233  1.00  0.00     0.251 C 
HETATM    6  C10 UNL     1       5.038  64.410 188.869  1.00  0.00     0.213 C 
HETATM    7  O2  UNL     1       3.961  64.151 189.647  1.00  0.00    -0.333 OA
HETATM    8  C11 UNL     1       2.790  64.639 189.163  1.00  0.00     0.173 C 
ENDROOT
BRANCH   3   9
HETATM    9  O1  UNL     1       3.102  66.935 189.982  1.00  0.00    -0.371 OA
ATOM     10  H1  UNL     1       3.155  66.379 190.751  1.00  0.00     0.212 HD
ENDBRANCH   3   9
BRANCH   8  11
HETATM   11  N2  UNL     1       1.547  64.021 189.407  1.00  0.00    -0.284 N 
HETATM   12  C12 UNL     1       0.807  64.188 190.557  1.00  0.00     0.191 A 
HETATM   13  N3  UNL     1      -0.314  63.492 190.533  1.00  0.00    -0.347 N 
HETATM   14  C13 UNL     1      -0.323  62.849 189.343  1.00  0.00     0.101 A 
ATOM     15  H3  UNL     1      -1.026  63.448 191.261  1.00  0.00     0.167 HD
HETATM   16  C14 UNL     1      -1.260  61.987 188.801  1.00  0.00     0.132 A 
HETATM   17  C17 UNL     1       0.843  63.181 188.639  1.00  0.00     0.095 A 
HETATM   18 CL1  UNL     1      -2.704  61.608 189.732  1.00  0.00    -0.062 Cl
HETATM   19  N4  UNL     1      -1.049  61.464 187.588  1.00  0.00    -0.353 N 
HETATM   20  C15 UNL     1       0.050  61.763 186.900  1.00  0.00     0.115 A 
ATOM     21  H4  UNL     1      -1.738  60.828 187.186  1.00  0.00     0.166 HD
HETATM   22  C16 UNL     1       1.026  62.626 187.399  1.00  0.00     0.079 A 
HETATM   23 CL2  UNL     1       2.441  62.991 186.467  1.00  0.00    -0.080 Cl
ENDBRANCH   8  11
BRANCH   5  24
HETATM   24  N1  UNL     1       6.071  65.633 187.145  1.00  0.00     0.095 N 
HETATM   25  C6  UNL     1       6.794  66.856 186.874  1.00  0.00     0.273 C 
HETATM   26  C7  UNL     1       7.663  66.386 185.699  1.00  0.00     0.032 C 
HETATM   27  C8  UNL     1       6.705  65.478 184.943  1.00  0.00     0.032 C 
HETATM   28  C9  UNL     1       5.489  65.310 185.867  1.00  0.00     0.273 C 
ENDBRANCH   5  24
TORSDOF 3
ENDMDL
MODEL 4
REMARK VINA RESULT: -8.794657494      2.510      3.694
REMARK  3 active torsions:
REMARK  status: ('A' for Active; 'I' for Inactive)
REMARK    1  A    between atoms: C3_3  and  O1_4 
REMARK    2  A    between atoms: C5_7  and  N1_8 
REMARK    3  A    between atoms: C11_15  and  N2_16 
ROOT
HETATM    1  C1  UNL     1       6.420  66.690 191.749  1.00  0.00     0.100 C 
HETATM    2  C2  UNL     1       5.240  66.401 191.922  1.00  0.00    -0.142 C 
HETATM    3  C3  UNL     1       3.839  66.031 192.146  1.00  0.00     0.177 C 
HETATM    4  C4  UNL     1       3.481  64.811 191.293  1.00  0.00     0.097 C 
HETATM    5  C5  UNL     1       2.014  64.584 191.272  1.00  0.00     0.251 C 
HETATM    6  C10 UNL     1       1.144  65.772 191.303  1.00  0.00     0.213 C 
HETATM    7  O2  UNL     1       1.592  66.879 191.940  1.00  0.00    -0.333 OA
HETATM    8  C11 UNL     1       2.909  67.143 191.742  1.00  0.00     0.173 C 
ENDROOT
BRANCH   3   9
HETATM    9  O1  UNL     1       3.752  65.567 193.429  1.00  0.00    -0.371 OA
ATOM     10  H1  UNL     1       3.984  66.291 194.001  1.00  0.00     0.212 HD
ENDBRANCH   3   9
BRANCH   8  11
HETATM   11  N2  UNL     1       3.434  68.451 191.750  1.00  0.00    -0.284 N 
HETATM   12  C12 UNL     1       3.744  69.159 192.890  1.00  0.00     0.191 A 
HETATM   13  N3  UNL     1       4.213  70.362 192.618  1.00  0.00    -0.347 N 
HETATM   14  C13 UNL     1       4.217  70.459 191.269  1.00  0.00     0.101 A 
ATOM     15  H3  UNL     1       4.511  71.072 193.287  1.00  0.00     0.167 HD
HETATM   16  C14 UNL     1       4.608  71.503 190.449  1.00  0.00     0.132 A 
HETATM   17  C17 UNL     1       3.729  69.262 190.726  1.00  0.00     0.095 A 
HETATM   18 CL1  UNL     1       5.214  72.981 191.189  1.00  0.00    -0.062 Cl
HETATM   19  N4  UNL     1       4.519  71.367 189.122  1.00  0.00    -0.353 N 
HETATM   20  C15 UNL     1       4.058  70.241 188.583  1.00  0.00     0.115 A 
ATOM     21  H4  UNL     1       4.807  72.135 188.516  1.00  0.00     0.166 HD
HETATM   22  C16 UNL     1       3.651  69.158 189.361  1.00  0.00     0.079 A 
HETATM   23 CL2  UNL     1       3.060  67.708 188.617  1.00  0.00    -0.080 Cl
ENDBRANCH   8  11
BRANCH   5  24
HETATM   24  N1  UNL     1       1.558  63.731 190.208  1.00  0.00     0.095 N 
HETATM   25  C6  UNL     1       1.853  64.233 188.884  1.00  0.00     0.273 C 
HETATM   26  C7  UNL     1       1.245  63.104 188.039  1.00  0.00     0.032 C 
HETATM   27  C8  UNL     1      -0.003  62.754 188.836  1.00  0.00     0.032 C 
HETATM   28  C9  UNL     1       0.134  63.515 190.164  1.00  0.00     0.273 C 
ENDBRANCH   5  24
TORSDOF 3
ENDMDL
MODEL 5
REMARK VINA RESULT: -8.659307951      3.204      6.833
REMARK  3 active torsions:
REMARK  status: ('A' for Active; 'I' for Inactive)
REMARK    1  A    between atoms: C3_3  and  O1_4 
REMARK    2  A    between atoms: C5_7  and  N1_8 
REMARK    3  A    between atoms: C11_15  and  N2_16 
ROOT
HETATM    1  C1  UNL     1       1.012  67.099 188.936  1.00  0.00     0.100 C 
HETATM    2  C2  UNL     1       1.423  66.649 190.001  1.00  0.00    -0.142 C 
HETATM    3  C3  UNL     1       1.906  66.139 191.288  1.00  0.00     0.177 C 
HETATM    4  C4  UNL     1       3.256  66.776 191.627  1.00  0.00     0.097 C 
HETATM    5  C5  UNL     1       3.907  66.080 192.765  1.00  0.00     0.251 C 
HETATM    6  C10 UNL     1       3.704  64.626 192.876  1.00  0.00     0.213 C 
HETATM    7  O2  UNL     1       2.548  64.102 192.407  1.00  0.00    -0.333 OA
HETATM    8  C11 UNL     1       2.118  64.650 191.241  1.00  0.00     0.173 C 
ENDROOT
BRANCH   3   9
HETATM    9  O1  UNL     1       1.065  66.628 192.250  1.00  0.00    -0.371 OA
ATOM     10  H1  UNL     1       0.293  66.074 192.249  1.00  0.00     0.212 HD
ENDBRANCH   3   9
BRANCH   8  11
HETATM   11  N2  UNL     1       1.372  63.927 190.288  1.00  0.00    -0.284 N 
HETATM   12  C12 UNL     1       0.094  63.455 190.495  1.00  0.00     0.191 A 
HETATM   13  N3  UNL     1      -0.373  62.805 189.445  1.00  0.00    -0.347 N 
HETATM   14  C13 UNL     1       0.612  62.846 188.519  1.00  0.00     0.101 A 
ATOM     15  H3  UNL     1      -1.287  62.364 189.352  1.00  0.00     0.167 HD
HETATM   16  C14 UNL     1       0.656  62.323 187.238  1.00  0.00     0.132 A 
HETATM   17  C17 UNL     1       1.704  63.548 189.048  1.00  0.00     0.095 A 
HETATM   18 CL1  UNL     1      -0.746  61.452 186.629  1.00  0.00    -0.062 Cl
HETATM   19  N4  UNL     1       1.757  62.491 186.497  1.00  0.00    -0.353 N 
HETATM   20  C15 UNL     1       2.806  63.153 186.976  1.00  0.00     0.115 A 
ATOM     21  H4  UNL     1       1.791  62.107 185.552  1.00  0.00     0.166 HD
HETATM   22  C16 UNL     1       2.815  63.701 188.259  1.00  0.00     0.079 A 
HETATM   23 CL2  UNL     1       4.203  64.559 188.843  1.00  0.00    -0.080 Cl
ENDBRANCH   8  11
BRANCH   5  24
HETATM   24  N1  UNL     1       5.315  66.340 192.897  1.00  0.00     0.095 N 
HETATM   25  C6  UNL     1       6.058  66.194 191.664  1.00  0.00     0.273 C 
HETATM   26  C7  UNL     1       7.466  66.538 192.170  1.00  0.00     0.032 C 
HETATM   27  C8  UNL     1       7.471  65.891 193.547  1.00  0.00     0.032 C 
HETATM   28  C9  UNL     1       6.017  65.469 193.804  1.00  0.00     0.273 C 
ENDBRANCH   5  24
TORSDOF 3
ENDMDL
