MODEL 1
REMARK VINA RESULT: -9.241304844      0.000      0.000
REMARK  5 active torsions:
REMARK  status: ('A' for Active; 'I' for Inactive)
REMARK    1  A    between atoms: C2_2  and  O1_4 
REMARK    2  A    between atoms: O1_4  and  C4_5 
REMARK       I    between atoms: C4_5  and  N1_7 
REMARK    3  A    between atoms: N2_10  and  C7_11 
REMARK    4  A    between atoms: C8_12  and  O3_13 
REMARK    5  A    between atoms: C11_17  and  O4_18 
ROOT
HETATM    1  C7  UNL     1       0.713  63.659 189.642  1.00  0.00     0.091 A 
HETATM    2  C8  UNL     1      -0.531  63.198 190.002  1.00  0.00     0.128 A 
HETATM    3  C9  UNL     1      -1.190  62.320 189.144  1.00  0.00     0.113 A 
HETATM    4  C10 UNL     1      -0.590  61.934 187.964  1.00  0.00     0.015 A 
HETATM    5  C11 UNL     1       0.659  62.406 187.619  1.00  0.00     0.099 A 
HETATM    6  C12 UNL     1       1.323  63.271 188.449  1.00  0.00     0.097 A 
HETATM    7 CL1  UNL     1       2.906  63.854 187.988  1.00  0.00    -0.079 Cl
HETATM    8  C13 UNL     1      -1.558  61.000 187.293  1.00  0.00     0.071 C 
HETATM    9  C14 UNL     1      -2.386  60.529 188.465  1.00  0.00     0.180 C 
HETATM   10  O5  UNL     1      -2.434  61.717 189.268  1.00  0.00    -0.347 OA
ENDROOT
BRANCH   1  11
HETATM   11  N2  UNL     1       1.409  64.555 190.495  1.00  0.00    -0.371 N 
HETATM   12  C6  UNL     1       1.229  65.991 190.457  1.00  0.00     0.143 C 
HETATM   13  C5  UNL     1       1.583  66.622 191.768  1.00  0.00     0.151 C 
HETATM   14  N1  UNL     1       2.927  66.230 192.155  1.00  0.00    -0.294 N 
HETATM   15  C4  UNL     1       3.736  67.028 193.001  1.00  0.00     0.365 C 
HETATM   16  C16 UNL     1       3.467  64.979 191.660  1.00  0.00     0.293 C 
HETATM   17  O2  UNL     1       4.885  66.626 193.292  1.00  0.00    -0.238 OA
HETATM   18  C15 UNL     1       2.349  64.001 191.454  1.00  0.00     0.182 C 
HETATM   19  F1  UNL     1       4.381  64.415 192.506  1.00  0.00    -0.225 F 
BRANCH  15  20
HETATM   20  O1  UNL     1       3.329  68.237 193.532  1.00  0.00    -0.299 OA
BRANCH  20  21
HETATM   21  C2  UNL     1       3.264  69.434 192.784  1.00  0.00     0.125 C 
HETATM   22  C1  UNL     1       4.421  70.346 193.022  1.00  0.00     0.040 C 
HETATM   23  C3  UNL     1       1.997  70.157 193.216  1.00  0.00     0.040 C 
ENDBRANCH  20  21
ENDBRANCH  15  20
ENDBRANCH   1  11
BRANCH   2  24
HETATM   24  O3  UNL     1      -1.144  63.584 191.193  1.00  0.00    -0.356 OA
ATOM     25  H3  UNL     1      -1.948  64.091 191.203  1.00  0.00     0.218 HD
ENDBRANCH   2  24
BRANCH   5  26
HETATM   26  O4  UNL     1       1.195  61.972 186.418  1.00  0.00    -0.358 OA
ATOM     27  H4  UNL     1       1.996  62.388 186.120  1.00  0.00     0.217 HD
ENDBRANCH   5  26
TORSDOF 5
ENDMDL
MODEL 2
REMARK VINA RESULT: -9.085764102      1.009      1.181
REMARK  5 active torsions:
REMARK  status: ('A' for Active; 'I' for Inactive)
REMARK    1  A    between atoms: C2_2  and  O1_4 
REMARK    2  A    between atoms: O1_4  and  C4_5 
REMARK       I    between atoms: C4_5  and  N1_7 
REMARK    3  A    between atoms: N2_10  and  C7_11 
REMARK    4  A    between atoms: C8_12  and  O3_13 
REMARK    5  A    between atoms: C11_17  and  O4_18 
ROOT
HETATM    1  C7  UNL     1       0.500  63.530 189.087  1.00  0.00     0.091 A 
HETATM    2  C8  UNL     1      -0.647  63.106 189.714  1.00  0.00     0.128 A 
HETATM    3  C9  UNL     1      -1.393  62.088 189.123  1.00  0.00     0.113 A 
HETATM    4  C10 UNL     1      -0.972  61.530 187.934  1.00  0.00     0.015 A 
HETATM    5  C11 UNL     1       0.183  61.967 187.319  1.00  0.00     0.099 A 
HETATM    6  C12 UNL     1       0.929  62.968 187.884  1.00  0.00     0.097 A 
HETATM    7 CL1  UNL     1       2.389  63.503 187.083  1.00  0.00    -0.079 Cl
HETATM    8  C13 UNL     1      -1.989  60.481 187.586  1.00  0.00     0.071 C 
HETATM    9  C14 UNL     1      -2.597  60.187 188.937  1.00  0.00     0.180 C 
HETATM   10  O5  UNL     1      -2.571  61.486 189.543  1.00  0.00    -0.347 OA
ENDROOT
BRANCH   1  11
HETATM   11  N2  UNL     1       1.281  64.565 189.664  1.00  0.00    -0.371 N 
HETATM   12  C6  UNL     1       1.102  65.966 189.347  1.00  0.00     0.143 C 
HETATM   13  C5  UNL     1       1.587  66.844 190.458  1.00  0.00     0.151 C 
HETATM   14  N1  UNL     1       2.962  66.509 190.785  1.00  0.00    -0.294 N 
HETATM   15  C4  UNL     1       3.854  67.444 191.366  1.00  0.00     0.365 C 
HETATM   16  C16 UNL     1       3.446  65.171 190.511  1.00  0.00     0.293 C 
HETATM   17  O2  UNL     1       5.025  67.084 191.621  1.00  0.00    -0.238 OA
HETATM   18  C15 UNL     1       2.310  64.198 190.622  1.00  0.00     0.182 C 
HETATM   19  F1  UNL     1       4.438  64.771 191.363  1.00  0.00    -0.225 F 
BRANCH  15  20
HETATM   20  O1  UNL     1       3.506  68.746 191.671  1.00  0.00    -0.299 OA
BRANCH  20  21
HETATM   21  C2  UNL     1       3.731  69.337 192.935  1.00  0.00     0.125 C 
HETATM   22  C1  UNL     1       2.518  69.362 193.803  1.00  0.00     0.040 C 
HETATM   23  C3  UNL     1       4.158  70.775 192.681  1.00  0.00     0.040 C 
ENDBRANCH  20  21
ENDBRANCH  15  20
ENDBRANCH   1  11
BRANCH   2  24
HETATM   24  O3  UNL     1      -1.080  63.665 190.916  1.00  0.00    -0.356 OA
ATOM     25  H3  UNL     1      -1.972  63.969 191.036  1.00  0.00     0.218 HD
ENDBRANCH   2  24
BRANCH   5  26
HETATM   26  O4  UNL     1       0.540  61.358 186.127  1.00  0.00    -0.358 OA
ATOM     27  H4  UNL     1       1.224  61.770 185.613  1.00  0.00     0.217 HD
ENDBRANCH   5  26
TORSDOF 5
ENDMDL
MODEL 3
REMARK VINA RESULT: -9.067582907      3.986      5.108
REMARK  5 active torsions:
REMARK  status: ('A' for Active; 'I' for Inactive)
REMARK    1  A    between atoms: C2_2  and  O1_4 
REMARK    2  A    between atoms: O1_4  and  C4_5 
REMARK       I    between atoms: C4_5  and  N1_7 
REMARK    3  A    between atoms: N2_10  and  C7_11 
REMARK    4  A    between atoms: C8_12  and  O3_13 
REMARK    5  A    between atoms: C11_17  and  O4_18 
ROOT
HETATM    1  C7  UNL     1       1.117  63.567 188.522  1.00  0.00     0.091 A 
HETATM    2  C8  UNL     1       0.687  62.614 187.629  1.00  0.00     0.128 A 
HETATM    3  C9  UNL     1      -0.453  61.876 187.939  1.00  0.00     0.113 A 
HETATM    4  C10 UNL     1      -1.123  62.111 189.121  1.00  0.00     0.015 A 
HETATM    5  C11 UNL     1      -0.679  63.072 190.006  1.00  0.00     0.099 A 
HETATM    6  C12 UNL     1       0.441  63.808 189.719  1.00  0.00     0.097 A 
HETATM    7 CL1  UNL     1       0.983  65.020 190.858  1.00  0.00    -0.079 Cl
HETATM    8  C13 UNL     1      -2.284  61.158 189.136  1.00  0.00     0.071 C 
HETATM    9  C14 UNL     1      -2.450  60.860 187.665  1.00  0.00     0.180 C 
HETATM   10  O5  UNL     1      -1.086  60.870 187.222  1.00  0.00    -0.347 OA
ENDROOT
BRANCH   1  11
HETATM   11  N2  UNL     1       2.275  64.335 188.235  1.00  0.00    -0.371 N 
HETATM   12  C6  UNL     1       3.617  63.900 188.560  1.00  0.00     0.143 C 
HETATM   13  C5  UNL     1       4.632  64.549 187.671  1.00  0.00     0.151 C 
HETATM   14  N1  UNL     1       4.477  65.993 187.719  1.00  0.00    -0.294 N 
HETATM   15  C4  UNL     1       5.549  66.881 187.455  1.00  0.00     0.365 C 
HETATM   16  C16 UNL     1       3.181  66.552 188.050  1.00  0.00     0.293 C 
HETATM   17  O2  UNL     1       5.341  68.114 187.515  1.00  0.00    -0.238 OA
HETATM   18  C15 UNL     1       2.103  65.621 187.582  1.00  0.00     0.182 C 
HETATM   19  F1  UNL     1       2.964  67.778 187.487  1.00  0.00    -0.225 F 
BRANCH  15  20
HETATM   20  O1  UNL     1       6.825  66.464 187.130  1.00  0.00    -0.299 OA
BRANCH  20  21
HETATM   21  C2  UNL     1       7.479  66.818 185.928  1.00  0.00     0.125 C 
HETATM   22  C1  UNL     1       7.526  65.710 184.929  1.00  0.00     0.040 C 
HETATM   23  C3  UNL     1       8.909  67.184 186.293  1.00  0.00     0.040 C 
ENDBRANCH  20  21
ENDBRANCH  15  20
ENDBRANCH   1  11
BRANCH   2  24
HETATM   24  O3  UNL     1       1.360  62.370 186.432  1.00  0.00    -0.356 OA
ATOM     25  H3  UNL     1       1.379  61.508 186.034  1.00  0.00     0.218 HD
ENDBRANCH   2  24
BRANCH   5  26
HETATM   26  O4  UNL     1      -1.405  63.249 191.172  1.00  0.00    -0.358 OA
ATOM     27  H4  UNL     1      -2.094  63.903 191.162  1.00  0.00     0.217 HD
ENDBRANCH   5  26
TORSDOF 5
ENDMDL
MODEL 4
REMARK VINA RESULT: -8.920757178      1.450      2.259
REMARK  5 active torsions:
REMARK  status: ('A' for Active; 'I' for Inactive)
REMARK    1  A    between atoms: C2_2  and  O1_4 
REMARK    2  A    between atoms: O1_4  and  C4_5 
REMARK       I    between atoms: C4_5  and  N1_7 
REMARK    3  A    between atoms: N2_10  and  C7_11 
REMARK    4  A    between atoms: C8_12  and  O3_13 
REMARK    5  A    between atoms: C11_17  and  O4_18 
ROOT
HETATM    1  C7  UNL     1       0.636  63.519 189.560  1.00  0.00     0.091 A 
HETATM    2  C8  UNL     1      -0.602  63.121 190.005  1.00  0.00     0.128 A 
HETATM    3  C9  UNL     1      -1.350  62.256 189.208  1.00  0.00     0.113 A 
HETATM    4  C10 UNL     1      -0.841  61.821 188.003  1.00  0.00     0.015 A 
HETATM    5  C11 UNL     1       0.403  62.230 187.572  1.00  0.00     0.099 A 
HETATM    6  C12 UNL     1       1.154  63.081 188.341  1.00  0.00     0.097 A 
HETATM    7 CL1  UNL     1       2.729  63.584 187.772  1.00  0.00    -0.079 Cl
HETATM    8  C13 UNL     1      -1.888  60.918 187.413  1.00  0.00     0.071 C 
HETATM    9  C14 UNL     1      -2.662  60.508 188.643  1.00  0.00     0.180 C 
HETATM   10  O5  UNL     1      -2.609  61.712 189.421  1.00  0.00    -0.347 OA
ENDROOT
BRANCH   1  11
HETATM   11  N2  UNL     1       1.421  64.400 190.350  1.00  0.00    -0.371 N 
HETATM   12  C6  UNL     1       2.201  63.964 191.489  1.00  0.00     0.143 C 
HETATM   13  C5  UNL     1       3.341  64.896 191.760  1.00  0.00     0.151 C 
HETATM   14  N1  UNL     1       2.843  66.253 191.901  1.00  0.00    -0.294 N 
HETATM   15  C4  UNL     1       3.524  67.237 192.659  1.00  0.00     0.365 C 
HETATM   16  C16 UNL     1       1.605  66.622 191.244  1.00  0.00     0.293 C 
HETATM   17  O2  UNL     1       3.035  68.387 192.736  1.00  0.00    -0.238 OA
HETATM   18  C15 UNL     1       1.442  65.808 189.994  1.00  0.00     0.182 C 
HETATM   19  F1  UNL     1       1.548  67.945 190.905  1.00  0.00    -0.225 F 
BRANCH  15  20
HETATM   20  O1  UNL     1       4.710  67.002 193.328  1.00  0.00    -0.299 OA
BRANCH  20  21
HETATM   21  C2  UNL     1       5.982  67.294 192.787  1.00  0.00     0.125 C 
HETATM   22  C1  UNL     1       6.321  66.469 191.590  1.00  0.00     0.040 C 
HETATM   23  C3  UNL     1       7.005  66.993 193.871  1.00  0.00     0.040 C 
ENDBRANCH  20  21
ENDBRANCH  15  20
ENDBRANCH   1  11
BRANCH   2  24
HETATM   24  O3  UNL     1      -1.124  63.557 191.222  1.00  0.00    -0.356 OA
ATOM     25  H3  UNL     1      -1.080  64.468 191.490  1.00  0.00     0.218 HD
ENDBRANCH   2  24
BRANCH   5  26
HETATM   26  O4  UNL     1       0.845  61.750 186.351  1.00  0.00    -0.358 OA
ATOM     27  H4  UNL     1       0.541  60.891 186.082  1.00  0.00     0.217 HD
ENDBRANCH   5  26
TORSDOF 5
ENDMDL
MODEL 5
REMARK VINA RESULT: -8.765375337      1.873      2.438
REMARK  5 active torsions:
REMARK  status: ('A' for Active; 'I' for Inactive)
REMARK    1  A    between atoms: C2_2  and  O1_4 
REMARK    2  A    between atoms: O1_4  and  C4_5 
REMARK       I    between atoms: C4_5  and  N1_7 
REMARK    3  A    between atoms: N2_10  and  C7_11 
REMARK    4  A    between atoms: C8_12  and  O3_13 
REMARK    5  A    between atoms: C11_17  and  O4_18 
ROOT
HETATM    1  C7  UNL     1       0.357  63.386 188.737  1.00  0.00     0.091 A 
HETATM    2  C8  UNL     1      -0.776  62.949 189.381  1.00  0.00     0.128 A 
HETATM    3  C9  UNL     1      -1.476  61.871 188.841  1.00  0.00     0.113 A 
HETATM    4  C10 UNL     1      -1.025  61.270 187.685  1.00  0.00     0.015 A 
HETATM    5  C11 UNL     1       0.115  61.721 187.052  1.00  0.00     0.099 A 
HETATM    6  C12 UNL     1       0.816  62.780 187.567  1.00  0.00     0.097 A 
HETATM    7 CL1  UNL     1       2.258  63.332 186.745  1.00  0.00    -0.079 Cl
HETATM    8  C13 UNL     1      -1.996  60.163 187.388  1.00  0.00     0.071 C 
HETATM    9  C14 UNL     1      -2.599  59.915 188.750  1.00  0.00     0.180 C 
HETATM   10  O5  UNL     1      -2.631  61.244 189.287  1.00  0.00    -0.347 OA
ENDROOT
BRANCH   1  11
HETATM   11  N2  UNL     1       1.091  64.482 189.262  1.00  0.00    -0.371 N 
HETATM   12  C6  UNL     1       2.032  64.356 190.354  1.00  0.00     0.143 C 
HETATM   13  C5  UNL     1       3.056  65.448 190.321  1.00  0.00     0.151 C 
HETATM   14  N1  UNL     1       2.396  66.741 190.289  1.00  0.00    -0.294 N 
HETATM   15  C4  UNL     1       3.010  67.920 190.780  1.00  0.00     0.365 C 
HETATM   16  C16 UNL     1       1.060  66.836 189.736  1.00  0.00     0.293 C 
HETATM   17  O2  UNL     1       2.380  69.000 190.719  1.00  0.00    -0.238 OA
HETATM   18  C15 UNL     1       0.885  65.793 188.673  1.00  0.00     0.182 C 
HETATM   19  F1  UNL     1       0.790  68.059 189.186  1.00  0.00    -0.225 F 
BRANCH  15  20
HETATM   20  O1  UNL     1       4.277  67.951 191.328  1.00  0.00    -0.299 OA
BRANCH  20  21
HETATM   21  C2  UNL     1       4.527  67.901 192.718  1.00  0.00     0.125 C 
HETATM   22  C1  UNL     1       4.723  69.246 193.335  1.00  0.00     0.040 C 
HETATM   23  C3  UNL     1       5.809  67.104 192.909  1.00  0.00     0.040 C 
ENDBRANCH  20  21
ENDBRANCH  15  20
ENDBRANCH   1  11
BRANCH   2  24
HETATM   24  O3  UNL     1      -1.239  63.552 190.549  1.00  0.00    -0.356 OA
ATOM     25  H3  UNL     1      -1.726  64.368 190.535  1.00  0.00     0.218 HD
ENDBRANCH   2  24
BRANCH   5  26
HETATM   26  O4  UNL     1       0.504  61.066 185.896  1.00  0.00    -0.358 OA
ATOM     27  H4  UNL     1       1.340  61.308 185.516  1.00  0.00     0.217 HD
ENDBRANCH   5  26
TORSDOF 5
ENDMDL
