MODEL 1
REMARK VINA RESULT: -6.908224287      0.000      0.000
REMARK  3 active torsions:
REMARK  status: ('A' for Active; 'I' for Inactive)
REMARK    1  A    between atoms: N1_1  and  C1_5 
REMARK    2  A    between atoms: C5_9  and  C6_10 
REMARK    3  A    between atoms: C6_10  and  N2_11 
ROOT
HETATM    1  C1  UNL     1      41.282  35.137  54.460  1.00  0.00     0.183 C 
HETATM    2  C2  UNL     1      41.874  36.495  54.528  1.00  0.00     0.033 C 
HETATM    3  C3  UNL     1      43.108  36.624  55.367  1.00  0.00     0.002 C 
HETATM    4  C4  UNL     1      42.906  35.830  56.631  1.00  0.00     0.006 C 
HETATM    5  C5  UNL     1      42.887  34.367  56.253  1.00  0.00     0.016 C 
HETATM    6  C12 UNL     1      42.130  34.051  55.021  1.00  0.00     0.039 C 
ENDROOT
BRANCH   5   7
HETATM    7  C6  UNL     1      42.490  33.569  57.475  1.00  0.00     0.277 C 
BRANCH   7   8
HETATM    8  N2  UNL     1      43.140  32.265  57.323  1.00  0.00     0.088 N 
HETATM    9  C7  UNL     1      42.136  31.261  57.263  1.00  0.00     0.272 C 
HETATM   10  C8  UNL     1      42.510  29.951  57.898  1.00  0.00     0.030 C 
HETATM   11  C9  UNL     1      44.004  29.768  57.631  1.00  0.00     0.003 C 
HETATM   12  C10 UNL     1      44.683  30.763  58.558  1.00  0.00     0.030 C 
HETATM   13  C11 UNL     1      44.175  32.134  58.272  1.00  0.00     0.272 C 
ENDBRANCH   7   8
ENDBRANCH   5   7
BRANCH   1  14
HETATM   14  N1  UNL     1      39.950  35.034  55.022  1.00  0.00    -0.075 N 
ATOM     15  H13 UNL     1      39.987  34.627  55.956  1.00  0.00     0.274 HD
ATOM     16  H12 UNL     1      39.588  35.960  55.249  1.00  0.00     0.274 HD
ATOM     17  H11 UNL     1      39.284  34.526  54.440  1.00  0.00     0.274 HD
ENDBRANCH   1  14
TORSDOF 3
ENDMDL
MODEL 2
REMARK VINA RESULT: -6.541566323      1.520      5.963
REMARK  3 active torsions:
REMARK  status: ('A' for Active; 'I' for Inactive)
REMARK    1  A    between atoms: N1_1  and  C1_5 
REMARK    2  A    between atoms: C5_9  and  C6_10 
REMARK    3  A    between atoms: C6_10  and  N2_11 
ROOT
HETATM    1  C1  UNL     1      43.997  29.687  59.183  1.00  0.00     0.183 C 
HETATM    2  C2  UNL     1      44.063  28.405  58.441  1.00  0.00     0.033 C 
HETATM    3  C3  UNL     1      43.817  28.494  56.966  1.00  0.00     0.002 C 
HETATM    4  C4  UNL     1      42.663  29.437  56.736  1.00  0.00     0.006 C 
HETATM    5  C5  UNL     1      43.129  30.827  57.102  1.00  0.00     0.016 C 
HETATM    6  C12 UNL     1      43.949  30.906  58.333  1.00  0.00     0.039 C 
ENDROOT
BRANCH   5   7
HETATM    7  C6  UNL     1      41.931  31.750  57.066  1.00  0.00     0.277 C 
BRANCH   7   8
HETATM    8  N2  UNL     1      42.341  32.894  56.247  1.00  0.00     0.088 N 
HETATM    9  C7  UNL     1      42.439  34.039  57.082  1.00  0.00     0.272 C 
HETATM   10  C8  UNL     1      42.046  35.335  56.431  1.00  0.00     0.030 C 
HETATM   11  C9  UNL     1      42.494  35.225  54.974  1.00  0.00     0.003 C 
HETATM   12  C10 UNL     1      41.509  34.254  54.344  1.00  0.00     0.030 C 
HETATM   13  C11 UNL     1      41.536  32.965  55.090  1.00  0.00     0.272 C 
ENDBRANCH   7   8
ENDBRANCH   5   7
BRANCH   1  14
HETATM   14  N1  UNL     1      42.937  29.756  60.170  1.00  0.00    -0.075 N 
ATOM     15  H13 UNL     1      42.037  29.907  59.714  1.00  0.00     0.274 HD
ATOM     16  H12 UNL     1      42.774  28.837  60.580  1.00  0.00     0.274 HD
ATOM     17  H11 UNL     1      43.086  30.451  60.902  1.00  0.00     0.274 HD
ENDBRANCH   1  14
TORSDOF 3
ENDMDL
MODEL 3
REMARK VINA RESULT: -6.368851458      1.619      5.740
REMARK  3 active torsions:
REMARK  status: ('A' for Active; 'I' for Inactive)
REMARK    1  A    between atoms: N1_1  and  C1_5 
REMARK    2  A    between atoms: C5_9  and  C6_10 
REMARK    3  A    between atoms: C6_10  and  N2_11 
ROOT
HETATM    1  C1  UNL     1      44.849  32.629  59.580  1.00  0.00     0.183 C 
HETATM    2  C2  UNL     1      44.471  31.235  59.243  1.00  0.00     0.033 C 
HETATM    3  C3  UNL     1      43.784  31.048  57.926  1.00  0.00     0.002 C 
HETATM    4  C4  UNL     1      42.781  32.160  57.754  1.00  0.00     0.006 C 
HETATM    5  C5  UNL     1      43.553  33.447  57.572  1.00  0.00     0.016 C 
HETATM    6  C12 UNL     1      44.724  33.603  58.464  1.00  0.00     0.039 C 
ENDROOT
BRANCH   5   7
HETATM    7  C6  UNL     1      42.568  34.594  57.596  1.00  0.00     0.277 C 
BRANCH   7   8
HETATM    8  N2  UNL     1      42.231  34.853  56.193  1.00  0.00     0.088 N 
HETATM    9  C7  UNL     1      42.945  36.002  55.760  1.00  0.00     0.272 C 
HETATM   10  C8  UNL     1      42.214  36.868  54.772  1.00  0.00     0.030 C 
HETATM   11  C9  UNL     1      41.400  35.913  53.899  1.00  0.00     0.003 C 
HETATM   12  C10 UNL     1      40.267  35.446  54.797  1.00  0.00     0.030 C 
HETATM   13  C11 UNL     1      40.831  34.821  56.025  1.00  0.00     0.272 C 
ENDBRANCH   7   8
ENDBRANCH   5   7
BRANCH   1  14
HETATM   14  N1  UNL     1      44.185  33.164  60.752  1.00  0.00    -0.075 N 
ATOM     15  H13 UNL     1      43.185  32.965  60.716  1.00  0.00     0.274 HD
ATOM     16  H12 UNL     1      44.441  32.629  61.581  1.00  0.00     0.274 HD
ATOM     17  H11 UNL     1      44.343  34.160  60.909  1.00  0.00     0.274 HD
ENDBRANCH   1  14
TORSDOF 3
ENDMDL
MODEL 4
REMARK VINA RESULT: -6.247177251      1.146      1.335
REMARK  3 active torsions:
REMARK  status: ('A' for Active; 'I' for Inactive)
REMARK    1  A    between atoms: N1_1  and  C1_5 
REMARK    2  A    between atoms: C5_9  and  C6_10 
REMARK    3  A    between atoms: C6_10  and  N2_11 
ROOT
HETATM    1  C1  UNL     1      41.748  33.623  54.248  1.00  0.00     0.183 C 
HETATM    2  C2  UNL     1      40.951  34.843  53.971  1.00  0.00     0.033 C 
HETATM    3  C3  UNL     1      41.159  35.984  54.918  1.00  0.00     0.002 C 
HETATM    4  C4  UNL     1      41.222  35.430  56.319  1.00  0.00     0.006 C 
HETATM    5  C5  UNL     1      42.501  34.634  56.438  1.00  0.00     0.016 C 
HETATM    6  C12 UNL     1      42.821  33.788  55.265  1.00  0.00     0.039 C 
ENDROOT
BRANCH   5   7
HETATM    7  C6  UNL     1      42.484  33.912  57.767  1.00  0.00     0.277 C 
BRANCH   7   8
HETATM    8  N2  UNL     1      43.213  32.659  57.544  1.00  0.00     0.088 N 
HETATM    9  C7  UNL     1      42.302  31.576  57.666  1.00  0.00     0.272 C 
HETATM   10  C8  UNL     1      42.882  30.325  58.263  1.00  0.00     0.030 C 
HETATM   11  C9  UNL     1      44.326  30.254  57.769  1.00  0.00     0.003 C 
HETATM   12  C10 UNL     1      45.052  31.334  58.554  1.00  0.00     0.030 C 
HETATM   13  C11 UNL     1      44.390  32.648  58.321  1.00  0.00     0.272 C 
ENDBRANCH   7   8
ENDBRANCH   5   7
BRANCH   1  14
HETATM   14  N1  UNL     1      40.959  32.452  54.578  1.00  0.00    -0.075 N 
ATOM     15  H13 UNL     1      40.308  32.238  53.823  1.00  0.00     0.274 HD
ATOM     16  H12 UNL     1      41.539  31.614  54.552  1.00  0.00     0.274 HD
ATOM     17  H11 UNL     1      40.464  32.513  55.468  1.00  0.00     0.274 HD
ENDBRANCH   1  14
TORSDOF 3
ENDMDL
MODEL 5
REMARK VINA RESULT: -6.127768172      2.315      5.594
REMARK  3 active torsions:
REMARK  status: ('A' for Active; 'I' for Inactive)
REMARK    1  A    between atoms: N1_1  and  C1_5 
REMARK    2  A    between atoms: C5_9  and  C6_10 
REMARK    3  A    between atoms: C6_10  and  N2_11 
ROOT
HETATM    1  C1  UNL     1      45.411  33.045  58.521  1.00  0.00     0.183 C 
HETATM    2  C2  UNL     1      45.246  32.859  59.983  1.00  0.00     0.033 C 
HETATM    3  C3  UNL     1      43.934  33.302  60.552  1.00  0.00     0.002 C 
HETATM    4  C4  UNL     1      43.565  34.618  59.917  1.00  0.00     0.006 C 
HETATM    5  C5  UNL     1      43.249  34.352  58.464  1.00  0.00     0.016 C 
HETATM    6  C12 UNL     1      44.168  33.408  57.789  1.00  0.00     0.039 C 
ENDROOT
BRANCH   5   7
HETATM    7  C6  UNL     1      43.070  35.683  57.769  1.00  0.00     0.277 C 
BRANCH   7   8
HETATM    8  N2  UNL     1      42.539  35.366  56.440  1.00  0.00     0.088 N 
HETATM    9  C7  UNL     1      42.963  36.370  55.530  1.00  0.00     0.272 C 
HETATM   10  C8  UNL     1      41.975  36.705  54.448  1.00  0.00     0.030 C 
HETATM   11  C9  UNL     1      41.275  35.392  54.100  1.00  0.00     0.003 C 
HETATM   12  C10 UNL     1      40.358  35.122  55.281  1.00  0.00     0.030 C 
HETATM   13  C11 UNL     1      41.163  35.072  56.534  1.00  0.00     0.272 C 
ENDBRANCH   7   8
ENDBRANCH   5   7
BRANCH   1  14
HETATM   14  N1  UNL     1      46.465  33.967  58.149  1.00  0.00    -0.075 N 
ATOM     15  H13 UNL     1      46.340  34.862  58.623  1.00  0.00     0.274 HD
ATOM     16  H12 UNL     1      47.353  33.676  58.557  1.00  0.00     0.274 HD
ATOM     17  H11 UNL     1      46.567  34.110  57.144  1.00  0.00     0.274 HD
ENDBRANCH   1  14
TORSDOF 3
ENDMDL
