MODEL 1
REMARK VINA RESULT: -7.814121455      0.000      0.000
REMARK  2 active torsions:
REMARK  status: ('A' for Active; 'I' for Inactive)
REMARK    1  A    between atoms: C1_2  and  C2_4 
REMARK    2  A    between atoms: N1_8  and  C6_9 
ROOT
HETATM    1  C2  UNL     1      41.538  34.909  55.571  1.00  0.00     0.115 C 
HETATM    2  C3  UNL     1      42.543  35.974  55.950  1.00  0.00     0.019 C 
HETATM    3  C4  UNL     1      43.575  35.417  56.916  1.00  0.00     0.031 C 
HETATM    4  C5  UNL     1      42.921  34.419  57.832  1.00  0.00     0.273 C 
HETATM    5  N1  UNL     1      42.331  33.302  57.168  1.00  0.00     0.093 N 
HETATM    6  C12 UNL     1      42.078  33.507  55.776  1.00  0.00     0.288 C 
ENDROOT
BRANCH   5   7
HETATM    7  C6  UNL     1      42.967  32.065  57.495  1.00  0.00     0.223 C 
HETATM    8  C7  UNL     1      43.402  31.955  58.926  1.00  0.00     0.036 C 
HETATM    9  C8  UNL     1      43.555  30.494  59.355  1.00  0.00     0.002 C 
HETATM   10  C9  UNL     1      43.928  29.626  58.183  1.00  0.00     0.000 C 
HETATM   11  C10 UNL     1      42.752  29.577  57.242  1.00  0.00     0.002 C 
HETATM   12  C11 UNL     1      42.082  30.913  57.074  1.00  0.00     0.036 C 
ENDBRANCH   5   7
BRANCH   1  13
HETATM   13  C1  UNL     1      41.220  35.053  54.109  1.00  0.00     0.178 C 
HETATM   14  O1  UNL     1      41.281  36.192  53.559  1.00  0.00    -0.648 OA
HETATM   15  O2  UNL     1      40.863  33.904  53.398  1.00  0.00    -0.648 OA
ENDBRANCH   1  13
TORSDOF 2
ENDMDL
MODEL 2
REMARK VINA RESULT: -7.713321506      1.011      1.358
REMARK  2 active torsions:
REMARK  status: ('A' for Active; 'I' for Inactive)
REMARK    1  A    between atoms: C1_2  and  C2_4 
REMARK    2  A    between atoms: N1_8  and  C6_9 
ROOT
HETATM    1  C2  UNL     1      41.814  34.749  56.756  1.00  0.00     0.115 C 
HETATM    2  C3  UNL     1      43.060  35.607  56.771  1.00  0.00     0.019 C 
HETATM    3  C4  UNL     1      44.258  34.802  57.248  1.00  0.00     0.031 C 
HETATM    4  C5  UNL     1      43.819  33.819  58.299  1.00  0.00     0.273 C 
HETATM    5  N1  UNL     1      42.838  32.880  57.860  1.00  0.00     0.093 N 
HETATM    6  C12 UNL     1      42.133  33.269  56.678  1.00  0.00     0.288 C 
ENDROOT
BRANCH   5   7
HETATM    7  C6  UNL     1      43.318  31.534  57.866  1.00  0.00     0.223 C 
HETATM    8  C7  UNL     1      43.663  31.010  59.228  1.00  0.00     0.036 C 
HETATM    9  C8  UNL     1      43.634  29.480  59.263  1.00  0.00     0.002 C 
HETATM   10  C9  UNL     1      43.971  28.905  57.914  1.00  0.00     0.000 C 
HETATM   11  C10 UNL     1      42.848  29.238  56.967  1.00  0.00     0.002 C 
HETATM   12  C11 UNL     1      42.336  30.643  57.139  1.00  0.00     0.036 C 
ENDBRANCH   5   7
BRANCH   1  13
HETATM   13  C1  UNL     1      41.014  35.096  55.531  1.00  0.00     0.178 C 
HETATM   14  O1  UNL     1      40.066  34.341  55.163  1.00  0.00    -0.648 OA
HETATM   15  O2  UNL     1      41.351  36.257  54.833  1.00  0.00    -0.648 OA
ENDBRANCH   1  13
TORSDOF 2
ENDMDL
MODEL 3
REMARK VINA RESULT: -7.552794933      2.777      5.420
REMARK  2 active torsions:
REMARK  status: ('A' for Active; 'I' for Inactive)
REMARK    1  A    between atoms: C1_2  and  C2_4 
REMARK    2  A    between atoms: N1_8  and  C6_9 
ROOT
HETATM    1  C2  UNL     1      43.523  31.647  58.322  1.00  0.00     0.115 C 
HETATM    2  C3  UNL     1      43.769  32.412  59.603  1.00  0.00     0.019 C 
HETATM    3  C4  UNL     1      43.489  33.892  59.406  1.00  0.00     0.031 C 
HETATM    4  C5  UNL     1      43.888  34.300  58.014  1.00  0.00     0.273 C 
HETATM    5  N1  UNL     1      43.201  33.606  56.973  1.00  0.00     0.093 N 
HETATM    6  C12 UNL     1      42.586  32.382  57.382  1.00  0.00     0.288 C 
ENDROOT
BRANCH   5   7
HETATM    7  C6  UNL     1      42.376  34.467  56.185  1.00  0.00     0.223 C 
HETATM    8  C7  UNL     1      42.888  35.873  56.069  1.00  0.00     0.036 C 
HETATM    9  C8  UNL     1      42.322  36.574  54.832  1.00  0.00     0.002 C 
HETATM   10  C9  UNL     1      40.965  36.027  54.478  1.00  0.00     0.000 C 
HETATM   11  C10 UNL     1      41.138  34.607  54.006  1.00  0.00     0.002 C 
HETATM   12  C11 UNL     1      42.127  33.833  54.834  1.00  0.00     0.036 C 
ENDBRANCH   5   7
BRANCH   1  13
HETATM   13  C1  UNL     1      42.867  30.339  58.667  1.00  0.00     0.178 C 
HETATM   14  O1  UNL     1      42.108  29.772  57.826  1.00  0.00    -0.648 OA
HETATM   15  O2  UNL     1      43.125  29.787  59.924  1.00  0.00    -0.648 OA
ENDBRANCH   1  13
TORSDOF 2
ENDMDL
MODEL 4
REMARK VINA RESULT: -7.495433287      3.066      5.594
REMARK  2 active torsions:
REMARK  status: ('A' for Active; 'I' for Inactive)
REMARK    1  A    between atoms: C1_2  and  C2_4 
REMARK    2  A    between atoms: N1_8  and  C6_9 
ROOT
HETATM    1  C2  UNL     1      43.881  29.728  57.747  1.00  0.00     0.115 C 
HETATM    2  C3  UNL     1      44.136  29.969  59.219  1.00  0.00     0.019 C 
HETATM    3  C4  UNL     1      43.674  31.360  59.621  1.00  0.00     0.031 C 
HETATM    4  C5  UNL     1      43.918  32.320  58.488  1.00  0.00     0.273 C 
HETATM    5  N1  UNL     1      43.238  31.992  57.277  1.00  0.00     0.093 N 
HETATM    6  C12 UNL     1      42.799  30.634  57.193  1.00  0.00     0.288 C 
ENDROOT
BRANCH   5   7
HETATM    7  C6  UNL     1      42.263  32.970  56.908  1.00  0.00     0.223 C 
HETATM    8  C7  UNL     1      42.586  34.363  57.362  1.00  0.00     0.036 C 
HETATM    9  C8  UNL     1      41.859  35.410  56.515  1.00  0.00     0.002 C 
HETATM   10  C9  UNL     1      40.561  34.865  55.984  1.00  0.00     0.000 C 
HETATM   11  C10 UNL     1      40.880  33.787  54.980  1.00  0.00     0.002 C 
HETATM   12  C11 UNL     1      42.009  32.895  55.419  1.00  0.00     0.036 C 
ENDBRANCH   5   7
BRANCH   1  13
HETATM   13  C1  UNL     1      43.408  28.312  57.572  1.00  0.00     0.178 C 
HETATM   14  O1  UNL     1      42.508  28.049  56.720  1.00  0.00    -0.648 OA
HETATM   15  O2  UNL     1      43.987  27.322  58.369  1.00  0.00    -0.648 OA
ENDBRANCH   1  13
TORSDOF 2
ENDMDL
MODEL 5
REMARK VINA RESULT: -7.454232637      2.781      5.483
REMARK  2 active torsions:
REMARK  status: ('A' for Active; 'I' for Inactive)
REMARK    1  A    between atoms: C1_2  and  C2_4 
REMARK    2  A    between atoms: N1_8  and  C6_9 
ROOT
HETATM    1  C2  UNL     1      43.539  31.686  58.327  1.00  0.00     0.115 C 
HETATM    2  C3  UNL     1      43.636  32.561  59.558  1.00  0.00     0.019 C 
HETATM    3  C4  UNL     1      43.355  34.012  59.207  1.00  0.00     0.031 C 
HETATM    4  C5  UNL     1      43.894  34.313  57.835  1.00  0.00     0.273 C 
HETATM    5  N1  UNL     1      43.333  33.519  56.791  1.00  0.00     0.093 N 
HETATM    6  C12 UNL     1      42.696  32.318  57.236  1.00  0.00     0.288 C 
ENDROOT
BRANCH   5   7
HETATM    7  C6  UNL     1      42.583  34.291  55.850  1.00  0.00     0.223 C 
HETATM    8  C7  UNL     1      41.102  34.060  55.906  1.00  0.00     0.036 C 
HETATM    9  C8  UNL     1      40.329  35.243  55.318  1.00  0.00     0.002 C 
HETATM   10  C9  UNL     1      41.139  35.944  54.261  1.00  0.00     0.000 C 
HETATM   11  C10 UNL     1      42.311  36.611  54.932  1.00  0.00     0.002 C 
HETATM   12  C11 UNL     1      42.943  35.753  55.995  1.00  0.00     0.036 C 
ENDBRANCH   5   7
BRANCH   1  13
HETATM   13  C1  UNL     1      42.871  30.396  58.712  1.00  0.00     0.178 C 
HETATM   14  O1  UNL     1      42.116  29.805  57.885  1.00  0.00    -0.648 OA
HETATM   15  O2  UNL     1      43.112  29.887  59.990  1.00  0.00    -0.648 OA
ENDBRANCH   1  13
TORSDOF 2
ENDMDL
