MODEL 1
REMARK VINA RESULT: -7.096991941      0.000      0.000
REMARK  2 active torsions:
REMARK  status: ('A' for Active; 'I' for Inactive)
REMARK    1  A    between atoms: C4_4  and  C5_5 
REMARK    2  A    between atoms: C7_7  and  C8_8 
ROOT
HETATM    1  C5  UNL     1      42.764  32.936  56.917  1.00  0.00     0.128 C 
HETATM    2  C6  UNL     1      41.951  31.707  56.648  1.00  0.00     0.064 C 
HETATM    3  C7  UNL     1      42.632  31.283  57.906  1.00  0.00     0.130 C 
HETATM    4  O1  UNL     1      42.744  32.643  58.252  1.00  0.00    -0.380 OA
ENDROOT
BRANCH   3   5
HETATM    5  C8  UNL     1      43.917  30.543  57.776  1.00  0.00     0.042 C 
HETATM    6  C9  UNL     1      43.704  29.277  57.012  1.00  0.00     0.036 C 
HETATM    7  C10 UNL     1      43.378  28.228  58.061  1.00  0.00     0.232 C 
HETATM    8  N1  UNL     1      43.676  28.804  59.341  1.00  0.00    -0.075 N 
HETATM    9  C11 UNL     1      44.360  30.047  59.130  1.00  0.00     0.239 C 
ATOM     10  H12 UNL     1      42.848  28.907  59.927  1.00  0.00     0.277 HD
ATOM     11  H11 UNL     1      44.196  28.168  59.945  1.00  0.00     0.277 HD
ENDBRANCH   3   5
BRANCH   1  12
HETATM   12  C4  UNL     1      42.095  34.204  56.477  1.00  0.00     0.015 C 
HETATM   13  C3  UNL     1      42.960  35.039  55.562  1.00  0.00     0.007 C 
HETATM   14  C2  UNL     1      41.937  36.086  55.096  1.00  0.00     0.000 C 
HETATM   15  C1  UNL     1      40.602  35.370  55.105  1.00  0.00     0.000 C 
HETATM   16  C12 UNL     1      40.870  33.982  55.650  1.00  0.00     0.007 C 
ENDBRANCH   1  12
TORSDOF 2
ENDMDL
MODEL 2
REMARK VINA RESULT: -7.049672114      2.743      6.012
REMARK  2 active torsions:
REMARK  status: ('A' for Active; 'I' for Inactive)
REMARK    1  A    between atoms: C4_4  and  C5_5 
REMARK    2  A    between atoms: C7_7  and  C8_8 
ROOT
HETATM    1  C5  UNL     1      42.304  32.102  56.511  1.00  0.00     0.128 C 
HETATM    2  C6  UNL     1      42.592  33.432  57.139  1.00  0.00     0.064 C 
HETATM    3  C7  UNL     1      41.643  33.862  56.071  1.00  0.00     0.130 C 
HETATM    4  O1  UNL     1      41.085  32.570  56.106  1.00  0.00    -0.380 OA
ENDROOT
BRANCH   3   5
HETATM    5  C8  UNL     1      42.223  34.278  54.764  1.00  0.00     0.042 C 
HETATM    6  C9  UNL     1      43.154  35.430  54.960  1.00  0.00     0.036 C 
HETATM    7  C10 UNL     1      42.292  36.671  54.805  1.00  0.00     0.232 C 
HETATM    8  N1  UNL     1      41.031  36.244  54.270  1.00  0.00    -0.075 N 
HETATM    9  C11 UNL     1      41.143  34.866  53.891  1.00  0.00     0.239 C 
ATOM     10  H12 UNL     1      40.256  36.413  54.911  1.00  0.00     0.277 HD
ATOM     11  H11 UNL     1      40.710  36.837  53.504  1.00  0.00     0.277 HD
ENDBRANCH   3   5
BRANCH   1  12
HETATM   12  C4  UNL     1      42.318  30.964  57.487  1.00  0.00     0.015 C 
HETATM   13  C3  UNL     1      42.928  29.705  56.915  1.00  0.00     0.007 C 
HETATM   14  C2  UNL     1      43.035  28.849  58.186  1.00  0.00     0.000 C 
HETATM   15  C1  UNL     1      43.246  29.836  59.315  1.00  0.00     0.000 C 
HETATM   16  C12 UNL     1      43.167  31.215  58.692  1.00  0.00     0.007 C 
ENDBRANCH   1  12
TORSDOF 2
ENDMDL
MODEL 3
REMARK VINA RESULT: -6.827009982      2.388      5.801
REMARK  2 active torsions:
REMARK  status: ('A' for Active; 'I' for Inactive)
REMARK    1  A    between atoms: C4_4  and  C5_5 
REMARK    2  A    between atoms: C7_7  and  C8_8 
ROOT
HETATM    1  C5  UNL     1      42.377  31.902  57.823  1.00  0.00     0.128 C 
HETATM    2  C6  UNL     1      41.924  32.132  56.414  1.00  0.00     0.064 C 
HETATM    3  C7  UNL     1      42.744  33.362  56.614  1.00  0.00     0.130 C 
HETATM    4  O1  UNL     1      43.491  32.656  57.575  1.00  0.00    -0.380 OA
ENDROOT
BRANCH   3   5
HETATM    5  C8  UNL     1      42.045  34.581  57.108  1.00  0.00     0.042 C 
HETATM    6  C9  UNL     1      41.025  35.026  56.112  1.00  0.00     0.036 C 
HETATM    7  C10 UNL     1      41.755  35.996  55.199  1.00  0.00     0.232 C 
HETATM    8  N1  UNL     1      43.013  36.294  55.820  1.00  0.00    -0.075 N 
HETATM    9  C11 UNL     1      43.007  35.742  57.143  1.00  0.00     0.239 C 
ATOM     10  H12 UNL     1      43.808  35.975  55.266  1.00  0.00     0.277 HD
ATOM     11  H11 UNL     1      43.227  37.290  55.811  1.00  0.00     0.277 HD
ENDBRANCH   3   5
BRANCH   1  12
HETATM   12  C4  UNL     1      42.582  30.455  58.157  1.00  0.00     0.015 C 
HETATM   13  C3  UNL     1      43.011  29.631  56.965  1.00  0.00     0.007 C 
HETATM   14  C2  UNL     1      43.381  28.313  57.661  1.00  0.00     0.000 C 
HETATM   15  C1  UNL     1      43.870  28.712  59.037  1.00  0.00     0.000 C 
HETATM   16  C12 UNL     1      43.690  30.213  59.132  1.00  0.00     0.007 C 
ENDBRANCH   1  12
TORSDOF 2
ENDMDL
MODEL 4
REMARK VINA RESULT: -6.502007312      2.277      5.802
REMARK  2 active torsions:
REMARK  status: ('A' for Active; 'I' for Inactive)
REMARK    1  A    between atoms: C4_4  and  C5_5 
REMARK    2  A    between atoms: C7_7  and  C8_8 
ROOT
HETATM    1  C5  UNL     1      43.459  31.530  57.191  1.00  0.00     0.128 C 
HETATM    2  C6  UNL     1      43.197  32.564  58.243  1.00  0.00     0.064 C 
HETATM    3  C7  UNL     1      42.132  32.931  57.265  1.00  0.00     0.130 C 
HETATM    4  O1  UNL     1      42.147  31.597  56.814  1.00  0.00    -0.380 OA
ENDROOT
BRANCH   3   5
HETATM    5  C8  UNL     1      42.465  33.960  56.242  1.00  0.00     0.042 C 
HETATM    6  C9  UNL     1      41.755  35.237  56.549  1.00  0.00     0.036 C 
HETATM    7  C10 UNL     1      40.430  35.145  55.811  1.00  0.00     0.232 C 
HETATM    8  N1  UNL     1      40.522  34.026  54.919  1.00  0.00    -0.075 N 
HETATM    9  C11 UNL     1      41.879  33.564  54.909  1.00  0.00     0.239 C 
ATOM     10  H12 UNL     1      39.858  33.286  55.149  1.00  0.00     0.277 HD
ATOM     11  H11 UNL     1      40.174  34.240  53.985  1.00  0.00     0.277 HD
ENDBRANCH   3   5
BRANCH   1  12
HETATM   12  C4  UNL     1      43.955  30.227  57.744  1.00  0.00     0.015 C 
HETATM   13  C3  UNL     1      43.415  29.930  59.124  1.00  0.00     0.007 C 
HETATM   14  C2  UNL     1      43.871  28.473  59.290  1.00  0.00     0.000 C 
HETATM   15  C1  UNL     1      43.874  27.894  57.890  1.00  0.00     0.000 C 
HETATM   16  C12 UNL     1      43.512  29.034  56.960  1.00  0.00     0.007 C 
ENDBRANCH   1  12
TORSDOF 2
ENDMDL
MODEL 5
REMARK VINA RESULT: -6.372136570      1.440      2.066
REMARK  2 active torsions:
REMARK  status: ('A' for Active; 'I' for Inactive)
REMARK    1  A    between atoms: C4_4  and  C5_5 
REMARK    2  A    between atoms: C7_7  and  C8_8 
ROOT
HETATM    1  C5  UNL     1      42.020  34.217  56.826  1.00  0.00     0.128 C 
HETATM    2  C6  UNL     1      43.365  34.245  57.485  1.00  0.00     0.064 C 
HETATM    3  C7  UNL     1      43.264  32.787  57.190  1.00  0.00     0.130 C 
HETATM    4  O1  UNL     1      42.399  33.105  56.127  1.00  0.00    -0.380 OA
ENDROOT
BRANCH   3   5
HETATM    5  C8  UNL     1      42.691  31.910  58.248  1.00  0.00     0.042 C 
HETATM    6  C9  UNL     1      43.717  31.633  59.297  1.00  0.00     0.036 C 
HETATM    7  C10 UNL     1      44.423  30.368  58.840  1.00  0.00     0.232 C 
HETATM    8  N1  UNL     1      43.648  29.817  57.766  1.00  0.00    -0.075 N 
HETATM    9  C11 UNL     1      42.413  30.540  57.681  1.00  0.00     0.239 C 
ATOM     10  H12 UNL     1      44.157  29.806  56.882  1.00  0.00     0.277 HD
ATOM     11  H11 UNL     1      43.508  28.812  57.859  1.00  0.00     0.277 HD
ENDBRANCH   3   5
BRANCH   1  12
HETATM   12  C4  UNL     1      41.713  35.456  56.040  1.00  0.00     0.015 C 
HETATM   13  C3  UNL     1      42.953  36.218  55.633  1.00  0.00     0.007 C 
HETATM   14  C2  UNL     1      42.344  37.238  54.660  1.00  0.00     0.000 C 
HETATM   15  C1  UNL     1      41.152  36.537  54.042  1.00  0.00     0.000 C 
HETATM   16  C12 UNL     1      41.053  35.188  54.726  1.00  0.00     0.007 C 
ENDBRANCH   1  12
TORSDOF 2
ENDMDL
