MODEL 1
REMARK VINA RESULT: -6.895298664      0.000      0.000
REMARK  3 active torsions:
REMARK  status: ('A' for Active; 'I' for Inactive)
REMARK    1  A    between atoms: C2_2  and  C3_3 
REMARK    2  A    between atoms: C3_3  and  C5_5 
REMARK    3  A    between atoms: C11_11  and  O1_12 
ROOT
HETATM    1  C5  UNL     1      43.712  32.124  58.611  1.00  0.00     0.088 C 
HETATM    2  C6  UNL     1      45.201  32.140  58.507  1.00  0.00     0.048 C 
HETATM    3  C7  UNL     1      45.681  33.574  58.545  1.00  0.00    -0.008 C 
HETATM    4  C8  UNL     1      44.943  34.480  57.612  1.00  0.00     0.012 C 
HETATM    5  C9  UNL     1      43.474  34.457  57.869  1.00  0.00     0.020 C 
HETATM    6  C10 UNL     1      43.006  33.010  57.641  1.00  0.00     0.050 C 
HETATM    7  C11 UNL     1      43.089  34.775  59.290  1.00  0.00     0.151 C 
HETATM    8  C12 UNL     1      43.908  33.838  60.168  1.00  0.00     0.152 C 
HETATM    9  C13 UNL     1      45.386  34.052  59.973  1.00  0.00     0.039 C 
HETATM   10  O2  UNL     1      43.466  32.564  59.945  1.00  0.00    -0.367 OA
ENDROOT
BRANCH   1  11
HETATM   11  C3  UNL     1      43.197  30.756  58.494  1.00  0.00    -0.034 C 
HETATM   12  C4  UNL     1      43.235  29.998  59.611  1.00  0.00     0.022 C 
BRANCH  11  13
HETATM   13  C2  UNL     1      42.657  30.128  57.313  1.00  0.00    -0.001 C 
HETATM   14  C1  UNL     1      43.014  29.007  56.762  1.00  0.00     0.012 C 
ENDBRANCH  11  13
ENDBRANCH   1  11
BRANCH   7  15
HETATM   15  O1  UNL     1      43.260  36.094  59.631  1.00  0.00    -0.393 OA
ATOM     16  H1  UNL     1      42.556  36.449  60.160  1.00  0.00     0.210 HD
ENDBRANCH   7  15
TORSDOF 3
ENDMDL
MODEL 2
REMARK VINA RESULT: -6.764402974      1.185      2.158
REMARK  3 active torsions:
REMARK  status: ('A' for Active; 'I' for Inactive)
REMARK    1  A    between atoms: C2_2  and  C3_3 
REMARK    2  A    between atoms: C3_3  and  C5_5 
REMARK    3  A    between atoms: C11_11  and  O1_12 
ROOT
HETATM    1  C5  UNL     1      43.800  32.002  58.685  1.00  0.00     0.088 C 
HETATM    2  C6  UNL     1      43.100  32.943  57.762  1.00  0.00     0.048 C 
HETATM    3  C7  UNL     1      43.487  34.362  58.119  1.00  0.00    -0.008 C 
HETATM    4  C8  UNL     1      43.378  34.664  59.579  1.00  0.00     0.012 C 
HETATM    5  C9  UNL     1      44.194  33.721  60.399  1.00  0.00     0.020 C 
HETATM    6  C10 UNL     1      43.641  32.311  60.134  1.00  0.00     0.050 C 
HETATM    7  C11 UNL     1      45.646  33.654  60.004  1.00  0.00     0.151 C 
HETATM    8  C12 UNL     1      45.662  33.380  58.506  1.00  0.00     0.152 C 
HETATM    9  C13 UNL     1      44.969  34.475  57.738  1.00  0.00     0.039 C 
HETATM   10  O2  UNL     1      45.169  32.121  58.306  1.00  0.00    -0.367 OA
ENDROOT
BRANCH   1  11
HETATM   11  C3  UNL     1      43.388  30.619  58.428  1.00  0.00    -0.034 C 
HETATM   12  C4  UNL     1      43.454  29.764  59.472  1.00  0.00     0.022 C 
BRANCH  11  13
HETATM   13  C2  UNL     1      42.923  30.068  57.179  1.00  0.00    -0.001 C 
HETATM   14  C1  UNL     1      43.072  28.859  56.727  1.00  0.00     0.012 C 
ENDBRANCH  11  13
ENDBRANCH   1  11
BRANCH   7  15
HETATM   15  O1  UNL     1      46.366  34.774  60.338  1.00  0.00    -0.393 OA
ATOM     16  H1  UNL     1      45.828  35.522  60.572  1.00  0.00     0.210 HD
ENDBRANCH   7  15
TORSDOF 3
ENDMDL
MODEL 3
REMARK VINA RESULT: -6.610221931      2.620      3.829
REMARK  3 active torsions:
REMARK  status: ('A' for Active; 'I' for Inactive)
REMARK    1  A    between atoms: C2_2  and  C3_3 
REMARK    2  A    between atoms: C3_3  and  C5_5 
REMARK    3  A    between atoms: C11_11  and  O1_12 
ROOT
HETATM    1  C5  UNL     1      42.917  33.853  57.275  1.00  0.00     0.088 C 
HETATM    2  C6  UNL     1      43.990  34.638  56.597  1.00  0.00     0.048 C 
HETATM    3  C7  UNL     1      43.432  35.237  55.324  1.00  0.00    -0.008 C 
HETATM    4  C8  UNL     1      42.693  34.255  54.472  1.00  0.00     0.012 C 
HETATM    5  C9  UNL     1      41.582  33.601  55.224  1.00  0.00     0.020 C 
HETATM    6  C10 UNL     1      42.225  32.858  56.407  1.00  0.00     0.050 C 
HETATM    7  C11 UNL     1      40.606  34.563  55.849  1.00  0.00     0.151 C 
HETATM    8  C12 UNL     1      41.442  35.542  56.663  1.00  0.00     0.152 C 
HETATM    9  C13 UNL     1      42.418  36.289  55.793  1.00  0.00     0.039 C 
HETATM   10  O2  UNL     1      41.995  34.852  57.706  1.00  0.00    -0.367 OA
ENDROOT
BRANCH   1  11
HETATM   11  C3  UNL     1      43.438  33.186  58.472  1.00  0.00    -0.034 C 
HETATM   12  C4  UNL     1      43.643  33.965  59.557  1.00  0.00     0.022 C 
BRANCH  11  13
HETATM   13  C2  UNL     1      43.760  31.788  58.618  1.00  0.00    -0.001 C 
HETATM   14  C1  UNL     1      44.903  31.201  58.428  1.00  0.00     0.012 C 
ENDBRANCH  11  13
ENDBRANCH   1  11
BRANCH   7  15
HETATM   15  O1  UNL     1      39.794  35.198  54.942  1.00  0.00    -0.393 OA
ATOM     16  H1  UNL     1      40.098  36.063  54.693  1.00  0.00     0.210 HD
ENDBRANCH   7  15
TORSDOF 3
ENDMDL
MODEL 4
REMARK VINA RESULT: -6.474628913      2.613      3.914
REMARK  3 active torsions:
REMARK  status: ('A' for Active; 'I' for Inactive)
REMARK    1  A    between atoms: C2_2  and  C3_3 
REMARK    2  A    between atoms: C3_3  and  C5_5 
REMARK    3  A    between atoms: C11_11  and  O1_12 
ROOT
HETATM    1  C5  UNL     1      42.728  33.704  57.219  1.00  0.00     0.088 C 
HETATM    2  C6  UNL     1      41.948  32.858  56.269  1.00  0.00     0.048 C 
HETATM    3  C7  UNL     1      41.293  33.752  55.238  1.00  0.00    -0.008 C 
HETATM    4  C8  UNL     1      40.572  34.921  55.829  1.00  0.00     0.012 C 
HETATM    5  C9  UNL     1      41.473  35.749  56.683  1.00  0.00     0.020 C 
HETATM    6  C10 UNL     1      41.969  34.838  57.818  1.00  0.00     0.050 C 
HETATM    7  C11 UNL     1      42.721  36.225  55.987  1.00  0.00     0.151 C 
HETATM    8  C12 UNL     1      43.368  34.984  55.388  1.00  0.00     0.152 C 
HETATM    9  C13 UNL     1      42.454  34.306  54.401  1.00  0.00     0.039 C 
HETATM   10  O2  UNL     1      43.801  34.199  56.421  1.00  0.00    -0.367 OA
ENDROOT
BRANCH   1  11
HETATM   11  C3  UNL     1      43.312  32.885  58.285  1.00  0.00    -0.034 C 
HETATM   12  C4  UNL     1      43.671  33.530  59.417  1.00  0.00     0.022 C 
BRANCH  11  13
HETATM   13  C2  UNL     1      43.550  31.463  58.259  1.00  0.00    -0.001 C 
HETATM   14  C1  UNL     1      44.682  30.837  58.136  1.00  0.00     0.012 C 
ENDBRANCH  11  13
ENDBRANCH   1  11
BRANCH   7  15
HETATM   15  O1  UNL     1      42.497  37.202  55.048  1.00  0.00    -0.393 OA
ATOM     16  H1  UNL     1      42.436  36.874  54.158  1.00  0.00     0.210 HD
ENDBRANCH   7  15
TORSDOF 3
ENDMDL
MODEL 5
REMARK VINA RESULT: -6.463646752      2.053      3.943
REMARK  3 active torsions:
REMARK  status: ('A' for Active; 'I' for Inactive)
REMARK    1  A    between atoms: C2_2  and  C3_3 
REMARK    2  A    between atoms: C3_3  and  C5_5 
REMARK    3  A    between atoms: C11_11  and  O1_12 
ROOT
HETATM    1  C5  UNL     1      43.639  34.363  58.043  1.00  0.00     0.088 C 
HETATM    2  C6  UNL     1      43.719  35.330  59.177  1.00  0.00     0.048 C 
HETATM    3  C7  UNL     1      44.401  34.658  60.350  1.00  0.00    -0.008 C 
HETATM    4  C8  UNL     1      43.848  33.307  60.671  1.00  0.00     0.012 C 
HETATM    5  C9  UNL     1      43.906  32.394  59.492  1.00  0.00     0.020 C 
HETATM    6  C10 UNL     1      43.050  33.039  58.389  1.00  0.00     0.050 C 
HETATM    7  C11 UNL     1      45.278  32.248  58.888  1.00  0.00     0.151 C 
HETATM    8  C12 UNL     1      45.776  33.664  58.628  1.00  0.00     0.152 C 
HETATM    9  C13 UNL     1      45.856  34.463  59.903  1.00  0.00     0.039 C 
HETATM   10  O2  UNL     1      44.999  34.206  57.643  1.00  0.00    -0.367 OA
ENDROOT
BRANCH   1  11
HETATM   11  C3  UNL     1      42.911  34.947  56.913  1.00  0.00    -0.034 C 
HETATM   12  C4  UNL     1      43.653  35.349  55.857  1.00  0.00     0.022 C 
BRANCH  11  13
HETATM   13  C2  UNL     1      41.486  35.143  56.804  1.00  0.00    -0.001 C 
HETATM   14  C1  UNL     1      40.734  35.022  55.752  1.00  0.00     0.012 C 
ENDBRANCH  11  13
ENDBRANCH   1  11
BRANCH   7  15
HETATM   15  O1  UNL     1      46.151  31.521  59.660  1.00  0.00    -0.393 OA
ATOM     16  H1  UNL     1      45.914  30.605  59.750  1.00  0.00     0.210 HD
ENDBRANCH   7  15
TORSDOF 3
ENDMDL
