MODEL 1
REMARK VINA RESULT: -7.010814704      0.000      0.000
REMARK  3 active torsions:
REMARK  status: ('A' for Active; 'I' for Inactive)
REMARK    1  A    between atoms: N1_1  and  C1_5 
REMARK    2  A    between atoms: C1_5  and  C2_6 
REMARK    3  A    between atoms: N2_9  and  C5_10 
ROOT
HETATM    1  C2  UNL     1      41.220  35.046  54.842  1.00  0.00     0.017 C 
HETATM    2  C3  UNL     1      41.644  33.655  54.374  1.00  0.00     0.026 C 
HETATM    3  C4  UNL     1      41.402  32.783  55.614  1.00  0.00     0.123 C 
HETATM    4  N2  UNL     1      42.149  33.167  56.735  1.00  0.00    -0.389 N 
HETATM    5  C11 UNL     1      42.524  34.485  56.922  1.00  0.00     0.059 C 
HETATM    6  C12 UNL     1      42.231  35.476  55.852  1.00  0.00     0.050 C 
ENDROOT
BRANCH   4   7
HETATM    7  C5  UNL     1      42.853  32.126  57.350  1.00  0.00     0.083 C 
HETATM    8  C6  UNL     1      43.308  32.331  58.744  1.00  0.00     0.025 C 
HETATM    9  C7  UNL     1      44.168  31.118  59.133  1.00  0.00     0.002 C 
HETATM   10  C8  UNL     1      43.273  29.925  59.201  1.00  0.00     0.000 C 
HETATM   11  C9  UNL     1      42.768  29.654  57.786  1.00  0.00     0.002 C 
HETATM   12  C10 UNL     1      41.979  30.862  57.346  1.00  0.00     0.025 C 
ENDBRANCH   4   7
BRANCH   1  13
HETATM   13  C1  UNL     1      41.311  35.997  53.660  1.00  0.00     0.234 C 
BRANCH  13  14
HETATM   14  N1  UNL     1      41.704  37.309  54.122  1.00  0.00    -0.079 N 
ATOM     15  H13 UNL     1      41.193  38.053  53.648  1.00  0.00     0.274 HD
ATOM     16  H12 UNL     1      41.385  37.493  55.073  1.00  0.00     0.274 HD
ATOM     17  H11 UNL     1      42.713  37.416  54.028  1.00  0.00     0.274 HD
ENDBRANCH  13  14
ENDBRANCH   1  13
TORSDOF 3
ENDMDL
MODEL 2
REMARK VINA RESULT: -6.961539742      1.728      5.891
REMARK  3 active torsions:
REMARK  status: ('A' for Active; 'I' for Inactive)
REMARK    1  A    between atoms: N1_1  and  C1_5 
REMARK    2  A    between atoms: C1_5  and  C2_6 
REMARK    3  A    between atoms: N2_9  and  C5_10 
ROOT
HETATM    1  C2  UNL     1      43.065  30.847  58.663  1.00  0.00     0.017 C 
HETATM    2  C3  UNL     1      44.068  31.934  58.283  1.00  0.00     0.026 C 
HETATM    3  C4  UNL     1      43.170  33.135  57.956  1.00  0.00     0.123 C 
HETATM    4  N2  UNL     1      42.275  32.909  56.902  1.00  0.00    -0.389 N 
HETATM    5  C11 UNL     1      41.795  31.640  56.638  1.00  0.00     0.059 C 
HETATM    6  C12 UNL     1      42.336  30.490  57.411  1.00  0.00     0.050 C 
ENDROOT
BRANCH   4   7
HETATM    7  C5  UNL     1      42.285  33.894  55.909  1.00  0.00     0.083 C 
HETATM    8  C6  UNL     1      41.002  34.560  55.587  1.00  0.00     0.025 C 
HETATM    9  C7  UNL     1      41.250  35.483  54.384  1.00  0.00     0.002 C 
HETATM   10  C8  UNL     1      42.145  36.590  54.831  1.00  0.00     0.000 C 
HETATM   11  C9  UNL     1      43.497  35.970  55.178  1.00  0.00     0.002 C 
HETATM   12  C10 UNL     1      43.273  35.000  56.311  1.00  0.00     0.025 C 
ENDBRANCH   4   7
BRANCH   1  13
HETATM   13  C1  UNL     1      43.838  29.619  59.118  1.00  0.00     0.234 C 
BRANCH  13  14
HETATM   14  N1  UNL     1      43.682  28.561  58.146  1.00  0.00    -0.079 N 
ATOM     15  H13 UNL     1      42.702  28.374  57.936  1.00  0.00     0.274 HD
ATOM     16  H12 UNL     1      43.981  28.848  57.214  1.00  0.00     0.274 HD
ATOM     17  H11 UNL     1      44.172  27.727  58.467  1.00  0.00     0.274 HD
ENDBRANCH  13  14
ENDBRANCH   1  13
TORSDOF 3
ENDMDL
MODEL 3
REMARK VINA RESULT: -6.722330447      1.542      5.894
REMARK  3 active torsions:
REMARK  status: ('A' for Active; 'I' for Inactive)
REMARK    1  A    between atoms: N1_1  and  C1_5 
REMARK    2  A    between atoms: C1_5  and  C2_6 
REMARK    3  A    between atoms: N2_9  and  C5_10 
ROOT
HETATM    1  C2  UNL     1      43.320  31.810  58.632  1.00  0.00     0.017 C 
HETATM    2  C3  UNL     1      44.145  33.024  58.210  1.00  0.00     0.026 C 
HETATM    3  C4  UNL     1      43.078  34.027  57.749  1.00  0.00     0.123 C 
HETATM    4  N2  UNL     1      42.296  33.575  56.678  1.00  0.00    -0.389 N 
HETATM    5  C11 UNL     1      42.053  32.226  56.495  1.00  0.00     0.059 C 
HETATM    6  C12 UNL     1      42.734  31.245  57.381  1.00  0.00     0.050 C 
ENDROOT
BRANCH   4   7
HETATM    7  C5  UNL     1      42.197  34.473  55.610  1.00  0.00     0.083 C 
HETATM    8  C6  UNL     1      40.866  34.658  54.987  1.00  0.00     0.025 C 
HETATM    9  C7  UNL     1      41.050  35.572  53.766  1.00  0.00     0.002 C 
HETATM   10  C8  UNL     1      41.424  36.929  54.261  1.00  0.00     0.000 C 
HETATM   11  C9  UNL     1      42.798  36.812  54.917  1.00  0.00     0.002 C 
HETATM   12  C10 UNL     1      42.666  35.860  56.079  1.00  0.00     0.025 C 
ENDBRANCH   4   7
BRANCH   1  13
HETATM   13  C1  UNL     1      44.261  30.770  59.217  1.00  0.00     0.234 C 
BRANCH  13  14
HETATM   14  N1  UNL     1      45.612  31.283  59.214  1.00  0.00    -0.079 N 
ATOM     15  H13 UNL     1      46.019  31.288  58.279  1.00  0.00     0.274 HD
ATOM     16  H12 UNL     1      45.643  32.287  59.394  1.00  0.00     0.274 HD
ATOM     17  H11 UNL     1      46.179  30.756  59.877  1.00  0.00     0.274 HD
ENDBRANCH  13  14
ENDBRANCH   1  13
TORSDOF 3
ENDMDL
MODEL 4
REMARK VINA RESULT: -6.717354369      0.950      1.652
REMARK  3 active torsions:
REMARK  status: ('A' for Active; 'I' for Inactive)
REMARK    1  A    between atoms: N1_1  and  C1_5 
REMARK    2  A    between atoms: C1_5  and  C2_6 
REMARK    3  A    between atoms: N2_9  and  C5_10 
ROOT
HETATM    1  C2  UNL     1      42.043  35.712  55.727  1.00  0.00     0.017 C 
HETATM    2  C3  UNL     1      42.105  34.359  55.021  1.00  0.00     0.026 C 
HETATM    3  C4  UNL     1      41.540  33.393  56.073  1.00  0.00     0.123 C 
HETATM    4  N2  UNL     1      42.275  33.355  57.265  1.00  0.00    -0.389 N 
HETATM    5  C11 UNL     1      42.980  34.461  57.701  1.00  0.00     0.059 C 
HETATM    6  C12 UNL     1      43.051  35.661  56.825  1.00  0.00     0.050 C 
ENDROOT
BRANCH   4   7
HETATM    7  C5  UNL     1      42.618  32.069  57.696  1.00  0.00     0.083 C 
HETATM    8  C6  UNL     1      42.340  30.939  56.780  1.00  0.00     0.025 C 
HETATM    9  C7  UNL     1      42.671  29.641  57.533  1.00  0.00     0.002 C 
HETATM   10  C8  UNL     1      44.147  29.597  57.745  1.00  0.00     0.000 C 
HETATM   11  C9  UNL     1      44.505  30.742  58.690  1.00  0.00     0.002 C 
HETATM   12  C10 UNL     1      44.123  32.031  58.007  1.00  0.00     0.025 C 
ENDBRANCH   4   7
BRANCH   1  13
HETATM   13  C1  UNL     1      42.480  36.785  54.743  1.00  0.00     0.234 C 
BRANCH  13  14
HETATM   14  N1  UNL     1      41.445  36.988  53.755  1.00  0.00    -0.079 N 
ATOM     15  H13 UNL     1      41.691  36.586  52.851  1.00  0.00     0.274 HD
ATOM     16  H12 UNL     1      40.616  36.425  53.946  1.00  0.00     0.274 HD
ATOM     17  H11 UNL     1      41.227  37.982  53.688  1.00  0.00     0.274 HD
ENDBRANCH  13  14
ENDBRANCH   1  13
TORSDOF 3
ENDMDL
MODEL 5
REMARK VINA RESULT: -6.704724075      1.695      5.728
REMARK  3 active torsions:
REMARK  status: ('A' for Active; 'I' for Inactive)
REMARK    1  A    between atoms: N1_1  and  C1_5 
REMARK    2  A    between atoms: C1_5  and  C2_6 
REMARK    3  A    between atoms: N2_9  and  C5_10 
ROOT
HETATM    1  C2  UNL     1      43.388  30.863  58.368  1.00  0.00     0.017 C 
HETATM    2  C3  UNL     1      42.042  31.093  57.682  1.00  0.00     0.026 C 
HETATM    3  C4  UNL     1      42.397  32.048  56.534  1.00  0.00     0.123 C 
HETATM    4  N2  UNL     1      42.945  33.267  56.954  1.00  0.00    -0.389 N 
HETATM    5  C11 UNL     1      43.670  33.353  58.127  1.00  0.00     0.059 C 
HETATM    6  C12 UNL     1      43.761  32.158  59.007  1.00  0.00     0.050 C 
ENDROOT
BRANCH   4   7
HETATM    7  C5  UNL     1      42.336  34.399  56.400  1.00  0.00     0.083 C 
HETATM    8  C6  UNL     1      43.152  35.251  55.505  1.00  0.00     0.025 C 
HETATM    9  C7  UNL     1      42.311  36.487  55.151  1.00  0.00     0.002 C 
HETATM   10  C8  UNL     1      41.169  36.036  54.302  1.00  0.00     0.000 C 
HETATM   11  C9  UNL     1      40.279  35.149  55.170  1.00  0.00     0.002 C 
HETATM   12  C10 UNL     1      41.102  33.960  55.597  1.00  0.00     0.025 C 
ENDBRANCH   4   7
BRANCH   1  13
HETATM   13  C1  UNL     1      43.192  29.837  59.473  1.00  0.00     0.234 C 
BRANCH  13  14
HETATM   14  N1  UNL     1      43.902  28.623  59.139  1.00  0.00    -0.079 N 
ATOM     15  H13 UNL     1      43.910  28.447  58.134  1.00  0.00     0.274 HD
ATOM     16  H12 UNL     1      44.908  28.714  59.282  1.00  0.00     0.274 HD
ATOM     17  H11 UNL     1      43.508  27.842  59.662  1.00  0.00     0.274 HD
ENDBRANCH  13  14
ENDBRANCH   1  13
TORSDOF 3
ENDMDL
