MODEL 1
REMARK VINA RESULT: -7.933236880      0.000      0.000
REMARK  9 active torsions:
REMARK  status: ('A' for Active; 'I' for Inactive)
REMARK    1  A    between atoms: N1_1  and  C1_4 
REMARK    2  A    between atoms: C2_7  and  N3_8 
REMARK    3  A    between atoms: C4_16  and  N7_17 
REMARK       I    between atoms: N7_17  and  C5_19 
REMARK    4  A    between atoms: C5_19  and  C6_21 
REMARK    5  A    between atoms: C6_21  and  S1_22 
REMARK    6  A    between atoms: S1_22  and  C7_23 
REMARK    7  A    between atoms: C8_27  and  N9_28 
REMARK    8  A    between atoms: C9_31  and  N10_32 
REMARK    9  A    between atoms: C10_35  and  O4_36 
ROOT
HETATM    1  C1  UNL     1      14.853 -55.651   8.695  1.00  0.00     0.679 A 
HETATM    2  N2  UNL     1      14.555 -55.310   7.436  1.00  0.00    -0.172 N 
ATOM      3  H2  UNL     1      15.250 -55.428   6.698  1.00  0.00     0.186 HD
HETATM    4  C2  UNL     1      13.318 -54.801   7.138  1.00  0.00     0.176 A 
HETATM    5  C4  UNL     1      12.399 -54.651   8.140  1.00  0.00     0.133 A 
HETATM    6  C10 UNL     1      12.771 -55.022   9.408  1.00  0.00     0.186 A 
HETATM    7  N11 UNL     1      13.973 -55.517   9.709  1.00  0.00    -0.168 N 
ATOM      8  H11 UNL     1      14.216 -55.783  10.663  1.00  0.00     0.186 HD
ENDROOT
BRANCH   5   9
HETATM    9  N7  UNL     1      11.118 -54.137   7.870  1.00  0.00    -0.320 N 
HETATM   10  C5  UNL     1      10.019 -54.899   7.405  1.00  0.00     0.232 C 
HETATM   11  O1  UNL     1      10.173 -56.126   7.210  1.00  0.00    -0.272 OA
ATOM     12  H7  UNL     1      10.969 -53.139   8.021  1.00  0.00     0.169 HD
BRANCH  10  13
HETATM   13  C6  UNL     1       8.716 -54.282   7.149  1.00  0.00     0.183 C 
BRANCH  13  14
HETATM   14  S1  UNL     1       7.525 -55.475   6.462  1.00  0.00    -0.109 SA
BRANCH  14  15
HETATM   15  C7  UNL     1       7.366 -55.101   4.699  1.00  0.00     0.095 A 
HETATM   16  S2  UNL     1       8.501 -55.273   3.443  1.00  0.00    -0.004 SA
HETATM   17  N8  UNL     1       7.574 -54.723   2.159  1.00  0.00    -0.310 N 
HETATM   18  C8  UNL     1       6.407 -54.415   2.710  1.00  0.00     0.140 A 
ATOM     19  H8  UNL     1       7.845 -54.642   1.179  1.00  0.00     0.176 HD
HETATM   20  C9  UNL     1       6.267 -54.603   4.041  1.00  0.00     0.171 A 
BRANCH  18  21
HETATM   21  N9  UNL     1       5.422 -53.942   1.969  1.00  0.00    -0.383 N 
ATOM     22  H92 UNL     1       5.104 -54.424   1.129  1.00  0.00     0.157 HD
ATOM     23  H91 UNL     1       4.954 -53.072   2.226  1.00  0.00     0.157 HD
ENDBRANCH  18  21
BRANCH  20  24
HETATM   24  N10 UNL     1       5.052 -54.316   4.796  1.00  0.00    -0.110 N 
HETATM   25  O2  UNL     1       4.773 -53.161   5.130  1.00  0.00    -0.532 OA
HETATM   26  O3  UNL     1       4.222 -55.342   5.130  1.00  0.00    -0.532 OA
ENDBRANCH  20  24
ENDBRANCH  14  15
ENDBRANCH  13  14
ENDBRANCH  10  13
ENDBRANCH   5   9
BRANCH   4  27
HETATM   27  N3  UNL     1      13.075 -54.452   5.803  1.00  0.00    -0.216 N 
HETATM   28  C3  UNL     1      14.018 -53.845   5.017  1.00  0.00     0.228 A 
HETATM   29  N4  UNL     1      13.490 -53.642   3.801  1.00  0.00    -0.279 N 
HETATM   30  N5  UNL     1      12.263 -54.107   3.832  1.00  0.00    -0.227 N 
ATOM     31  H4  UNL     1      13.953 -53.206   3.003  1.00  0.00     0.189 HD
HETATM   32  N6  UNL     1      12.038 -54.583   5.027  1.00  0.00    -0.219 N 
ATOM     33  H5  UNL     1      11.600 -54.099   3.056  1.00  0.00     0.210 HD
ATOM     34  H6  UNL     1      11.156 -55.006   5.318  1.00  0.00     0.210 HD
ENDBRANCH   4  27
BRANCH   6  35
HETATM   35  O4  UNL     1      11.845 -54.870  10.420  1.00  0.00    -0.344 OA
ATOM     36  H4  UNL     1      11.912 -55.448  11.172  1.00  0.00     0.219 HD
ENDBRANCH   6  35
BRANCH   1  37
HETATM   37  N1  UNL     1      16.036 -56.128   8.933  1.00  0.00    -0.234 N 
ATOM     38  H12 UNL     1      16.851 -55.692   8.501  1.00  0.00     0.174 HD
ATOM     39  H11 UNL     1      16.111 -56.935   9.552  1.00  0.00     0.174 HD
ENDBRANCH   1  37
TORSDOF 9
ENDMDL
MODEL 2
REMARK VINA RESULT: -7.695059188      2.214      3.945
REMARK  9 active torsions:
REMARK  status: ('A' for Active; 'I' for Inactive)
REMARK    1  A    between atoms: N1_1  and  C1_4 
REMARK    2  A    between atoms: C2_7  and  N3_8 
REMARK    3  A    between atoms: C4_16  and  N7_17 
REMARK       I    between atoms: N7_17  and  C5_19 
REMARK    4  A    between atoms: C5_19  and  C6_21 
REMARK    5  A    between atoms: C6_21  and  S1_22 
REMARK    6  A    between atoms: S1_22  and  C7_23 
REMARK    7  A    between atoms: C8_27  and  N9_28 
REMARK    8  A    between atoms: C9_31  and  N10_32 
REMARK    9  A    between atoms: C10_35  and  O4_36 
ROOT
HETATM    1  C1  UNL     1      15.512 -53.566   5.008  1.00  0.00     0.679 A 
HETATM    2  N2  UNL     1      15.629 -54.119   6.219  1.00  0.00    -0.172 N 
ATOM      3  H2  UNL     1      16.515 -54.065   6.723  1.00  0.00     0.186 HD
HETATM    4  C2  UNL     1      14.558 -54.761   6.786  1.00  0.00     0.176 A 
HETATM    5  C4  UNL     1      13.377 -54.825   6.097  1.00  0.00     0.133 A 
HETATM    6  C10 UNL     1      13.329 -54.234   4.859  1.00  0.00     0.186 A 
HETATM    7  N11 UNL     1      14.365 -53.608   4.299  1.00  0.00    -0.168 N 
ATOM      8  H11 UNL     1      14.293 -53.180   3.376  1.00  0.00     0.186 HD
ENDROOT
BRANCH   5   9
HETATM    9  N7  UNL     1      12.257 -55.470   6.649  1.00  0.00    -0.320 N 
HETATM   10  C5  UNL     1      11.078 -54.819   7.086  1.00  0.00     0.232 C 
HETATM   11  O1  UNL     1      11.003 -53.573   6.985  1.00  0.00    -0.272 OA
ATOM     12  H7  UNL     1      12.296 -56.485   6.743  1.00  0.00     0.169 HD
BRANCH  10  13
HETATM   13  C6  UNL     1       9.956 -55.570   7.650  1.00  0.00     0.183 C 
BRANCH  13  14
HETATM   14  S1  UNL     1       9.060 -56.511   6.374  1.00  0.00    -0.109 SA
BRANCH  14  15
HETATM   15  C7  UNL     1       7.719 -55.449   5.784  1.00  0.00     0.095 A 
HETATM   16  S2  UNL     1       7.230 -55.097   4.193  1.00  0.00    -0.004 SA
HETATM   17  N8  UNL     1       5.948 -54.068   4.522  1.00  0.00    -0.310 N 
HETATM   18  C8  UNL     1       5.912 -54.008   5.847  1.00  0.00     0.140 A 
ATOM     19  H8  UNL     1       5.336 -53.595   3.857  1.00  0.00     0.176 HD
HETATM   20  C9  UNL     1       6.829 -54.722   6.538  1.00  0.00     0.171 A 
BRANCH  18  21
HETATM   21  N9  UNL     1       5.004 -53.270   6.459  1.00  0.00    -0.383 N 
ATOM     22  H92 UNL     1       4.203 -52.883   5.960  1.00  0.00     0.157 HD
ATOM     23  H91 UNL     1       5.087 -53.069   7.456  1.00  0.00     0.157 HD
ENDBRANCH  18  21
BRANCH  20  24
HETATM   24  N10 UNL     1       6.923 -54.765   7.992  1.00  0.00    -0.110 N 
HETATM   25  O2  UNL     1       7.273 -53.769   8.633  1.00  0.00    -0.532 OA
HETATM   26  O3  UNL     1       6.617 -55.921   8.643  1.00  0.00    -0.532 OA
ENDBRANCH  20  24
ENDBRANCH  14  15
ENDBRANCH  13  14
ENDBRANCH  10  13
ENDBRANCH   5   9
BRANCH   4  27
HETATM   27  N3  UNL     1      14.750 -55.330   8.051  1.00  0.00    -0.216 N 
HETATM   28  C3  UNL     1      15.785 -56.185   8.326  1.00  0.00     0.228 A 
HETATM   29  N4  UNL     1      15.699 -56.555   9.612  1.00  0.00    -0.279 N 
HETATM   30  N5  UNL     1      14.650 -55.951  10.118  1.00  0.00    -0.227 N 
ATOM     31  H4  UNL     1      16.330 -57.188  10.104  1.00  0.00     0.189 HD
HETATM   32  N6  UNL     1      14.102 -55.230   9.176  1.00  0.00    -0.219 N 
ATOM     33  H5  UNL     1      14.319 -56.030  11.079  1.00  0.00     0.210 HD
ATOM     34  H6  UNL     1      13.267 -54.658   9.306  1.00  0.00     0.210 HD
ENDBRANCH   4  27
BRANCH   6  35
HETATM   35  O4  UNL     1      12.138 -54.298   4.163  1.00  0.00    -0.344 OA
ATOM     36  H4  UNL     1      12.130 -53.970   3.271  1.00  0.00     0.219 HD
ENDBRANCH   6  35
BRANCH   1  37
HETATM   37  N1  UNL     1      16.552 -52.969   4.509  1.00  0.00    -0.234 N 
ATOM     38  H12 UNL     1      17.471 -53.133   4.918  1.00  0.00     0.174 HD
ATOM     39  H11 UNL     1      16.410 -52.346   3.714  1.00  0.00     0.174 HD
ENDBRANCH   1  37
TORSDOF 9
ENDMDL
MODEL 3
REMARK VINA RESULT: -7.670714776      2.125      2.312
REMARK  9 active torsions:
REMARK  status: ('A' for Active; 'I' for Inactive)
REMARK    1  A    between atoms: N1_1  and  C1_4 
REMARK    2  A    between atoms: C2_7  and  N3_8 
REMARK    3  A    between atoms: C4_16  and  N7_17 
REMARK       I    between atoms: N7_17  and  C5_19 
REMARK    4  A    between atoms: C5_19  and  C6_21 
REMARK    5  A    between atoms: C6_21  and  S1_22 
REMARK    6  A    between atoms: S1_22  and  C7_23 
REMARK    7  A    between atoms: C8_27  and  N9_28 
REMARK    8  A    between atoms: C9_31  and  N10_32 
REMARK    9  A    between atoms: C10_35  and  O4_36 
ROOT
HETATM    1  C1  UNL     1      15.054 -55.695   8.861  1.00  0.00     0.679 A 
HETATM    2  N2  UNL     1      15.049 -55.276   7.591  1.00  0.00    -0.172 N 
ATOM      3  H2  UNL     1      15.885 -55.378   7.016  1.00  0.00     0.186 HD
HETATM    4  C2  UNL     1      13.919 -54.707   7.061  1.00  0.00     0.176 A 
HETATM    5  C4  UNL     1      12.806 -54.578   7.847  1.00  0.00     0.133 A 
HETATM    6  C10 UNL     1      12.883 -55.030   9.140  1.00  0.00     0.186 A 
HETATM    7  N11 UNL     1      13.977 -55.584   9.665  1.00  0.00    -0.168 N 
ATOM      8  H11 UNL     1      13.998 -55.910  10.632  1.00  0.00     0.186 HD
ENDROOT
BRANCH   5   9
HETATM    9  N7  UNL     1      11.628 -54.005   7.336  1.00  0.00    -0.320 N 
HETATM   10  C5  UNL     1      10.606 -54.714   6.662  1.00  0.00     0.232 C 
HETATM   11  O1  UNL     1      10.736 -55.948   6.494  1.00  0.00    -0.272 OA
ATOM     12  H7  UNL     1      11.501 -53.000   7.460  1.00  0.00     0.169 HD
BRANCH  10  13
HETATM   13  C6  UNL     1       9.409 -54.037   6.161  1.00  0.00     0.183 C 
BRANCH  13  14
HETATM   14  S1  UNL     1       8.037 -54.113   7.356  1.00  0.00    -0.109 SA
BRANCH  14  15
HETATM   15  C7  UNL     1       6.875 -55.355   6.742  1.00  0.00     0.095 A 
HETATM   16  S2  UNL     1       7.170 -56.777   5.854  1.00  0.00    -0.004 SA
HETATM   17  N8  UNL     1       5.596 -57.337   5.704  1.00  0.00    -0.310 N 
HETATM   18  C8  UNL     1       4.866 -56.428   6.338  1.00  0.00     0.140 A 
ATOM     19  H8  UNL     1       5.274 -58.183   5.234  1.00  0.00     0.176 HD
HETATM   20  C9  UNL     1       5.509 -55.376   6.893  1.00  0.00     0.171 A 
BRANCH  18  21
HETATM   21  N9  UNL     1       3.555 -56.559   6.415  1.00  0.00    -0.383 N 
ATOM     22  H92 UNL     1       3.110 -57.476   6.460  1.00  0.00     0.157 HD
ATOM     23  H91 UNL     1       2.953 -55.736   6.431  1.00  0.00     0.157 HD
ENDBRANCH  18  21
BRANCH  20  24
HETATM   24  N10 UNL     1       4.854 -54.295   7.621  1.00  0.00    -0.110 N 
HETATM   25  O2  UNL     1       4.442 -54.468   8.772  1.00  0.00    -0.532 OA
HETATM   26  O3  UNL     1       4.703 -53.085   7.017  1.00  0.00    -0.532 OA
ENDBRANCH  20  24
ENDBRANCH  14  15
ENDBRANCH  13  14
ENDBRANCH  10  13
ENDBRANCH   5   9
BRANCH   4  27
HETATM   27  N3  UNL     1      13.984 -54.278   5.730  1.00  0.00    -0.216 N 
HETATM   28  C3  UNL     1      15.116 -53.732   5.186  1.00  0.00     0.228 A 
HETATM   29  N4  UNL     1      14.865 -53.424   3.905  1.00  0.00    -0.279 N 
HETATM   30  N5  UNL     1      13.622 -53.769   3.662  1.00  0.00    -0.227 N 
ATOM     31  H4  UNL     1      15.517 -53.002   3.243  1.00  0.00     0.189 HD
HETATM   32  N6  UNL     1      13.118 -54.272   4.757  1.00  0.00    -0.219 N 
ATOM     33  H5  UNL     1      13.134 -53.662   2.773  1.00  0.00     0.210 HD
ATOM     34  H6  UNL     1      12.162 -54.620   4.840  1.00  0.00     0.210 HD
ENDBRANCH   4  27
BRANCH   6  35
HETATM   35  O4  UNL     1      11.761 -54.900   9.934  1.00  0.00    -0.344 OA
ATOM     36  H4  UNL     1      10.962 -54.587   9.523  1.00  0.00     0.219 HD
ENDBRANCH   6  35
BRANCH   1  37
HETATM   37  N1  UNL     1      16.146 -56.227   9.321  1.00  0.00    -0.234 N 
ATOM     38  H12 UNL     1      16.793 -56.684   8.679  1.00  0.00     0.174 HD
ATOM     39  H11 UNL     1      16.320 -56.168  10.324  1.00  0.00     0.174 HD
ENDBRANCH   1  37
TORSDOF 9
ENDMDL
MODEL 4
REMARK VINA RESULT: -7.372793497      2.046      2.571
REMARK  9 active torsions:
REMARK  status: ('A' for Active; 'I' for Inactive)
REMARK    1  A    between atoms: N1_1  and  C1_4 
REMARK    2  A    between atoms: C2_7  and  N3_8 
REMARK    3  A    between atoms: C4_16  and  N7_17 
REMARK       I    between atoms: N7_17  and  C5_19 
REMARK    4  A    between atoms: C5_19  and  C6_21 
REMARK    5  A    between atoms: C6_21  and  S1_22 
REMARK    6  A    between atoms: S1_22  and  C7_23 
REMARK    7  A    between atoms: C8_27  and  N9_28 
REMARK    8  A    between atoms: C9_31  and  N10_32 
REMARK    9  A    between atoms: C10_35  and  O4_36 
ROOT
HETATM    1  C1  UNL     1      15.283 -55.796   9.318  1.00  0.00     0.679 A 
HETATM    2  N2  UNL     1      15.370 -55.364   8.055  1.00  0.00    -0.172 N 
ATOM      3  H2  UNL     1      16.250 -55.451   7.546  1.00  0.00     0.186 HD
HETATM    4  C2  UNL     1      14.278 -54.803   7.445  1.00  0.00     0.176 A 
HETATM    5  C4  UNL     1      13.106 -54.694   8.144  1.00  0.00     0.133 A 
HETATM    6  C10 UNL     1      13.088 -55.159   9.435  1.00  0.00     0.186 A 
HETATM    7  N11 UNL     1      14.145 -55.706  10.038  1.00  0.00    -0.168 N 
ATOM      8  H11 UNL     1      14.095 -56.042  11.000  1.00  0.00     0.186 HD
ENDROOT
BRANCH   5   9
HETATM    9  N7  UNL     1      11.964 -54.130   7.549  1.00  0.00    -0.320 N 
HETATM   10  C5  UNL     1      11.042 -54.829   6.735  1.00  0.00     0.232 C 
HETATM   11  O1  UNL     1      11.235 -56.046   6.511  1.00  0.00    -0.272 OA
ATOM     12  H7  UNL     1      11.787 -53.139   7.717  1.00  0.00     0.169 HD
BRANCH  10  13
HETATM   13  C6  UNL     1       9.876 -54.162   6.154  1.00  0.00     0.183 C 
BRANCH  13  14
HETATM   14  S1  UNL     1       8.973 -55.250   5.007  1.00  0.00    -0.109 SA
BRANCH  14  15
HETATM   15  C7  UNL     1       7.210 -54.996   5.321  1.00  0.00     0.095 A 
HETATM   16  S2  UNL     1       5.921 -54.830   4.222  1.00  0.00    -0.004 SA
HETATM   17  N8  UNL     1       4.657 -54.642   5.309  1.00  0.00    -0.310 N 
HETATM   18  C8  UNL     1       5.240 -54.710   6.499  1.00  0.00     0.140 A 
ATOM     19  H8  UNL     1       3.668 -54.506   5.102  1.00  0.00     0.176 HD
HETATM   20  C9  UNL     1       6.579 -54.895   6.538  1.00  0.00     0.171 A 
BRANCH  18  21
HETATM   21  N9  UNL     1       4.523 -54.597   7.602  1.00  0.00    -0.383 N 
ATOM     22  H92 UNL     1       3.645 -54.078   7.619  1.00  0.00     0.157 HD
ATOM     23  H91 UNL     1       4.837 -55.033   8.469  1.00  0.00     0.157 HD
ENDBRANCH  18  21
BRANCH  20  24
HETATM   24  N10 UNL     1       7.367 -54.992   7.761  1.00  0.00    -0.110 N 
HETATM   25  O2  UNL     1       7.898 -56.057   8.088  1.00  0.00    -0.532 OA
HETATM   26  O3  UNL     1       7.514 -53.888   8.545  1.00  0.00    -0.532 OA
ENDBRANCH  20  24
ENDBRANCH  14  15
ENDBRANCH  13  14
ENDBRANCH  10  13
ENDBRANCH   5   9
BRANCH   4  27
HETATM   27  N3  UNL     1      14.439 -54.359   6.127  1.00  0.00    -0.216 N 
HETATM   28  C3  UNL     1      15.611 -53.813   5.672  1.00  0.00     0.228 A 
HETATM   29  N4  UNL     1      15.453 -53.490   4.380  1.00  0.00    -0.279 N 
HETATM   30  N5  UNL     1      14.230 -53.825   4.045  1.00  0.00    -0.227 N 
ATOM     31  H4  UNL     1      16.153 -53.064   3.771  1.00  0.00     0.189 HD
HETATM   32  N6  UNL     1      13.646 -54.337   5.095  1.00  0.00    -0.219 N 
ATOM     33  H5  UNL     1      13.806 -53.705   3.124  1.00  0.00     0.210 HD
ATOM     34  H6  UNL     1      12.685 -54.680   5.106  1.00  0.00     0.210 HD
ENDBRANCH   4  27
BRANCH   6  35
HETATM   35  O4  UNL     1      11.906 -55.050  10.141  1.00  0.00    -0.344 OA
ATOM     36  H4  UNL     1      11.883 -55.407  11.022  1.00  0.00     0.219 HD
ENDBRANCH   6  35
BRANCH   1  37
HETATM   37  N1  UNL     1      16.341 -56.320   9.856  1.00  0.00    -0.234 N 
ATOM     38  H12 UNL     1      17.174 -56.470   9.287  1.00  0.00     0.174 HD
ATOM     39  H11 UNL     1      16.303 -56.567  10.845  1.00  0.00     0.174 HD
ENDBRANCH   1  37
TORSDOF 9
ENDMDL
MODEL 5
REMARK VINA RESULT: -7.291155033      1.676      3.489
REMARK  9 active torsions:
REMARK  status: ('A' for Active; 'I' for Inactive)
REMARK    1  A    between atoms: N1_1  and  C1_4 
REMARK    2  A    between atoms: C2_7  and  N3_8 
REMARK    3  A    between atoms: C4_16  and  N7_17 
REMARK       I    between atoms: N7_17  and  C5_19 
REMARK    4  A    between atoms: C5_19  and  C6_21 
REMARK    5  A    between atoms: C6_21  and  S1_22 
REMARK    6  A    between atoms: S1_22  and  C7_23 
REMARK    7  A    between atoms: C8_27  and  N9_28 
REMARK    8  A    between atoms: C9_31  and  N10_32 
REMARK    9  A    between atoms: C10_35  and  O4_36 
ROOT
HETATM    1  C1  UNL     1      15.180 -53.583   5.087  1.00  0.00     0.679 A 
HETATM    2  N2  UNL     1      15.207 -54.070   6.333  1.00  0.00    -0.172 N 
ATOM      3  H2  UNL     1      16.053 -53.980   6.897  1.00  0.00     0.186 HD
HETATM    4  C2  UNL     1      14.100 -54.689   6.852  1.00  0.00     0.176 A 
HETATM    5  C4  UNL     1      12.974 -54.799   6.081  1.00  0.00     0.133 A 
HETATM    6  C10 UNL     1      13.016 -54.277   4.813  1.00  0.00     0.186 A 
HETATM    7  N11 UNL     1      14.089 -53.673   4.298  1.00  0.00    -0.168 N 
ATOM      8  H11 UNL     1      14.085 -53.296   3.350  1.00  0.00     0.186 HD
ENDROOT
BRANCH   5   9
HETATM    9  N7  UNL     1      11.818 -55.422   6.583  1.00  0.00    -0.320 N 
HETATM   10  C5  UNL     1      10.617 -54.755   6.921  1.00  0.00     0.232 C 
HETATM   11  O1  UNL     1      10.553 -53.513   6.773  1.00  0.00    -0.272 OA
ATOM     12  H7  UNL     1      11.847 -56.434   6.713  1.00  0.00     0.169 HD
BRANCH  10  13
HETATM   13  C6  UNL     1       9.457 -55.484   7.438  1.00  0.00     0.183 C 
BRANCH  13  14
HETATM   14  S1  UNL     1       7.932 -54.495   7.331  1.00  0.00    -0.109 SA
BRANCH  14  15
HETATM   15  C7  UNL     1       7.309 -54.672   5.642  1.00  0.00     0.095 A 
HETATM   16  S2  UNL     1       8.063 -55.336   4.268  1.00  0.00    -0.004 SA
HETATM   17  N8  UNL     1       6.831 -55.123   3.151  1.00  0.00    -0.310 N 
HETATM   18  C8  UNL     1       5.858 -54.547   3.846  1.00  0.00     0.140 A 
ATOM     19  H8  UNL     1       6.829 -55.378   2.163  1.00  0.00     0.176 HD
HETATM   20  C9  UNL     1       6.080 -54.297   5.156  1.00  0.00     0.171 A 
BRANCH  18  21
HETATM   21  N9  UNL     1       4.716 -54.232   3.263  1.00  0.00    -0.383 N 
ATOM     22  H92 UNL     1       4.529 -54.469   2.289  1.00  0.00     0.157 HD
ATOM     23  H91 UNL     1       3.990 -53.739   3.783  1.00  0.00     0.157 HD
ENDBRANCH  18  21
BRANCH  20  24
HETATM   24  N10 UNL     1       5.117 -53.673   6.055  1.00  0.00    -0.110 N 
HETATM   25  O2  UNL     1       4.623 -54.307   6.992  1.00  0.00    -0.532 OA
HETATM   26  O3  UNL     1       4.765 -52.373   5.852  1.00  0.00    -0.532 OA
ENDBRANCH  20  24
ENDBRANCH  14  15
ENDBRANCH  13  14
ENDBRANCH  10  13
ENDBRANCH   5   9
BRANCH   4  27
HETATM   27  N3  UNL     1      14.199 -55.187   8.157  1.00  0.00    -0.216 N 
HETATM   28  C3  UNL     1      15.227 -55.996   8.561  1.00  0.00     0.228 A 
HETATM   29  N4  UNL     1      15.043 -56.303   9.853  1.00  0.00    -0.279 N 
HETATM   30  N5  UNL     1      13.941 -55.704  10.238  1.00  0.00    -0.227 N 
ATOM     31  H4  UNL     1      15.646 -56.892  10.429  1.00  0.00     0.189 HD
HETATM   32  N6  UNL     1      13.456 -55.048   9.218  1.00  0.00    -0.219 N 
ATOM     33  H5  UNL     1      13.532 -55.744  11.172  1.00  0.00     0.210 HD
ATOM     34  H6  UNL     1      12.600 -54.494   9.248  1.00  0.00     0.210 HD
ENDBRANCH   4  27
BRANCH   6  35
HETATM   35  O4  UNL     1      11.882 -54.388   4.034  1.00  0.00    -0.344 OA
ATOM     36  H4  UNL     1      11.965 -54.216   3.103  1.00  0.00     0.219 HD
ENDBRANCH   6  35
BRANCH   1  37
HETATM   37  N1  UNL     1      16.251 -53.005   4.636  1.00  0.00    -0.234 N 
ATOM     38  H12 UNL     1      16.946 -53.557   4.133  1.00  0.00     0.174 HD
ATOM     39  H11 UNL     1      16.362 -52.006   4.802  1.00  0.00     0.174 HD
ENDBRANCH   1  37
TORSDOF 9
ENDMDL
