MODEL 1
REMARK VINA RESULT: -8.116185759      0.000      0.000
REMARK  10 active torsions:
REMARK  status: ('A' for Active; 'I' for Inactive)
REMARK       I    between atoms: C2_2  and  N1_4 
REMARK       I    between atoms: N1_4  and  C3_6 
REMARK    1  A    between atoms: C3_6  and  C4_8 
REMARK    2  A    between atoms: C5_12  and  N3_13 
REMARK    3  A    between atoms: N3_13  and  C6_15 
REMARK    4  A    between atoms: C7_19  and  N5_20 
REMARK    5  A    between atoms: N5_20  and  O4_21 
REMARK    6  A    between atoms: N6_23  and  O5_25 
REMARK    7  A    between atoms: C11_31  and  N7_32 
REMARK    8  A    between atoms: N7_32  and  C12_34 
REMARK    9  A    between atoms: C12_34  and  O7_35 
REMARK   10  A    between atoms: C12_34  and  O8_37 
ROOT
HETATM    1  C4  UNL     1      13.762 -55.494   8.681  1.00  0.00     0.175 A 
HETATM    2  N2  UNL     1      12.785 -55.089   9.556  1.00  0.00    -0.250 N 
ATOM      3  H2  UNL     1      12.995 -55.046  10.553  1.00  0.00     0.195 HD
HETATM    4  O3  UNL     1      11.631 -54.768   9.154  1.00  0.00    -0.217 OA
HETATM    5  C5  UNL     1      11.207 -54.776   7.864  1.00  0.00     0.200 A 
HETATM    6  C11 UNL     1      12.141 -55.173   6.953  1.00  0.00     0.138 A 
HETATM    7  C13 UNL     1      13.431 -55.534   7.368  1.00  0.00     0.236 A 
HETATM    8  O9  UNL     1      14.195 -55.875   6.446  1.00  0.00    -0.283 OA
ENDROOT
BRANCH   5   9
HETATM    9  N3  UNL     1       9.893 -54.375   7.613  1.00  0.00    -0.318 N 
ATOM     10  H3  UNL     1       9.761 -53.367   7.704  1.00  0.00     0.166 HD
BRANCH   9  11
HETATM   11  C6  UNL     1       8.714 -55.051   7.264  1.00  0.00     0.434 C 
HETATM   12  N4  UNL     1       7.541 -54.333   7.625  1.00  0.00    -0.003 N 
HETATM   13  C7  UNL     1       6.935 -53.929   6.395  1.00  0.00     0.372 C 
ATOM     14  H42 UNL     1       6.914 -54.858   8.234  1.00  0.00     0.285 HD
ATOM     15  H41 UNL     1       7.718 -53.559   8.266  1.00  0.00     0.285 HD
HETATM   16  C8  UNL     1       7.340 -55.100   5.499  1.00  0.00     0.108 C 
HETATM   17  C9  UNL     1       6.600 -56.359   5.847  1.00  0.00     0.050 C 
HETATM   18  C10 UNL     1       7.105 -54.781   4.064  1.00  0.00     0.050 C 
HETATM   19  O6  UNL     1       8.655 -55.222   5.855  1.00  0.00    -0.329 OA
BRANCH  13  20
HETATM   20  N5  UNL     1       5.523 -53.736   6.448  1.00  0.00    -0.146 N 
HETATM   21  N6  UNL     1       4.865 -54.121   7.475  1.00  0.00    -0.186 N 
ATOM     22  H6  UNL     1       3.855 -53.974   7.498  1.00  0.00     0.218 HD
BRANCH  20  23
HETATM   23  O4  UNL     1       4.826 -53.148   5.440  1.00  0.00    -0.269 OA
ATOM     24  H4  UNL     1       3.934 -53.393   5.225  1.00  0.00     0.246 HD
ENDBRANCH  20  23
BRANCH  21  25
HETATM   25  O5  UNL     1       5.473 -54.726   8.550  1.00  0.00    -0.273 OA
ATOM     26  H5  UNL     1       4.974 -55.134   9.248  1.00  0.00     0.246 HD
ENDBRANCH  21  25
ENDBRANCH  13  20
ENDBRANCH   9  11
ENDBRANCH   5   9
BRANCH   6  27
HETATM   27  N7  UNL     1      11.867 -55.312   5.583  1.00  0.00    -0.335 N 
ATOM     28  H7  UNL     1      11.696 -56.246   5.212  1.00  0.00     0.164 HD
BRANCH  27  29
HETATM   29  C12 UNL     1      11.818 -54.176   4.665  1.00  0.00     0.366 C 
BRANCH  29  30
HETATM   30  O7  UNL     1      10.802 -54.294   3.727  1.00  0.00    -0.355 OA
ATOM     31  H7  UNL     1      10.777 -53.562   3.123  1.00  0.00     0.214 HD
ENDBRANCH  29  30
BRANCH  29  32
HETATM   32  O8  UNL     1      13.031 -54.060   4.044  1.00  0.00    -0.355 OA
ATOM     33  H8  UNL     1      13.021 -53.284   3.496  1.00  0.00     0.214 HD
ENDBRANCH  29  32
ENDBRANCH  27  29
ENDBRANCH   6  27
BRANCH   1  34
HETATM   34  C3  UNL     1      15.063 -55.846   9.194  1.00  0.00     0.280 C 
HETATM   35  N1  UNL     1      16.147 -56.360   8.471  1.00  0.00    -0.292 N 
HETATM   36  C2  UNL     1      17.380 -56.668   9.097  1.00  0.00     0.220 C 
ATOM     37  H1  UNL     1      16.045 -56.517   7.468  1.00  0.00     0.172 HD
HETATM   38  C1  UNL     1      17.654 -56.491  10.510  1.00  0.00     0.117 C 
HETATM   39  O1  UNL     1      18.313 -57.133   8.357  1.00  0.00    -0.274 OA
HETATM   40  O2  UNL     1      15.236 -55.667  10.451  1.00  0.00    -0.265 OA
ENDBRANCH   1  34
TORSDOF 10
ENDMDL
MODEL 2
REMARK VINA RESULT: -7.917028399      2.533      4.457
REMARK  10 active torsions:
REMARK  status: ('A' for Active; 'I' for Inactive)
REMARK       I    between atoms: C2_2  and  N1_4 
REMARK       I    between atoms: N1_4  and  C3_6 
REMARK    1  A    between atoms: C3_6  and  C4_8 
REMARK    2  A    between atoms: C5_12  and  N3_13 
REMARK    3  A    between atoms: N3_13  and  C6_15 
REMARK    4  A    between atoms: C7_19  and  N5_20 
REMARK    5  A    between atoms: N5_20  and  O4_21 
REMARK    6  A    between atoms: N6_23  and  O5_25 
REMARK    7  A    between atoms: C11_31  and  N7_32 
REMARK    8  A    between atoms: N7_32  and  C12_34 
REMARK    9  A    between atoms: C12_34  and  O7_35 
REMARK   10  A    between atoms: C12_34  and  O8_37 
ROOT
HETATM    1  C4  UNL     1      12.743 -54.196   4.708  1.00  0.00     0.175 A 
HETATM    2  N2  UNL     1      11.456 -54.368   4.261  1.00  0.00    -0.250 N 
ATOM      3  H2  UNL     1      11.217 -54.091   3.309  1.00  0.00     0.195 HD
HETATM    4  O3  UNL     1      10.561 -54.861   5.004  1.00  0.00    -0.217 OA
HETATM    5  C5  UNL     1      10.729 -55.273   6.287  1.00  0.00     0.200 A 
HETATM    6  C11 UNL     1      11.991 -55.121   6.780  1.00  0.00     0.138 A 
HETATM    7  C13 UNL     1      13.007 -54.578   5.980  1.00  0.00     0.236 A 
HETATM    8  O9  UNL     1      14.116 -54.493   6.539  1.00  0.00    -0.283 OA
ENDROOT
BRANCH   5   9
HETATM    9  N3  UNL     1       9.619 -55.806   6.945  1.00  0.00    -0.318 N 
ATOM     10  H3  UNL     1       9.709 -56.806   7.131  1.00  0.00     0.166 HD
BRANCH   9  11
HETATM   11  C6  UNL     1       8.406 -55.271   7.407  1.00  0.00     0.434 C 
HETATM   12  N4  UNL     1       7.944 -54.188   6.611  1.00  0.00    -0.003 N 
HETATM   13  C7  UNL     1       6.766 -54.661   5.953  1.00  0.00     0.372 C 
ATOM     14  H42 UNL     1       7.798 -53.327   7.138  1.00  0.00     0.285 HD
ATOM     15  H41 UNL     1       8.650 -53.822   5.971  1.00  0.00     0.285 HD
HETATM   16  C8  UNL     1       6.231 -55.620   7.016  1.00  0.00     0.108 C 
HETATM   17  C9  UNL     1       5.687 -54.890   8.211  1.00  0.00     0.050 C 
HETATM   18  C10 UNL     1       5.167 -56.497   6.458  1.00  0.00     0.050 C 
HETATM   19  O6  UNL     1       7.390 -56.262   7.355  1.00  0.00    -0.329 OA
BRANCH  13  20
HETATM   20  N5  UNL     1       5.825 -53.651   5.594  1.00  0.00    -0.146 N 
HETATM   21  N6  UNL     1       5.200 -53.727   4.481  1.00  0.00    -0.186 N 
ATOM     22  H6  UNL     1       4.530 -52.997   4.240  1.00  0.00     0.218 HD
BRANCH  20  23
HETATM   23  O4  UNL     1       5.552 -52.587   6.395  1.00  0.00    -0.269 OA
ATOM     24  H4  UNL     1       6.154 -51.862   6.506  1.00  0.00     0.246 HD
ENDBRANCH  20  23
BRANCH  21  25
HETATM   25  O5  UNL     1       5.402 -54.762   3.597  1.00  0.00    -0.273 OA
ATOM     26  H5  UNL     1       4.711 -55.087   3.033  1.00  0.00     0.246 HD
ENDBRANCH  21  25
ENDBRANCH  13  20
ENDBRANCH   9  11
ENDBRANCH   5   9
BRANCH   6  27
HETATM   27  N7  UNL     1      12.340 -55.425   8.106  1.00  0.00    -0.335 N 
ATOM     28  H7  UNL     1      12.749 -56.337   8.305  1.00  0.00     0.164 HD
BRANCH  27  29
HETATM   29  C12 UNL     1      12.142 -54.491   9.212  1.00  0.00     0.366 C 
BRANCH  29  30
HETATM   30  O7  UNL     1      11.961 -55.137  10.427  1.00  0.00    -0.355 OA
ATOM     31  H7  UNL     1      11.343 -54.686  10.991  1.00  0.00     0.214 HD
ENDBRANCH  29  30
BRANCH  29  32
HETATM   32  O8  UNL     1      11.065 -53.696   8.929  1.00  0.00    -0.355 OA
ATOM     33  H8  UNL     1      11.311 -52.789   9.064  1.00  0.00     0.214 HD
ENDBRANCH  29  32
ENDBRANCH  27  29
ENDBRANCH   6  27
BRANCH   1  34
HETATM   34  C3  UNL     1      13.726 -53.630   3.817  1.00  0.00     0.280 C 
HETATM   35  N1  UNL     1      15.104 -53.516   4.040  1.00  0.00    -0.292 N 
HETATM   36  C2  UNL     1      15.968 -52.935   3.079  1.00  0.00     0.220 C 
ATOM     37  H1  UNL     1      15.496 -53.861   4.918  1.00  0.00     0.172 HD
HETATM   38  C1  UNL     1      15.541 -52.411   1.797  1.00  0.00     0.117 C 
HETATM   39  O1  UNL     1      17.212 -52.874   3.369  1.00  0.00    -0.274 OA
HETATM   40  O2  UNL     1      13.280 -53.183   2.702  1.00  0.00    -0.265 OA
ENDBRANCH   1  34
TORSDOF 10
ENDMDL
MODEL 3
REMARK VINA RESULT: -7.794884017      1.075      1.540
REMARK  10 active torsions:
REMARK  status: ('A' for Active; 'I' for Inactive)
REMARK       I    between atoms: C2_2  and  N1_4 
REMARK       I    between atoms: N1_4  and  C3_6 
REMARK    1  A    between atoms: C3_6  and  C4_8 
REMARK    2  A    between atoms: C5_12  and  N3_13 
REMARK    3  A    between atoms: N3_13  and  C6_15 
REMARK    4  A    between atoms: C7_19  and  N5_20 
REMARK    5  A    between atoms: N5_20  and  O4_21 
REMARK    6  A    between atoms: N6_23  and  O5_25 
REMARK    7  A    between atoms: C11_31  and  N7_32 
REMARK    8  A    between atoms: N7_32  and  C12_34 
REMARK    9  A    between atoms: C12_34  and  O7_35 
REMARK   10  A    between atoms: C12_34  and  O8_37 
ROOT
HETATM    1  C4  UNL     1      13.634 -55.314   8.495  1.00  0.00     0.175 A 
HETATM    2  N2  UNL     1      12.617 -55.037   9.373  1.00  0.00    -0.250 N 
ATOM      3  H2  UNL     1      12.773 -55.163  10.373  1.00  0.00     0.195 HD
HETATM    4  O3  UNL     1      11.491 -54.629   8.971  1.00  0.00    -0.217 OA
HETATM    5  C5  UNL     1      11.138 -54.416   7.676  1.00  0.00     0.200 A 
HETATM    6  C11 UNL     1      12.114 -54.679   6.762  1.00  0.00     0.138 A 
HETATM    7  C13 UNL     1      13.375 -55.132   7.177  1.00  0.00     0.236 A 
HETATM    8  O9  UNL     1      14.183 -55.334   6.253  1.00  0.00    -0.283 OA
ENDROOT
BRANCH   5   9
HETATM    9  N3  UNL     1       9.845 -53.950   7.429  1.00  0.00    -0.318 N 
ATOM     10  H3  UNL     1       9.832 -53.031   6.984  1.00  0.00     0.166 HD
BRANCH   9  11
HETATM   11  C6  UNL     1       8.559 -54.465   7.656  1.00  0.00     0.434 C 
HETATM   12  N4  UNL     1       7.530 -53.584   7.227  1.00  0.00    -0.003 N 
HETATM   13  C7  UNL     1       6.910 -54.221   6.108  1.00  0.00     0.372 C 
ATOM     14  H42 UNL     1       6.874 -53.332   7.967  1.00  0.00     0.285 HD
ATOM     15  H41 UNL     1       7.859 -52.638   7.028  1.00  0.00     0.285 HD
HETATM   16  C8  UNL     1       7.080 -55.687   6.505  1.00  0.00     0.108 C 
HETATM   17  C9  UNL     1       6.189 -56.068   7.652  1.00  0.00     0.050 C 
HETATM   18  C10 UNL     1       6.800 -56.588   5.354  1.00  0.00     0.050 C 
HETATM   19  O6  UNL     1       8.383 -55.667   6.918  1.00  0.00    -0.329 OA
BRANCH  13  20
HETATM   20  N5  UNL     1       5.548 -53.863   5.883  1.00  0.00    -0.146 N 
HETATM   21  N6  UNL     1       5.101 -53.768   4.689  1.00  0.00    -0.186 N 
ATOM     22  H6  UNL     1       4.124 -53.511   4.546  1.00  0.00     0.218 HD
BRANCH  20  23
HETATM   23  O4  UNL     1       4.680 -53.612   6.899  1.00  0.00    -0.269 OA
ATOM     24  H4  UNL     1       4.799 -53.964   7.773  1.00  0.00     0.246 HD
ENDBRANCH  20  23
BRANCH  21  25
HETATM   25  O5  UNL     1       5.894 -54.000   3.590  1.00  0.00    -0.273 OA
ATOM     26  H5  UNL     1       6.506 -54.726   3.553  1.00  0.00     0.246 HD
ENDBRANCH  21  25
ENDBRANCH  13  20
ENDBRANCH   9  11
ENDBRANCH   5   9
BRANCH   6  27
HETATM   27  N7  UNL     1      11.913 -54.585   5.376  1.00  0.00    -0.335 N 
ATOM     28  H7  UNL     1      12.509 -53.955   4.839  1.00  0.00     0.164 HD
BRANCH  27  29
HETATM   29  C12 UNL     1      10.889 -55.350   4.669  1.00  0.00     0.366 C 
BRANCH  29  30
HETATM   30  O7  UNL     1       9.766 -54.588   4.374  1.00  0.00    -0.355 OA
ATOM     31  H7  UNL     1       9.503 -54.665   3.464  1.00  0.00     0.214 HD
ENDBRANCH  29  30
BRANCH  29  32
HETATM   32  O8  UNL     1      10.545 -56.433   5.430  1.00  0.00    -0.355 OA
ATOM     33  H8  UNL     1      10.462 -57.191   4.863  1.00  0.00     0.214 HD
ENDBRANCH  29  32
ENDBRANCH  27  29
ENDBRANCH   6  27
BRANCH   1  34
HETATM   34  C3  UNL     1      14.901 -55.775   9.008  1.00  0.00     0.280 C 
HETATM   35  N1  UNL     1      15.988 -56.260   8.270  1.00  0.00    -0.292 N 
HETATM   36  C2  UNL     1      17.184 -56.685   8.899  1.00  0.00     0.220 C 
ATOM     37  H1  UNL     1      15.915 -56.310   7.253  1.00  0.00     0.172 HD
HETATM   38  C1  UNL     1      17.415 -56.666  10.330  1.00  0.00     0.117 C 
HETATM   39  O1  UNL     1      18.123 -57.114   8.144  1.00  0.00    -0.274 OA
HETATM   40  O2  UNL     1      15.037 -55.732  10.282  1.00  0.00    -0.265 OA
ENDBRANCH   1  34
TORSDOF 10
ENDMDL
MODEL 4
REMARK VINA RESULT: -7.649756763      4.249      6.899
REMARK  10 active torsions:
REMARK  status: ('A' for Active; 'I' for Inactive)
REMARK       I    between atoms: C2_2  and  N1_4 
REMARK       I    between atoms: N1_4  and  C3_6 
REMARK    1  A    between atoms: C3_6  and  C4_8 
REMARK    2  A    between atoms: C5_12  and  N3_13 
REMARK    3  A    between atoms: N3_13  and  C6_15 
REMARK    4  A    between atoms: C7_19  and  N5_20 
REMARK    5  A    between atoms: N5_20  and  O4_21 
REMARK    6  A    between atoms: N6_23  and  O5_25 
REMARK    7  A    between atoms: C11_31  and  N7_32 
REMARK    8  A    between atoms: N7_32  and  C12_34 
REMARK    9  A    between atoms: C12_34  and  O7_35 
REMARK   10  A    between atoms: C12_34  and  O8_37 
ROOT
HETATM    1  C4  UNL     1       8.565 -55.686   6.493  1.00  0.00     0.175 A 
HETATM    2  N2  UNL     1       8.249 -56.684   5.606  1.00  0.00    -0.250 N 
ATOM      3  H2  UNL     1       8.973 -57.054   4.992  1.00  0.00     0.195 HD
HETATM    4  O3  UNL     1       7.079 -57.156   5.535  1.00  0.00    -0.217 OA
HETATM    5  C5  UNL     1       6.016 -56.765   6.285  1.00  0.00     0.200 A 
HETATM    6  C11 UNL     1       6.277 -55.772   7.182  1.00  0.00     0.138 A 
HETATM    7  C13 UNL     1       7.566 -55.229   7.286  1.00  0.00     0.236 A 
HETATM    8  O9  UNL     1       7.683 -54.333   8.142  1.00  0.00    -0.283 OA
ENDROOT
BRANCH   5   9
HETATM    9  N3  UNL     1       4.799 -57.416   6.069  1.00  0.00    -0.318 N 
ATOM     10  H3  UNL     1       4.065 -56.788   5.740  1.00  0.00     0.166 HD
BRANCH   9  11
HETATM   11  C6  UNL     1       4.364 -58.744   6.204  1.00  0.00     0.434 C 
HETATM   12  N4  UNL     1       3.139 -58.992   5.527  1.00  0.00    -0.003 N 
HETATM   13  C7  UNL     1       3.461 -59.864   4.441  1.00  0.00     0.372 C 
ATOM     14  H42 UNL     1       2.403 -59.353   6.134  1.00  0.00     0.285 HD
ATOM     15  H41 UNL     1       2.654 -58.142   5.237  1.00  0.00     0.285 HD
HETATM   16  C8  UNL     1       4.614 -60.652   5.063  1.00  0.00     0.108 C 
HETATM   17  C9  UNL     1       4.141 -61.595   6.132  1.00  0.00     0.050 C 
HETATM   18  C10 UNL     1       5.353 -61.424   4.028  1.00  0.00     0.050 C 
HETATM   19  O6  UNL     1       5.318 -59.626   5.631  1.00  0.00    -0.329 OA
BRANCH  13  20
HETATM   20  N5  UNL     1       2.395 -60.701   3.998  1.00  0.00    -0.146 N 
HETATM   21  N6  UNL     1       2.081 -60.733   2.758  1.00  0.00    -0.186 N 
ATOM     22  H6  UNL     1       1.316 -61.337   2.458  1.00  0.00     0.218 HD
BRANCH  20  23
HETATM   23  O4  UNL     1       1.678 -61.485   4.846  1.00  0.00    -0.269 OA
ATOM     24  H4  UNL     1       0.747 -61.368   4.988  1.00  0.00     0.246 HD
ENDBRANCH  20  23
BRANCH  21  25
HETATM   25  O5  UNL     1       2.742 -59.979   1.817  1.00  0.00    -0.273 OA
ATOM     26  H5  UNL     1       3.494 -60.311   1.341  1.00  0.00     0.246 HD
ENDBRANCH  21  25
ENDBRANCH  13  20
ENDBRANCH   9  11
ENDBRANCH   5   9
BRANCH   6  27
HETATM   27  N7  UNL     1       5.291 -55.191   7.994  1.00  0.00    -0.335 N 
ATOM     28  H7  UNL     1       5.242 -55.466   8.974  1.00  0.00     0.164 HD
BRANCH  27  29
HETATM   29  C12 UNL     1       4.330 -54.209   7.495  1.00  0.00     0.366 C 
BRANCH  29  30
HETATM   30  O7  UNL     1       4.947 -53.072   6.989  1.00  0.00    -0.355 OA
ATOM     31  H7  UNL     1       4.602 -52.272   7.369  1.00  0.00     0.214 HD
ENDBRANCH  29  30
BRANCH  29  32
HETATM   32  O8  UNL     1       3.474 -53.877   8.510  1.00  0.00    -0.355 OA
ATOM     33  H8  UNL     1       2.603 -54.180   8.284  1.00  0.00     0.214 HD
ENDBRANCH  29  32
ENDBRANCH  27  29
ENDBRANCH   6  27
BRANCH   1  34
HETATM   34  C3  UNL     1       9.918 -55.185   6.535  1.00  0.00     0.280 C 
HETATM   35  N1  UNL     1      10.783 -55.176   7.636  1.00  0.00    -0.292 N 
HETATM   36  C2  UNL     1      12.096 -54.651   7.547  1.00  0.00     0.220 C 
ATOM     37  H1  UNL     1      10.459 -55.556   8.526  1.00  0.00     0.172 HD
HETATM   38  C1  UNL     1      12.677 -54.084   6.345  1.00  0.00     0.117 C 
HETATM   39  O1  UNL     1      12.815 -54.685   8.603  1.00  0.00    -0.274 OA
HETATM   40  O2  UNL     1      10.367 -54.696   5.439  1.00  0.00    -0.265 OA
ENDBRANCH   1  34
TORSDOF 10
ENDMDL
MODEL 5
REMARK VINA RESULT: -7.637621413      2.546      4.431
REMARK  10 active torsions:
REMARK  status: ('A' for Active; 'I' for Inactive)
REMARK       I    between atoms: C2_2  and  N1_4 
REMARK       I    between atoms: N1_4  and  C3_6 
REMARK    1  A    between atoms: C3_6  and  C4_8 
REMARK    2  A    between atoms: C5_12  and  N3_13 
REMARK    3  A    between atoms: N3_13  and  C6_15 
REMARK    4  A    between atoms: C7_19  and  N5_20 
REMARK    5  A    between atoms: N5_20  and  O4_21 
REMARK    6  A    between atoms: N6_23  and  O5_25 
REMARK    7  A    between atoms: C11_31  and  N7_32 
REMARK    8  A    between atoms: N7_32  and  C12_34 
REMARK    9  A    between atoms: C12_34  and  O7_35 
REMARK   10  A    between atoms: C12_34  and  O8_37 
ROOT
HETATM    1  C4  UNL     1      12.192 -54.210   4.757  1.00  0.00     0.175 A 
HETATM    2  N2  UNL     1      10.848 -54.228   4.478  1.00  0.00    -0.250 N 
ATOM      3  H2  UNL     1      10.524 -53.909   3.566  1.00  0.00     0.195 HD
HETATM    4  O3  UNL     1      10.004 -54.631   5.327  1.00  0.00    -0.217 OA
HETATM    5  C5  UNL     1      10.285 -55.082   6.578  1.00  0.00     0.200 A 
HETATM    6  C11 UNL     1      11.608 -55.082   6.906  1.00  0.00     0.138 A 
HETATM    7  C13 UNL     1      12.570 -54.643   5.984  1.00  0.00     0.236 A 
HETATM    8  O9  UNL     1      13.743 -54.694   6.397  1.00  0.00    -0.283 OA
ENDROOT
BRANCH   5   9
HETATM    9  N3  UNL     1       9.213 -55.498   7.370  1.00  0.00    -0.318 N 
ATOM     10  H3  UNL     1       9.434 -55.505   8.366  1.00  0.00     0.166 HD
BRANCH   9  11
HETATM   11  C6  UNL     1       7.898 -55.908   7.099  1.00  0.00     0.434 C 
HETATM   12  N4  UNL     1       6.998 -54.816   6.962  1.00  0.00    -0.003 N 
HETATM   13  C7  UNL     1       6.614 -54.796   5.585  1.00  0.00     0.372 C 
ATOM     14  H42 UNL     1       6.208 -54.856   7.605  1.00  0.00     0.285 HD
ATOM     15  H41 UNL     1       7.381 -53.929   7.292  1.00  0.00     0.285 HD
HETATM   16  C8  UNL     1       6.668 -56.290   5.269  1.00  0.00     0.108 C 
HETATM   17  C9  UNL     1       5.550 -57.047   5.926  1.00  0.00     0.050 C 
HETATM   18  C10 UNL     1       6.617 -56.528   3.801  1.00  0.00     0.050 C 
HETATM   19  O6  UNL     1       7.857 -56.612   5.865  1.00  0.00    -0.329 OA
BRANCH  13  20
HETATM   20  N5  UNL     1       5.336 -54.221   5.321  1.00  0.00    -0.146 N 
HETATM   21  N6  UNL     1       5.047 -53.065   5.786  1.00  0.00    -0.186 N 
ATOM     22  H6  UNL     1       4.129 -52.667   5.587  1.00  0.00     0.218 HD
BRANCH  20  23
HETATM   23  O4  UNL     1       4.387 -54.853   4.581  1.00  0.00    -0.269 OA
ATOM     24  H4  UNL     1       3.528 -55.067   4.925  1.00  0.00     0.246 HD
ENDBRANCH  20  23
BRANCH  21  25
HETATM   25  O5  UNL     1       5.935 -52.340   6.547  1.00  0.00    -0.273 OA
ATOM     26  H5  UNL     1       6.138 -51.432   6.357  1.00  0.00     0.246 HD
ENDBRANCH  21  25
ENDBRANCH  13  20
ENDBRANCH   9  11
ENDBRANCH   5   9
BRANCH   6  27
HETATM   27  N7  UNL     1      12.085 -55.447   8.175  1.00  0.00    -0.335 N 
ATOM     28  H7  UNL     1      12.364 -56.415   8.331  1.00  0.00     0.164 HD
BRANCH  27  29
HETATM   29  C12 UNL     1      12.197 -54.501   9.282  1.00  0.00     0.366 C 
BRANCH  29  30
HETATM   30  O7  UNL     1      12.229 -55.131  10.519  1.00  0.00    -0.355 OA
ATOM     31  H7  UNL     1      11.387 -55.496  10.763  1.00  0.00     0.214 HD
ENDBRANCH  29  30
BRANCH  29  32
HETATM   32  O8  UNL     1      11.149 -53.624   9.220  1.00  0.00    -0.355 OA
ATOM     33  H8  UNL     1      11.490 -52.738   9.246  1.00  0.00     0.214 HD
ENDBRANCH  29  32
ENDBRANCH  27  29
ENDBRANCH   6  27
BRANCH   1  34
HETATM   34  C3  UNL     1      13.113 -53.743   3.751  1.00  0.00     0.280 C 
HETATM   35  N1  UNL     1      14.488 -53.523   3.898  1.00  0.00    -0.292 N 
HETATM   36  C2  UNL     1      15.287 -53.058   2.824  1.00  0.00     0.220 C 
ATOM     37  H1  UNL     1      14.926 -53.701   4.803  1.00  0.00     0.172 HD
HETATM   38  C1  UNL     1      14.791 -52.769   1.493  1.00  0.00     0.117 C 
HETATM   39  O1  UNL     1      16.533 -52.886   3.052  1.00  0.00    -0.274 OA
HETATM   40  O2  UNL     1      12.608 -53.505   2.597  1.00  0.00    -0.265 OA
ENDBRANCH   1  34
TORSDOF 10
ENDMDL
