MODEL 1
REMARK VINA RESULT: -8.760533900      0.000      0.000
REMARK  6 active torsions:
REMARK  status: ('A' for Active; 'I' for Inactive)
REMARK    1  A    between atoms: C2_7  and  C3_8 
REMARK    2  A    between atoms: C4_13  and  N5_14 
REMARK       I    between atoms: N5_14  and  C5_16 
REMARK       I    between atoms: C5_16  and  N6_17 
REMARK       I    between atoms: C5_16  and  N7_21 
REMARK    3  A    between atoms: C6_25  and  C7_26 
REMARK    4  A    between atoms: N9_30  and  C9_31 
REMARK    5  A    between atoms: C9_31  and  C10_32 
REMARK       I    between atoms: C10_32  and  N10_34 
REMARK    6  A    between atoms: C12_40  and  N13_41 
ROOT
HETATM    1  C7  UNL     1       9.828 -15.743   4.943  1.00  0.00     0.084 A 
HETATM    2  C8  UNL     1      10.895 -15.006   5.447  1.00  0.00     0.141 A 
HETATM    3  N8  UNL     1      10.359 -14.312   6.463  1.00  0.00    -0.293 N 
ATOM      4  H8  UNL     1      10.877 -13.663   7.055  1.00  0.00     0.187 HD
HETATM    5  N9  UNL     1       9.073 -14.578   6.598  1.00  0.00    -0.225 N 
HETATM    6  N16 UNL     1       8.745 -15.454   5.668  1.00  0.00    -0.281 N 
ATOM      7  H16 UNL     1       7.815 -15.847   5.526  1.00  0.00     0.189 HD
ENDROOT
BRANCH   1   8
HETATM    8  C6  UNL     1       9.982 -16.644   3.814  1.00  0.00     0.081 A 
HETATM    9  C1  UNL     1       9.595 -16.261   2.546  1.00  0.00     0.117 A 
HETATM   10  N1  UNL     1       9.089 -15.096   2.342  1.00  0.00    -0.385 N 
HETATM   11  N2  UNL     1       9.775 -17.169   1.548  1.00  0.00    -0.324 N 
ATOM     12  H12 UNL     1       8.802 -14.814   1.405  1.00  0.00     0.157 HD
ATOM     13  H11 UNL     1       8.953 -14.417   3.091  1.00  0.00     0.157 HD
HETATM   14  C2  UNL     1      10.305 -18.385   1.770  1.00  0.00     0.174 A 
ATOM     15  H2  UNL     1       9.498 -16.918   0.599  1.00  0.00     0.169 HD
HETATM   16  N4  UNL     1      10.680 -18.743   3.026  1.00  0.00    -0.324 N 
HETATM   17  C4  UNL     1      10.523 -17.884   4.044  1.00  0.00     0.122 A 
ATOM     18  H4  UNL     1      11.082 -19.665   3.194  1.00  0.00     0.169 HD
BRANCH  14  19
HETATM   19  C3  UNL     1      10.480 -19.326   0.674  1.00  0.00     0.298 C 
HETATM   20  N3  UNL     1       9.948 -20.634   0.782  1.00  0.00    -0.054 NA
HETATM   21  O1  UNL     1      11.094 -19.004  -0.370  1.00  0.00    -0.268 OA
ENDBRANCH  14  19
BRANCH  17  22
HETATM   22  N5  UNL     1      10.905 -18.232   5.357  1.00  0.00    -0.326 N 
HETATM   23  C5  UNL     1      10.761 -19.602   5.809  1.00  0.00     0.481 C 
HETATM   24  N6  UNL     1      11.210 -19.741   7.180  1.00  0.00    -0.033 N 
HETATM   25  N7  UNL     1       9.371 -19.956   5.694  1.00  0.00    -0.033 N 
ATOM     26  H63 UNL     1      12.164 -19.403   7.301  1.00  0.00     0.278 HD
ATOM     27  H62 UNL     1      10.733 -19.087   7.802  1.00  0.00     0.278 HD
ATOM     28  H61 UNL     1      11.109 -20.705   7.497  1.00  0.00     0.278 HD
ATOM     29  H73 UNL     1       8.754 -19.309   6.187  1.00  0.00     0.278 HD
ATOM     30  H72 UNL     1       9.000 -19.807   4.756  1.00  0.00     0.278 HD
ATOM     31  H71 UNL     1       9.270 -20.920   6.012  1.00  0.00     0.278 HD
ATOM     32  H5  UNL     1      11.282 -17.523   5.986  1.00  0.00     0.164 HD
ENDBRANCH  17  22
ENDBRANCH   1   8
BRANCH   5  33
HETATM   33  C9  UNL     1       8.176 -13.995   7.609  1.00  0.00     0.274 C 
BRANCH  33  34
HETATM   34  C10 UNL     1       7.854 -12.578   7.253  1.00  0.00     0.267 C 
HETATM   35  O2  UNL     1       7.694 -12.309   6.042  1.00  0.00    -0.269 OA
HETATM   36  N10 UNL     1       7.729 -11.566   8.231  1.00  0.00    -0.189 N 
HETATM   37  N11 UNL     1       7.894 -11.815   9.540  1.00  0.00    -0.231 N 
HETATM   38  C14 UNL     1       7.448 -10.280   8.040  1.00  0.00     0.165 A 
HETATM   39  N12 UNL     1       7.713 -10.677  10.164  1.00  0.00    -0.279 N 
ATOM     40  H11 UNL     1       8.117 -12.715   9.966  1.00  0.00     0.209 HD
HETATM   41  C11 UNL     1       7.438  -9.698   9.302  1.00  0.00     0.139 A 
ATOM     42  H12 UNL     1       7.775 -10.555  11.175  1.00  0.00     0.189 HD
HETATM   43  C12 UNL     1       7.171  -8.366   9.395  1.00  0.00     0.132 A 
HETATM   44  N14 UNL     1       6.927  -7.645   8.281  1.00  0.00    -0.337 N 
HETATM   45  C13 UNL     1       6.931  -8.178   7.056  1.00  0.00     0.183 A 
ATOM     46  H14 UNL     1       6.729  -6.650   8.379  1.00  0.00     0.168 HD
HETATM   47  N15 UNL     1       7.197  -9.509   6.963  1.00  0.00    -0.335 N 
ATOM     48  H15 UNL     1       7.206  -9.942   6.040  1.00  0.00     0.168 HD
BRANCH  43  49
HETATM   49  N13 UNL     1       7.163  -7.832  10.572  1.00  0.00    -0.383 N 
ATOM     50 2H13 UNL     1       7.065  -8.392  11.418  1.00  0.00     0.157 HD
ATOM     51 1H13 UNL     1       7.258  -6.819  10.637  1.00  0.00     0.157 HD
ENDBRANCH  43  49
ENDBRANCH  33  34
ENDBRANCH   5  33
TORSDOF 6
ENDMDL
MODEL 2
REMARK VINA RESULT: -8.595897679      1.606      1.823
REMARK  6 active torsions:
REMARK  status: ('A' for Active; 'I' for Inactive)
REMARK    1  A    between atoms: C2_7  and  C3_8 
REMARK    2  A    between atoms: C4_13  and  N5_14 
REMARK       I    between atoms: N5_14  and  C5_16 
REMARK       I    between atoms: C5_16  and  N6_17 
REMARK       I    between atoms: C5_16  and  N7_21 
REMARK    3  A    between atoms: C6_25  and  C7_26 
REMARK    4  A    between atoms: N9_30  and  C9_31 
REMARK    5  A    between atoms: C9_31  and  C10_32 
REMARK       I    between atoms: C10_32  and  N10_34 
REMARK    6  A    between atoms: C12_40  and  N13_41 
ROOT
HETATM    1  C7  UNL     1       9.118 -15.215   5.559  1.00  0.00     0.084 A 
HETATM    2  C8  UNL     1       7.817 -15.682   5.716  1.00  0.00     0.141 A 
HETATM    3  N8  UNL     1       7.338 -14.968   6.747  1.00  0.00    -0.293 N 
ATOM      4  H8  UNL     1       6.397 -15.064   7.126  1.00  0.00     0.187 HD
HETATM    5  N9  UNL     1       8.244 -14.125   7.205  1.00  0.00    -0.225 N 
HETATM    6  N16 UNL     1       9.335 -14.274   6.480  1.00  0.00    -0.281 N 
ATOM      7  H16 UNL     1      10.204 -13.755   6.603  1.00  0.00     0.189 HD
ENDROOT
BRANCH   1   8
HETATM    8  C6  UNL     1      10.001 -15.737   4.531  1.00  0.00     0.081 A 
HETATM    9  C1  UNL     1       9.860 -15.350   3.214  1.00  0.00     0.117 A 
HETATM   10  N1  UNL     1       8.939 -14.519   2.874  1.00  0.00    -0.385 N 
HETATM   11  N2  UNL     1      10.730 -15.889   2.317  1.00  0.00    -0.324 N 
ATOM     12  H12 UNL     1       8.834 -14.233   1.900  1.00  0.00     0.157 HD
ATOM     13  H11 UNL     1       8.286 -14.116   3.545  1.00  0.00     0.157 HD
HETATM   14  C2  UNL     1      11.691 -16.759   2.681  1.00  0.00     0.174 A 
ATOM     15  H2  UNL     1      10.652 -15.625   1.335  1.00  0.00     0.169 HD
HETATM   16  N4  UNL     1      11.814 -17.127   3.984  1.00  0.00    -0.324 N 
HETATM   17  C4  UNL     1      10.979 -16.624   4.906  1.00  0.00     0.122 A 
ATOM     18  H4  UNL     1      12.541 -17.785   4.260  1.00  0.00     0.169 HD
BRANCH  14  19
HETATM   19  C3  UNL     1      12.601 -17.311   1.691  1.00  0.00     0.298 C 
HETATM   20  N3  UNL     1      13.996 -17.293   1.934  1.00  0.00    -0.054 NA
HETATM   21  O1  UNL     1      12.177 -17.808   0.621  1.00  0.00    -0.268 OA
ENDBRANCH  14  19
BRANCH  17  22
HETATM   22  N5  UNL     1      11.087 -16.990   6.264  1.00  0.00    -0.326 N 
HETATM   23  C5  UNL     1      10.895 -18.374   6.654  1.00  0.00     0.481 C 
HETATM   24  N6  UNL     1      11.048 -18.531   8.086  1.00  0.00    -0.033 N 
HETATM   25  N7  UNL     1       9.571 -18.763   6.242  1.00  0.00    -0.033 N 
ATOM     26  H63 UNL     1      11.945 -18.169   8.411  1.00  0.00     0.278 HD
ATOM     27  H62 UNL     1      10.431 -17.904   8.603  1.00  0.00     0.278 HD
ATOM     28  H61 UNL     1      10.913 -19.504   8.359  1.00  0.00     0.278 HD
ATOM     29  H73 UNL     1       8.845 -18.144   6.604  1.00  0.00     0.278 HD
ATOM     30  H72 UNL     1       9.402 -18.603   5.249  1.00  0.00     0.278 HD
ATOM     31  H71 UNL     1       9.436 -19.735   6.515  1.00  0.00     0.278 HD
ATOM     32  H5  UNL     1      11.300 -16.285   6.970  1.00  0.00     0.164 HD
ENDBRANCH  17  22
ENDBRANCH   1   8
BRANCH   5  33
HETATM   33  C9  UNL     1       8.057 -13.190   8.328  1.00  0.00     0.274 C 
BRANCH  33  34
HETATM   34  C10 UNL     1       7.731 -11.825   7.809  1.00  0.00     0.267 C 
HETATM   35  O2  UNL     1       7.581 -11.696   6.575  1.00  0.00    -0.269 OA
HETATM   36  N10 UNL     1       7.592 -10.709   8.665  1.00  0.00    -0.189 N 
HETATM   37  N11 UNL     1       7.746 -10.807   9.996  1.00  0.00    -0.231 N 
HETATM   38  C14 UNL     1       7.306  -9.455   8.326  1.00  0.00     0.165 A 
HETATM   39  N12 UNL     1       7.553  -9.606  10.484  1.00  0.00    -0.279 N 
ATOM     40  H11 UNL     1       7.969 -11.651  10.522  1.00  0.00     0.209 HD
HETATM   41  C11 UNL     1       7.280  -8.733   9.514  1.00  0.00     0.139 A 
ATOM     42  H12 UNL     1       7.605  -9.369  11.475  1.00  0.00     0.189 HD
HETATM   43  C12 UNL     1       7.006  -7.401   9.452  1.00  0.00     0.132 A 
HETATM   44  N14 UNL     1       6.769  -6.813   8.261  1.00  0.00    -0.337 N 
HETATM   45  C13 UNL     1       6.788  -7.482   7.105  1.00  0.00     0.183 A 
ATOM     46  H14 UNL     1       6.565  -5.814   8.243  1.00  0.00     0.168 HD
HETATM   47  N15 UNL     1       7.061  -8.813   7.166  1.00  0.00    -0.335 N 
ATOM     48  H15 UNL     1       7.081  -9.348   6.298  1.00  0.00     0.168 HD
BRANCH  43  49
HETATM   49  N13 UNL     1       6.984  -6.737  10.560  1.00  0.00    -0.383 N 
ATOM     50 2H13 UNL     1       6.134  -6.294  10.908  1.00  0.00     0.157 HD
ATOM     51 1H13 UNL     1       7.853  -6.662  11.090  1.00  0.00     0.157 HD
ENDBRANCH  43  49
ENDBRANCH  33  34
ENDBRANCH   5  33
TORSDOF 6
ENDMDL
MODEL 3
REMARK VINA RESULT: -8.014648250      1.902      2.289
REMARK  6 active torsions:
REMARK  status: ('A' for Active; 'I' for Inactive)
REMARK    1  A    between atoms: C2_7  and  C3_8 
REMARK    2  A    between atoms: C4_13  and  N5_14 
REMARK       I    between atoms: N5_14  and  C5_16 
REMARK       I    between atoms: C5_16  and  N6_17 
REMARK       I    between atoms: C5_16  and  N7_21 
REMARK    3  A    between atoms: C6_25  and  C7_26 
REMARK    4  A    between atoms: N9_30  and  C9_31 
REMARK    5  A    between atoms: C9_31  and  C10_32 
REMARK       I    between atoms: C10_32  and  N10_34 
REMARK    6  A    between atoms: C12_40  and  N13_41 
ROOT
HETATM    1  C7  UNL     1       8.519 -14.672   5.190  1.00  0.00     0.084 A 
HETATM    2  C8  UNL     1       7.794 -15.590   5.942  1.00  0.00     0.141 A 
HETATM    3  N8  UNL     1       7.574 -14.955   7.104  1.00  0.00    -0.293 N 
ATOM      4  H8  UNL     1       7.062 -15.355   7.891  1.00  0.00     0.187 HD
HETATM    5  N9  UNL     1       8.105 -13.747   7.097  1.00  0.00    -0.225 N 
HETATM    6  N16 UNL     1       8.685 -13.571   5.925  1.00  0.00    -0.281 N 
ATOM      7  H16 UNL     1       9.180 -12.730   5.630  1.00  0.00     0.189 HD
ENDROOT
BRANCH   1   8
HETATM    8  C6  UNL     1       8.968 -14.968   3.841  1.00  0.00     0.081 A 
HETATM    9  C1  UNL     1       8.191 -14.640   2.749  1.00  0.00     0.117 A 
HETATM   10  N1  UNL     1       7.052 -14.063   2.908  1.00  0.00    -0.385 N 
HETATM   11  N2  UNL     1       8.689 -14.956   1.522  1.00  0.00    -0.324 N 
ATOM     12  H12 UNL     1       6.478 -13.821   2.101  1.00  0.00     0.157 HD
ATOM     13  H11 UNL     1       6.679 -13.827   3.828  1.00  0.00     0.157 HD
HETATM   14  C2  UNL     1       9.881 -15.559   1.363  1.00  0.00     0.174 A 
ATOM     15  H2  UNL     1       8.139 -14.727   0.694  1.00  0.00     0.169 HD
HETATM   16  N4  UNL     1      10.631 -15.875   2.452  1.00  0.00    -0.324 N 
HETATM   17  C4  UNL     1      10.185 -15.585   3.683  1.00  0.00     0.122 A 
ATOM     18  H4  UNL     1      11.535 -16.332   2.332  1.00  0.00     0.169 HD
BRANCH  14  19
HETATM   19  C3  UNL     1      10.376 -15.880   0.034  1.00  0.00     0.298 C 
HETATM   20  N3  UNL     1      10.015 -15.063  -1.064  1.00  0.00    -0.054 NA
HETATM   21  O1  UNL     1      11.122 -16.868  -0.163  1.00  0.00    -0.268 OA
ENDBRANCH  14  19
BRANCH  17  22
HETATM   22  N5  UNL     1      10.945 -15.902   4.828  1.00  0.00    -0.326 N 
HETATM   23  C5  UNL     1      11.375 -17.269   5.051  1.00  0.00     0.481 C 
HETATM   24  N6  UNL     1      12.139 -17.375   6.277  1.00  0.00    -0.033 N 
HETATM   25  N7  UNL     1      10.195 -18.091   5.118  1.00  0.00    -0.033 N 
ATOM     26  H63 UNL     1      12.925 -16.725   6.289  1.00  0.00     0.278 HD
ATOM     27  H62 UNL     1      11.623 -17.006   7.077  1.00  0.00     0.278 HD
ATOM     28  H61 UNL     1      12.440 -18.336   6.433  1.00  0.00     0.278 HD
ATOM     29  H73 UNL     1       9.525 -17.768   5.816  1.00  0.00     0.278 HD
ATOM     30  H72 UNL     1       9.596 -17.992   4.298  1.00  0.00     0.278 HD
ATOM     31  H71 UNL     1      10.497 -19.052   5.274  1.00  0.00     0.278 HD
ATOM     32  H5  UNL     1      11.193 -15.173   5.497  1.00  0.00     0.164 HD
ENDBRANCH  17  22
ENDBRANCH   1   8
BRANCH   5  33
HETATM   33  C9  UNL     1       8.053 -12.779   8.205  1.00  0.00     0.274 C 
BRANCH  33  34
HETATM   34  C10 UNL     1       7.652 -11.432   7.692  1.00  0.00     0.267 C 
HETATM   35  O2  UNL     1       7.408 -11.329   6.470  1.00  0.00    -0.269 OA
HETATM   36  N10 UNL     1       7.546 -10.306   8.538  1.00  0.00    -0.189 N 
HETATM   37  N11 UNL     1       7.800 -10.376   9.855  1.00  0.00    -0.231 N 
HETATM   38  C14 UNL     1       7.201  -9.065   8.202  1.00  0.00     0.165 A 
HETATM   39  N12 UNL     1       7.611  -9.172  10.337  1.00  0.00    -0.279 N 
ATOM     40  H11 UNL     1       8.085 -11.205  10.377  1.00  0.00     0.209 HD
HETATM   41  C11 UNL     1       7.243  -8.324   9.377  1.00  0.00     0.139 A 
ATOM     42  H12 UNL     1       7.729  -8.917  11.318  1.00  0.00     0.189 HD
HETATM   43  C12 UNL     1       6.928  -7.001   9.316  1.00  0.00     0.132 A 
HETATM   44  N14 UNL     1       6.587  -6.441   8.136  1.00  0.00    -0.337 N 
HETATM   45  C13 UNL     1       6.539  -7.128   6.993  1.00  0.00     0.183 A 
ATOM     46  H14 UNL     1       6.356  -5.448   8.118  1.00  0.00     0.168 HD
HETATM   47  N15 UNL     1       6.853  -8.451   7.054  1.00  0.00    -0.335 N 
ATOM     48  H15 UNL     1       6.824  -9.001   6.195  1.00  0.00     0.168 HD
BRANCH  43  49
HETATM   49  N13 UNL     1       6.970  -6.318  10.411  1.00  0.00    -0.383 N 
ATOM     50 2H13 UNL     1       6.841  -6.754  11.324  1.00  0.00     0.157 HD
ATOM     51 1H13 UNL     1       7.137  -5.314  10.343  1.00  0.00     0.157 HD
ENDBRANCH  43  49
ENDBRANCH  33  34
ENDBRANCH   5  33
TORSDOF 6
ENDMDL
MODEL 4
REMARK VINA RESULT: -7.884308189      1.328      1.848
REMARK  6 active torsions:
REMARK  status: ('A' for Active; 'I' for Inactive)
REMARK    1  A    between atoms: C2_7  and  C3_8 
REMARK    2  A    between atoms: C4_13  and  N5_14 
REMARK       I    between atoms: N5_14  and  C5_16 
REMARK       I    between atoms: C5_16  and  N6_17 
REMARK       I    between atoms: C5_16  and  N7_21 
REMARK    3  A    between atoms: C6_25  and  C7_26 
REMARK    4  A    between atoms: N9_30  and  C9_31 
REMARK    5  A    between atoms: C9_31  and  C10_32 
REMARK       I    between atoms: C10_32  and  N10_34 
REMARK    6  A    between atoms: C12_40  and  N13_41 
ROOT
HETATM    1  C7  UNL     1      10.095 -15.658   5.078  1.00  0.00     0.084 A 
HETATM    2  C8  UNL     1      10.818 -14.719   5.807  1.00  0.00     0.141 A 
HETATM    3  N8  UNL     1       9.955 -14.302   6.746  1.00  0.00    -0.293 N 
ATOM      4  H8  UNL     1      10.170 -13.603   7.456  1.00  0.00     0.187 HD
HETATM    5  N9  UNL     1       8.791 -14.914   6.630  1.00  0.00    -0.225 N 
HETATM    6  N16 UNL     1       8.874 -15.745   5.609  1.00  0.00    -0.281 N 
ATOM      7  H16 UNL     1       8.127 -16.355   5.280  1.00  0.00     0.189 HD
ENDROOT
BRANCH   1   8
HETATM    8  C6  UNL     1      10.673 -16.363   3.947  1.00  0.00     0.081 A 
HETATM    9  C1  UNL     1      10.564 -15.858   2.668  1.00  0.00     0.117 A 
HETATM   10  N1  UNL     1       9.946 -14.750   2.454  1.00  0.00    -0.385 N 
HETATM   11  N2  UNL     1      11.134 -16.585   1.669  1.00  0.00    -0.324 N 
ATOM     12  H12 UNL     1       9.866 -14.377   1.508  1.00  0.00     0.157 HD
ATOM     13  H11 UNL     1       9.519 -14.206   3.203  1.00  0.00     0.157 HD
HETATM   14  C2  UNL     1      11.778 -17.744   1.900  1.00  0.00     0.174 A 
ATOM     15  H2  UNL     1      11.071 -16.240   0.711  1.00  0.00     0.169 HD
HETATM   16  N4  UNL     1      11.875 -18.225   3.168  1.00  0.00    -0.324 N 
HETATM   17  C4  UNL     1      11.329 -17.545   4.188  1.00  0.00     0.122 A 
ATOM     18  H4  UNL     1      12.363 -19.102   3.344  1.00  0.00     0.169 HD
BRANCH  14  19
HETATM   19  C3  UNL     1      12.374 -18.491   0.804  1.00  0.00     0.298 C 
HETATM   20  N3  UNL     1      12.594 -19.882   0.942  1.00  0.00    -0.054 NA
HETATM   21  O1  UNL     1      12.698 -17.927  -0.268  1.00  0.00    -0.268 OA
ENDBRANCH  14  19
BRANCH  17  22
HETATM   22  N5  UNL     1      11.416 -18.023   5.513  1.00  0.00    -0.326 N 
HETATM   23  C5  UNL     1      11.066 -19.399   5.805  1.00  0.00     0.481 C 
HETATM   24  N6  UNL     1      11.225 -19.682   7.217  1.00  0.00    -0.033 N 
HETATM   25  N7  UNL     1       9.699 -19.598   5.400  1.00  0.00    -0.033 N 
ATOM     26  H63 UNL     1      12.163 -19.453   7.545  1.00  0.00     0.278 HD
ATOM     27  H62 UNL     1      10.696 -19.027   7.795  1.00  0.00     0.278 HD
ATOM     28  H61 UNL     1      10.979 -20.649   7.422  1.00  0.00     0.278 HD
ATOM     29  H73 UNL     1       9.058 -18.927   5.825  1.00  0.00     0.278 HD
ATOM     30  H72 UNL     1       9.533 -19.345   4.426  1.00  0.00     0.278 HD
ATOM     31  H71 UNL     1       9.453 -20.566   5.606  1.00  0.00     0.278 HD
ATOM     32  H5  UNL     1      11.723 -17.403   6.262  1.00  0.00     0.164 HD
ENDBRANCH  17  22
ENDBRANCH   1   8
BRANCH   5  33
HETATM   33  C9  UNL     1       7.618 -14.698   7.494  1.00  0.00     0.274 C 
BRANCH  33  34
HETATM   34  C10 UNL     1       7.774 -13.425   8.264  1.00  0.00     0.267 C 
HETATM   35  O2  UNL     1       8.351 -13.487   9.372  1.00  0.00    -0.269 OA
HETATM   36  N10 UNL     1       7.297 -12.188   7.776  1.00  0.00    -0.189 N 
HETATM   37  N11 UNL     1       6.673 -12.081   6.592  1.00  0.00    -0.231 N 
HETATM   38  C14 UNL     1       7.376 -10.997   8.364  1.00  0.00     0.165 A 
HETATM   39  N12 UNL     1       6.364 -10.815   6.445  1.00  0.00    -0.279 N 
ATOM     40  H11 UNL     1       6.478 -12.836   5.936  1.00  0.00     0.209 HD
HETATM   41  C11 UNL     1       6.767 -10.099   7.495  1.00  0.00     0.139 A 
ATOM     42  H12 UNL     1       5.880 -10.429   5.634  1.00  0.00     0.189 HD
HETATM   43  C12 UNL     1       6.710  -8.789   7.858  1.00  0.00     0.132 A 
HETATM   44  N14 UNL     1       7.235  -8.389   9.035  1.00  0.00    -0.337 N 
HETATM   45  C13 UNL     1       7.825  -9.229   9.889  1.00  0.00     0.183 A 
ATOM     46  H14 UNL     1       7.180  -7.402   9.283  1.00  0.00     0.168 HD
HETATM   47  N15 UNL     1       7.883 -10.539   9.525  1.00  0.00    -0.335 N 
ATOM     48  H15 UNL     1       8.329 -11.203  10.159  1.00  0.00     0.168 HD
BRANCH  43  49
HETATM   49  N13 UNL     1       6.142  -7.960   7.045  1.00  0.00    -0.383 N 
ATOM     50 2H13 UNL     1       5.352  -7.381   7.329  1.00  0.00     0.157 HD
ATOM     51 1H13 UNL     1       6.507  -7.897   6.094  1.00  0.00     0.157 HD
ENDBRANCH  43  49
ENDBRANCH  33  34
ENDBRANCH   5  33
TORSDOF 6
ENDMDL
MODEL 5
REMARK VINA RESULT: -7.845387545      1.895      3.247
REMARK  6 active torsions:
REMARK  status: ('A' for Active; 'I' for Inactive)
REMARK    1  A    between atoms: C2_7  and  C3_8 
REMARK    2  A    between atoms: C4_13  and  N5_14 
REMARK       I    between atoms: N5_14  and  C5_16 
REMARK       I    between atoms: C5_16  and  N6_17 
REMARK       I    between atoms: C5_16  and  N7_21 
REMARK    3  A    between atoms: C6_25  and  C7_26 
REMARK    4  A    between atoms: N9_30  and  C9_31 
REMARK    5  A    between atoms: C9_31  and  C10_32 
REMARK       I    between atoms: C10_32  and  N10_34 
REMARK    6  A    between atoms: C12_40  and  N13_41 
ROOT
HETATM    1  C7  UNL     1       9.178 -15.214   5.661  1.00  0.00     0.084 A 
HETATM    2  C8  UNL     1       7.895 -15.726   5.830  1.00  0.00     0.141 A 
HETATM    3  N8  UNL     1       7.396 -15.018   6.855  1.00  0.00    -0.293 N 
ATOM      4  H8  UNL     1       6.460 -15.144   7.241  1.00  0.00     0.187 HD
HETATM    5  N9  UNL     1       8.273 -14.137   7.300  1.00  0.00    -0.225 N 
HETATM    6  N16 UNL     1       9.365 -14.256   6.570  1.00  0.00    -0.281 N 
ATOM      7  H16 UNL     1      10.215 -13.704   6.683  1.00  0.00     0.189 HD
ENDROOT
BRANCH   1   8
HETATM    8  C6  UNL     1      10.075 -15.715   4.635  1.00  0.00     0.081 A 
HETATM    9  C1  UNL     1      11.128 -16.546   4.961  1.00  0.00     0.117 A 
HETATM   10  N1  UNL     1      11.331 -16.893   6.183  1.00  0.00    -0.385 N 
HETATM   11  N2  UNL     1      11.919 -16.968   3.936  1.00  0.00    -0.324 N 
ATOM     12  H12 UNL     1      12.109 -17.507   6.423  1.00  0.00     0.157 HD
ATOM     13  H11 UNL     1      10.739 -16.577   6.950  1.00  0.00     0.157 HD
HETATM   14  C2  UNL     1      11.699 -16.601   2.661  1.00  0.00     0.174 A 
ATOM     15  H2  UNL     1      12.706 -17.583   4.143  1.00  0.00     0.169 HD
HETATM   16  N4  UNL     1      10.657 -15.781   2.361  1.00  0.00    -0.324 N 
HETATM   17  C4  UNL     1       9.848 -15.338   3.335  1.00  0.00     0.122 A 
ATOM     18  H4  UNL     1      10.490 -15.503   1.394  1.00  0.00     0.169 HD
BRANCH  14  19
HETATM   19  C3  UNL     1      12.568 -17.074   1.595  1.00  0.00     0.298 C 
HETATM   20  N3  UNL     1      13.933 -17.333   1.867  1.00  0.00    -0.054 NA
HETATM   21  O1  UNL     1      12.134 -17.259   0.433  1.00  0.00    -0.268 OA
ENDBRANCH  14  19
BRANCH  17  22
HETATM   22  N5  UNL     1       8.760 -14.487   3.049  1.00  0.00    -0.326 N 
HETATM   23  C5  UNL     1       7.642 -14.985   2.272  1.00  0.00     0.481 C 
HETATM   24  N6  UNL     1       6.639 -13.955   2.094  1.00  0.00    -0.033 N 
HETATM   25  N7  UNL     1       8.154 -15.416   0.997  1.00  0.00    -0.033 N 
ATOM     26  H63 UNL     1       6.334 -13.567   2.987  1.00  0.00     0.278 HD
ATOM     27  H62 UNL     1       7.035 -13.108   1.685  1.00  0.00     0.278 HD
ATOM     28  H61 UNL     1       5.853 -14.306   1.548  1.00  0.00     0.278 HD
ATOM     29  H73 UNL     1       8.680 -14.688   0.514  1.00  0.00     0.278 HD
ATOM     30  H72 UNL     1       8.911 -16.095   1.083  1.00  0.00     0.278 HD
ATOM     31  H71 UNL     1       7.368 -15.767   0.451  1.00  0.00     0.278 HD
ATOM     32  H5  UNL     1       8.759 -13.525   3.388  1.00  0.00     0.164 HD
ENDBRANCH  17  22
ENDBRANCH   1   8
BRANCH   5  33
HETATM   33  C9  UNL     1       8.057 -13.197   8.412  1.00  0.00     0.274 C 
BRANCH  33  34
HETATM   34  C10 UNL     1       7.718 -11.841   7.879  1.00  0.00     0.267 C 
HETATM   35  O2  UNL     1       7.544 -11.731   6.646  1.00  0.00    -0.269 OA
HETATM   36  N10 UNL     1       7.593 -10.712   8.719  1.00  0.00    -0.189 N 
HETATM   37  N11 UNL     1       7.773 -10.788  10.048  1.00  0.00    -0.231 N 
HETATM   38  C14 UNL     1       7.298  -9.463   8.367  1.00  0.00     0.165 A 
HETATM   39  N12 UNL     1       7.587  -9.580  10.521  1.00  0.00    -0.279 N 
ATOM     40  H11 UNL     1       8.008 -11.624  10.584  1.00  0.00     0.209 HD
HETATM   41  C11 UNL     1       7.294  -8.723   9.543  1.00  0.00     0.139 A 
ATOM     42  H12 UNL     1       7.657  -9.328  11.507  1.00  0.00     0.189 HD
HETATM   43  C12 UNL     1       7.016  -7.393   9.466  1.00  0.00     0.132 A 
HETATM   44  N14 UNL     1       6.754  -6.824   8.271  1.00  0.00    -0.337 N 
HETATM   45  C13 UNL     1       6.752  -7.511   7.125  1.00  0.00     0.183 A 
ATOM     46  H14 UNL     1       6.548  -5.826   8.241  1.00  0.00     0.168 HD
HETATM   47  N15 UNL     1       7.030  -8.840   7.202  1.00  0.00    -0.335 N 
ATOM     48  H15 UNL     1       7.034  -9.389   6.342  1.00  0.00     0.168 HD
BRANCH  43  49
HETATM   49  N13 UNL     1       7.014  -6.711  10.564  1.00  0.00    -0.383 N 
ATOM     50 2H13 UNL     1       6.148  -6.402  11.006  1.00  0.00     0.157 HD
ATOM     51 1H13 UNL     1       7.914  -6.484  10.987  1.00  0.00     0.157 HD
ENDBRANCH  43  49
ENDBRANCH  33  34
ENDBRANCH   5  33
TORSDOF 6
ENDMDL
