MODEL 1
REMARK VINA RESULT: -7.896449031      0.000      0.000
REMARK  10 active torsions:
REMARK  status: ('A' for Active; 'I' for Inactive)
REMARK    1  A    between atoms: C2_2  and  O1_3 
REMARK    2  A    between atoms: C2_2  and  C7_27 
REMARK    3  A    between atoms: O1_3  and  N1_4 
REMARK    4  A    between atoms: N2_6  and  C3_8 
REMARK    5  A    between atoms: C5_18  and  N7_19 
REMARK       I    between atoms: C7_27  and  N10_29 
REMARK    6  A    between atoms: C9_33  and  O4_35 
REMARK    7  A    between atoms: C12_38  and  C13_39 
REMARK    8  A    between atoms: C13_39  and  O5_40 
REMARK    9  A    between atoms: C13_39  and  N11_42 
REMARK   10  A    between atoms: N11_42  and  N12_44 
ROOT
HETATM    1  O1  UNL     1       8.347 -15.674   7.120  1.00  0.00    -0.250 OA
ENDROOT
BRANCH   1   2
HETATM    2  C2  UNL     1       9.667 -16.077   6.791  1.00  0.00     0.241 C 
HETATM    3  C1  UNL     1       9.869 -17.551   7.008  1.00  0.00     0.052 C 
BRANCH   2   4
HETATM    4  C7  UNL     1       9.884 -15.810   5.325  1.00  0.00     0.254 C 
HETATM    5  O2  UNL     1       9.260 -14.897   4.739  1.00  0.00    -0.270 OA
HETATM    6  N10 UNL     1      10.812 -16.615   4.619  1.00  0.00    -0.308 N 
HETATM    7  C8  UNL     1      10.562 -16.935   3.409  1.00  0.00     0.132 C 
ATOM      8  H10 UNL     1      11.668 -16.934   5.072  1.00  0.00     0.170 HD
HETATM    9  O3  UNL     1       9.452 -16.578   2.675  1.00  0.00    -0.302 OA
HETATM   10  C12 UNL     1      11.448 -17.771   2.560  1.00  0.00     0.115 C 
HETATM   11  C9  UNL     1       9.746 -16.638   1.300  1.00  0.00     0.166 C 
HETATM   12  C10 UNL     1       8.559 -16.963   0.457  1.00  0.00     0.079 C 
HETATM   13  C11 UNL     1      10.830 -17.697   1.212  1.00  0.00     0.085 C 
BRANCH  11  14
HETATM   14  O4  UNL     1      10.344 -15.419   0.905  1.00  0.00    -0.365 OA
ATOM     15  H4  UNL     1       9.916 -15.107   0.116  1.00  0.00     0.213 HD
ENDBRANCH  11  14
BRANCH  10  16
HETATM   16  C13 UNL     1      11.554 -19.124   3.179  1.00  0.00     0.244 C 
BRANCH  16  17
HETATM   17  O5  UNL     1      12.608 -19.862   2.642  1.00  0.00    -0.375 OA
ATOM     18  H5  UNL     1      12.348 -20.752   2.436  1.00  0.00     0.212 HD
ENDBRANCH  16  17
BRANCH  16  19
HETATM   19  N11 UNL     1      10.326 -19.817   3.314  1.00  0.00    -0.314 N 
ATOM     20  H11 UNL     1       9.780 -20.076   2.492  1.00  0.00     0.182 HD
BRANCH  19  21
HETATM   21  N12 UNL     1       9.890 -20.130   4.569  1.00  0.00    -0.347 N 
ATOM     22 2H12 UNL     1      10.043 -19.476   5.337  1.00  0.00     0.176 HD
ATOM     23 1H12 UNL     1       9.415 -21.021   4.711  1.00  0.00     0.176 HD
ENDBRANCH  19  21
ENDBRANCH  16  19
ENDBRANCH  10  16
ENDBRANCH   2   4
ENDBRANCH   1   2
BRANCH   1  24
HETATM   24  N1  UNL     1       8.078 -14.389   7.588  1.00  0.00    -0.192 N 
HETATM   25  N2  UNL     1       7.593 -13.550   6.756  1.00  0.00    -0.111 N 
ATOM     26  H2  UNL     1       7.424 -13.848   5.795  1.00  0.00     0.207 HD
ATOM     27  H1  UNL     1       8.261 -14.130   8.557  1.00  0.00     0.216 HD
BRANCH  25  28
HETATM   28  C3  UNL     1       7.284 -12.216   7.127  1.00  0.00     0.727 A 
HETATM   29  N3  UNL     1       6.448 -11.510   6.342  1.00  0.00    -0.018 N 
HETATM   30  C4  UNL     1       6.103 -10.238   6.622  1.00  0.00     0.727 A 
ATOM     31  H3  UNL     1       6.064 -11.952   5.507  1.00  0.00     0.203 HD
HETATM   32  N4  UNL     1       5.305  -9.607   5.846  1.00  0.00    -0.232 N 
HETATM   33  N5  UNL     1       6.587  -9.626   7.710  1.00  0.00     0.105 N 
ATOM     34  H42 UNL     1       4.935 -10.073   5.017  1.00  0.00     0.174 HD
ATOM     35  H41 UNL     1       5.043  -8.644   6.058  1.00  0.00     0.174 HD
HETATM   36  N6  UNL     1       6.414  -8.406   8.212  1.00  0.00    -0.096 N 
HETATM   37  C6  UNL     1       7.424 -10.318   8.508  1.00  0.00     0.748 A 
HETATM   38  C5  UNL     1       7.131  -8.278   9.339  1.00  0.00     0.706 A 
ATOM     39  H6  UNL     1       5.827  -7.678   7.802  1.00  0.00     0.207 HD
HETATM   40  N8  UNL     1       7.751  -9.475   9.505  1.00  0.00    -0.018 N 
ATOM     41  H8  UNL     1       8.376  -9.704  10.278  1.00  0.00     0.203 HD
HETATM   42  N9  UNL     1       7.769 -11.602   8.216  1.00  0.00    -0.017 N 
ATOM     43  H9  UNL     1       8.405 -12.104   8.835  1.00  0.00     0.203 HD
BRANCH  38  44
HETATM   44  N7  UNL     1       7.231  -7.241  10.125  1.00  0.00    -0.233 N 
ATOM     45  H72 UNL     1       6.510  -6.539  10.293  1.00  0.00     0.174 HD
ATOM     46  H71 UNL     1       8.024  -6.952  10.698  1.00  0.00     0.174 HD
ENDBRANCH  38  44
ENDBRANCH  25  28
ENDBRANCH   1  24
TORSDOF 10
ENDMDL
MODEL 2
REMARK VINA RESULT: -7.650366025      1.101      1.246
REMARK  10 active torsions:
REMARK  status: ('A' for Active; 'I' for Inactive)
REMARK    1  A    between atoms: C2_2  and  O1_3 
REMARK    2  A    between atoms: C2_2  and  C7_27 
REMARK    3  A    between atoms: O1_3  and  N1_4 
REMARK    4  A    between atoms: N2_6  and  C3_8 
REMARK    5  A    between atoms: C5_18  and  N7_19 
REMARK       I    between atoms: C7_27  and  N10_29 
REMARK    6  A    between atoms: C9_33  and  O4_35 
REMARK    7  A    between atoms: C12_38  and  C13_39 
REMARK    8  A    between atoms: C13_39  and  O5_40 
REMARK    9  A    between atoms: C13_39  and  N11_42 
REMARK   10  A    between atoms: N11_42  and  N12_44 
ROOT
HETATM    1  O1  UNL     1       8.330 -15.970   6.671  1.00  0.00    -0.250 OA
ENDROOT
BRANCH   1   2
HETATM    2  C2  UNL     1       9.612 -16.366   6.211  1.00  0.00     0.241 C 
HETATM    3  C1  UNL     1       9.770 -17.861   6.217  1.00  0.00     0.052 C 
BRANCH   2   4
HETATM    4  C7  UNL     1       9.757 -15.910   4.783  1.00  0.00     0.254 C 
HETATM    5  O2  UNL     1       9.153 -14.895   4.368  1.00  0.00    -0.270 OA
HETATM    6  N10 UNL     1      10.590 -16.655   3.914  1.00  0.00    -0.308 N 
HETATM    7  C8  UNL     1      10.250 -16.792   2.692  1.00  0.00     0.132 C 
ATOM      8  H10 UNL     1      11.452 -17.076   4.260  1.00  0.00     0.170 HD
HETATM    9  O3  UNL     1       9.120 -16.282   2.089  1.00  0.00    -0.302 OA
HETATM   10  C12 UNL     1      11.032 -17.547   1.679  1.00  0.00     0.115 C 
HETATM   11  C9  UNL     1       9.327 -16.167   0.702  1.00  0.00     0.166 C 
HETATM   12  C10 UNL     1       8.074 -16.312  -0.095  1.00  0.00     0.079 C 
HETATM   13  C11 UNL     1      10.339 -17.256   0.398  1.00  0.00     0.085 C 
BRANCH  11  14
HETATM   14  O4  UNL     1       9.971 -14.936   0.435  1.00  0.00    -0.365 OA
ATOM     15  H4  UNL     1       9.980 -14.790  -0.504  1.00  0.00     0.213 HD
ENDBRANCH  11  14
BRANCH  10  16
HETATM   16  C13 UNL     1      11.095 -18.976   2.102  1.00  0.00     0.244 C 
BRANCH  16  17
HETATM   17  O5  UNL     1      10.148 -19.270   3.083  1.00  0.00    -0.375 OA
ATOM     18  H5  UNL     1      10.424 -18.971   3.942  1.00  0.00     0.212 HD
ENDBRANCH  16  17
BRANCH  16  19
HETATM   19  N11 UNL     1      12.400 -19.472   2.340  1.00  0.00    -0.314 N 
ATOM     20  H11 UNL     1      12.580 -20.119   3.107  1.00  0.00     0.182 HD
BRANCH  19  21
HETATM   21  N12 UNL     1      13.410 -19.065   1.517  1.00  0.00    -0.347 N 
ATOM     22 2H12 UNL     1      13.204 -18.460   0.722  1.00  0.00     0.176 HD
ATOM     23 1H12 UNL     1      14.359 -19.378   1.721  1.00  0.00     0.176 HD
ENDBRANCH  19  21
ENDBRANCH  16  19
ENDBRANCH  10  16
ENDBRANCH   2   4
ENDBRANCH   1   2
BRANCH   1  24
HETATM   24  N1  UNL     1       8.106 -14.692   7.178  1.00  0.00    -0.192 N 
HETATM   25  N2  UNL     1       7.452 -13.875   6.446  1.00  0.00    -0.111 N 
ATOM     26  H2  UNL     1       7.123 -14.185   5.532  1.00  0.00     0.207 HD
ATOM     27  H1  UNL     1       8.451 -14.420   8.099  1.00  0.00     0.216 HD
BRANCH  25  28
HETATM   28  C3  UNL     1       7.168 -12.550   6.866  1.00  0.00     0.727 A 
HETATM   29  N3  UNL     1       6.297 -11.821   6.142  1.00  0.00    -0.018 N 
HETATM   30  C4  UNL     1       5.973 -10.555   6.471  1.00  0.00     0.727 A 
ATOM     31  H3  UNL     1       5.869 -12.241   5.317  1.00  0.00     0.203 HD
HETATM   32  N4  UNL     1       5.140  -9.902   5.753  1.00  0.00    -0.232 N 
HETATM   33  N5  UNL     1       6.516  -9.972   7.548  1.00  0.00     0.105 N 
ATOM     34  H42 UNL     1       4.726 -10.346   4.933  1.00  0.00     0.174 HD
ATOM     35  H41 UNL     1       4.894  -8.943   6.002  1.00  0.00     0.174 HD
HETATM   36  N6  UNL     1       6.375  -8.764   8.088  1.00  0.00    -0.096 N 
HETATM   37  C6  UNL     1       7.389 -10.687   8.284  1.00  0.00     0.748 A 
HETATM   38  C5  UNL     1       7.149  -8.667   9.180  1.00  0.00     0.706 A 
ATOM     39  H6  UNL     1       5.771  -8.025   7.727  1.00  0.00     0.207 HD
HETATM   40  N8  UNL     1       7.770  -9.872   9.284  1.00  0.00    -0.018 N 
ATOM     41  H8  UNL     1       8.433 -10.122  10.018  1.00  0.00     0.203 HD
HETATM   42  N9  UNL     1       7.711 -11.965   7.944  1.00  0.00    -0.017 N 
ATOM     43  H9  UNL     1       8.376 -12.485   8.516  1.00  0.00     0.203 HD
BRANCH  38  44
HETATM   44  N7  UNL     1       7.294  -7.651   9.985  1.00  0.00    -0.233 N 
ATOM     45  H72 UNL     1       6.562  -7.216  10.546  1.00  0.00     0.174 HD
ATOM     46  H71 UNL     1       8.141  -7.122  10.194  1.00  0.00     0.174 HD
ENDBRANCH  38  44
ENDBRANCH  25  28
ENDBRANCH   1  24
TORSDOF 10
ENDMDL
MODEL 3
REMARK VINA RESULT: -7.642992066      2.019      3.612
REMARK  10 active torsions:
REMARK  status: ('A' for Active; 'I' for Inactive)
REMARK    1  A    between atoms: C2_2  and  O1_3 
REMARK    2  A    between atoms: C2_2  and  C7_27 
REMARK    3  A    between atoms: O1_3  and  N1_4 
REMARK    4  A    between atoms: N2_6  and  C3_8 
REMARK    5  A    between atoms: C5_18  and  N7_19 
REMARK       I    between atoms: C7_27  and  N10_29 
REMARK    6  A    between atoms: C9_33  and  O4_35 
REMARK    7  A    between atoms: C12_38  and  C13_39 
REMARK    8  A    between atoms: C13_39  and  O5_40 
REMARK    9  A    between atoms: C13_39  and  N11_42 
REMARK   10  A    between atoms: N11_42  and  N12_44 
ROOT
HETATM    1  O1  UNL     1       6.518 -12.898   3.049  1.00  0.00    -0.250 OA
ENDROOT
BRANCH   1   2
HETATM    2  C2  UNL     1       6.482 -14.316   2.988  1.00  0.00     0.241 C 
HETATM    3  C1  UNL     1       5.532 -14.804   1.931  1.00  0.00     0.052 C 
BRANCH   2   4
HETATM    4  C7  UNL     1       7.856 -14.801   2.609  1.00  0.00     0.254 C 
HETATM    5  O2  UNL     1       8.072 -15.303   1.482  1.00  0.00    -0.270 OA
HETATM    6  N10 UNL     1       8.904 -14.678   3.553  1.00  0.00    -0.308 N 
HETATM    7  C8  UNL     1       9.788 -15.595   3.623  1.00  0.00     0.132 C 
ATOM      8  H10 UNL     1       8.951 -13.866   4.169  1.00  0.00     0.170 HD
HETATM    9  O3  UNL     1       9.850 -16.740   2.858  1.00  0.00    -0.302 OA
HETATM   10  C12 UNL     1      10.936 -15.588   4.566  1.00  0.00     0.115 C 
HETATM   11  C9  UNL     1      11.171 -17.223   2.823  1.00  0.00     0.166 C 
HETATM   12  C10 UNL     1      11.253 -18.704   2.666  1.00  0.00     0.079 C 
HETATM   13  C11 UNL     1      11.764 -16.743   4.135  1.00  0.00     0.085 C 
BRANCH  11  14
HETATM   14  O4  UNL     1      11.877 -16.554   1.796  1.00  0.00    -0.365 OA
ATOM     15  H4  UNL     1      12.565 -16.028   2.187  1.00  0.00     0.213 HD
ENDBRANCH  11  14
BRANCH  10  16
HETATM   16  C13 UNL     1      10.401 -15.625   5.958  1.00  0.00     0.244 C 
BRANCH  16  17
HETATM   17  O5  UNL     1       9.784 -14.425   6.310  1.00  0.00    -0.375 OA
ATOM     18  H5  UNL     1       8.859 -14.543   6.494  1.00  0.00     0.212 HD
ENDBRANCH  16  17
BRANCH  16  19
HETATM   19  N11 UNL     1      11.283 -16.168   6.923  1.00  0.00    -0.314 N 
ATOM     20  H11 UNL     1      12.098 -15.642   7.240  1.00  0.00     0.182 HD
BRANCH  19  21
HETATM   21  N12 UNL     1      11.018 -17.411   7.420  1.00  0.00    -0.347 N 
ATOM     22 2H12 UNL     1      10.172 -17.903   7.132  1.00  0.00     0.176 HD
ATOM     23 1H12 UNL     1      11.681 -17.824   8.076  1.00  0.00     0.176 HD
ENDBRANCH  19  21
ENDBRANCH  16  19
ENDBRANCH  10  16
ENDBRANCH   2   4
ENDBRANCH   1   2
BRANCH   1  24
HETATM   24  N1  UNL     1       6.459 -12.225   4.268  1.00  0.00    -0.192 N 
HETATM   25  N2  UNL     1       7.349 -12.507   5.139  1.00  0.00    -0.111 N 
ATOM     26  H2  UNL     1       8.058 -13.204   4.913  1.00  0.00     0.207 HD
ATOM     27  H1  UNL     1       5.733 -11.533   4.456  1.00  0.00     0.216 HD
BRANCH  25  28
HETATM   28  C3  UNL     1       7.381 -11.880   6.412  1.00  0.00     0.727 A 
HETATM   29  N3  UNL     1       7.593 -12.647   7.498  1.00  0.00    -0.018 N 
HETATM   30  C4  UNL     1       7.638 -12.132   8.742  1.00  0.00     0.727 A 
ATOM     31  H3  UNL     1       7.724 -13.651   7.375  1.00  0.00     0.203 HD
HETATM   32  N4  UNL     1       7.843 -12.900   9.745  1.00  0.00    -0.232 N 
HETATM   33  N5  UNL     1       7.470 -10.818   8.941  1.00  0.00     0.105 N 
ATOM     34  H42 UNL     1       7.971 -13.901   9.594  1.00  0.00     0.174 HD
ATOM     35  H41 UNL     1       7.877 -12.510  10.687  1.00  0.00     0.174 HD
HETATM   36  N6  UNL     1       7.467 -10.064  10.037  1.00  0.00    -0.096 N 
HETATM   37  C6  UNL     1       7.257 -10.036   7.865  1.00  0.00     0.748 A 
HETATM   38  C5  UNL     1       7.253  -8.783   9.701  1.00  0.00     0.706 A 
ATOM     39  H6  UNL     1       7.606 -10.407  10.988  1.00  0.00     0.207 HD
HETATM   40  N8  UNL     1       7.125  -8.787   8.348  1.00  0.00    -0.018 N 
ATOM     41  H8  UNL     1       6.952  -7.959   7.778  1.00  0.00     0.203 HD
HETATM   42  N9  UNL     1       7.212 -10.565   6.612  1.00  0.00    -0.017 N 
ATOM     43  H9  UNL     1       7.048  -9.952   5.813  1.00  0.00     0.203 HD
BRANCH  38  44
HETATM   44  N7  UNL     1       7.178  -7.739  10.481  1.00  0.00    -0.233 N 
ATOM     45  H72 UNL     1       7.774  -7.543  11.284  1.00  0.00     0.174 HD
ATOM     46  H71 UNL     1       6.529  -6.954  10.430  1.00  0.00     0.174 HD
ENDBRANCH  38  44
ENDBRANCH  25  28
ENDBRANCH   1  24
TORSDOF 10
ENDMDL
MODEL 4
REMARK VINA RESULT: -7.555740491      1.059      2.422
REMARK  10 active torsions:
REMARK  status: ('A' for Active; 'I' for Inactive)
REMARK    1  A    between atoms: C2_2  and  O1_3 
REMARK    2  A    between atoms: C2_2  and  C7_27 
REMARK    3  A    between atoms: O1_3  and  N1_4 
REMARK    4  A    between atoms: N2_6  and  C3_8 
REMARK    5  A    between atoms: C5_18  and  N7_19 
REMARK       I    between atoms: C7_27  and  N10_29 
REMARK    6  A    between atoms: C9_33  and  O4_35 
REMARK    7  A    between atoms: C12_38  and  C13_39 
REMARK    8  A    between atoms: C13_39  and  O5_40 
REMARK    9  A    between atoms: C13_39  and  N11_42 
REMARK   10  A    between atoms: N11_42  and  N12_44 
ROOT
HETATM    1  O1  UNL     1       8.909 -15.569   7.092  1.00  0.00    -0.250 OA
ENDROOT
BRANCH   1   2
HETATM    2  C2  UNL     1      10.269 -15.418   6.717  1.00  0.00     0.241 C 
HETATM    3  C1  UNL     1      11.098 -16.599   7.139  1.00  0.00     0.052 C 
BRANCH   2   4
HETATM    4  C7  UNL     1      10.333 -15.347   5.214  1.00  0.00     0.254 C 
HETATM    5  O2  UNL     1       9.713 -14.458   4.586  1.00  0.00    -0.270 OA
HETATM    6  N10 UNL     1      11.109 -16.307   4.521  1.00  0.00    -0.308 N 
HETATM    7  C8  UNL     1      10.697 -16.745   3.395  1.00  0.00     0.132 C 
ATOM      8  H10 UNL     1      11.987 -16.644   4.916  1.00  0.00     0.170 HD
HETATM    9  O3  UNL     1       9.537 -16.381   2.745  1.00  0.00    -0.302 OA
HETATM   10  C12 UNL     1      11.413 -17.749   2.569  1.00  0.00     0.115 C 
HETATM   11  C9  UNL     1       9.664 -16.628   1.365  1.00  0.00     0.166 C 
HETATM   12  C10 UNL     1       8.365 -16.945   0.702  1.00  0.00     0.079 C 
HETATM   13  C11 UNL     1      10.648 -17.782   1.296  1.00  0.00     0.085 C 
BRANCH  11  14
HETATM   14  O4  UNL     1      10.299 -15.522   0.756  1.00  0.00    -0.365 OA
ATOM     15  H4  UNL     1      11.152 -15.397   1.156  1.00  0.00     0.213 HD
ENDBRANCH  11  14
BRANCH  10  16
HETATM   16  C13 UNL     1      11.491 -19.024   3.341  1.00  0.00     0.244 C 
BRANCH  16  17
HETATM   17  O5  UNL     1      12.471 -19.878   2.838  1.00  0.00    -0.375 OA
ATOM     18  H5  UNL     1      13.114 -19.411   2.317  1.00  0.00     0.212 HD
ENDBRANCH  16  17
BRANCH  16  19
HETATM   19  N11 UNL     1      10.241 -19.625   3.627  1.00  0.00    -0.314 N 
ATOM     20  H11 UNL     1       9.580 -19.836   2.880  1.00  0.00     0.182 HD
BRANCH  19  21
HETATM   21  N12 UNL     1       9.942 -19.917   4.927  1.00  0.00    -0.347 N 
ATOM     22 2H12 UNL     1       9.792 -19.161   5.595  1.00  0.00     0.176 HD
ATOM     23 1H12 UNL     1       9.875 -20.897   5.202  1.00  0.00     0.176 HD
ENDBRANCH  19  21
ENDBRANCH  16  19
ENDBRANCH  10  16
ENDBRANCH   2   4
ENDBRANCH   1   2
BRANCH   1  24
HETATM   24  N1  UNL     1       7.960 -14.598   6.778  1.00  0.00    -0.192 N 
HETATM   25  N2  UNL     1       8.297 -13.376   6.931  1.00  0.00    -0.111 N 
ATOM     26  H2  UNL     1       9.234 -13.161   7.272  1.00  0.00     0.207 HD
ATOM     27  H1  UNL     1       7.033 -14.854   6.439  1.00  0.00     0.216 HD
BRANCH  25  28
HETATM   28  C3  UNL     1       7.407 -12.309   6.642  1.00  0.00     0.727 A 
HETATM   29  N3  UNL     1       7.311 -11.298   7.527  1.00  0.00    -0.018 N 
HETATM   30  C4  UNL     1       6.491 -10.247   7.329  1.00  0.00     0.727 A 
ATOM     31  H3  UNL     1       7.877 -11.329   8.374  1.00  0.00     0.203 HD
HETATM   32  N4  UNL     1       6.433  -9.309   8.198  1.00  0.00    -0.232 N 
HETATM   33  N5  UNL     1       5.734 -10.173   6.227  1.00  0.00     0.105 N 
ATOM     34  H42 UNL     1       7.010  -9.365   9.037  1.00  0.00     0.174 HD
ATOM     35  H41 UNL     1       5.813  -8.514   8.048  1.00  0.00     0.174 HD
HETATM   36  N6  UNL     1       4.858  -9.271   5.792  1.00  0.00    -0.096 N 
HETATM   37  C6  UNL     1       5.818 -11.177   5.331  1.00  0.00     0.748 A 
HETATM   38  C5  UNL     1       4.357  -9.664   4.611  1.00  0.00     0.706 A 
ATOM     39  H6  UNL     1       4.607  -8.411   6.281  1.00  0.00     0.207 HD
HETATM   40  N8  UNL     1       4.965 -10.849   4.343  1.00  0.00    -0.018 N 
ATOM     41  H8  UNL     1       4.799 -11.412   3.509  1.00  0.00     0.203 HD
HETATM   42  N9  UNL     1       6.648 -12.235   5.539  1.00  0.00    -0.017 N 
ATOM     43  H9  UNL     1       6.693 -12.982   4.847  1.00  0.00     0.203 HD
BRANCH  38  44
HETATM   44  N7  UNL     1       3.476  -9.061   3.861  1.00  0.00    -0.233 N 
ATOM     45  H72 UNL     1       3.535  -8.106   3.509  1.00  0.00     0.174 HD
ATOM     46  H71 UNL     1       2.594  -9.425   3.500  1.00  0.00     0.174 HD
ENDBRANCH  38  44
ENDBRANCH  25  28
ENDBRANCH   1  24
TORSDOF 10
ENDMDL
MODEL 5
REMARK VINA RESULT: -7.544708934      0.888      1.640
REMARK  10 active torsions:
REMARK  status: ('A' for Active; 'I' for Inactive)
REMARK    1  A    between atoms: C2_2  and  O1_3 
REMARK    2  A    between atoms: C2_2  and  C7_27 
REMARK    3  A    between atoms: O1_3  and  N1_4 
REMARK    4  A    between atoms: N2_6  and  C3_8 
REMARK    5  A    between atoms: C5_18  and  N7_19 
REMARK       I    between atoms: C7_27  and  N10_29 
REMARK    6  A    between atoms: C9_33  and  O4_35 
REMARK    7  A    between atoms: C12_38  and  C13_39 
REMARK    8  A    between atoms: C13_39  and  O5_40 
REMARK    9  A    between atoms: C13_39  and  N11_42 
REMARK   10  A    between atoms: N11_42  and  N12_44 
ROOT
HETATM    1  O1  UNL     1       8.171 -15.380   7.111  1.00  0.00    -0.250 OA
ENDROOT
BRANCH   1   2
HETATM    2  C2  UNL     1       9.417 -15.917   6.693  1.00  0.00     0.241 C 
HETATM    3  C1  UNL     1       9.432 -17.418   6.774  1.00  0.00     0.052 C 
BRANCH   2   4
HETATM    4  C7  UNL     1       9.622 -15.548   5.248  1.00  0.00     0.254 C 
HETATM    5  O2  UNL     1       8.936 -14.649   4.710  1.00  0.00    -0.270 OA
HETATM    6  N10 UNL     1      10.610 -16.239   4.505  1.00  0.00    -0.308 N 
HETATM    7  C8  UNL     1      10.391 -16.504   3.276  1.00  0.00     0.132 C 
ATOM      8  H10 UNL     1      11.485 -16.522   4.946  1.00  0.00     0.170 HD
HETATM    9  O3  UNL     1       9.261 -16.186   2.553  1.00  0.00    -0.302 OA
HETATM   10  C12 UNL     1      11.340 -17.222   2.387  1.00  0.00     0.115 C 
HETATM   11  C9  UNL     1       9.567 -16.143   1.180  1.00  0.00     0.166 C 
HETATM   12  C10 UNL     1       8.411 -16.502   0.308  1.00  0.00     0.079 C 
HETATM   13  C11 UNL     1      10.725 -17.113   1.040  1.00  0.00     0.085 C 
BRANCH  11  14
HETATM   14  O4  UNL     1      10.076 -14.862   0.863  1.00  0.00    -0.365 OA
ATOM     15  H4  UNL     1       9.590 -14.207   1.351  1.00  0.00     0.213 HD
ENDBRANCH  11  14
BRANCH  10  16
HETATM   16  C13 UNL     1      11.541 -18.598   2.927  1.00  0.00     0.244 C 
BRANCH  16  17
HETATM   17  O5  UNL     1      12.619 -19.242   2.321  1.00  0.00    -0.375 OA
ATOM     18  H5  UNL     1      12.877 -20.024   2.796  1.00  0.00     0.212 HD
ENDBRANCH  16  17
BRANCH  16  19
HETATM   19  N11 UNL     1      10.359 -19.368   3.055  1.00  0.00    -0.314 N 
ATOM     20  H11 UNL     1       9.778 -19.572   2.241  1.00  0.00     0.182 HD
BRANCH  19  21
HETATM   21  N12 UNL     1      10.015 -19.831   4.292  1.00  0.00    -0.347 N 
ATOM     22 2H12 UNL     1       9.801 -19.170   5.039  1.00  0.00     0.176 HD
ATOM     23 1H12 UNL     1       9.980 -20.839   4.442  1.00  0.00     0.176 HD
ENDBRANCH  19  21
ENDBRANCH  16  19
ENDBRANCH  10  16
ENDBRANCH   2   4
ENDBRANCH   1   2
BRANCH   1  24
HETATM   24  N1  UNL     1       8.081 -14.102   7.658  1.00  0.00    -0.192 N 
HETATM   25  N2  UNL     1       7.543 -13.192   6.941  1.00  0.00    -0.111 N 
ATOM     26  H2  UNL     1       7.204 -13.433   6.009  1.00  0.00     0.207 HD
ATOM     27  H1  UNL     1       8.431 -13.901   8.594  1.00  0.00     0.216 HD
BRANCH  25  28
HETATM   28  C3  UNL     1       7.401 -11.857   7.401  1.00  0.00     0.727 A 
HETATM   29  N3  UNL     1       7.626 -11.602   8.704  1.00  0.00    -0.018 N 
HETATM   30  C4  UNL     1       7.513 -10.363   9.222  1.00  0.00     0.727 A 
ATOM     31  H3  UNL     1       7.891 -12.371   9.318  1.00  0.00     0.203 HD
HETATM   32  N4  UNL     1       7.738 -10.168  10.466  1.00  0.00    -0.232 N 
HETATM   33  N5  UNL     1       7.168  -9.329   8.444  1.00  0.00     0.105 N 
ATOM     34  H42 UNL     1       8.001 -10.956  11.059  1.00  0.00     0.174 HD
ATOM     35  H41 UNL     1       7.652  -9.230  10.859  1.00  0.00     0.174 HD
HETATM   36  N6  UNL     1       6.989  -8.034   8.690  1.00  0.00    -0.096 N 
HETATM   37  C6  UNL     1       6.939  -9.567   7.137  1.00  0.00     0.748 A 
HETATM   38  C5  UNL     1       6.641  -7.405   7.557  1.00  0.00     0.706 A 
ATOM     39  H6  UNL     1       7.099  -7.587   9.601  1.00  0.00     0.207 HD
HETATM   40  N8  UNL     1       6.616  -8.374   6.605  1.00  0.00    -0.018 N 
ATOM     41  H8  UNL     1       6.384  -8.219   5.624  1.00  0.00     0.203 HD
HETATM   42  N9  UNL     1       7.055 -10.822   6.622  1.00  0.00    -0.017 N 
ATOM     43  H9  UNL     1       6.875 -10.977   5.630  1.00  0.00     0.203 HD
BRANCH  38  44
HETATM   44  N7  UNL     1       6.379  -6.139   7.378  1.00  0.00    -0.233 N 
ATOM     45  H72 UNL     1       6.394  -5.640   6.489  1.00  0.00     0.174 HD
ATOM     46  H71 UNL     1       6.118  -5.441   8.073  1.00  0.00     0.174 HD
ENDBRANCH  38  44
ENDBRANCH  25  28
ENDBRANCH   1  24
TORSDOF 10
ENDMDL
