MODEL 1
REMARK VINA RESULT: -6.935190236      0.000      0.000
REMARK  12 active torsions:
REMARK  status: ('A' for Active; 'I' for Inactive)
REMARK    1  A    between atoms: C2_3  and  C3_4 
REMARK    2  A    between atoms: C3_4  and  N15_39 
REMARK    3  A    between atoms: N2_5  and  N3_7 
REMARK    4  A    between atoms: C4_9  and  S1_10 
REMARK    5  A    between atoms: C4_9  and  N7_22 
REMARK    6  A    between atoms: S1_10  and  C5_11 
REMARK    7  A    between atoms: C5_11  and  C6_12 
REMARK    8  A    between atoms: C6_12  and  N4_13 
REMARK    9  A    between atoms: N4_13  and  C7_15 
REMARK   10  A    between atoms: N11_28  and  C11_29 
REMARK   11  A    between atoms: C12_35  and  N14_36 
REMARK   12  A    between atoms: N15_39  and  N16_41 
ROOT
HETATM    1  N1  UNL     1       6.186 -11.427   5.123  1.00  0.00    -0.197 NA
HETATM    2  C1  UNL     1       5.902 -11.969   4.145  1.00  0.00     0.066 C 
HETATM    3  C2  UNL     1       5.524 -12.672   2.917  1.00  0.00     0.203 C 
ENDROOT
BRANCH   3   4
HETATM    4  C3  UNL     1       6.466 -13.786   2.615  1.00  0.00     0.123 C 
HETATM    5  N2  UNL     1       7.451 -13.991   3.414  1.00  0.00    -0.285 N 
ATOM      6  H2  UNL     1       7.509 -13.357   4.212  1.00  0.00     0.188 HD
BRANCH   5   7
HETATM    7  N3  UNL     1       8.411 -14.920   3.344  1.00  0.00    -0.276 N 
HETATM    8  C4  UNL     1       9.475 -15.203   3.935  1.00  0.00     0.196 C 
ATOM      9  H3  UNL     1       8.221 -15.585   2.595  1.00  0.00     0.189 HD
BRANCH   8  10
HETATM   10  S1  UNL     1      10.107 -14.266   5.283  1.00  0.00    -0.088 SA
BRANCH  10  11
HETATM   11  C5  UNL     1       9.299 -14.445   6.844  1.00  0.00     0.102 C 
BRANCH  11  12
HETATM   12  C6  UNL     1       7.961 -13.799   6.990  1.00  0.00     0.133 C 
BRANCH  12  13
HETATM   13  N4  UNL     1       7.833 -13.279   8.328  1.00  0.00    -0.362 N 
ATOM     14  H4  UNL     1       7.838 -13.944   9.102  1.00  0.00     0.162 HD
BRANCH  13  15
HETATM   15  C7  UNL     1       7.700 -11.909   8.635  1.00  0.00     0.171 A 
HETATM   16  N5  UNL     1       7.436 -10.991   7.773  1.00  0.00    -0.361 N 
HETATM   17  C8  UNL     1       7.366  -9.686   8.421  1.00  0.00     0.142 A 
ATOM     18  H5  UNL     1       7.295 -11.152   6.776  1.00  0.00     0.162 HD
HETATM   19  C9  UNL     1       7.634  -9.903   9.886  1.00  0.00     0.142 A 
HETATM   20  N6  UNL     1       7.838 -11.335   9.945  1.00  0.00    -0.361 N 
ATOM     21  H6  UNL     1       8.048 -11.861  10.794  1.00  0.00     0.162 HD
ENDBRANCH  13  15
ENDBRANCH  12  13
ENDBRANCH  11  12
ENDBRANCH  10  11
ENDBRANCH   8  10
BRANCH   8  22
HETATM   22  N7  UNL     1      10.213 -16.334   3.398  1.00  0.00    -0.144 N 
HETATM   23  N8  UNL     1      10.722 -16.481   2.106  1.00  0.00     0.006 NA
HETATM   24  N9  UNL     1      11.351 -17.716   2.064  1.00  0.00    -0.254 N 
HETATM   25  C10 UNL     1      11.279 -18.329   3.181  1.00  0.00     0.230 A 
ATOM     26  H9  UNL     1      11.816 -18.091   1.237  1.00  0.00     0.187 HD
HETATM   27  N10 UNL     1      11.829 -19.628   3.469  1.00  0.00    -0.060 NA
HETATM   28  N11 UNL     1      10.566 -17.502   4.076  1.00  0.00    -0.182 N 
BRANCH  28  29
HETATM   29  C11 UNL     1      10.248 -17.790   5.429  1.00  0.00     0.199 A 
HETATM   30  N12 UNL     1       9.088 -18.272   5.906  1.00  0.00    -0.220 N 
HETATM   31  O1  UNL     1       9.239 -18.375   7.195  1.00  0.00    -0.153 OA
ATOM     32  H12 UNL     1       8.256 -18.510   5.366  1.00  0.00     0.198 HD
HETATM   33  N13 UNL     1      10.416 -17.991   7.572  1.00  0.00    -0.222 N 
HETATM   34  C12 UNL     1      11.108 -17.605   6.487  1.00  0.00     0.169 A 
ATOM     35  H13 UNL     1      10.761 -17.983   8.532  1.00  0.00     0.198 HD
BRANCH  34  36
HETATM   36  N14 UNL     1      12.326 -17.159   6.481  1.00  0.00    -0.381 N 
ATOM     37 2H14 UNL     1      12.944 -17.120   5.671  1.00  0.00     0.157 HD
ATOM     38 1H14 UNL     1      12.875 -16.780   7.253  1.00  0.00     0.157 HD
ENDBRANCH  34  36
ENDBRANCH  28  29
ENDBRANCH   8  22
ENDBRANCH   5   7
BRANCH   4  39
HETATM   39  N15 UNL     1       6.253 -14.582   1.467  1.00  0.00    -0.294 N 
ATOM     40  H15 UNL     1       6.869 -14.488   0.659  1.00  0.00     0.187 HD
BRANCH  39  41
HETATM   41  N16 UNL     1       5.221 -15.478   1.439  1.00  0.00    -0.344 N 
ATOM     42 2H16 UNL     1       5.311 -16.352   1.957  1.00  0.00     0.176 HD
ATOM     43 1H16 UNL     1       4.379 -15.268   0.905  1.00  0.00     0.176 HD
ENDBRANCH  39  41
ENDBRANCH   4  39
ENDBRANCH   3   4
TORSDOF 12
ENDMDL
MODEL 2
REMARK VINA RESULT: -6.345423638      3.924      7.382
REMARK  12 active torsions:
REMARK  status: ('A' for Active; 'I' for Inactive)
REMARK    1  A    between atoms: C2_3  and  C3_4 
REMARK    2  A    between atoms: C3_4  and  N15_39 
REMARK    3  A    between atoms: N2_5  and  N3_7 
REMARK    4  A    between atoms: C4_9  and  S1_10 
REMARK    5  A    between atoms: C4_9  and  N7_22 
REMARK    6  A    between atoms: S1_10  and  C5_11 
REMARK    7  A    between atoms: C5_11  and  C6_12 
REMARK    8  A    between atoms: C6_12  and  N4_13 
REMARK    9  A    between atoms: N4_13  and  C7_15 
REMARK   10  A    between atoms: N11_28  and  C11_29 
REMARK   11  A    between atoms: C12_35  and  N14_36 
REMARK   12  A    between atoms: N15_39  and  N16_41 
ROOT
HETATM    1  N1  UNL     1      10.392 -15.089  -1.465  1.00  0.00    -0.197 NA
HETATM    2  C1  UNL     1       9.501 -15.805  -1.306  1.00  0.00     0.066 C 
HETATM    3  C2  UNL     1       8.356 -16.693  -1.092  1.00  0.00     0.203 C 
ENDROOT
BRANCH   3   4
HETATM    4  C3  UNL     1       8.512 -17.491   0.156  1.00  0.00     0.123 C 
HETATM    5  N2  UNL     1       9.356 -17.092   1.039  1.00  0.00    -0.285 N 
ATOM      6  H2  UNL     1       9.864 -16.238   0.808  1.00  0.00     0.188 HD
BRANCH   5   7
HETATM    7  N3  UNL     1       9.661 -17.643   2.220  1.00  0.00    -0.276 N 
HETATM    8  C4  UNL     1      10.621 -18.248   2.743  1.00  0.00     0.196 C 
ATOM      9  H3  UNL     1       8.891 -17.540   2.880  1.00  0.00     0.189 HD
BRANCH   8  10
HETATM   10  S1  UNL     1      12.119 -18.599   1.889  1.00  0.00    -0.088 SA
BRANCH  10  11
HETATM   11  C5  UNL     1      13.117 -17.222   1.406  1.00  0.00     0.102 C 
BRANCH  11  12
HETATM   12  C6  UNL     1      14.273 -17.509   0.506  1.00  0.00     0.133 C 
BRANCH  12  13
HETATM   13  N4  UNL     1      15.355 -16.613   0.828  1.00  0.00    -0.362 N 
ATOM     14  H4  UNL     1      15.414 -15.732   0.317  1.00  0.00     0.162 HD
BRANCH  13  15
HETATM   15  C7  UNL     1      16.335 -16.877   1.806  1.00  0.00     0.171 A 
HETATM   16  N5  UNL     1      16.293 -16.444   3.018  1.00  0.00    -0.361 N 
HETATM   17  C8  UNL     1      17.459 -16.900   3.764  1.00  0.00     0.142 A 
ATOM     18  H5  UNL     1      15.548 -15.864   3.401  1.00  0.00     0.162 HD
HETATM   19  C9  UNL     1      18.296 -17.724   2.823  1.00  0.00     0.142 A 
HETATM   20  N6  UNL     1      17.521 -17.663   1.601  1.00  0.00    -0.361 N 
ATOM     21  H6  UNL     1      17.778 -18.114   0.723  1.00  0.00     0.162 HD
ENDBRANCH  13  15
ENDBRANCH  12  13
ENDBRANCH  11  12
ENDBRANCH  10  11
ENDBRANCH   8  10
BRANCH   8  22
HETATM   22  N7  UNL     1      10.407 -18.715   4.102  1.00  0.00    -0.144 N 
HETATM   23  N8  UNL     1      10.177 -20.026   4.524  1.00  0.00     0.006 NA
HETATM   24  N9  UNL     1      10.039 -19.982   5.903  1.00  0.00    -0.254 N 
HETATM   25  C10 UNL     1      10.159 -18.796   6.360  1.00  0.00     0.230 A 
ATOM     26  H9  UNL     1       9.862 -20.801   6.485  1.00  0.00     0.187 HD
HETATM   27  N10 UNL     1      10.069 -18.410   7.743  1.00  0.00    -0.060 NA
HETATM   28  N11 UNL     1      10.396 -17.939   5.263  1.00  0.00    -0.182 N 
BRANCH  28  29
HETATM   29  C11 UNL     1      10.586 -16.534   5.308  1.00  0.00     0.199 A 
HETATM   30  N12 UNL     1      11.679 -15.850   4.931  1.00  0.00    -0.220 N 
HETATM   31  O1  UNL     1      11.416 -14.593   5.151  1.00  0.00    -0.153 OA
ATOM     32  H12 UNL     1      12.543 -16.237   4.550  1.00  0.00     0.198 HD
HETATM   33  N13 UNL     1      10.230 -14.430   5.641  1.00  0.00    -0.222 N 
HETATM   34  C12 UNL     1       9.649 -15.636   5.765  1.00  0.00     0.169 A 
ATOM     35  H13 UNL     1       9.807 -13.537   5.892  1.00  0.00     0.198 HD
BRANCH  34  36
HETATM   36  N14 UNL     1       8.457 -15.861   6.224  1.00  0.00    -0.381 N 
ATOM     37 2H14 UNL     1       8.233 -16.367   7.081  1.00  0.00     0.157 HD
ATOM     38 1H14 UNL     1       7.555 -15.587   5.833  1.00  0.00     0.157 HD
ENDBRANCH  34  36
ENDBRANCH  28  29
ENDBRANCH   8  22
ENDBRANCH   5   7
BRANCH   4  39
HETATM   39  N15 UNL     1       7.733 -18.657   0.335  1.00  0.00    -0.294 N 
ATOM     40  H15 UNL     1       6.799 -18.590   0.738  1.00  0.00     0.187 HD
BRANCH  39  41
HETATM   41  N16 UNL     1       8.233 -19.875  -0.032  1.00  0.00    -0.344 N 
ATOM     42 2H16 UNL     1       9.234 -19.968  -0.202  1.00  0.00     0.176 HD
ATOM     43 1H16 UNL     1       7.606 -20.673  -0.132  1.00  0.00     0.176 HD
ENDBRANCH  39  41
ENDBRANCH   4  39
ENDBRANCH   3   4
TORSDOF 12
ENDMDL
MODEL 3
REMARK VINA RESULT: -6.313090388      3.062      5.940
REMARK  12 active torsions:
REMARK  status: ('A' for Active; 'I' for Inactive)
REMARK    1  A    between atoms: C2_3  and  C3_4 
REMARK    2  A    between atoms: C3_4  and  N15_39 
REMARK    3  A    between atoms: N2_5  and  N3_7 
REMARK    4  A    between atoms: C4_9  and  S1_10 
REMARK    5  A    between atoms: C4_9  and  N7_22 
REMARK    6  A    between atoms: S1_10  and  C5_11 
REMARK    7  A    between atoms: C5_11  and  C6_12 
REMARK    8  A    between atoms: C6_12  and  N4_13 
REMARK    9  A    between atoms: N4_13  and  C7_15 
REMARK   10  A    between atoms: N11_28  and  C11_29 
REMARK   11  A    between atoms: C12_35  and  N14_36 
REMARK   12  A    between atoms: N15_39  and  N16_41 
ROOT
HETATM    1  N1  UNL     1       7.382  -7.975   9.127  1.00  0.00    -0.197 NA
HETATM    2  C1  UNL     1       7.598  -9.073   9.412  1.00  0.00     0.066 C 
HETATM    3  C2  UNL     1       7.898 -10.461   9.768  1.00  0.00     0.203 C 
ENDROOT
BRANCH   3   4
HETATM    4  C3  UNL     1       7.614 -11.387   8.637  1.00  0.00     0.123 C 
HETATM    5  N2  UNL     1       7.520 -10.899   7.452  1.00  0.00    -0.285 N 
ATOM      6  H2  UNL     1       7.653  -9.890   7.380  1.00  0.00     0.188 HD
BRANCH   5   7
HETATM    7  N3  UNL     1       7.273 -11.531   6.299  1.00  0.00    -0.276 N 
HETATM    8  C4  UNL     1       6.326 -11.660   5.495  1.00  0.00     0.196 C 
ATOM      9  H3  UNL     1       8.090 -12.058   5.989  1.00  0.00     0.189 HD
BRANCH   8  10
HETATM   10  S1  UNL     1       4.762 -10.885   5.715  1.00  0.00    -0.088 SA
BRANCH  10  11
HETATM   11  C5  UNL     1       4.112  -9.970   4.351  1.00  0.00     0.102 C 
BRANCH  11  12
HETATM   12  C6  UNL     1       4.024  -8.488   4.511  1.00  0.00     0.133 C 
BRANCH  12  13
HETATM   13  N4  UNL     1       4.647  -8.111   5.755  1.00  0.00    -0.362 N 
ATOM     14  H4  UNL     1       4.720  -8.819   6.486  1.00  0.00     0.162 HD
BRANCH  13  15
HETATM   15  C7  UNL     1       5.161  -6.826   6.025  1.00  0.00     0.171 A 
HETATM   16  N5  UNL     1       5.588  -6.438   7.175  1.00  0.00    -0.361 N 
HETATM   17  C8  UNL     1       6.052  -5.058   7.109  1.00  0.00     0.142 A 
ATOM     18  H5  UNL     1       5.600  -7.015   8.016  1.00  0.00     0.162 HD
HETATM   19  C9  UNL     1       5.856  -4.590   5.692  1.00  0.00     0.142 A 
HETATM   20  N6  UNL     1       5.286  -5.765   5.065  1.00  0.00    -0.361 N 
ATOM     21  H6  UNL     1       5.014  -5.829   4.084  1.00  0.00     0.162 HD
ENDBRANCH  13  15
ENDBRANCH  12  13
ENDBRANCH  11  12
ENDBRANCH  10  11
ENDBRANCH   8  10
BRANCH   8  22
HETATM   22  N7  UNL     1       6.566 -12.555   4.376  1.00  0.00    -0.144 N 
HETATM   23  N8  UNL     1       6.104 -12.420   3.064  1.00  0.00     0.006 NA
HETATM   24  N9  UNL     1       6.591 -13.508   2.356  1.00  0.00    -0.254 N 
HETATM   25  C10 UNL     1       7.291 -14.283   3.090  1.00  0.00     0.230 A 
ATOM     26  H9  UNL     1       6.410 -13.671   1.366  1.00  0.00     0.187 HD
HETATM   27  N10 UNL     1       7.937 -15.496   2.662  1.00  0.00    -0.060 NA
HETATM   28  N11 UNL     1       7.316 -13.733   4.390  1.00  0.00    -0.182 N 
BRANCH  28  29
HETATM   29  C11 UNL     1       7.975 -14.267   5.526  1.00  0.00     0.199 A 
HETATM   30  N12 UNL     1       7.408 -14.859   6.591  1.00  0.00    -0.220 N 
HETATM   31  O1  UNL     1       8.384 -15.188   7.388  1.00  0.00    -0.153 OA
ATOM     32  H12 UNL     1       6.412 -15.018   6.745  1.00  0.00     0.198 HD
HETATM   33  N13 UNL     1       9.534 -14.847   6.904  1.00  0.00    -0.222 N 
HETATM   34  C12 UNL     1       9.338 -14.253   5.714  1.00  0.00     0.169 A 
ATOM     35  H13 UNL     1      10.438 -15.002   7.350  1.00  0.00     0.198 HD
BRANCH  34  36
HETATM   36  N14 UNL     1      10.265 -13.781   4.939  1.00  0.00    -0.381 N 
ATOM     37 2H14 UNL     1      11.186 -13.460   5.238  1.00  0.00     0.157 HD
ATOM     38 1H14 UNL     1      10.251 -13.645   3.928  1.00  0.00     0.157 HD
ENDBRANCH  34  36
ENDBRANCH  28  29
ENDBRANCH   8  22
ENDBRANCH   5   7
BRANCH   4  39
HETATM   39  N15 UNL     1       7.455 -12.768   8.894  1.00  0.00    -0.294 N 
ATOM     40  H15 UNL     1       7.027 -13.372   8.192  1.00  0.00     0.187 HD
BRANCH  39  41
HETATM   41  N16 UNL     1       7.877 -13.294  10.083  1.00  0.00    -0.344 N 
ATOM     42 2H16 UNL     1       7.187 -13.681  10.725  1.00  0.00     0.176 HD
ATOM     43 1H16 UNL     1       8.870 -13.296  10.315  1.00  0.00     0.176 HD
ENDBRANCH  39  41
ENDBRANCH   4  39
ENDBRANCH   3   4
TORSDOF 12
ENDMDL
MODEL 4
REMARK VINA RESULT: -6.194173096      1.828      3.340
REMARK  12 active torsions:
REMARK  status: ('A' for Active; 'I' for Inactive)
REMARK    1  A    between atoms: C2_3  and  C3_4 
REMARK    2  A    between atoms: C3_4  and  N15_39 
REMARK    3  A    between atoms: N2_5  and  N3_7 
REMARK    4  A    between atoms: C4_9  and  S1_10 
REMARK    5  A    between atoms: C4_9  and  N7_22 
REMARK    6  A    between atoms: S1_10  and  C5_11 
REMARK    7  A    between atoms: C5_11  and  C6_12 
REMARK    8  A    between atoms: C6_12  and  N4_13 
REMARK    9  A    between atoms: N4_13  and  C7_15 
REMARK   10  A    between atoms: N11_28  and  C11_29 
REMARK   11  A    between atoms: C12_35  and  N14_36 
REMARK   12  A    between atoms: N15_39  and  N16_41 
ROOT
HETATM    1  N1  UNL     1       4.827 -15.302   1.518  1.00  0.00    -0.197 NA
HETATM    2  C1  UNL     1       5.800 -14.755   1.811  1.00  0.00     0.066 C 
HETATM    3  C2  UNL     1       7.046 -14.065   2.156  1.00  0.00     0.203 C 
ENDROOT
BRANCH   3   4
HETATM    4  C3  UNL     1       7.977 -14.962   2.895  1.00  0.00     0.123 C 
HETATM    5  N2  UNL     1       7.824 -15.096   4.164  1.00  0.00    -0.285 N 
ATOM      6  H2  UNL     1       7.057 -14.563   4.573  1.00  0.00     0.188 HD
BRANCH   5   7
HETATM    7  N3  UNL     1       8.534 -15.837   5.023  1.00  0.00    -0.276 N 
HETATM    8  C4  UNL     1       9.247 -15.661   6.033  1.00  0.00     0.196 C 
ATOM      9  H3  UNL     1       8.475 -16.827   4.785  1.00  0.00     0.189 HD
BRANCH   8  10
HETATM   10  S1  UNL     1       9.563 -14.074   6.725  1.00  0.00    -0.088 SA
BRANCH  10  11
HETATM   11  C5  UNL     1       8.622 -12.716   6.100  1.00  0.00     0.102 C 
BRANCH  11  12
HETATM   12  C6  UNL     1       7.287 -12.475   6.724  1.00  0.00     0.133 C 
BRANCH  12  13
HETATM   13  N4  UNL     1       7.475 -12.055   8.090  1.00  0.00    -0.362 N 
ATOM     14  H4  UNL     1       7.665 -12.773   8.789  1.00  0.00     0.162 HD
BRANCH  13  15
HETATM   15  C7  UNL     1       7.413 -10.713   8.520  1.00  0.00     0.171 A 
HETATM   16  N5  UNL     1       7.462 -10.339   9.751  1.00  0.00    -0.361 N 
HETATM   17  C8  UNL     1       7.373  -8.887   9.848  1.00  0.00     0.142 A 
ATOM     18  H5  UNL     1       7.550 -10.970  10.547  1.00  0.00     0.162 HD
HETATM   19  C9  UNL     1       7.255  -8.355   8.445  1.00  0.00     0.142 A 
HETATM   20  N6  UNL     1       7.286  -9.571   7.659  1.00  0.00    -0.361 N 
ATOM     21  H6  UNL     1       7.227  -9.610   6.641  1.00  0.00     0.162 HD
ENDBRANCH  13  15
ENDBRANCH  12  13
ENDBRANCH  11  12
ENDBRANCH  10  11
ENDBRANCH   8  10
BRANCH   8  22
HETATM   22  N7  UNL     1       9.869 -16.854   6.582  1.00  0.00    -0.144 N 
HETATM   23  N8  UNL     1       9.717 -17.378   7.867  1.00  0.00     0.006 NA
HETATM   24  N9  UNL     1      10.497 -18.522   7.926  1.00  0.00    -0.254 N 
HETATM   25  C10 UNL     1      11.102 -18.747   6.825  1.00  0.00     0.230 A 
ATOM     26  H9  UNL     1      10.579 -19.115   8.753  1.00  0.00     0.187 HD
HETATM   27  N10 UNL     1      11.987 -19.851   6.557  1.00  0.00    -0.060 NA
HETATM   28  N11 UNL     1      10.745 -17.720   5.924  1.00  0.00    -0.182 N 
BRANCH  28  29
HETATM   29  C11 UNL     1      11.189 -17.571   4.586  1.00  0.00     0.199 A 
HETATM   30  N12 UNL     1      11.913 -16.560   4.077  1.00  0.00    -0.220 N 
HETATM   31  O1  UNL     1      12.085 -16.833   2.815  1.00  0.00    -0.153 OA
ATOM     32  H12 UNL     1      12.258 -15.741   4.579  1.00  0.00     0.198 HD
HETATM   33  N13 UNL     1      11.521 -17.950   2.485  1.00  0.00    -0.222 N 
HETATM   34  C12 UNL     1      10.931 -18.470   3.576  1.00  0.00     0.169 A 
ATOM     35  H13 UNL     1      11.523 -18.365   1.554  1.00  0.00     0.198 HD
BRANCH  34  36
HETATM   36  N14 UNL     1      10.269 -19.584   3.622  1.00  0.00    -0.381 N 
ATOM     37 2H14 UNL     1       9.270 -19.677   3.807  1.00  0.00     0.157 HD
ATOM     38 1H14 UNL     1      10.605 -20.538   3.490  1.00  0.00     0.157 HD
ENDBRANCH  34  36
ENDBRANCH  28  29
ENDBRANCH   8  22
ENDBRANCH   5   7
BRANCH   4  39
HETATM   39  N15 UNL     1       8.997 -15.638   2.187  1.00  0.00    -0.294 N 
ATOM     40  H15 UNL     1       8.974 -16.654   2.105  1.00  0.00     0.187 HD
BRANCH  39  41
HETATM   41  N16 UNL     1      10.015 -14.929   1.612  1.00  0.00    -0.344 N 
ATOM     42 2H16 UNL     1      10.212 -13.987   1.947  1.00  0.00     0.176 HD
ATOM     43 1H16 UNL     1      10.563 -15.345   0.860  1.00  0.00     0.176 HD
ENDBRANCH  39  41
ENDBRANCH   4  39
ENDBRANCH   3   4
TORSDOF 12
ENDMDL
MODEL 5
REMARK VINA RESULT: -6.100283265      3.711      7.379
REMARK  12 active torsions:
REMARK  status: ('A' for Active; 'I' for Inactive)
REMARK    1  A    between atoms: C2_3  and  C3_4 
REMARK    2  A    between atoms: C3_4  and  N15_39 
REMARK    3  A    between atoms: N2_5  and  N3_7 
REMARK    4  A    between atoms: C4_9  and  S1_10 
REMARK    5  A    between atoms: C4_9  and  N7_22 
REMARK    6  A    between atoms: S1_10  and  C5_11 
REMARK    7  A    between atoms: C5_11  and  C6_12 
REMARK    8  A    between atoms: C6_12  and  N4_13 
REMARK    9  A    between atoms: N4_13  and  C7_15 
REMARK   10  A    between atoms: N11_28  and  C11_29 
REMARK   11  A    between atoms: C12_35  and  N14_36 
REMARK   12  A    between atoms: N15_39  and  N16_41 
ROOT
HETATM    1  N1  UNL     1       6.860 -19.474  -0.554  1.00  0.00    -0.197 NA
HETATM    2  C1  UNL     1       7.327 -18.420  -0.508  1.00  0.00     0.066 C 
HETATM    3  C2  UNL     1       7.942 -17.091  -0.465  1.00  0.00     0.203 C 
ENDROOT
BRANCH   3   4
HETATM    4  C3  UNL     1       8.700 -16.883   0.800  1.00  0.00     0.123 C 
HETATM    5  N2  UNL     1       9.166 -17.912   1.414  1.00  0.00    -0.285 N 
ATOM      6  H2  UNL     1       8.973 -18.811   0.973  1.00  0.00     0.188 HD
BRANCH   5   7
HETATM    7  N3  UNL     1       9.868 -17.966   2.552  1.00  0.00    -0.276 N 
HETATM    8  C4  UNL     1      11.020 -17.688   2.946  1.00  0.00     0.196 C 
ATOM      9  H3  UNL     1       9.301 -18.339   3.313  1.00  0.00     0.189 HD
BRANCH   8  10
HETATM   10  S1  UNL     1      12.264 -17.021   1.896  1.00  0.00    -0.088 SA
BRANCH  10  11
HETATM   11  C5  UNL     1      13.388 -18.160   1.146  1.00  0.00     0.102 C 
BRANCH  11  12
HETATM   12  C6  UNL     1      14.421 -17.587   0.233  1.00  0.00     0.133 C 
BRANCH  12  13
HETATM   13  N4  UNL     1      15.172 -16.583   0.943  1.00  0.00    -0.362 N 
ATOM     14  H4  UNL     1      14.930 -15.605   0.785  1.00  0.00     0.162 HD
BRANCH  13  15
HETATM   15  C7  UNL     1      16.221 -16.868   1.841  1.00  0.00     0.171 A 
HETATM   16  N5  UNL     1      16.246 -16.499   3.074  1.00  0.00    -0.361 N 
HETATM   17  C8  UNL     1      17.469 -16.958   3.721  1.00  0.00     0.142 A 
ATOM     18  H5  UNL     1      15.513 -15.961   3.534  1.00  0.00     0.162 HD
HETATM   19  C9  UNL     1      18.264 -17.708   2.686  1.00  0.00     0.142 A 
HETATM   20  N6  UNL     1      17.410 -17.608   1.520  1.00  0.00    -0.361 N 
ATOM     21  H6  UNL     1      17.622 -18.005   0.605  1.00  0.00     0.162 HD
ENDBRANCH  13  15
ENDBRANCH  12  13
ENDBRANCH  11  12
ENDBRANCH  10  11
ENDBRANCH   8  10
BRANCH   8  22
HETATM   22  N7  UNL     1      11.308 -18.014   4.332  1.00  0.00    -0.144 N 
HETATM   23  N8  UNL     1      11.830 -19.208   4.835  1.00  0.00     0.006 NA
HETATM   24  N9  UNL     1      11.935 -19.050   6.208  1.00  0.00    -0.254 N 
HETATM   25  C10 UNL     1      11.536 -17.900   6.591  1.00  0.00     0.230 A 
ATOM     26  H9  UNL     1      12.289 -19.770   6.839  1.00  0.00     0.187 HD
HETATM   27  N10 UNL     1      11.514 -17.421   7.948  1.00  0.00    -0.060 NA
HETATM   28  N11 UNL     1      11.122 -17.188   5.443  1.00  0.00    -0.182 N 
BRANCH  28  29
HETATM   29  C11 UNL     1      10.603 -15.869   5.403  1.00  0.00     0.199 A 
HETATM   30  N12 UNL     1      11.140 -14.803   4.786  1.00  0.00    -0.220 N 
HETATM   31  O1  UNL     1      10.334 -13.806   5.014  1.00  0.00    -0.153 OA
ATOM     32  H12 UNL     1      12.006 -14.780   4.247  1.00  0.00     0.198 HD
HETATM   33  N13 UNL     1       9.320 -14.164   5.734  1.00  0.00    -0.222 N 
HETATM   34  C12 UNL     1       9.435 -15.473   6.015  1.00  0.00     0.169 A 
ATOM     35  H13 UNL     1       8.561 -13.555   6.038  1.00  0.00     0.198 HD
BRANCH  34  36
HETATM   36  N14 UNL     1       8.601 -16.176   6.717  1.00  0.00    -0.381 N 
ATOM     37 2H14 UNL     1       7.835 -16.738   6.347  1.00  0.00     0.157 HD
ATOM     38 1H14 UNL     1       8.554 -16.296   7.729  1.00  0.00     0.157 HD
ENDBRANCH  34  36
ENDBRANCH  28  29
ENDBRANCH   8  22
ENDBRANCH   5   7
BRANCH   4  39
HETATM   39  N15 UNL     1       8.888 -15.570   1.288  1.00  0.00    -0.294 N 
ATOM     40  H15 UNL     1       9.632 -14.986   0.909  1.00  0.00     0.187 HD
BRANCH  39  41
HETATM   41  N16 UNL     1       8.070 -15.083   2.270  1.00  0.00    -0.344 N 
ATOM     42 2H16 UNL     1       7.102 -15.400   2.309  1.00  0.00     0.176 HD
ATOM     43 1H16 UNL     1       8.431 -14.413   2.948  1.00  0.00     0.176 HD
ENDBRANCH  39  41
ENDBRANCH   4  39
ENDBRANCH   3   4
TORSDOF 12
ENDMDL
