MODEL 1
REMARK VINA RESULT: -7.087037146      0.000      0.000
REMARK  13 active torsions:
REMARK  status: ('A' for Active; 'I' for Inactive)
REMARK    1  A    between atoms: O1_2  and  C2_3 
REMARK    2  A    between atoms: C2_3  and  O2_4 
REMARK    3  A    between atoms: C2_3  and  N1_6 
REMARK    4  A    between atoms: N1_6  and  C3_8 
REMARK    5  A    between atoms: C4_10  and  C5_11 
REMARK    6  A    between atoms: C6_12  and  C7_13 
REMARK    7  A    between atoms: C7_13  and  O5_15 
REMARK    8  A    between atoms: O5_15  and  C8_16 
REMARK    9  A    between atoms: C8_16  and  O6_17 
REMARK   10  A    between atoms: C8_16  and  C9_19 
REMARK   11  A    between atoms: C12_31  and  C13_32 
REMARK   12  A    between atoms: C13_32  and  O9_33 
REMARK   13  A    between atoms: C13_32  and  O10_35 
ROOT
HETATM    1  C5  UNL     1      11.124 -16.586   3.198  1.00  0.00     0.136 A 
HETATM    2  C6  UNL     1      10.911 -16.779   4.539  1.00  0.00     0.155 A 
HETATM    3  N2  UNL     1       9.881 -15.970   4.947  1.00  0.00    -0.182 N 
ATOM      4  H2  UNL     1       9.503 -15.901   5.892  1.00  0.00     0.184 HD
HETATM    5  C10 UNL     1       9.471 -15.297   3.889  1.00  0.00     0.693 A 
HETATM    6  N3  UNL     1       8.510 -14.437   3.915  1.00  0.00    -0.233 N 
ATOM      7  H31 UNL     1       8.193 -13.917   3.096  1.00  0.00     0.174 HD
ATOM      8  H32 UNL     1       7.945 -14.157   4.717  1.00  0.00     0.174 HD
HETATM    9  N4  UNL     1      10.224 -15.670   2.820  1.00  0.00    -0.075 N 
HETATM   10  C11 UNL     1       9.930 -15.149   1.555  1.00  0.00     0.204 C 
HETATM   11  N5  UNL     1       9.661 -14.737   0.499  1.00  0.00    -0.171 NA
ENDROOT
BRANCH   1  12
HETATM   12  C4  UNL     1      12.059 -17.366   2.313  1.00  0.00     0.127 A 
HETATM   13  O3  UNL     1      13.254 -16.917   2.114  1.00  0.00    -0.284 OA
HETATM   14  C3  UNL     1      14.096 -17.508   1.382  1.00  0.00     0.192 A 
HETATM   15  S1  UNL     1      13.232 -18.871   0.847  1.00  0.00    -0.043 SA
HETATM   16  C12 UNL     1      11.739 -18.535   1.677  1.00  0.00     0.077 A 
BRANCH  14  17
HETATM   17  N1  UNL     1      15.337 -17.178   1.087  1.00  0.00    -0.316 N 
ATOM     18  H1  UNL     1      15.687 -17.319   0.139  1.00  0.00     0.167 HD
BRANCH  17  19
HETATM   19  C2  UNL     1      16.205 -16.617   2.098  1.00  0.00     0.369 C 
BRANCH  19  20
HETATM   20  O1  UNL     1      17.393 -17.347   2.099  1.00  0.00    -0.349 OA
HETATM   21  C1  UNL     1      18.170 -16.965   3.165  1.00  0.00     0.206 C 
ENDBRANCH  19  20
BRANCH  19  22
HETATM   22  O2  UNL     1      15.640 -16.594   3.356  1.00  0.00    -0.355 OA
ATOM     23  H2  UNL     1      15.842 -15.782   3.805  1.00  0.00     0.214 HD
ENDBRANCH  19  22
ENDBRANCH  17  19
ENDBRANCH  14  17
BRANCH  16  24
HETATM   24  C13 UNL     1      10.474 -19.330   1.598  1.00  0.00     0.298 C 
BRANCH  24  25
HETATM   25  O9  UNL     1      10.550 -20.393   0.721  1.00  0.00    -0.367 OA
ATOM     26  H9  UNL     1       9.966 -21.108   0.944  1.00  0.00     0.213 HD
ENDBRANCH  24  25
BRANCH  24  27
HETATM   27  O10 UNL     1      10.370 -19.961   2.887  1.00  0.00    -0.367 OA
ATOM     28  H10 UNL     1       9.448 -20.176   2.968  1.00  0.00     0.213 HD
ENDBRANCH  24  27
ENDBRANCH  16  24
ENDBRANCH   1  12
BRANCH   2  29
HETATM   29  C7  UNL     1      11.639 -17.667   5.435  1.00  0.00     0.316 C 
HETATM   30  O4  UNL     1      12.506 -17.342   6.253  1.00  0.00    -0.257 OA
BRANCH  29  31
HETATM   31  O5  UNL     1      11.362 -19.055   5.408  1.00  0.00    -0.274 OA
BRANCH  31  32
HETATM   32  C8  UNL     1      11.111 -19.789   6.592  1.00  0.00     0.369 C 
BRANCH  32  33
HETATM   33  O6  UNL     1      12.270 -20.332   7.133  1.00  0.00    -0.362 OA
ATOM     34  H6  UNL     1      12.093 -21.088   7.681  1.00  0.00     0.213 HD
ENDBRANCH  32  33
BRANCH  32  35
HETATM   35  C9  UNL     1      10.157 -20.876   6.256  1.00  0.00     0.231 C 
HETATM   36  O7  UNL     1       9.220 -20.664   5.446  1.00  0.00    -0.644 OA
HETATM   37  O8  UNL     1      10.283 -22.121   6.822  1.00  0.00    -0.644 OA
ENDBRANCH  32  35
ENDBRANCH  31  32
ENDBRANCH  29  31
ENDBRANCH   2  29
TORSDOF 13
ENDMDL
MODEL 2
REMARK VINA RESULT: -6.687652272      0.968      1.269
REMARK  13 active torsions:
REMARK  status: ('A' for Active; 'I' for Inactive)
REMARK    1  A    between atoms: O1_2  and  C2_3 
REMARK    2  A    between atoms: C2_3  and  O2_4 
REMARK    3  A    between atoms: C2_3  and  N1_6 
REMARK    4  A    between atoms: N1_6  and  C3_8 
REMARK    5  A    between atoms: C4_10  and  C5_11 
REMARK    6  A    between atoms: C6_12  and  C7_13 
REMARK    7  A    between atoms: C7_13  and  O5_15 
REMARK    8  A    between atoms: O5_15  and  C8_16 
REMARK    9  A    between atoms: C8_16  and  O6_17 
REMARK   10  A    between atoms: C8_16  and  C9_19 
REMARK   11  A    between atoms: C12_31  and  C13_32 
REMARK   12  A    between atoms: C13_32  and  O9_33 
REMARK   13  A    between atoms: C13_32  and  O10_35 
ROOT
HETATM    1  C5  UNL     1      10.897 -16.325   3.539  1.00  0.00     0.136 A 
HETATM    2  C6  UNL     1      10.919 -16.261   4.908  1.00  0.00     0.155 A 
HETATM    3  N2  UNL     1       9.849 -15.517   5.337  1.00  0.00    -0.182 N 
ATOM      4  H2  UNL     1       9.610 -15.301   6.305  1.00  0.00     0.184 HD
HETATM    5  C10 UNL     1       9.186 -15.133   4.263  1.00  0.00     0.693 A 
HETATM    6  N3  UNL     1       8.118 -14.410   4.300  1.00  0.00    -0.233 N 
ATOM      7  H31 UNL     1       7.605 -14.113   3.469  1.00  0.00     0.174 HD
ATOM      8  H32 UNL     1       7.643 -14.042   5.124  1.00  0.00     0.174 HD
HETATM    9  N4  UNL     1       9.820 -15.623   3.165  1.00  0.00    -0.075 N 
HETATM   10  C11 UNL     1       9.262 -15.416   1.898  1.00  0.00     0.204 C 
HETATM   11  N5  UNL     1       8.779 -15.267   0.848  1.00  0.00    -0.171 NA
ENDROOT
BRANCH   1  12
HETATM   12  C4  UNL     1      11.799 -17.150   2.661  1.00  0.00     0.127 A 
HETATM   13  O3  UNL     1      12.951 -16.674   2.322  1.00  0.00    -0.284 OA
HETATM   14  C3  UNL     1      13.762 -17.301   1.585  1.00  0.00     0.192 A 
HETATM   15  S1  UNL     1      12.928 -18.746   1.258  1.00  0.00    -0.043 SA
HETATM   16  C12 UNL     1      11.489 -18.391   2.171  1.00  0.00     0.077 A 
BRANCH  14  17
HETATM   17  N1  UNL     1      14.959 -16.950   1.158  1.00  0.00    -0.316 N 
ATOM     18  H1  UNL     1      15.189 -17.034   0.168  1.00  0.00     0.167 HD
BRANCH  17  19
HETATM   19  C2  UNL     1      15.948 -16.446   2.085  1.00  0.00     0.369 C 
BRANCH  19  20
HETATM   20  O1  UNL     1      17.120 -17.178   1.904  1.00  0.00    -0.349 OA
HETATM   21  C1  UNL     1      17.877 -17.131   3.049  1.00  0.00     0.206 C 
ENDBRANCH  19  20
BRANCH  19  22
HETATM   22  O2  UNL     1      15.538 -16.489   3.402  1.00  0.00    -0.355 OA
ATOM     23  H2  UNL     1      15.074 -17.297   3.586  1.00  0.00     0.214 HD
ENDBRANCH  19  22
ENDBRANCH  17  19
ENDBRANCH  14  17
BRANCH  16  24
HETATM   24  C13 UNL     1      10.264 -19.242   2.274  1.00  0.00     0.298 C 
BRANCH  24  25
HETATM   25  O9  UNL     1      10.204 -20.232   1.314  1.00  0.00    -0.367 OA
ATOM     26  H9  UNL     1       9.501 -20.106   0.688  1.00  0.00     0.213 HD
ENDBRANCH  24  25
BRANCH  24  27
HETATM   27  O10 UNL     1      10.439 -19.970   3.502  1.00  0.00    -0.367 OA
ATOM     28  H10 UNL     1      11.357 -20.218   3.498  1.00  0.00     0.213 HD
ENDBRANCH  24  27
ENDBRANCH  16  24
ENDBRANCH   1  12
BRANCH   2  29
HETATM   29  C7  UNL     1      11.901 -16.849   5.810  1.00  0.00     0.316 C 
HETATM   30  O4  UNL     1      13.121 -16.920   5.626  1.00  0.00    -0.257 OA
BRANCH  29  31
HETATM   31  O5  UNL     1      11.467 -17.408   7.035  1.00  0.00    -0.274 OA
BRANCH  31  32
HETATM   32  C8  UNL     1      10.393 -18.329   7.095  1.00  0.00     0.369 C 
BRANCH  32  33
HETATM   33  O6  UNL     1       9.698 -18.251   8.297  1.00  0.00    -0.362 OA
ATOM     34  H6  UNL     1       8.772 -18.438   8.191  1.00  0.00     0.213 HD
ENDBRANCH  32  33
BRANCH  32  35
HETATM   35  C9  UNL     1      10.957 -19.692   6.931  1.00  0.00     0.231 C 
HETATM   36  O7  UNL     1      12.100 -19.960   7.381  1.00  0.00    -0.644 OA
HETATM   37  O8  UNL     1      10.244 -20.675   6.288  1.00  0.00    -0.644 OA
ENDBRANCH  32  35
ENDBRANCH  31  32
ENDBRANCH  29  31
ENDBRANCH   2  29
TORSDOF 13
ENDMDL
MODEL 3
REMARK VINA RESULT: -6.649380651      2.429      5.090
REMARK  13 active torsions:
REMARK  status: ('A' for Active; 'I' for Inactive)
REMARK    1  A    between atoms: O1_2  and  C2_3 
REMARK    2  A    between atoms: C2_3  and  O2_4 
REMARK    3  A    between atoms: C2_3  and  N1_6 
REMARK    4  A    between atoms: N1_6  and  C3_8 
REMARK    5  A    between atoms: C4_10  and  C5_11 
REMARK    6  A    between atoms: C6_12  and  C7_13 
REMARK    7  A    between atoms: C7_13  and  O5_15 
REMARK    8  A    between atoms: O5_15  and  C8_16 
REMARK    9  A    between atoms: C8_16  and  O6_17 
REMARK   10  A    between atoms: C8_16  and  C9_19 
REMARK   11  A    between atoms: C12_31  and  C13_32 
REMARK   12  A    between atoms: C13_32  and  O9_33 
REMARK   13  A    between atoms: C13_32  and  O10_35 
ROOT
HETATM    1  C5  UNL     1      10.449 -17.641   2.518  1.00  0.00     0.136 A 
HETATM    2  C6  UNL     1      10.454 -17.905   3.863  1.00  0.00     0.155 A 
HETATM    3  N2  UNL     1      10.121 -16.761   4.543  1.00  0.00    -0.182 N 
ATOM      4  H2  UNL     1      10.045 -16.659   5.555  1.00  0.00     0.184 HD
HETATM    5  C10 UNL     1       9.918 -15.818   3.644  1.00  0.00     0.693 A 
HETATM    6  N3  UNL     1       9.588 -14.606   3.938  1.00  0.00    -0.233 N 
ATOM      7  H31 UNL     1       9.430 -13.877   3.242  1.00  0.00     0.174 HD
ATOM      8  H32 UNL     1       9.440 -14.208   4.866  1.00  0.00     0.174 HD
HETATM    9  N4  UNL     1      10.115 -16.349   2.408  1.00  0.00    -0.075 N 
HETATM   10  C11 UNL     1       9.882 -15.561   1.275  1.00  0.00     0.204 C 
HETATM   11  N5  UNL     1       9.657 -14.911   0.335  1.00  0.00    -0.171 NA
ENDROOT
BRANCH   1  12
HETATM   12  C4  UNL     1      10.619 -18.637   1.403  1.00  0.00     0.127 A 
HETATM   13  O3  UNL     1       9.574 -19.229   0.926  1.00  0.00    -0.284 OA
HETATM   14  C3  UNL     1       9.633 -20.081  -0.004  1.00  0.00     0.192 A 
HETATM   15  S1  UNL     1      11.299 -20.152  -0.340  1.00  0.00    -0.043 SA
HETATM   16  C12 UNL     1      11.820 -18.986   0.844  1.00  0.00     0.077 A 
BRANCH  14  17
HETATM   17  N1  UNL     1       8.667 -20.760  -0.588  1.00  0.00    -0.316 N 
ATOM     18  H1  UNL     1       8.484 -20.628  -1.583  1.00  0.00     0.167 HD
BRANCH  17  19
HETATM   19  C2  UNL     1       7.864 -21.692   0.172  1.00  0.00     0.369 C 
BRANCH  19  20
HETATM   20  O1  UNL     1       6.652 -21.072   0.471  1.00  0.00    -0.349 OA
HETATM   21  C1  UNL     1       5.651 -22.010   0.517  1.00  0.00     0.206 C 
ENDBRANCH  19  20
BRANCH  19  22
HETATM   22  O2  UNL     1       8.484 -22.142   1.319  1.00  0.00    -0.355 OA
ATOM     23  H2  UNL     1       9.399 -21.886   1.333  1.00  0.00     0.214 HD
ENDBRANCH  19  22
ENDBRANCH  17  19
ENDBRANCH  14  17
BRANCH  16  24
HETATM   24  C13 UNL     1      13.230 -18.590   1.146  1.00  0.00     0.298 C 
BRANCH  24  25
HETATM   25  O9  UNL     1      13.750 -19.224   2.256  1.00  0.00    -0.367 OA
ATOM     26  H9  UNL     1      14.687 -19.103   2.354  1.00  0.00     0.213 HD
ENDBRANCH  24  25
BRANCH  24  27
HETATM   27  O10 UNL     1      13.993 -19.134   0.055  1.00  0.00    -0.367 OA
ATOM     28  H10 UNL     1      13.832 -18.535  -0.665  1.00  0.00     0.213 HD
ENDBRANCH  24  27
ENDBRANCH  16  24
ENDBRANCH   1  12
BRANCH   2  29
HETATM   29  C7  UNL     1      10.771 -19.167   4.519  1.00  0.00     0.316 C 
HETATM   30  O4  UNL     1      10.219 -20.256   4.329  1.00  0.00    -0.257 OA
BRANCH  29  31
HETATM   31  O5  UNL     1      11.808 -19.205   5.480  1.00  0.00    -0.274 OA
BRANCH  31  32
HETATM   32  C8  UNL     1      11.559 -19.536   6.834  1.00  0.00     0.369 C 
BRANCH  32  33
HETATM   33  O6  UNL     1      10.696 -20.619   6.962  1.00  0.00    -0.362 OA
ATOM     34  H6  UNL     1       9.790 -20.378   6.808  1.00  0.00     0.213 HD
ENDBRANCH  32  33
BRANCH  32  35
HETATM   35  C9  UNL     1      10.968 -18.344   7.491  1.00  0.00     0.231 C 
HETATM   36  O7  UNL     1      11.715 -17.467   7.996  1.00  0.00    -0.644 OA
HETATM   37  O8  UNL     1       9.606 -18.180   7.556  1.00  0.00    -0.644 OA
ENDBRANCH  32  35
ENDBRANCH  31  32
ENDBRANCH  29  31
ENDBRANCH   2  29
TORSDOF 13
ENDMDL
MODEL 4
REMARK VINA RESULT: -6.544115468      2.461      4.936
REMARK  13 active torsions:
REMARK  status: ('A' for Active; 'I' for Inactive)
REMARK    1  A    between atoms: O1_2  and  C2_3 
REMARK    2  A    between atoms: C2_3  and  O2_4 
REMARK    3  A    between atoms: C2_3  and  N1_6 
REMARK    4  A    between atoms: N1_6  and  C3_8 
REMARK    5  A    between atoms: C4_10  and  C5_11 
REMARK    6  A    between atoms: C6_12  and  C7_13 
REMARK    7  A    between atoms: C7_13  and  O5_15 
REMARK    8  A    between atoms: O5_15  and  C8_16 
REMARK    9  A    between atoms: C8_16  and  O6_17 
REMARK   10  A    between atoms: C8_16  and  C9_19 
REMARK   11  A    between atoms: C12_31  and  C13_32 
REMARK   12  A    between atoms: C13_32  and  O9_33 
REMARK   13  A    between atoms: C13_32  and  O10_35 
ROOT
HETATM    1  C5  UNL     1      10.561 -17.829   2.475  1.00  0.00     0.136 A 
HETATM    2  C6  UNL     1      10.563 -17.996   3.836  1.00  0.00     0.155 A 
HETATM    3  N2  UNL     1      10.335 -16.782   4.434  1.00  0.00    -0.182 N 
ATOM      4  H2  UNL     1      10.282 -16.601   5.436  1.00  0.00     0.184 HD
HETATM    5  C10 UNL     1      10.197 -15.893   3.469  1.00  0.00     0.693 A 
HETATM    6  N3  UNL     1       9.973 -14.639   3.677  1.00  0.00    -0.233 N 
ATOM      7  H31 UNL     1       9.866 -13.951   2.931  1.00  0.00     0.174 HD
ATOM      8  H32 UNL     1       9.871 -14.164   4.574  1.00  0.00     0.174 HD
HETATM    9  N4  UNL     1      10.333 -16.526   2.274  1.00  0.00    -0.075 N 
HETATM   10  C11 UNL     1      10.150 -15.805   1.088  1.00  0.00     0.204 C 
HETATM   11  N5  UNL     1       9.967 -15.208   0.105  1.00  0.00    -0.171 NA
ENDROOT
BRANCH   1  12
HETATM   12  C4  UNL     1      10.633 -18.915   1.435  1.00  0.00     0.127 A 
HETATM   13  O3  UNL     1       9.582 -19.629   1.200  1.00  0.00    -0.284 OA
HETATM   14  C3  UNL     1       9.563 -20.561   0.349  1.00  0.00     0.192 A 
HETATM   15  S1  UNL     1      11.147 -20.537  -0.267  1.00  0.00    -0.043 SA
HETATM   16  C12 UNL     1      11.750 -19.223   0.705  1.00  0.00     0.077 A 
BRANCH  14  17
HETATM   17  N1  UNL     1       8.579 -21.366   0.002  1.00  0.00    -0.316 N 
ATOM     18  H1  UNL     1       7.917 -21.077  -0.718  1.00  0.00     0.167 HD
BRANCH  17  19
HETATM   19  C2  UNL     1       8.432 -22.658   0.636  1.00  0.00     0.369 C 
BRANCH  19  20
HETATM   20  O1  UNL     1       8.278 -22.449   2.006  1.00  0.00    -0.349 OA
HETATM   21  C1  UNL     1       8.012 -23.644   2.629  1.00  0.00     0.206 C 
ENDBRANCH  19  20
BRANCH  19  22
HETATM   22  O2  UNL     1       9.481 -23.516   0.383  1.00  0.00    -0.355 OA
ATOM     23  H2  UNL     1       9.494 -23.776  -0.531  1.00  0.00     0.214 HD
ENDBRANCH  19  22
ENDBRANCH  17  19
ENDBRANCH  14  17
BRANCH  16  24
HETATM   24  C13 UNL     1      13.148 -18.693   0.721  1.00  0.00     0.298 C 
BRANCH  24  25
HETATM   25  O9  UNL     1      13.790 -18.881   1.927  1.00  0.00    -0.367 OA
ATOM     26  H9  UNL     1      13.957 -18.071   2.395  1.00  0.00     0.213 HD
ENDBRANCH  24  25
BRANCH  24  27
HETATM   27  O10 UNL     1      13.864 -19.552  -0.183  1.00  0.00    -0.367 OA
ATOM     28  H10 UNL     1      14.545 -18.997  -0.544  1.00  0.00     0.213 HD
ENDBRANCH  24  27
ENDBRANCH  16  24
ENDBRANCH   1  12
BRANCH   2  29
HETATM   29  C7  UNL     1      10.783 -19.229   4.581  1.00  0.00     0.316 C 
HETATM   30  O4  UNL     1      10.131 -20.274   4.487  1.00  0.00    -0.257 OA
BRANCH  29  31
HETATM   31  O5  UNL     1      11.841 -19.290   5.519  1.00  0.00    -0.274 OA
BRANCH  31  32
HETATM   32  C8  UNL     1      11.611 -19.594   6.882  1.00  0.00     0.369 C 
BRANCH  32  33
HETATM   33  O6  UNL     1      10.836 -20.737   7.046  1.00  0.00    -0.362 OA
ATOM     34  H6  UNL     1      11.354 -21.489   7.308  1.00  0.00     0.213 HD
ENDBRANCH  32  33
BRANCH  32  35
HETATM   35  C9  UNL     1      10.923 -18.431   7.496  1.00  0.00     0.231 C 
HETATM   36  O7  UNL     1       9.672 -18.433   7.621  1.00  0.00    -0.644 OA
HETATM   37  O8  UNL     1      11.637 -17.342   7.933  1.00  0.00    -0.644 OA
ENDBRANCH  32  35
ENDBRANCH  31  32
ENDBRANCH  29  31
ENDBRANCH   2  29
TORSDOF 13
ENDMDL
MODEL 5
REMARK VINA RESULT: -6.438490078      4.062      6.414
REMARK  13 active torsions:
REMARK  status: ('A' for Active; 'I' for Inactive)
REMARK    1  A    between atoms: O1_2  and  C2_3 
REMARK    2  A    between atoms: C2_3  and  O2_4 
REMARK    3  A    between atoms: C2_3  and  N1_6 
REMARK    4  A    between atoms: N1_6  and  C3_8 
REMARK    5  A    between atoms: C4_10  and  C5_11 
REMARK    6  A    between atoms: C6_12  and  C7_13 
REMARK    7  A    between atoms: C7_13  and  O5_15 
REMARK    8  A    between atoms: O5_15  and  C8_16 
REMARK    9  A    between atoms: C8_16  and  O6_17 
REMARK   10  A    between atoms: C8_16  and  C9_19 
REMARK   11  A    between atoms: C12_31  and  C13_32 
REMARK   12  A    between atoms: C13_32  and  O9_33 
REMARK   13  A    between atoms: C13_32  and  O10_35 
ROOT
HETATM    1  C5  UNL     1       9.588 -15.568   3.856  1.00  0.00     0.136 A 
HETATM    2  C6  UNL     1      10.155 -16.393   4.792  1.00  0.00     0.155 A 
HETATM    3  N2  UNL     1      11.164 -17.111   4.200  1.00  0.00    -0.182 N 
ATOM      4  H2  UNL     1      11.762 -17.802   4.653  1.00  0.00     0.184 HD
HETATM    5  C10 UNL     1      11.216 -16.739   2.935  1.00  0.00     0.693 A 
HETATM    6  N3  UNL     1      12.056 -17.220   2.081  1.00  0.00    -0.233 N 
ATOM      7  H31 UNL     1      12.096 -16.932   1.103  1.00  0.00     0.174 HD
ATOM      8  H32 UNL     1      12.774 -17.926   2.243  1.00  0.00     0.174 HD
HETATM    9  N4  UNL     1      10.259 -15.798   2.720  1.00  0.00    -0.075 N 
HETATM   10  C11 UNL     1      10.164 -15.187   1.465  1.00  0.00     0.204 C 
HETATM   11  N5  UNL     1      10.108 -14.659   0.428  1.00  0.00    -0.171 NA
ENDROOT
BRANCH   1  12
HETATM   12  C4  UNL     1       8.545 -14.510   4.101  1.00  0.00     0.127 A 
HETATM   13  O3  UNL     1       8.687 -13.712   5.107  1.00  0.00    -0.284 OA
HETATM   14  C3  UNL     1       7.855 -12.804   5.384  1.00  0.00     0.192 A 
HETATM   15  S1  UNL     1       6.686 -12.984   4.163  1.00  0.00    -0.043 SA
HETATM   16  C12 UNL     1       7.427 -14.324   3.334  1.00  0.00     0.077 A 
BRANCH  14  17
HETATM   17  N1  UNL     1       7.863 -11.923   6.364  1.00  0.00    -0.316 N 
ATOM     18  H1  UNL     1       8.230 -10.985   6.200  1.00  0.00     0.167 HD
BRANCH  17  19
HETATM   19  C2  UNL     1       7.353 -12.277   7.671  1.00  0.00     0.369 C 
BRANCH  19  20
HETATM   20  O1  UNL     1       7.685 -11.250   8.554  1.00  0.00    -0.349 OA
HETATM   21  C1  UNL     1       7.365 -10.037   7.995  1.00  0.00     0.206 C 
ENDBRANCH  19  20
BRANCH  19  22
HETATM   22  O2  UNL     1       7.818 -13.491   8.130  1.00  0.00    -0.355 OA
ATOM     23  H2  UNL     1       8.752 -13.456   8.297  1.00  0.00     0.214 HD
ENDBRANCH  19  22
ENDBRANCH  17  19
ENDBRANCH  14  17
BRANCH  16  24
HETATM   24  C13 UNL     1       6.877 -15.057   2.152  1.00  0.00     0.298 C 
BRANCH  24  25
HETATM   25  O9  UNL     1       5.510 -15.235   2.206  1.00  0.00    -0.367 OA
ATOM     26  H9  UNL     1       5.173 -15.783   1.507  1.00  0.00     0.213 HD
ENDBRANCH  24  25
BRANCH  24  27
HETATM   27  O10 UNL     1       7.057 -14.146   1.053  1.00  0.00    -0.367 OA
ATOM     28  H10 UNL     1       8.000 -14.066   0.968  1.00  0.00     0.213 HD
ENDBRANCH  24  27
ENDBRANCH  16  24
ENDBRANCH   1  12
BRANCH   2  29
HETATM   29  C7  UNL     1       9.780 -16.540   6.192  1.00  0.00     0.316 C 
HETATM   30  O4  UNL     1       9.468 -15.633   6.971  1.00  0.00    -0.257 OA
BRANCH  29  31
HETATM   31  O5  UNL     1       9.751 -17.832   6.768  1.00  0.00    -0.274 OA
BRANCH  31  32
HETATM   32  C8  UNL     1      10.770 -18.281   7.643  1.00  0.00     0.369 C 
BRANCH  32  33
HETATM   33  O6  UNL     1      11.652 -17.264   7.993  1.00  0.00    -0.362 OA
ATOM     34  H6  UNL     1      12.503 -17.598   8.252  1.00  0.00     0.213 HD
ENDBRANCH  32  33
BRANCH  32  35
HETATM   35  C9  UNL     1      11.509 -19.370   6.956  1.00  0.00     0.231 C 
HETATM   36  O7  UNL     1      12.337 -19.095   6.050  1.00  0.00    -0.644 OA
HETATM   37  O8  UNL     1      11.302 -20.684   7.296  1.00  0.00    -0.644 OA
ENDBRANCH  32  35
ENDBRANCH  31  32
ENDBRANCH  29  31
ENDBRANCH   2  29
TORSDOF 13
ENDMDL
