MODEL 1
REMARK VINA RESULT: -8.253375041      0.000      0.000
REMARK  10 active torsions:
REMARK  status: ('A' for Active; 'I' for Inactive)
REMARK    1  A    between atoms: C2_2  and  C3_3 
REMARK    2  A    between atoms: C2_2  and  N9_33 
REMARK    3  A    between atoms: C3_3  and  N1_4 
REMARK    4  A    between atoms: N1_4  and  C4_6 
REMARK    5  A    between atoms: C4_6  and  C5_12 
REMARK    6  A    between atoms: N2_7  and  N3_9 
REMARK    7  A    between atoms: C6_14  and  O2_15 
REMARK    8  A    between atoms: C10_22  and  C11_23 
REMARK       I    between atoms: C11_23  and  N6_25 
REMARK    9  A    between atoms: N6_25  and  N7_27 
REMARK   10  A    between atoms: C13_38  and  N12_39 
ROOT
HETATM    1  C4  UNL     1       7.745 -12.393   6.644  1.00  0.00     0.152 C 
HETATM    2  N2  UNL     1       7.799 -13.139   7.687  1.00  0.00    -0.290 N 
ATOM      3  H2  UNL     1       7.874 -12.712   8.611  1.00  0.00     0.188 HD
ENDROOT
BRANCH   1   4
HETATM    4  N1  UNL     1       7.789 -10.986   6.807  1.00  0.00    -0.371 N 
ATOM      5  H1  UNL     1       8.480 -10.496   6.240  1.00  0.00     0.161 HD
BRANCH   4   6
HETATM    6  C3  UNL     1       7.002 -10.173   7.655  1.00  0.00     0.150 C 
BRANCH   6   7
HETATM    7  C2  UNL     1       7.693  -9.246   8.578  1.00  0.00     0.143 C 
HETATM    8  C1  UNL     1       7.321  -9.486  10.010  1.00  0.00     0.038 C 
BRANCH   7   9
HETATM    9  N9  UNL     1       7.244  -7.884   8.239  1.00  0.00    -0.199 N 
HETATM   10  N10 UNL     1       6.902  -6.907   9.062  1.00  0.00    -0.211 N 
HETATM   11  N11 UNL     1       6.558  -5.836   8.392  1.00  0.00    -0.115 N 
ATOM     12  H10 UNL     1       6.904  -6.979  10.080  1.00  0.00     0.210 HD
HETATM   13  C13 UNL     1       6.681  -6.124   7.084  1.00  0.00     0.711 A 
ATOM     14  H11 UNL     1       6.254  -4.947   8.789  1.00  0.00     0.207 HD
HETATM   15  N13 UNL     1       7.106  -7.391   7.009  1.00  0.00    -0.113 N 
ATOM     16  H13 UNL     1       7.294  -7.901   6.146  1.00  0.00     0.207 HD
BRANCH  13  17
HETATM   17  N12 UNL     1       6.401  -5.216   6.011  1.00  0.00    -0.224 N 
HETATM   18  C14 UNL     1       7.187  -4.025   5.826  1.00  0.00     0.168 C 
HETATM   19  C15 UNL     1       5.293  -5.538   5.110  1.00  0.00     0.168 C 
ENDBRANCH  13  17
ENDBRANCH   7   9
ENDBRANCH   6   7
ENDBRANCH   4   6
ENDBRANCH   1   4
BRANCH   1  20
HETATM   20  C5  UNL     1       7.648 -13.035   5.343  1.00  0.00     0.150 A 
HETATM   21  O1  UNL     1       8.457 -13.988   5.025  1.00  0.00    -0.280 OA
HETATM   22  C6  UNL     1       8.467 -14.632   3.902  1.00  0.00     0.209 A 
HETATM   23  C7  UNL     1       7.526 -14.276   2.938  1.00  0.00     0.119 A 
HETATM   24  N4  UNL     1       7.509 -14.952   1.716  1.00  0.00    -0.096 NA
HETATM   25  C8  UNL     1       6.608 -13.268   3.169  1.00  0.00     0.049 A 
HETATM   26  C9  UNL     1       5.577 -12.675   2.474  1.00  0.00     0.093 A 
HETATM   27  C12 UNL     1       6.685 -12.607   4.470  1.00  0.00     0.085 A 
HETATM   28  N5  UNL     1       5.205 -13.061   1.159  1.00  0.00    -0.099 NA
HETATM   29  C10 UNL     1       5.046 -11.703   3.296  1.00  0.00     0.128 A 
HETATM   30  N8  UNL     1       5.715 -11.681   4.468  1.00  0.00    -0.347 N 
ATOM     31  H8  UNL     1       5.512 -11.049   5.243  1.00  0.00     0.166 HD
BRANCH  22  32
HETATM   32  O2  UNL     1       9.382 -15.645   3.656  1.00  0.00    -0.339 OA
ATOM     33  H2  UNL     1       9.690 -16.216   4.351  1.00  0.00     0.220 HD
ENDBRANCH  22  32
BRANCH  29  34
HETATM   34  C11 UNL     1       3.927 -10.856   2.900  1.00  0.00     0.288 C 
HETATM   35  O3  UNL     1       2.790 -11.327   2.652  1.00  0.00    -0.264 OA
HETATM   36  N6  UNL     1       4.067  -9.437   2.775  1.00  0.00    -0.271 N 
ATOM     37  H6  UNL     1       4.979  -9.022   2.970  1.00  0.00     0.189 HD
BRANCH  36  38
HETATM   38  N7  UNL     1       3.035  -8.601   2.403  1.00  0.00    -0.342 N 
ATOM     39  H72 UNL     1       2.410  -8.276   3.141  1.00  0.00     0.176 HD
ATOM     40  H71 UNL     1       2.873  -8.301   1.442  1.00  0.00     0.176 HD
ENDBRANCH  36  38
ENDBRANCH  29  34
ENDBRANCH   1  20
BRANCH   2  41
HETATM   41  N3  UNL     1       7.757 -14.520   7.571  1.00  0.00    -0.344 N 
ATOM     42  H32 UNL     1       7.636 -14.930   6.645  1.00  0.00     0.176 HD
ATOM     43  H31 UNL     1       7.846 -15.114   8.395  1.00  0.00     0.176 HD
ENDBRANCH   2  41
TORSDOF 10
ENDMDL
MODEL 2
REMARK VINA RESULT: -8.114070747      1.527      1.864
REMARK  10 active torsions:
REMARK  status: ('A' for Active; 'I' for Inactive)
REMARK    1  A    between atoms: C2_2  and  C3_3 
REMARK    2  A    between atoms: C2_2  and  N9_33 
REMARK    3  A    between atoms: C3_3  and  N1_4 
REMARK    4  A    between atoms: N1_4  and  C4_6 
REMARK    5  A    between atoms: C4_6  and  C5_12 
REMARK    6  A    between atoms: N2_7  and  N3_9 
REMARK    7  A    between atoms: C6_14  and  O2_15 
REMARK    8  A    between atoms: C10_22  and  C11_23 
REMARK       I    between atoms: C11_23  and  N6_25 
REMARK    9  A    between atoms: N6_25  and  N7_27 
REMARK   10  A    between atoms: C13_38  and  N12_39 
ROOT
HETATM    1  C4  UNL     1       7.552 -12.717   6.265  1.00  0.00     0.152 C 
HETATM    2  N2  UNL     1       7.790 -13.784   6.940  1.00  0.00    -0.290 N 
ATOM      3  H2  UNL     1       8.192 -13.711   7.875  1.00  0.00     0.188 HD
ENDROOT
BRANCH   1   4
HETATM    4  N1  UNL     1       7.858 -11.461   6.844  1.00  0.00    -0.371 N 
ATOM      5  H1  UNL     1       8.668 -10.980   6.456  1.00  0.00     0.161 HD
BRANCH   4   6
HETATM    6  C3  UNL     1       7.186 -10.787   7.890  1.00  0.00     0.150 C 
BRANCH   6   7
HETATM    7  C2  UNL     1       7.741  -9.500   8.365  1.00  0.00     0.143 C 
HETATM    8  C1  UNL     1       7.564  -9.313   9.841  1.00  0.00     0.038 C 
BRANCH   7   9
HETATM    9  N9  UNL     1       6.976  -8.429   7.701  1.00  0.00    -0.199 N 
HETATM   10  N10 UNL     1       5.858  -8.535   7.004  1.00  0.00    -0.211 N 
HETATM   11  N11 UNL     1       5.472  -7.362   6.567  1.00  0.00    -0.115 N 
ATOM     12  H10 UNL     1       5.363  -9.410   6.830  1.00  0.00     0.210 HD
HETATM   13  C13 UNL     1       6.372  -6.458   6.995  1.00  0.00     0.711 A 
ATOM     14  H11 UNL     1       4.642  -7.170   6.006  1.00  0.00     0.207 HD
HETATM   15  N13 UNL     1       7.292  -7.135   7.693  1.00  0.00    -0.113 N 
ATOM     16  H13 UNL     1       8.107  -6.724   8.147  1.00  0.00     0.207 HD
BRANCH  13  17
HETATM   17  N12 UNL     1       6.315  -5.050   6.730  1.00  0.00    -0.224 N 
HETATM   18  C14 UNL     1       6.893  -4.499   5.534  1.00  0.00     0.168 C 
HETATM   19  C15 UNL     1       5.650  -4.193   7.713  1.00  0.00     0.168 C 
ENDBRANCH  13  17
ENDBRANCH   7   9
ENDBRANCH   6   7
ENDBRANCH   4   6
ENDBRANCH   1   4
BRANCH   1  20
HETATM   20  C5  UNL     1       6.988 -12.858   4.933  1.00  0.00     0.150 A 
HETATM   21  O1  UNL     1       7.407 -13.787   4.142  1.00  0.00    -0.280 OA
HETATM   22  C6  UNL     1       6.983 -14.009   2.939  1.00  0.00     0.209 A 
HETATM   23  C7  UNL     1       5.981 -13.179   2.438  1.00  0.00     0.119 A 
HETATM   24  N4  UNL     1       5.499 -13.392   1.144  1.00  0.00    -0.096 NA
HETATM   25  C8  UNL     1       5.455 -12.150   3.198  1.00  0.00     0.049 A 
HETATM   26  C9  UNL     1       4.498 -11.173   3.032  1.00  0.00     0.093 A 
HETATM   27  C12 UNL     1       6.007 -11.988   4.541  1.00  0.00     0.085 A 
HETATM   28  N5  UNL     1       3.744 -11.020   1.839  1.00  0.00    -0.099 NA
HETATM   29  C10 UNL     1       4.458 -10.448   4.205  1.00  0.00     0.128 A 
HETATM   30  N8  UNL     1       5.357 -10.947   5.081  1.00  0.00    -0.347 N 
ATOM     31  H8  UNL     1       5.519 -10.583   6.020  1.00  0.00     0.166 HD
BRANCH  22  32
HETATM   32  O2  UNL     1       7.500 -15.037   2.166  1.00  0.00    -0.339 OA
ATOM     33  H2  UNL     1       7.185 -15.929   2.252  1.00  0.00     0.220 HD
ENDBRANCH  22  32
BRANCH  29  34
HETATM   34  C11 UNL     1       3.557  -9.320   4.408  1.00  0.00     0.288 C 
HETATM   35  O3  UNL     1       3.778  -8.192   3.903  1.00  0.00    -0.264 OA
HETATM   36  N6  UNL     1       2.368  -9.441   5.197  1.00  0.00    -0.271 N 
ATOM     37  H6  UNL     1       2.160 -10.345   5.621  1.00  0.00     0.189 HD
BRANCH  36  38
HETATM   38  N7  UNL     1       1.490  -8.399   5.413  1.00  0.00    -0.342 N 
ATOM     39  H72 UNL     1       1.772  -7.476   5.082  1.00  0.00     0.176 HD
ATOM     40  H71 UNL     1       0.590  -8.510   5.880  1.00  0.00     0.176 HD
ENDBRANCH  36  38
ENDBRANCH  29  34
ENDBRANCH   1  20
BRANCH   2  41
HETATM   41  N3  UNL     1       7.504 -15.033   6.410  1.00  0.00    -0.344 N 
ATOM     42  H32 UNL     1       7.704 -15.205   5.426  1.00  0.00     0.176 HD
ATOM     43  H31 UNL     1       7.101 -15.765   6.995  1.00  0.00     0.176 HD
ENDBRANCH   2  41
TORSDOF 10
ENDMDL
MODEL 3
REMARK VINA RESULT: -8.016443668      1.876      2.333
REMARK  10 active torsions:
REMARK  status: ('A' for Active; 'I' for Inactive)
REMARK    1  A    between atoms: C2_2  and  C3_3 
REMARK    2  A    between atoms: C2_2  and  N9_33 
REMARK    3  A    between atoms: C3_3  and  N1_4 
REMARK    4  A    between atoms: N1_4  and  C4_6 
REMARK    5  A    between atoms: C4_6  and  C5_12 
REMARK    6  A    between atoms: N2_7  and  N3_9 
REMARK    7  A    between atoms: C6_14  and  O2_15 
REMARK    8  A    between atoms: C10_22  and  C11_23 
REMARK       I    between atoms: C11_23  and  N6_25 
REMARK    9  A    between atoms: N6_25  and  N7_27 
REMARK   10  A    between atoms: C13_38  and  N12_39 
ROOT
HETATM    1  C4  UNL     1       7.944 -12.543   7.017  1.00  0.00     0.152 C 
HETATM    2  N2  UNL     1       7.590 -12.967   8.176  1.00  0.00    -0.290 N 
ATOM      3  H2  UNL     1       7.168 -12.321   8.844  1.00  0.00     0.188 HD
ENDROOT
BRANCH   1   4
HETATM    4  N1  UNL     1       7.735 -11.179   6.697  1.00  0.00    -0.371 N 
ATOM      5  H1  UNL     1       8.199 -10.846   5.852  1.00  0.00     0.161 HD
BRANCH   4   6
HETATM    6  C3  UNL     1       6.968 -10.218   7.395  1.00  0.00     0.150 C 
BRANCH   6   7
HETATM    7  C2  UNL     1       7.650  -9.367   8.395  1.00  0.00     0.143 C 
HETATM    8  C1  UNL     1       7.243  -9.699   9.799  1.00  0.00     0.038 C 
BRANCH   7   9
HETATM    9  N9  UNL     1       7.229  -7.978   8.142  1.00  0.00    -0.199 N 
HETATM   10  N10 UNL     1       6.924  -7.042   9.024  1.00  0.00    -0.211 N 
HETATM   11  N11 UNL     1       6.595  -5.927   8.422  1.00  0.00    -0.115 N 
ATOM     12  H10 UNL     1       6.943  -7.170  10.036  1.00  0.00     0.210 HD
HETATM   13  C13 UNL     1       6.688  -6.143   7.097  1.00  0.00     0.711 A 
ATOM     14  H11 UNL     1       6.319  -5.055   8.873  1.00  0.00     0.207 HD
HETATM   15  N13 UNL     1       7.081  -7.414   6.944  1.00  0.00    -0.113 N 
ATOM     16  H13 UNL     1       7.241  -7.878   6.050  1.00  0.00     0.207 HD
BRANCH  13  17
HETATM   17  N12 UNL     1       6.411  -5.171   6.082  1.00  0.00    -0.224 N 
HETATM   18  C14 UNL     1       7.187  -3.963   5.984  1.00  0.00     0.168 C 
HETATM   19  C15 UNL     1       5.315  -5.443   5.150  1.00  0.00     0.168 C 
ENDBRANCH  13  17
ENDBRANCH   7   9
ENDBRANCH   6   7
ENDBRANCH   4   6
ENDBRANCH   1   4
BRANCH   1  20
HETATM   20  C5  UNL     1       8.551 -13.488   6.094  1.00  0.00     0.150 A 
HETATM   21  O1  UNL     1       9.609 -14.142   6.434  1.00  0.00    -0.280 OA
HETATM   22  C6  UNL     1      10.236 -15.006   5.701  1.00  0.00     0.209 A 
HETATM   23  C7  UNL     1       9.735 -15.264   4.426  1.00  0.00     0.119 A 
HETATM   24  N4  UNL     1      10.386 -16.192   3.610  1.00  0.00    -0.096 NA
HETATM   25  C8  UNL     1       8.605 -14.621   3.956  1.00  0.00     0.049 A 
HETATM   26  C9  UNL     1       7.859 -14.628   2.797  1.00  0.00     0.093 A 
HETATM   27  C12 UNL     1       7.976 -13.665   4.865  1.00  0.00     0.085 A 
HETATM   28  N5  UNL     1       8.172 -15.443   1.678  1.00  0.00    -0.099 NA
HETATM   29  C10 UNL     1       6.828 -13.730   2.978  1.00  0.00     0.128 A 
HETATM   30  N8  UNL     1       6.917 -13.174   4.206  1.00  0.00    -0.347 N 
ATOM     31  H8  UNL     1       6.271 -12.478   4.579  1.00  0.00     0.166 HD
BRANCH  22  32
HETATM   32  O2  UNL     1      11.370 -15.658   6.159  1.00  0.00    -0.339 OA
ATOM     33  H2  UNL     1      12.092 -15.869   5.577  1.00  0.00     0.220 HD
ENDBRANCH  22  32
BRANCH  29  34
HETATM   34  C11 UNL     1       5.822 -13.463   1.957  1.00  0.00     0.288 C 
HETATM   35  O3  UNL     1       4.650 -13.121   2.251  1.00  0.00    -0.264 OA
HETATM   36  N6  UNL     1       6.120 -13.574   0.562  1.00  0.00    -0.271 N 
ATOM     37  H6  UNL     1       7.065 -13.848   0.290  1.00  0.00     0.189 HD
BRANCH  36  38
HETATM   38  N7  UNL     1       5.198 -13.330  -0.435  1.00  0.00    -0.342 N 
ATOM     39  H72 UNL     1       5.026 -12.356  -0.682  1.00  0.00     0.176 HD
ATOM     40  H71 UNL     1       4.690 -14.068  -0.924  1.00  0.00     0.176 HD
ENDBRANCH  36  38
ENDBRANCH  29  34
ENDBRANCH   1  20
BRANCH   2  41
HETATM   41  N3  UNL     1       7.776 -14.295   8.529  1.00  0.00    -0.344 N 
ATOM     42  H32 UNL     1       7.779 -15.001   7.793  1.00  0.00     0.176 HD
ATOM     43  H31 UNL     1       7.906 -14.560   9.505  1.00  0.00     0.176 HD
ENDBRANCH   2  41
TORSDOF 10
ENDMDL
MODEL 4
REMARK VINA RESULT: -7.928256675      3.652      6.574
REMARK  10 active torsions:
REMARK  status: ('A' for Active; 'I' for Inactive)
REMARK    1  A    between atoms: C2_2  and  C3_3 
REMARK    2  A    between atoms: C2_2  and  N9_33 
REMARK    3  A    between atoms: C3_3  and  N1_4 
REMARK    4  A    between atoms: N1_4  and  C4_6 
REMARK    5  A    between atoms: C4_6  and  C5_12 
REMARK    6  A    between atoms: N2_7  and  N3_9 
REMARK    7  A    between atoms: C6_14  and  O2_15 
REMARK    8  A    between atoms: C10_22  and  C11_23 
REMARK       I    between atoms: C11_23  and  N6_25 
REMARK    9  A    between atoms: N6_25  and  N7_27 
REMARK   10  A    between atoms: C13_38  and  N12_39 
ROOT
HETATM    1  C4  UNL     1       9.156 -14.930   6.002  1.00  0.00     0.152 C 
HETATM    2  N2  UNL     1       9.704 -14.011   6.713  1.00  0.00    -0.290 N 
ATOM      3  H2  UNL     1       9.304 -13.073   6.722  1.00  0.00     0.188 HD
ENDROOT
BRANCH   1   4
HETATM    4  N1  UNL     1       8.001 -14.610   5.247  1.00  0.00    -0.371 N 
ATOM      5  H1  UNL     1       7.364 -15.384   5.063  1.00  0.00     0.161 HD
BRANCH   4   6
HETATM    6  C3  UNL     1       7.616 -13.359   4.713  1.00  0.00     0.150 C 
BRANCH   6   7
HETATM    7  C2  UNL     1       6.373 -12.733   5.218  1.00  0.00     0.143 C 
HETATM    8  C1  UNL     1       5.760 -11.797   4.221  1.00  0.00     0.038 C 
BRANCH   7   9
HETATM    9  N9  UNL     1       6.742 -11.927   6.395  1.00  0.00    -0.199 N 
HETATM   10  N10 UNL     1       7.215 -12.345   7.557  1.00  0.00    -0.211 N 
HETATM   11  N11 UNL     1       7.427 -11.334   8.361  1.00  0.00    -0.115 N 
ATOM     12  H10 UNL     1       7.390 -13.321   7.795  1.00  0.00     0.210 HD
HETATM   13  C13 UNL     1       7.081 -10.214   7.700  1.00  0.00     0.711 A 
ATOM     14  H11 UNL     1       7.789 -11.385   9.313  1.00  0.00     0.207 HD
HETATM   15  N13 UNL     1       6.661 -10.600   6.489  1.00  0.00    -0.113 N 
ATOM     16  H13 UNL     1       6.330  -9.977   5.752  1.00  0.00     0.207 HD
BRANCH  13  17
HETATM   17  N12 UNL     1       7.163  -8.885   8.230  1.00  0.00    -0.224 N 
HETATM   18  C14 UNL     1       6.985  -7.738   7.380  1.00  0.00     0.168 C 
HETATM   19  C15 UNL     1       7.431  -8.732   9.660  1.00  0.00     0.168 C 
ENDBRANCH  13  17
ENDBRANCH   7   9
ENDBRANCH   6   7
ENDBRANCH   4   6
ENDBRANCH   1   4
BRANCH   1  20
HETATM   20  C5  UNL     1       9.759 -16.253   6.004  1.00  0.00     0.150 A 
HETATM   21  O1  UNL     1       9.876 -16.913   7.105  1.00  0.00    -0.280 OA
HETATM   22  C6  UNL     1      10.393 -18.093   7.231  1.00  0.00     0.209 A 
HETATM   23  C7  UNL     1      10.870 -18.722   6.082  1.00  0.00     0.119 A 
HETATM   24  N4  UNL     1      11.433 -19.997   6.183  1.00  0.00    -0.096 NA
HETATM   25  C8  UNL     1      10.796 -18.108   4.846  1.00  0.00     0.049 A 
HETATM   26  C9  UNL     1      11.153 -18.419   3.552  1.00  0.00     0.093 A 
HETATM   27  C12 UNL     1      10.195 -16.777   4.818  1.00  0.00     0.085 A 
HETATM   28  N5  UNL     1      11.772 -19.645   3.191  1.00  0.00    -0.099 NA
HETATM   29  C10 UNL     1      10.793 -17.343   2.767  1.00  0.00     0.128 A 
HETATM   30  N8  UNL     1      10.230 -16.386   3.535  1.00  0.00    -0.347 N 
ATOM     31  H8  UNL     1       9.880 -15.492   3.189  1.00  0.00     0.166 HD
BRANCH  22  32
HETATM   32  O2  UNL     1      10.474 -18.721   8.465  1.00  0.00    -0.339 OA
ATOM     33  H2  UNL     1      11.174 -19.332   8.667  1.00  0.00     0.220 HD
ENDBRANCH  22  32
BRANCH  29  34
HETATM   34  C11 UNL     1      11.016 -17.304   1.327  1.00  0.00     0.288 C 
HETATM   35  O3  UNL     1      10.100 -17.012   0.519  1.00  0.00    -0.264 OA
HETATM   36  N6  UNL     1      12.296 -17.596   0.756  1.00  0.00    -0.271 N 
ATOM     37  H6  UNL     1      13.062 -17.835   1.386  1.00  0.00     0.189 HD
BRANCH  36  38
HETATM   38  N7  UNL     1      12.547 -17.570  -0.600  1.00  0.00    -0.342 N 
ATOM     39  H72 UNL     1      11.809 -17.209  -1.204  1.00  0.00     0.176 HD
ATOM     40  H71 UNL     1      13.422 -17.889  -1.015  1.00  0.00     0.176 HD
ENDBRANCH  36  38
ENDBRANCH  29  34
ENDBRANCH   1  20
BRANCH   2  41
HETATM   41  N3  UNL     1      10.835 -14.283   7.467  1.00  0.00    -0.344 N 
ATOM     42  H32 UNL     1      11.744 -13.991   7.109  1.00  0.00     0.176 HD
ATOM     43  H31 UNL     1      10.759 -14.765   8.363  1.00  0.00     0.176 HD
ENDBRANCH   2  41
TORSDOF 10
ENDMDL
MODEL 5
REMARK VINA RESULT: -7.803262027      5.786     10.230
REMARK  10 active torsions:
REMARK  status: ('A' for Active; 'I' for Inactive)
REMARK    1  A    between atoms: C2_2  and  C3_3 
REMARK    2  A    between atoms: C2_2  and  N9_33 
REMARK    3  A    between atoms: C3_3  and  N1_4 
REMARK    4  A    between atoms: N1_4  and  C4_6 
REMARK    5  A    between atoms: C4_6  and  C5_12 
REMARK    6  A    between atoms: N2_7  and  N3_9 
REMARK    7  A    between atoms: C6_14  and  O2_15 
REMARK    8  A    between atoms: C10_22  and  C11_23 
REMARK       I    between atoms: C11_23  and  N6_25 
REMARK    9  A    between atoms: N6_25  and  N7_27 
REMARK   10  A    between atoms: C13_38  and  N12_39 
ROOT
HETATM    1  C4  UNL     1      10.796 -18.203   3.061  1.00  0.00     0.152 C 
HETATM    2  N2  UNL     1      10.411 -19.419   3.213  1.00  0.00    -0.290 N 
ATOM      3  H2  UNL     1      10.441 -20.061   2.421  1.00  0.00     0.188 HD
ENDROOT
BRANCH   1   4
HETATM    4  N1  UNL     1      11.259 -17.787   1.789  1.00  0.00    -0.371 N 
ATOM      5  H1  UNL     1      10.598 -17.897   1.020  1.00  0.00     0.161 HD
BRANCH   4   6
HETATM    6  C3  UNL     1      12.516 -17.240   1.444  1.00  0.00     0.150 C 
BRANCH   6   7
HETATM    7  C2  UNL     1      13.232 -17.805   0.279  1.00  0.00     0.143 C 
HETATM    8  C1  UNL     1      12.991 -19.276   0.121  1.00  0.00     0.038 C 
BRANCH   7   9
HETATM    9  N9  UNL     1      14.674 -17.631   0.531  1.00  0.00    -0.199 N 
HETATM   10  N10 UNL     1      15.683 -17.892  -0.281  1.00  0.00    -0.211 N 
HETATM   11  N11 UNL     1      16.825 -17.607   0.293  1.00  0.00    -0.115 N 
ATOM     12  H10 UNL     1      15.586 -18.265  -1.226  1.00  0.00     0.210 HD
HETATM   13  C13 UNL     1      16.551 -17.142   1.525  1.00  0.00     0.711 A 
ATOM     14  H11 UNL     1      17.752 -17.717  -0.119  1.00  0.00     0.207 HD
HETATM   15  N13 UNL     1      15.218 -17.164   1.654  1.00  0.00    -0.113 N 
ATOM     16  H13 UNL     1      14.701 -16.870   2.482  1.00  0.00     0.207 HD
BRANCH  13  17
HETATM   17  N12 UNL     1      17.529 -16.717   2.482  1.00  0.00    -0.224 N 
HETATM   18  C14 UNL     1      18.571 -17.608   2.919  1.00  0.00     0.168 C 
HETATM   19  C15 UNL     1      17.436 -15.351   2.999  1.00  0.00     0.168 C 
ENDBRANCH  13  17
ENDBRANCH   7   9
ENDBRANCH   6   7
ENDBRANCH   4   6
ENDBRANCH   1   4
BRANCH   1  20
HETATM   20  C5  UNL     1      10.730 -17.312   4.208  1.00  0.00     0.150 A 
HETATM   21  O1  UNL     1      11.486 -17.514   5.234  1.00  0.00    -0.280 OA
HETATM   22  C6  UNL     1      11.516 -16.793   6.309  1.00  0.00     0.209 A 
HETATM   23  C7  UNL     1      10.661 -15.694   6.380  1.00  0.00     0.119 A 
HETATM   24  N4  UNL     1      10.669 -14.894   7.525  1.00  0.00    -0.096 NA
HETATM   25  C8  UNL     1       9.807 -15.381   5.339  1.00  0.00     0.049 A 
HETATM   26  C9  UNL     1       8.864 -14.411   5.075  1.00  0.00     0.093 A 
HETATM   27  C12 UNL     1       9.854 -16.262   4.174  1.00  0.00     0.085 A 
HETATM   28  N5  UNL     1       8.543 -13.374   5.989  1.00  0.00    -0.099 NA
HETATM   29  C10 UNL     1       8.357 -14.676   3.820  1.00  0.00     0.128 A 
HETATM   30  N8  UNL     1       8.956 -15.773   3.307  1.00  0.00    -0.347 N 
ATOM     31  H8  UNL     1       8.753 -16.172   2.390  1.00  0.00     0.166 HD
BRANCH  22  32
HETATM   32  O2  UNL     1      12.367 -17.094   7.361  1.00  0.00    -0.339 OA
ATOM     33  H2  UNL     1      13.312 -17.084   7.254  1.00  0.00     0.220 HD
ENDBRANCH  22  32
BRANCH  29  34
HETATM   34  C11 UNL     1       7.327 -13.856   3.194  1.00  0.00     0.288 C 
HETATM   35  O3  UNL     1       6.995 -14.007   1.992  1.00  0.00    -0.264 OA
HETATM   36  N6  UNL     1       6.636 -12.834   3.920  1.00  0.00    -0.271 N 
ATOM     37  H6  UNL     1       6.881 -12.687   4.899  1.00  0.00     0.189 HD
BRANCH  36  38
HETATM   38  N7  UNL     1       5.655 -12.038   3.364  1.00  0.00    -0.342 N 
ATOM     39  H72 UNL     1       5.377 -11.208   3.888  1.00  0.00     0.176 HD
ATOM     40  H71 UNL     1       5.206 -12.240   2.471  1.00  0.00     0.176 HD
ENDBRANCH  36  38
ENDBRANCH  29  34
ENDBRANCH   1  20
BRANCH   2  41
HETATM   41  N3  UNL     1       9.953 -19.866   4.442  1.00  0.00    -0.344 N 
ATOM     42  H32 UNL     1       9.884 -20.871   4.603  1.00  0.00     0.176 HD
ATOM     43  H31 UNL     1       9.690 -19.203   5.172  1.00  0.00     0.176 HD
ENDBRANCH   2  41
TORSDOF 10
ENDMDL
