MODEL 1
REMARK VINA RESULT: -7.866032989      0.000      0.000
REMARK  10 active torsions:
REMARK  status: ('A' for Active; 'I' for Inactive)
REMARK    1  A    between atoms: C2_7  and  C3_8 
REMARK    2  A    between atoms: C4_13  and  O1_14 
REMARK    3  A    between atoms: O1_14  and  C5_15 
REMARK    4  A    between atoms: C9_21  and  N7_22 
REMARK    5  A    between atoms: N10_32  and  O3_34 
REMARK    6  A    between atoms: N11_36  and  C12_37 
REMARK    7  A    between atoms: C12_37  and  C13_38 
REMARK    8  A    between atoms: C13_38  and  O4_39 
REMARK    9  A    between atoms: C13_38  and  C14_41 
REMARK   10  A    between atoms: C14_41  and  O5_42 
ROOT
HETATM    1  C3  UNL     1       5.754  -7.856   6.401  1.00  0.00     0.173 A 
HETATM    2  N4  UNL     1       4.760  -8.286   5.569  1.00  0.00    -0.279 N 
ATOM      3  H4  UNL     1       4.098  -7.685   5.080  1.00  0.00     0.189 HD
HETATM    4  N5  UNL     1       4.793  -9.606   5.498  1.00  0.00    -0.263 N 
ATOM      5  H5  UNL     1       4.160 -10.185   4.946  1.00  0.00     0.190 HD
HETATM    6  C4  UNL     1       5.790 -10.060   6.268  1.00  0.00     0.243 A 
HETATM    7  N11 UNL     1       6.368  -8.978   6.814  1.00  0.00    -0.291 N 
ENDROOT
BRANCH   6   8
HETATM    8  O1  UNL     1       6.141 -11.361   6.456  1.00  0.00    -0.307 OA
BRANCH   8   9
HETATM    9  C5  UNL     1       6.801 -12.168   5.508  1.00  0.00     0.205 C 
HETATM   10  C6  UNL     1       5.901 -12.688   4.443  1.00  0.00     0.088 C 
HETATM   11  C7  UNL     1       6.694 -13.487   3.475  1.00  0.00     0.058 A 
HETATM   12  C8  UNL     1       7.830 -14.179   3.834  1.00  0.00     0.134 A 
HETATM   13  C10 UNL     1       6.277 -13.559   2.135  1.00  0.00     0.269 A 
HETATM   14  N6  UNL     1       8.546 -14.917   2.951  1.00  0.00    -0.176 N 
HETATM   15  N9  UNL     1       8.277 -14.105   5.198  1.00  0.00    -0.328 N 
HETATM   16  C9  UNL     1       8.119 -14.962   1.686  1.00  0.00     0.680 A 
ATOM     17  H6  UNL     1       9.384 -15.420   3.242  1.00  0.00     0.186 HD
HETATM   18  N8  UNL     1       7.015 -14.299   1.298  1.00  0.00    -0.156 N 
ATOM     19  H8  UNL     1       6.727 -14.363   0.322  1.00  0.00     0.187 HD
HETATM   20  C11 UNL     1       7.516 -13.316   6.101  1.00  0.00     0.133 C 
ATOM     21  H9  UNL     1       9.112 -14.603   5.507  1.00  0.00     0.169 HD
HETATM   22  N10 UNL     1       7.484 -13.623   7.339  1.00  0.00    -0.254 N 
ATOM     23  H10 UNL     1       6.929 -13.037   7.962  1.00  0.00     0.195 HD
HETATM   24  O2  UNL     1       5.241 -12.929   1.801  1.00  0.00    -0.267 OA
BRANCH  16  25
HETATM   25  N7  UNL     1       8.772 -15.652   0.813  1.00  0.00    -0.234 N 
ATOM     26  H72 UNL     1       9.357 -15.163   0.136  1.00  0.00     0.174 HD
ATOM     27  H71 UNL     1       8.696 -16.669   0.812  1.00  0.00     0.174 HD
ENDBRANCH  16  25
BRANCH  22  28
HETATM   28  O3  UNL     1       8.147 -14.685   7.881  1.00  0.00    -0.288 OA
ATOM     29  H3  UNL     1       8.779 -14.616   8.587  1.00  0.00     0.244 HD
ENDBRANCH  22  28
ENDBRANCH   8   9
ENDBRANCH   6   8
BRANCH   7  30
HETATM   30  C12 UNL     1       7.510  -9.006   7.734  1.00  0.00     0.168 C 
BRANCH  30  31
HETATM   31  C13 UNL     1       7.039  -9.129   9.167  1.00  0.00     0.160 C 
BRANCH  31  32
HETATM   32  O4  UNL     1       7.242  -7.939   9.866  1.00  0.00    -0.392 OA
ATOM     33  H4  UNL     1       7.625  -8.105  10.719  1.00  0.00     0.210 HD
ENDBRANCH  31  32
BRANCH  31  34
HETATM   34  C14 UNL     1       7.796 -10.203   9.906  1.00  0.00     0.197 C 
BRANCH  34  35
HETATM   35  O5  UNL     1       7.572 -11.415   9.260  1.00  0.00    -0.398 OA
ATOM     36  H5  UNL     1       8.112 -12.077   9.677  1.00  0.00     0.209 HD
ENDBRANCH  34  35
ENDBRANCH  31  34
ENDBRANCH  30  31
ENDBRANCH   7  30
BRANCH   1  37
HETATM   37  C2  UNL     1       6.047  -6.462   6.741  1.00  0.00     0.184 A 
HETATM   38  N3  UNL     1       6.452  -5.463   5.957  1.00  0.00    -0.265 N 
HETATM   39  N2  UNL     1       6.583  -4.396   6.708  1.00  0.00    -0.225 N 
ATOM     40  H3  UNL     1       6.628  -5.518   4.953  1.00  0.00     0.190 HD
HETATM   41  N1  UNL     1       6.275  -4.684   7.942  1.00  0.00    -0.223 N 
ATOM     42  H2  UNL     1       6.881  -3.478   6.377  1.00  0.00     0.210 HD
HETATM   43  C1  UNL     1       6.266  -3.833   9.135  1.00  0.00     0.202 C 
HETATM   44  N12 UNL     1       5.942  -5.955   7.980  1.00  0.00    -0.264 N 
ATOM     45  H12 UNL     1       5.651  -6.470   8.811  1.00  0.00     0.190 HD
ENDBRANCH   1  37
TORSDOF 10
ENDMDL
MODEL 2
REMARK VINA RESULT: -7.202284125      1.596      2.112
REMARK  10 active torsions:
REMARK  status: ('A' for Active; 'I' for Inactive)
REMARK    1  A    between atoms: C2_7  and  C3_8 
REMARK    2  A    between atoms: C4_13  and  O1_14 
REMARK    3  A    between atoms: O1_14  and  C5_15 
REMARK    4  A    between atoms: C9_21  and  N7_22 
REMARK    5  A    between atoms: N10_32  and  O3_34 
REMARK    6  A    between atoms: N11_36  and  C12_37 
REMARK    7  A    between atoms: C12_37  and  C13_38 
REMARK    8  A    between atoms: C13_38  and  O4_39 
REMARK    9  A    between atoms: C13_38  and  C14_41 
REMARK   10  A    between atoms: C14_41  and  O5_42 
ROOT
HETATM    1  C3  UNL     1       6.214  -9.720   6.683  1.00  0.00     0.173 A 
HETATM    2  N4  UNL     1       5.259  -9.995   5.747  1.00  0.00    -0.279 N 
ATOM      3  H4  UNL     1       4.583  -9.327   5.379  1.00  0.00     0.189 HD
HETATM    4  N5  UNL     1       5.351 -11.266   5.392  1.00  0.00    -0.263 N 
ATOM      5  H5  UNL     1       4.758 -11.734   4.708  1.00  0.00     0.190 HD
HETATM    6  C4  UNL     1       6.350 -11.838   6.076  1.00  0.00     0.243 A 
HETATM    7  N11 UNL     1       6.868 -10.880   6.862  1.00  0.00    -0.291 N 
ENDROOT
BRANCH   6   8
HETATM    8  O1  UNL     1       6.754 -13.135   5.988  1.00  0.00    -0.307 OA
BRANCH   8   9
HETATM    9  C5  UNL     1       7.603 -13.653   4.991  1.00  0.00     0.205 C 
HETATM   10  C6  UNL     1       6.880 -14.102   3.770  1.00  0.00     0.088 C 
HETATM   11  C7  UNL     1       7.861 -14.590   2.768  1.00  0.00     0.058 A 
HETATM   12  C8  UNL     1       9.064 -15.161   3.120  1.00  0.00     0.134 A 
HETATM   13  C10 UNL     1       7.560 -14.482   1.400  1.00  0.00     0.269 A 
HETATM   14  N6  UNL     1       9.953 -15.615   2.204  1.00  0.00    -0.176 N 
HETATM   15  N9  UNL     1       9.392 -15.267   4.516  1.00  0.00    -0.328 N 
HETATM   16  C9  UNL     1       9.633 -15.496   0.913  1.00  0.00     0.680 A 
ATOM     17  H6  UNL     1      10.838 -16.034   2.491  1.00  0.00     0.186 HD
HETATM   18  N8  UNL     1       8.468 -14.944   0.530  1.00  0.00    -0.156 N 
ATOM     19  H8  UNL     1       8.267 -14.874  -0.467  1.00  0.00     0.187 HD
HETATM   20  C11 UNL     1       8.449 -14.772   5.456  1.00  0.00     0.133 C 
ATOM     21  H9  UNL     1      10.272 -15.683   4.821  1.00  0.00     0.169 HD
HETATM   22  N10 UNL     1       8.377 -15.296   6.616  1.00  0.00    -0.254 N 
ATOM     23  H10 UNL     1       7.690 -14.919   7.268  1.00  0.00     0.195 HD
HETATM   24  O2  UNL     1       6.463 -13.962   1.072  1.00  0.00    -0.267 OA
BRANCH  16  25
HETATM   25  N7  UNL     1      10.452 -15.916   0.008  1.00  0.00    -0.234 N 
ATOM     26  H72 UNL     1      10.082 -16.191  -0.902  1.00  0.00     0.174 HD
ATOM     27  H71 UNL     1      11.450 -15.966   0.212  1.00  0.00     0.174 HD
ENDBRANCH  16  25
BRANCH  22  28
HETATM   28  O3  UNL     1       9.162 -16.329   7.039  1.00  0.00    -0.288 OA
ATOM     29  H3  UNL     1       9.853 -16.243   7.685  1.00  0.00     0.244 HD
ENDBRANCH  22  28
ENDBRANCH   8   9
ENDBRANCH   6   8
BRANCH   7  30
HETATM   30  C12 UNL     1       7.988 -11.065   7.789  1.00  0.00     0.168 C 
BRANCH  30  31
HETATM   31  C13 UNL     1       7.496 -11.564   9.131  1.00  0.00     0.160 C 
BRANCH  31  32
HETATM   32  O4  UNL     1       7.748 -10.629  10.136  1.00  0.00    -0.392 OA
ATOM     33  H4  UNL     1       8.597 -10.221  10.017  1.00  0.00     0.210 HD
ENDBRANCH  31  32
BRANCH  31  34
HETATM   34  C14 UNL     1       8.191 -12.838   9.536  1.00  0.00     0.197 C 
BRANCH  34  35
HETATM   35  O5  UNL     1       7.521 -13.905   8.944  1.00  0.00    -0.398 OA
ATOM     36  H5  UNL     1       7.702 -14.687   9.453  1.00  0.00     0.209 HD
ENDBRANCH  34  35
ENDBRANCH  31  34
ENDBRANCH  30  31
ENDBRANCH   7  30
BRANCH   1  37
HETATM   37  C2  UNL     1       6.439  -8.424   7.327  1.00  0.00     0.184 A 
HETATM   38  N3  UNL     1       6.952  -8.149   8.527  1.00  0.00    -0.265 N 
HETATM   39  N2  UNL     1       6.957  -6.844   8.667  1.00  0.00    -0.225 N 
ATOM     40  H3  UNL     1       7.280  -8.830   9.212  1.00  0.00     0.190 HD
HETATM   41  N1  UNL     1       6.466  -6.283   7.598  1.00  0.00    -0.223 N 
ATOM     42  H2  UNL     1       7.295  -6.344   9.490  1.00  0.00     0.210 HD
HETATM   43  C1  UNL     1       6.269  -4.866   7.282  1.00  0.00     0.202 C 
HETATM   44  N12 UNL     1       6.142  -7.244   6.761  1.00  0.00    -0.264 N 
ATOM     45  H12 UNL     1       5.733  -7.114   5.835  1.00  0.00     0.190 HD
ENDBRANCH   1  37
TORSDOF 10
ENDMDL
MODEL 3
REMARK VINA RESULT: -7.053787802      3.507      9.755
REMARK  10 active torsions:
REMARK  status: ('A' for Active; 'I' for Inactive)
REMARK    1  A    between atoms: C2_7  and  C3_8 
REMARK    2  A    between atoms: C4_13  and  O1_14 
REMARK    3  A    between atoms: O1_14  and  C5_15 
REMARK    4  A    between atoms: C9_21  and  N7_22 
REMARK    5  A    between atoms: N10_32  and  O3_34 
REMARK    6  A    between atoms: N11_36  and  C12_37 
REMARK    7  A    between atoms: C12_37  and  C13_38 
REMARK    8  A    between atoms: C13_38  and  O4_39 
REMARK    9  A    between atoms: C13_38  and  C14_41 
REMARK   10  A    between atoms: C14_41  and  O5_42 
ROOT
HETATM    1  C3  UNL     1      10.935 -16.376   2.794  1.00  0.00     0.173 A 
HETATM    2  N4  UNL     1      10.490 -15.185   2.298  1.00  0.00    -0.279 N 
ATOM      3  H4  UNL     1      10.771 -14.774   1.408  1.00  0.00     0.189 HD
HETATM    4  N5  UNL     1       9.637 -14.648   3.155  1.00  0.00    -0.263 N 
ATOM      5  H5  UNL     1       9.155 -13.758   3.031  1.00  0.00     0.190 HD
HETATM    6  C4  UNL     1       9.509 -15.462   4.210  1.00  0.00     0.243 A 
HETATM    7  N11 UNL     1      10.309 -16.515   3.976  1.00  0.00    -0.291 N 
ENDROOT
BRANCH   6   8
HETATM    8  O1  UNL     1       8.723 -15.256   5.302  1.00  0.00    -0.307 OA
BRANCH   8   9
HETATM    9  C5  UNL     1       8.491 -14.006   5.909  1.00  0.00     0.205 C 
HETATM   10  C6  UNL     1       7.974 -14.109   7.300  1.00  0.00     0.088 C 
HETATM   11  C7  UNL     1       7.802 -12.745   7.864  1.00  0.00     0.058 A 
HETATM   12  C8  UNL     1       7.507 -11.649   7.085  1.00  0.00     0.134 A 
HETATM   13  C10 UNL     1       7.934 -12.551   9.249  1.00  0.00     0.269 A 
HETATM   14  N6  UNL     1       7.340 -10.408   7.602  1.00  0.00    -0.176 N 
HETATM   15  N9  UNL     1       7.381 -11.829   5.664  1.00  0.00    -0.328 N 
HETATM   16  C9  UNL     1       7.473 -10.261   8.923  1.00  0.00     0.680 A 
ATOM     17  H6  UNL     1       7.121  -9.612   7.004  1.00  0.00     0.186 HD
HETATM   18  N8  UNL     1       7.761 -11.308   9.716  1.00  0.00    -0.156 N 
ATOM     19  H8  UNL     1       7.854 -11.148  10.720  1.00  0.00     0.187 HD
HETATM   20  C11 UNL     1       7.572 -13.138   5.144  1.00  0.00     0.133 C 
ATOM     21  H9  UNL     1       7.162 -11.045   5.050  1.00  0.00     0.169 HD
HETATM   22  N10 UNL     1       6.964 -13.491   4.081  1.00  0.00    -0.254 N 
ATOM     23  H10 UNL     1       7.121 -14.437   3.733  1.00  0.00     0.195 HD
HETATM   24  O2  UNL     1       8.204 -13.548   9.966  1.00  0.00    -0.267 OA
BRANCH  16  25
HETATM   25  N7  UNL     1       7.323  -9.096   9.457  1.00  0.00    -0.234 N 
ATOM     26  H72 UNL     1       6.404  -8.830   9.810  1.00  0.00     0.174 HD
ATOM     27  H71 UNL     1       8.119  -8.462   9.520  1.00  0.00     0.174 HD
ENDBRANCH  16  25
BRANCH  22  28
HETATM   28  O3  UNL     1       6.117 -12.684   3.379  1.00  0.00    -0.288 OA
ATOM     29  H3  UNL     1       5.479 -12.999   2.749  1.00  0.00     0.244 HD
ENDBRANCH  22  28
ENDBRANCH   8   9
ENDBRANCH   6   8
BRANCH   7  30
HETATM   30  C12 UNL     1      10.483 -17.658   4.876  1.00  0.00     0.168 C 
BRANCH  30  31
HETATM   31  C13 UNL     1      11.276 -17.258   6.102  1.00  0.00     0.160 C 
BRANCH  31  32
HETATM   32  O4  UNL     1      12.586 -17.733   6.028  1.00  0.00    -0.392 OA
ATOM     33  H4  UNL     1      13.107 -17.412   6.754  1.00  0.00     0.210 HD
ENDBRANCH  31  32
BRANCH  31  34
HETATM   34  C14 UNL     1      10.675 -17.831   7.359  1.00  0.00     0.197 C 
BRANCH  34  35
HETATM   35  O5  UNL     1       9.377 -17.343   7.482  1.00  0.00    -0.398 OA
ATOM     36  H5  UNL     1       9.427 -16.438   7.765  1.00  0.00     0.209 HD
ENDBRANCH  34  35
ENDBRANCH  31  34
ENDBRANCH  30  31
ENDBRANCH   7  30
BRANCH   1  37
HETATM   37  C2  UNL     1      11.891 -17.276   2.144  1.00  0.00     0.184 A 
HETATM   38  N3  UNL     1      13.198 -17.116   1.931  1.00  0.00    -0.265 N 
HETATM   39  N2  UNL     1      13.633 -18.189   1.314  1.00  0.00    -0.225 N 
ATOM     40  H3  UNL     1      13.758 -16.307   2.199  1.00  0.00     0.190 HD
HETATM   41  N1  UNL     1      12.648 -19.023   1.130  1.00  0.00    -0.223 N 
ATOM     42  H2  UNL     1      14.598 -18.347   1.022  1.00  0.00     0.210 HD
HETATM   43  C1  UNL     1      12.636 -20.343   0.493  1.00  0.00     0.202 C 
HETATM   44  N12 UNL     1      11.566 -18.475   1.637  1.00  0.00    -0.264 N 
ATOM     45  H12 UNL     1      10.634 -18.891   1.643  1.00  0.00     0.190 HD
ENDBRANCH   1  37
TORSDOF 10
ENDMDL
MODEL 4
REMARK VINA RESULT: -6.912635678      2.277      8.092
REMARK  10 active torsions:
REMARK  status: ('A' for Active; 'I' for Inactive)
REMARK    1  A    between atoms: C2_7  and  C3_8 
REMARK    2  A    between atoms: C4_13  and  O1_14 
REMARK    3  A    between atoms: O1_14  and  C5_15 
REMARK    4  A    between atoms: C9_21  and  N7_22 
REMARK    5  A    between atoms: N10_32  and  O3_34 
REMARK    6  A    between atoms: N11_36  and  C12_37 
REMARK    7  A    between atoms: C12_37  and  C13_38 
REMARK    8  A    between atoms: C13_38  and  O4_39 
REMARK    9  A    between atoms: C13_38  and  C14_41 
REMARK   10  A    between atoms: C14_41  and  O5_42 
ROOT
HETATM    1  C3  UNL     1       6.650 -13.216   3.725  1.00  0.00     0.173 A 
HETATM    2  N4  UNL     1       5.936 -12.075   3.955  1.00  0.00    -0.279 N 
ATOM      3  H4  UNL     1       5.349 -11.598   3.271  1.00  0.00     0.189 HD
HETATM    4  N5  UNL     1       6.127 -11.685   5.204  1.00  0.00    -0.263 N 
ATOM      5  H5  UNL     1       5.711 -10.862   5.637  1.00  0.00     0.190 HD
HETATM    6  C4  UNL     1       6.954 -12.548   5.808  1.00  0.00     0.243 A 
HETATM    7  N11 UNL     1       7.267 -13.478   4.891  1.00  0.00    -0.291 N 
ENDROOT
BRANCH   6   8
HETATM    8  O1  UNL     1       7.390 -12.487   7.096  1.00  0.00    -0.307 OA
BRANCH   8   9
HETATM    9  C5  UNL     1       7.177 -11.405   7.972  1.00  0.00     0.205 C 
HETATM   10  C6  UNL     1       7.671 -10.105   7.442  1.00  0.00     0.088 C 
HETATM   11  C7  UNL     1       7.363  -9.027   8.417  1.00  0.00     0.058 A 
HETATM   12  C8  UNL     1       7.289  -9.248   9.774  1.00  0.00     0.134 A 
HETATM   13  C10 UNL     1       7.147  -7.720   7.951  1.00  0.00     0.269 A 
HETATM   14  N6  UNL     1       7.019  -8.261  10.662  1.00  0.00    -0.176 N 
HETATM   15  N9  UNL     1       7.496 -10.584  10.265  1.00  0.00    -0.328 N 
HETATM   16  C9  UNL     1       6.819  -7.030  10.183  1.00  0.00     0.680 A 
ATOM     17  H6  UNL     1       6.970  -8.451  11.663  1.00  0.00     0.186 HD
HETATM   18  N8  UNL     1       6.883  -6.776   8.864  1.00  0.00    -0.156 N 
ATOM     19  H8  UNL     1       6.723  -5.820   8.544  1.00  0.00     0.187 HD
HETATM   20  C11 UNL     1       7.765 -11.604   9.313  1.00  0.00     0.133 C 
ATOM     21  H9  UNL     1       7.451 -10.792  11.262  1.00  0.00     0.169 HD
HETATM   22  N10 UNL     1       8.477 -12.608   9.646  1.00  0.00    -0.254 N 
ATOM     23  H10 UNL     1       8.653 -13.323   8.940  1.00  0.00     0.195 HD
HETATM   24  O2  UNL     1       7.213  -7.511   6.713  1.00  0.00    -0.267 OA
BRANCH  16  25
HETATM   25  N7  UNL     1       6.559  -6.061  10.994  1.00  0.00    -0.234 N 
ATOM     26  H72 UNL     1       7.174  -5.908  11.793  1.00  0.00     0.174 HD
ATOM     27  H71 UNL     1       5.748  -5.465  10.827  1.00  0.00     0.174 HD
ENDBRANCH  16  25
BRANCH  22  28
HETATM   28  O3  UNL     1       9.018 -12.785  10.885  1.00  0.00    -0.288 OA
ATOM     29  H3  UNL     1       8.520 -12.755  11.694  1.00  0.00     0.244 HD
ENDBRANCH  22  28
ENDBRANCH   8   9
ENDBRANCH   6   8
BRANCH   7  30
HETATM   30  C12 UNL     1       8.154 -14.622   5.119  1.00  0.00     0.168 C 
BRANCH  30  31
HETATM   31  C13 UNL     1       9.605 -14.194   5.056  1.00  0.00     0.160 C 
BRANCH  31  32
HETATM   32  O4  UNL     1      10.256 -14.787   3.973  1.00  0.00    -0.392 OA
ATOM     33  H4  UNL     1      10.878 -15.442   4.266  1.00  0.00     0.210 HD
ENDBRANCH  31  32
BRANCH  31  34
HETATM   34  C14 UNL     1      10.356 -14.607   6.295  1.00  0.00     0.197 C 
BRANCH  34  35
HETATM   35  O5  UNL     1       9.486 -14.526   7.379  1.00  0.00    -0.398 OA
ATOM     36  H5  UNL     1       9.824 -13.875   7.982  1.00  0.00     0.209 HD
ENDBRANCH  34  35
ENDBRANCH  31  34
ENDBRANCH  30  31
ENDBRANCH   7  30
BRANCH   1  37
HETATM   37  C2  UNL     1       6.704 -13.958   2.464  1.00  0.00     0.184 A 
HETATM   38  N3  UNL     1       7.706 -14.660   1.934  1.00  0.00    -0.265 N 
HETATM   39  N2  UNL     1       7.287 -15.149   0.790  1.00  0.00    -0.225 N 
ATOM     40  H3  UNL     1       8.631 -14.794   2.343  1.00  0.00     0.190 HD
HETATM   41  N1  UNL     1       6.054 -14.781   0.578  1.00  0.00    -0.223 N 
ATOM     42  H2  UNL     1       7.842 -15.729   0.161  1.00  0.00     0.210 HD
HETATM   43  C1  UNL     1       5.163 -15.073  -0.548  1.00  0.00     0.202 C 
HETATM   44  N12 UNL     1       5.679 -14.046   1.602  1.00  0.00    -0.264 N 
ATOM     45  H12 UNL     1       4.762 -13.614   1.721  1.00  0.00     0.190 HD
ENDBRANCH   1  37
TORSDOF 10
ENDMDL
MODEL 5
REMARK VINA RESULT: -6.891726085      3.974      6.440
REMARK  10 active torsions:
REMARK  status: ('A' for Active; 'I' for Inactive)
REMARK    1  A    between atoms: C2_7  and  C3_8 
REMARK    2  A    between atoms: C4_13  and  O1_14 
REMARK    3  A    between atoms: O1_14  and  C5_15 
REMARK    4  A    between atoms: C9_21  and  N7_22 
REMARK    5  A    between atoms: N10_32  and  O3_34 
REMARK    6  A    between atoms: N11_36  and  C12_37 
REMARK    7  A    between atoms: C12_37  and  C13_38 
REMARK    8  A    between atoms: C13_38  and  O4_39 
REMARK    9  A    between atoms: C13_38  and  C14_41 
REMARK   10  A    between atoms: C14_41  and  O5_42 
ROOT
HETATM    1  C3  UNL     1       6.822 -12.782   4.337  1.00  0.00     0.173 A 
HETATM    2  N4  UNL     1       6.645 -13.482   3.178  1.00  0.00    -0.279 N 
ATOM      3  H4  UNL     1       5.844 -13.398   2.553  1.00  0.00     0.189 HD
HETATM    4  N5  UNL     1       7.678 -14.288   2.994  1.00  0.00    -0.263 N 
ATOM      5  H5  UNL     1       7.801 -14.923   2.206  1.00  0.00     0.190 HD
HETATM    6  C4  UNL     1       8.537 -14.134   4.011  1.00  0.00     0.243 A 
HETATM    7  N11 UNL     1       7.999 -13.210   4.824  1.00  0.00    -0.291 N 
ENDROOT
BRANCH   6   8
HETATM    8  O1  UNL     1       9.717 -14.789   4.180  1.00  0.00    -0.307 OA
BRANCH   8   9
HETATM    9  C5  UNL     1       9.848 -16.128   4.600  1.00  0.00     0.205 C 
HETATM   10  C6  UNL     1      10.891 -16.324   5.643  1.00  0.00     0.088 C 
HETATM   11  C7  UNL     1      10.922 -17.753   6.045  1.00  0.00     0.058 A 
HETATM   12  C8  UNL     1      10.588 -18.776   5.187  1.00  0.00     0.134 A 
HETATM   13  C10 UNL     1      11.317 -18.092   7.350  1.00  0.00     0.269 A 
HETATM   14  N6  UNL     1      10.627 -20.080   5.553  1.00  0.00    -0.176 N 
HETATM   15  N9  UNL     1      10.169 -18.444   3.852  1.00  0.00    -0.328 N 
HETATM   16  C9  UNL     1      11.007 -20.365   6.802  1.00  0.00     0.680 A 
ATOM     17  H6  UNL     1      10.374 -20.820   4.898  1.00  0.00     0.186 HD
HETATM   18  N8  UNL     1      11.341 -19.393   7.669  1.00  0.00    -0.156 N 
ATOM     19  H8  UNL     1      11.625 -19.658   8.612  1.00  0.00     0.187 HD
HETATM   20  C11 UNL     1      10.125 -17.070   3.496  1.00  0.00     0.133 C 
ATOM     21  H9  UNL     1       9.913 -19.171   3.183  1.00  0.00     0.169 HD
HETATM   22  N10 UNL     1      10.319 -16.723   2.284  1.00  0.00    -0.254 N 
ATOM     23  H10 UNL     1      10.281 -15.729   2.060  1.00  0.00     0.195 HD
HETATM   24  O2  UNL     1      11.623 -17.162   8.139  1.00  0.00    -0.267 OA
BRANCH  16  25
HETATM   25  N7  UNL     1      11.058 -21.594   7.192  1.00  0.00    -0.234 N 
ATOM     26  H72 UNL     1      10.393 -21.916   7.895  1.00  0.00     0.174 HD
ATOM     27  H71 UNL     1      11.756 -22.223   6.795  1.00  0.00     0.174 HD
ENDBRANCH  16  25
BRANCH  22  28
HETATM   28  O3  UNL     1      10.574 -17.599   1.269  1.00  0.00    -0.288 OA
ATOM     29  H3  UNL     1      11.082 -17.384   0.495  1.00  0.00     0.244 HD
ENDBRANCH  22  28
ENDBRANCH   8   9
ENDBRANCH   6   8
BRANCH   7  30
HETATM   30  C12 UNL     1       8.603 -12.731   6.070  1.00  0.00     0.168 C 
BRANCH  30  31
HETATM   31  C13 UNL     1       8.383 -13.727   7.189  1.00  0.00     0.160 C 
BRANCH  31  32
HETATM   32  O4  UNL     1       7.414 -14.668   6.839  1.00  0.00    -0.392 OA
ATOM     33  H4  UNL     1       6.577 -14.252   6.675  1.00  0.00     0.210 HD
ENDBRANCH  31  32
BRANCH  31  34
HETATM   34  C14 UNL     1       7.898 -13.048   8.444  1.00  0.00     0.197 C 
BRANCH  34  35
HETATM   35  O5  UNL     1       7.606 -14.032   9.385  1.00  0.00    -0.398 OA
ATOM     36  H5  UNL     1       8.202 -14.759   9.247  1.00  0.00     0.209 HD
ENDBRANCH  34  35
ENDBRANCH  31  34
ENDBRANCH  30  31
ENDBRANCH   7  30
BRANCH   1  37
HETATM   37  C2  UNL     1       5.899 -11.789   4.890  1.00  0.00     0.184 A 
HETATM   38  N3  UNL     1       5.614 -11.510   6.163  1.00  0.00    -0.265 N 
HETATM   39  N2  UNL     1       4.729 -10.542   6.169  1.00  0.00    -0.225 N 
ATOM     40  H3  UNL     1       6.013 -11.967   6.984  1.00  0.00     0.190 HD
HETATM   41  N1  UNL     1       4.443 -10.197   4.945  1.00  0.00    -0.223 N 
ATOM     42  H2  UNL     1       4.324 -10.122   7.007  1.00  0.00     0.210 HD
HETATM   43  C1  UNL     1       3.521  -9.175   4.444  1.00  0.00     0.202 C 
HETATM   44  N12 UNL     1       5.157 -10.957   4.143  1.00  0.00    -0.264 N 
ATOM     45  H12 UNL     1       5.148 -10.919   3.124  1.00  0.00     0.190 HD
ENDBRANCH   1  37
TORSDOF 10
ENDMDL
