MODEL 1
REMARK VINA RESULT: -7.717628314      0.000      0.000
REMARK  11 active torsions:
REMARK  status: ('A' for Active; 'I' for Inactive)
REMARK    1  A    between atoms: C2_2  and  N1_3 
REMARK    2  A    between atoms: C2_2  and  C10_37 
REMARK    3  A    between atoms: N1_3  and  N2_5 
REMARK    4  A    between atoms: N2_5  and  C3_7 
REMARK    5  A    between atoms: C4_11  and  C5_12 
REMARK       I    between atoms: C5_12  and  N4_14 
REMARK    6  A    between atoms: N4_14  and  N5_16 
REMARK    7  A    between atoms: N5_16  and  N6_18 
REMARK    8  A    between atoms: N6_18  and  C6_20 
REMARK    9  A    between atoms: C8_25  and  N9_26 
REMARK   10  A    between atoms: N11_33  and  N12_34 
REMARK   11  A    between atoms: N14_41  and  N15_42 
ROOT
HETATM    1  C3  UNL     1       7.084 -13.350   5.736  1.00  0.00     0.284 A 
HETATM    2  O1  UNL     1       7.479 -13.708   4.538  1.00  0.00    -0.195 OA
HETATM    3  N3  UNL     1       8.401 -14.613   4.657  1.00  0.00    -0.235 N 
ATOM      4  H3  UNL     1       8.884 -15.067   3.882  1.00  0.00     0.197 HD
HETATM    5  C4  UNL     1       8.626 -14.863   5.979  1.00  0.00     0.221 A 
HETATM    6  N11 UNL     1       7.783 -14.054   6.644  1.00  0.00    -0.199 N 
ENDROOT
BRANCH   5   7
HETATM    7  C5  UNL     1       9.564 -15.794   6.562  1.00  0.00     0.308 C 
HETATM    8  O2  UNL     1       9.145 -16.734   7.281  1.00  0.00    -0.262 OA
HETATM    9  N4  UNL     1      10.965 -15.692   6.352  1.00  0.00    -0.249 N 
ATOM     10  H4  UNL     1      11.312 -14.931   5.769  1.00  0.00     0.192 HD
BRANCH   9  11
HETATM   11  N5  UNL     1      11.885 -16.572   6.900  1.00  0.00    -0.239 N 
ATOM     12  H5  UNL     1      12.228 -16.438   7.851  1.00  0.00     0.208 HD
BRANCH  11  13
HETATM   13  N6  UNL     1      12.299 -17.561   6.193  1.00  0.00    -0.278 N 
ATOM     14  H6  UNL     1      13.268 -17.582   5.876  1.00  0.00     0.189 HD
BRANCH  13  15
HETATM   15  C6  UNL     1      11.422 -18.625   5.848  1.00  0.00     0.160 A 
HETATM   16  C7  UNL     1      10.901 -18.709   4.574  1.00  0.00     0.165 A 
HETATM   17  N7  UNL     1      11.227 -17.728   3.571  1.00  0.00    -0.079 NA
HETATM   18  N8  UNL     1      10.072 -19.733   4.283  1.00  0.00    -0.176 N 
HETATM   19  C8  UNL     1       9.740 -20.670   5.189  1.00  0.00     0.680 A 
ATOM     20  H8  UNL     1       9.683 -19.798   3.342  1.00  0.00     0.185 HD
HETATM   21  N10 UNL     1      10.250 -20.584   6.426  1.00  0.00    -0.154 N 
HETATM   22  C9  UNL     1      11.082 -19.587   6.777  1.00  0.00     0.291 A 
ATOM     23  H10 UNL     1      10.002 -21.292   7.117  1.00  0.00     0.187 HD
HETATM   24  O3  UNL     1      11.529 -19.559   7.952  1.00  0.00    -0.265 OA
BRANCH  19  25
HETATM   25  N9  UNL     1       8.933 -21.654   4.877  1.00  0.00    -0.234 N 
ATOM     26  H92 UNL     1       8.446 -21.653   3.980  1.00  0.00     0.174 HD
ATOM     27  H91 UNL     1       8.778 -22.431   5.520  1.00  0.00     0.174 HD
ENDBRANCH  19  25
ENDBRANCH  13  15
ENDBRANCH  11  13
ENDBRANCH   9  11
ENDBRANCH   5   7
BRANCH   6  28
HETATM   28  N12 UNL     1       7.698 -14.003   8.049  1.00  0.00    -0.333 N 
ATOM     29 2H12 UNL     1       8.483 -13.766   8.655  1.00  0.00     0.177 HD
ATOM     30 1H12 UNL     1       6.888 -14.183   8.643  1.00  0.00     0.177 HD
ENDBRANCH   6  28
BRANCH   1  31
HETATM   31  N2  UNL     1       6.180 -12.472   6.000  1.00  0.00    -0.262 N 
ATOM     32  H2  UNL     1       5.422 -12.770   6.613  1.00  0.00     0.190 HD
BRANCH  31  33
HETATM   33  N1  UNL     1       6.130 -11.214   5.558  1.00  0.00    -0.300 N 
ATOM     34  H1  UNL     1       6.459 -11.189   4.593  1.00  0.00     0.186 HD
BRANCH  33  35
HETATM   35  C2  UNL     1       5.826 -10.069   5.905  1.00  0.00     0.052 C 
HETATM   36  C1  UNL     1       4.747  -9.418   5.036  1.00  0.00     0.072 C 
BRANCH  35  37
HETATM   37  C10 UNL     1       6.343  -9.258   7.012  1.00  0.00     0.100 A 
HETATM   38  N13 UNL     1       6.240  -7.882   7.047  1.00  0.00    -0.346 N 
HETATM   39  C11 UNL     1       6.802  -7.442   8.176  1.00  0.00     0.208 A 
ATOM     40  H13 UNL     1       5.808  -7.299   6.331  1.00  0.00     0.167 HD
HETATM   41  N14 UNL     1       7.277  -8.453   8.901  1.00  0.00    -0.242 N 
HETATM   42  C12 UNL     1       6.988  -9.579   8.171  1.00  0.00     0.167 A 
HETATM   43  N16 UNL     1       7.334 -10.891   8.606  1.00  0.00    -0.078 NA
BRANCH  41  44
HETATM   44  N15 UNL     1       7.930  -8.454  10.129  1.00  0.00    -0.336 N 
ATOM     45 2H15 UNL     1       7.776  -7.768  10.868  1.00  0.00     0.177 HD
ATOM     46 1H15 UNL     1       8.634  -9.090  10.502  1.00  0.00     0.177 HD
ENDBRANCH  41  44
ENDBRANCH  35  37
ENDBRANCH  33  35
ENDBRANCH  31  33
ENDBRANCH   1  31
TORSDOF 11
ENDMDL
MODEL 2
REMARK VINA RESULT: -7.639336149      2.402      4.441
REMARK  11 active torsions:
REMARK  status: ('A' for Active; 'I' for Inactive)
REMARK    1  A    between atoms: C2_2  and  N1_3 
REMARK    2  A    between atoms: C2_2  and  C10_37 
REMARK    3  A    between atoms: N1_3  and  N2_5 
REMARK    4  A    between atoms: N2_5  and  C3_7 
REMARK    5  A    between atoms: C4_11  and  C5_12 
REMARK       I    between atoms: C5_12  and  N4_14 
REMARK    6  A    between atoms: N4_14  and  N5_16 
REMARK    7  A    between atoms: N5_16  and  N6_18 
REMARK    8  A    between atoms: N6_18  and  C6_20 
REMARK    9  A    between atoms: C8_25  and  N9_26 
REMARK   10  A    between atoms: N11_33  and  N12_34 
REMARK   11  A    between atoms: N14_41  and  N15_42 
ROOT
HETATM    1  C3  UNL     1       7.055  -9.185   8.078  1.00  0.00     0.284 A 
HETATM    2  O1  UNL     1       6.857  -9.348   6.792  1.00  0.00    -0.195 OA
HETATM    3  N3  UNL     1       7.025 -10.602   6.502  1.00  0.00    -0.235 N 
ATOM      4  H3  UNL     1       6.932 -11.008   5.571  1.00  0.00     0.197 HD
HETATM    5  C4  UNL     1       7.345 -11.292   7.634  1.00  0.00     0.221 A 
HETATM    6  N11 UNL     1       7.359 -10.378   8.619  1.00  0.00    -0.199 N 
ENDROOT
BRANCH   5   7
HETATM    7  C5  UNL     1       7.615 -12.705   7.768  1.00  0.00     0.308 C 
HETATM    8  O2  UNL     1       8.001 -13.164   8.872  1.00  0.00    -0.262 OA
HETATM    9  N4  UNL     1       7.459 -13.614   6.689  1.00  0.00    -0.249 N 
ATOM     10  H4  UNL     1       7.145 -13.248   5.790  1.00  0.00     0.192 HD
BRANCH   9  11
HETATM   11  N5  UNL     1       7.712 -14.974   6.793  1.00  0.00    -0.239 N 
ATOM     12  H5  UNL     1       6.950 -15.649   6.724  1.00  0.00     0.208 HD
BRANCH  11  13
HETATM   13  N6  UNL     1       8.919 -15.370   6.977  1.00  0.00    -0.278 N 
ATOM     14  H6  UNL     1       9.472 -14.967   7.733  1.00  0.00     0.189 HD
BRANCH  13  15
HETATM   15  C6  UNL     1       9.492 -16.365   6.139  1.00  0.00     0.160 A 
HETATM   16  C7  UNL     1       9.829 -16.065   4.836  1.00  0.00     0.165 A 
HETATM   17  N7  UNL     1       9.608 -14.748   4.295  1.00  0.00    -0.079 NA
HETATM   18  N8  UNL     1      10.371 -17.034   4.070  1.00  0.00    -0.176 N 
HETATM   19  C8  UNL     1      10.594 -18.278   4.534  1.00  0.00     0.680 A 
ATOM     20  H8  UNL     1      10.620 -16.817   3.105  1.00  0.00     0.185 HD
HETATM   21  N10 UNL     1      10.266 -18.564   5.801  1.00  0.00    -0.154 N 
HETATM   22  C9  UNL     1       9.722 -17.640   6.615  1.00  0.00     0.291 A 
ATOM     23  H10 UNL     1      10.432 -19.504   6.159  1.00  0.00     0.187 HD
HETATM   24  O3  UNL     1       9.434 -17.968   7.794  1.00  0.00    -0.265 OA
BRANCH  19  25
HETATM   25  N9  UNL     1      11.122 -19.199   3.766  1.00  0.00    -0.234 N 
ATOM     26  H92 UNL     1      11.229 -19.033   2.765  1.00  0.00     0.174 HD
ATOM     27  H91 UNL     1      11.434 -20.089   4.154  1.00  0.00     0.174 HD
ENDBRANCH  19  25
ENDBRANCH  13  15
ENDBRANCH  11  13
ENDBRANCH   9  11
ENDBRANCH   5   7
BRANCH   6  28
HETATM   28  N12 UNL     1       7.648 -10.684   9.962  1.00  0.00    -0.333 N 
ATOM     29 2H12 UNL     1       7.331 -10.121  10.751  1.00  0.00     0.177 HD
ATOM     30 1H12 UNL     1       8.187 -11.466  10.334  1.00  0.00     0.177 HD
ENDBRANCH   6  28
BRANCH   1  31
HETATM   31  N2  UNL     1       6.973  -8.069   8.716  1.00  0.00    -0.262 N 
ATOM     32  H2  UNL     1       6.883  -8.131   9.730  1.00  0.00     0.190 HD
BRANCH  31  33
HETATM   33  N1  UNL     1       6.995  -6.842   8.194  1.00  0.00    -0.300 N 
ATOM     34  H1  UNL     1       7.921  -6.438   8.337  1.00  0.00     0.186 HD
BRANCH  33  35
HETATM   35  C2  UNL     1       6.292  -6.021   7.598  1.00  0.00     0.052 C 
HETATM   36  C1  UNL     1       6.107  -4.697   8.342  1.00  0.00     0.072 C 
BRANCH  35  37
HETATM   37  C10 UNL     1       5.619  -6.134   6.300  1.00  0.00     0.100 A 
HETATM   38  N13 UNL     1       4.744  -7.157   5.994  1.00  0.00    -0.346 N 
HETATM   39  C11 UNL     1       4.302  -6.981   4.746  1.00  0.00     0.208 A 
ATOM     40  H13 UNL     1       4.479  -7.920   6.617  1.00  0.00     0.167 HD
HETATM   41  N14 UNL     1       4.837  -5.891   4.198  1.00  0.00    -0.242 N 
HETATM   42  C12 UNL     1       5.654  -5.370   5.169  1.00  0.00     0.167 A 
HETATM   43  N16 UNL     1       6.420  -4.184   4.979  1.00  0.00    -0.078 NA
BRANCH  41  44
HETATM   44  N15 UNL     1       4.659  -5.338   2.935  1.00  0.00    -0.336 N 
ATOM     45 2H15 UNL     1       4.553  -5.877   2.075  1.00  0.00     0.177 HD
ATOM     46 1H15 UNL     1       4.604  -4.362   2.642  1.00  0.00     0.177 HD
ENDBRANCH  41  44
ENDBRANCH  35  37
ENDBRANCH  33  35
ENDBRANCH  31  33
ENDBRANCH   1  31
TORSDOF 11
ENDMDL
MODEL 3
REMARK VINA RESULT: -7.602228668      2.470      4.681
REMARK  11 active torsions:
REMARK  status: ('A' for Active; 'I' for Inactive)
REMARK    1  A    between atoms: C2_2  and  N1_3 
REMARK    2  A    between atoms: C2_2  and  C10_37 
REMARK    3  A    between atoms: N1_3  and  N2_5 
REMARK    4  A    between atoms: N2_5  and  C3_7 
REMARK    5  A    between atoms: C4_11  and  C5_12 
REMARK       I    between atoms: C5_12  and  N4_14 
REMARK    6  A    between atoms: N4_14  and  N5_16 
REMARK    7  A    between atoms: N5_16  and  N6_18 
REMARK    8  A    between atoms: N6_18  and  C6_20 
REMARK    9  A    between atoms: C8_25  and  N9_26 
REMARK   10  A    between atoms: N11_33  and  N12_34 
REMARK   11  A    between atoms: N14_41  and  N15_42 
ROOT
HETATM    1  C3  UNL     1       7.057  -9.190   8.071  1.00  0.00     0.284 A 
HETATM    2  O1  UNL     1       6.858  -9.355   6.786  1.00  0.00    -0.195 OA
HETATM    3  N3  UNL     1       7.024 -10.609   6.497  1.00  0.00    -0.235 N 
ATOM      4  H3  UNL     1       6.930 -11.016   5.567  1.00  0.00     0.197 HD
HETATM    5  C4  UNL     1       7.345 -11.298   7.629  1.00  0.00     0.221 A 
HETATM    6  N11 UNL     1       7.360 -10.383   8.614  1.00  0.00    -0.199 N 
ENDROOT
BRANCH   5   7
HETATM    7  C5  UNL     1       7.615 -12.711   7.765  1.00  0.00     0.308 C 
HETATM    8  O2  UNL     1       8.003 -13.169   8.868  1.00  0.00    -0.262 OA
HETATM    9  N4  UNL     1       7.456 -13.621   6.687  1.00  0.00    -0.249 N 
ATOM     10  H4  UNL     1       7.141 -13.257   5.788  1.00  0.00     0.192 HD
BRANCH   9  11
HETATM   11  N5  UNL     1       7.709 -14.981   6.792  1.00  0.00    -0.239 N 
ATOM     12  H5  UNL     1       6.945 -15.655   6.742  1.00  0.00     0.208 HD
BRANCH  11  13
HETATM   13  N6  UNL     1       8.918 -15.379   6.954  1.00  0.00    -0.278 N 
ATOM     14  H6  UNL     1       9.466 -15.022   7.737  1.00  0.00     0.189 HD
BRANCH  13  15
HETATM   15  C6  UNL     1       9.503 -16.312   6.054  1.00  0.00     0.160 A 
HETATM   16  C7  UNL     1       9.803 -17.589   6.477  1.00  0.00     0.165 A 
HETATM   17  N7  UNL     1       9.536 -18.006   7.831  1.00  0.00    -0.079 NA
HETATM   18  N8  UNL     1      10.358 -18.447   5.597  1.00  0.00    -0.176 N 
HETATM   19  C8  UNL     1      10.625 -18.100   4.324  1.00  0.00     0.680 A 
ATOM     20  H8  UNL     1      10.583 -19.393   5.906  1.00  0.00     0.185 HD
HETATM   21  N10 UNL     1      10.330 -16.857   3.918  1.00  0.00    -0.154 N 
HETATM   22  C9  UNL     1       9.776 -15.956   4.750  1.00  0.00     0.291 A 
ATOM     23  H10 UNL     1      10.530 -16.588   2.955  1.00  0.00     0.187 HD
HETATM   24  O3  UNL     1       9.522 -14.805   4.311  1.00  0.00    -0.265 OA
BRANCH  19  25
HETATM   25  N9  UNL     1      11.163 -18.955   3.490  1.00  0.00    -0.234 N 
ATOM     26  H92 UNL     1      11.914 -19.572   3.802  1.00  0.00     0.174 HD
ATOM     27  H91 UNL     1      10.843 -19.019   2.524  1.00  0.00     0.174 HD
ENDBRANCH  19  25
ENDBRANCH  13  15
ENDBRANCH  11  13
ENDBRANCH   9  11
ENDBRANCH   5   7
BRANCH   6  28
HETATM   28  N12 UNL     1       7.651 -10.688   9.957  1.00  0.00    -0.333 N 
ATOM     29 2H12 UNL     1       6.983 -10.576  10.720  1.00  0.00     0.177 HD
ATOM     30 1H12 UNL     1       8.520 -11.045  10.354  1.00  0.00     0.177 HD
ENDBRANCH   6  28
BRANCH   1  31
HETATM   31  N2  UNL     1       6.976  -8.074   8.709  1.00  0.00    -0.262 N 
ATOM     32  H2  UNL     1       6.888  -8.135   9.723  1.00  0.00     0.190 HD
BRANCH  31  33
HETATM   33  N1  UNL     1       6.995  -6.847   8.185  1.00  0.00    -0.300 N 
ATOM     34  H1  UNL     1       7.920  -6.442   8.326  1.00  0.00     0.186 HD
BRANCH  33  35
HETATM   35  C2  UNL     1       6.289  -6.028   7.590  1.00  0.00     0.052 C 
HETATM   36  C1  UNL     1       6.107  -4.703   8.332  1.00  0.00     0.072 C 
BRANCH  35  37
HETATM   37  C10 UNL     1       5.611  -6.145   6.294  1.00  0.00     0.100 A 
HETATM   38  N13 UNL     1       4.741  -7.172   5.992  1.00  0.00    -0.346 N 
HETATM   39  C11 UNL     1       4.293  -6.998   4.746  1.00  0.00     0.208 A 
ATOM     40  H13 UNL     1       4.483  -7.937   6.615  1.00  0.00     0.167 HD
HETATM   41  N14 UNL     1       4.819  -5.905   4.196  1.00  0.00    -0.242 N 
HETATM   42  C12 UNL     1       5.637  -5.380   5.165  1.00  0.00     0.167 A 
HETATM   43  N16 UNL     1       6.395  -4.189   4.972  1.00  0.00    -0.078 NA
BRANCH  41  44
HETATM   44  N15 UNL     1       4.633  -5.352   2.934  1.00  0.00    -0.336 N 
ATOM     45 2H15 UNL     1       5.334  -5.351   2.193  1.00  0.00     0.177 HD
ATOM     46 1H15 UNL     1       3.825  -4.877   2.533  1.00  0.00     0.177 HD
ENDBRANCH  41  44
ENDBRANCH  35  37
ENDBRANCH  33  35
ENDBRANCH  31  33
ENDBRANCH   1  31
TORSDOF 11
ENDMDL
MODEL 4
REMARK VINA RESULT: -7.470259509      1.198      2.140
REMARK  11 active torsions:
REMARK  status: ('A' for Active; 'I' for Inactive)
REMARK    1  A    between atoms: C2_2  and  N1_3 
REMARK    2  A    between atoms: C2_2  and  C10_37 
REMARK    3  A    between atoms: N1_3  and  N2_5 
REMARK    4  A    between atoms: N2_5  and  C3_7 
REMARK    5  A    between atoms: C4_11  and  C5_12 
REMARK       I    between atoms: C5_12  and  N4_14 
REMARK    6  A    between atoms: N4_14  and  N5_16 
REMARK    7  A    between atoms: N5_16  and  N6_18 
REMARK    8  A    between atoms: N6_18  and  C6_20 
REMARK    9  A    between atoms: C8_25  and  N9_26 
REMARK   10  A    between atoms: N11_33  and  N12_34 
REMARK   11  A    between atoms: N14_41  and  N15_42 
ROOT
HETATM    1  C3  UNL     1       7.757 -12.388   6.826  1.00  0.00     0.284 A 
HETATM    2  O1  UNL     1       8.239 -12.434   5.607  1.00  0.00    -0.195 OA
HETATM    3  N3  UNL     1       8.950 -13.512   5.482  1.00  0.00    -0.235 N 
ATOM      4  H3  UNL     1       9.441 -13.798   4.635  1.00  0.00     0.197 HD
HETATM    5  C4  UNL     1       8.939 -14.204   6.657  1.00  0.00     0.221 A 
HETATM    6  N11 UNL     1       8.179 -13.477   7.494  1.00  0.00    -0.199 N 
ENDROOT
BRANCH   5   7
HETATM    7  C5  UNL     1       9.596 -15.454   6.960  1.00  0.00     0.308 C 
HETATM    8  O2  UNL     1       8.910 -16.486   7.169  1.00  0.00    -0.262 OA
HETATM    9  N4  UNL     1      11.009 -15.571   7.032  1.00  0.00    -0.249 N 
ATOM     10  H4  UNL     1      11.573 -14.738   6.862  1.00  0.00     0.192 HD
BRANCH   9  11
HETATM   11  N5  UNL     1      11.663 -16.760   7.320  1.00  0.00    -0.239 N 
ATOM     12  H5  UNL     1      11.859 -17.021   8.286  1.00  0.00     0.208 HD
BRANCH  11  13
HETATM   13  N6  UNL     1      12.018 -17.526   6.354  1.00  0.00    -0.278 N 
ATOM     14  H6  UNL     1      12.883 -17.332   5.848  1.00  0.00     0.189 HD
BRANCH  13  15
HETATM   15  C6  UNL     1      11.220 -18.642   5.980  1.00  0.00     0.160 A 
HETATM   16  C7  UNL     1      10.622 -18.682   4.739  1.00  0.00     0.165 A 
HETATM   17  N7  UNL     1      10.787 -17.603   3.798  1.00  0.00    -0.079 NA
HETATM   18  N8  UNL     1       9.871 -19.757   4.419  1.00  0.00    -0.176 N 
HETATM   19  C8  UNL     1       9.690 -20.786   5.267  1.00  0.00     0.680 A 
ATOM     20  H8  UNL     1       9.426 -19.790   3.502  1.00  0.00     0.185 HD
HETATM   21  N10 UNL     1      10.275 -20.742   6.472  1.00  0.00    -0.154 N 
HETATM   22  C9  UNL     1      11.034 -19.697   6.849  1.00  0.00     0.291 A 
ATOM     23  H10 UNL     1      10.141 -21.519   7.119  1.00  0.00     0.187 HD
HETATM   24  O3  UNL     1      11.557 -19.712   7.993  1.00  0.00    -0.265 OA
BRANCH  19  25
HETATM   25  N9  UNL     1       8.956 -21.817   4.928  1.00  0.00    -0.234 N 
ATOM     26  H92 UNL     1       8.059 -21.677   4.461  1.00  0.00     0.174 HD
ATOM     27  H91 UNL     1       9.265 -22.769   5.124  1.00  0.00     0.174 HD
ENDBRANCH  19  25
ENDBRANCH  13  15
ENDBRANCH  11  13
ENDBRANCH   9  11
ENDBRANCH   5   7
BRANCH   6  28
HETATM   28  N12 UNL     1       7.911 -13.847   8.825  1.00  0.00    -0.333 N 
ATOM     29 2H12 UNL     1       7.001 -13.736   9.271  1.00  0.00     0.177 HD
ATOM     30 1H12 UNL     1       8.545 -14.258   9.510  1.00  0.00     0.177 HD
ENDBRANCH   6  28
BRANCH   1  31
HETATM   31  N2  UNL     1       7.006 -11.457   7.304  1.00  0.00    -0.262 N 
ATOM     32  H2  UNL     1       6.074 -11.372   6.899  1.00  0.00     0.190 HD
BRANCH  31  33
HETATM   33  N1  UNL     1       7.317 -10.593   8.271  1.00  0.00    -0.300 N 
ATOM     34  H1  UNL     1       7.837 -11.083   8.999  1.00  0.00     0.186 HD
BRANCH  33  35
HETATM   35  C2  UNL     1       7.197  -9.408   8.598  1.00  0.00     0.052 C 
HETATM   36  C1  UNL     1       7.610  -9.112  10.041  1.00  0.00     0.072 C 
BRANCH  35  37
HETATM   37  C10 UNL     1       6.722  -8.265   7.812  1.00  0.00     0.100 A 
HETATM   38  N13 UNL     1       6.982  -6.955   8.159  1.00  0.00    -0.346 N 
HETATM   39  C11 UNL     1       6.420  -6.153   7.251  1.00  0.00     0.208 A 
ATOM     40  H13 UNL     1       7.515  -6.650   8.974  1.00  0.00     0.167 HD
HETATM   41  N14 UNL     1       5.795  -6.860   6.311  1.00  0.00    -0.242 N 
HETATM   42  C12 UNL     1       5.987  -8.171   6.666  1.00  0.00     0.167 A 
HETATM   43  N16 UNL     1       5.469  -9.260   5.907  1.00  0.00    -0.078 NA
BRANCH  41  44
HETATM   44  N15 UNL     1       5.085  -6.441   5.190  1.00  0.00    -0.336 N 
ATOM     45 2H15 UNL     1       5.230  -5.552   4.712  1.00  0.00     0.177 HD
ATOM     46 1H15 UNL     1       4.341  -6.903   4.669  1.00  0.00     0.177 HD
ENDBRANCH  41  44
ENDBRANCH  35  37
ENDBRANCH  33  35
ENDBRANCH  31  33
ENDBRANCH   1  31
TORSDOF 11
ENDMDL
MODEL 5
REMARK VINA RESULT: -7.441544969      3.541      4.928
REMARK  11 active torsions:
REMARK  status: ('A' for Active; 'I' for Inactive)
REMARK    1  A    between atoms: C2_2  and  N1_3 
REMARK    2  A    between atoms: C2_2  and  C10_37 
REMARK    3  A    between atoms: N1_3  and  N2_5 
REMARK    4  A    between atoms: N2_5  and  C3_7 
REMARK    5  A    between atoms: C4_11  and  C5_12 
REMARK       I    between atoms: C5_12  and  N4_14 
REMARK    6  A    between atoms: N4_14  and  N5_16 
REMARK    7  A    between atoms: N5_16  and  N6_18 
REMARK    8  A    between atoms: N6_18  and  C6_20 
REMARK    9  A    between atoms: C8_25  and  N9_26 
REMARK   10  A    between atoms: N11_33  and  N12_34 
REMARK   11  A    between atoms: N14_41  and  N15_42 
ROOT
HETATM    1  C3  UNL     1       8.674 -15.009   6.727  1.00  0.00     0.284 A 
HETATM    2  O1  UNL     1       8.598 -16.240   7.171  1.00  0.00    -0.195 OA
HETATM    3  N3  UNL     1       9.439 -16.973   6.508  1.00  0.00    -0.235 N 
ATOM      4  H3  UNL     1       9.587 -17.973   6.649  1.00  0.00     0.197 HD
HETATM    5  C4  UNL     1      10.093 -16.202   5.594  1.00  0.00     0.221 A 
HETATM    6  N11 UNL     1       9.595 -14.963   5.748  1.00  0.00    -0.199 N 
ENDROOT
BRANCH   5   7
HETATM    7  C5  UNL     1      11.109 -16.609   4.650  1.00  0.00     0.308 C 
HETATM    8  O2  UNL     1      12.310 -16.305   4.857  1.00  0.00    -0.262 OA
HETATM    9  N4  UNL     1      10.804 -17.351   3.479  1.00  0.00    -0.249 N 
ATOM     10  H4  UNL     1       9.831 -17.602   3.305  1.00  0.00     0.192 HD
BRANCH   9  11
HETATM   11  N5  UNL     1      11.761 -17.753   2.559  1.00  0.00    -0.239 N 
ATOM     12  H5  UNL     1      11.968 -18.743   2.426  1.00  0.00     0.208 HD
BRANCH  11  13
HETATM   13  N6  UNL     1      12.382 -16.861   1.877  1.00  0.00    -0.278 N 
ATOM     14  H6  UNL     1      12.008 -15.913   1.827  1.00  0.00     0.189 HD
BRANCH  13  15
HETATM   15  C6  UNL     1      13.585 -17.179   1.189  1.00  0.00     0.160 A 
HETATM   16  C7  UNL     1      13.540 -17.647  -0.107  1.00  0.00     0.165 A 
HETATM   17  N7  UNL     1      12.284 -17.826  -0.790  1.00  0.00    -0.079 NA
HETATM   18  N8  UNL     1      14.702 -17.938  -0.728  1.00  0.00    -0.176 N 
HETATM   19  C8  UNL     1      15.896 -17.787  -0.128  1.00  0.00     0.680 A 
ATOM     20  H8  UNL     1      14.673 -18.287  -1.686  1.00  0.00     0.185 HD
HETATM   21  N10 UNL     1      15.934 -17.330   1.132  1.00  0.00    -0.154 N 
HETATM   22  C9  UNL     1      14.810 -17.022   1.804  1.00  0.00     0.291 A 
ATOM     23  H10 UNL     1      16.837 -17.213   1.592  1.00  0.00     0.187 HD
HETATM   24  O3  UNL     1      14.909 -16.599   2.984  1.00  0.00    -0.265 OA
BRANCH  19  25
HETATM   25  N9  UNL     1      17.009 -18.078  -0.756  1.00  0.00    -0.234 N 
ATOM     26  H92 UNL     1      17.324 -19.046  -0.818  1.00  0.00     0.174 HD
ATOM     27  H91 UNL     1      17.573 -17.347  -1.190  1.00  0.00     0.174 HD
ENDBRANCH  19  25
ENDBRANCH  13  15
ENDBRANCH  11  13
ENDBRANCH   9  11
ENDBRANCH   5   7
BRANCH   6  28
HETATM   28  N12 UNL     1      10.010 -13.855   4.985  1.00  0.00    -0.333 N 
ATOM     29 2H12 UNL     1      10.798 -13.259   5.236  1.00  0.00     0.177 HD
ATOM     30 1H12 UNL     1       9.612 -13.497   4.117  1.00  0.00     0.177 HD
ENDBRANCH   6  28
BRANCH   1  31
HETATM   31  N2  UNL     1       7.982 -14.010   7.155  1.00  0.00    -0.262 N 
ATOM     32  H2  UNL     1       7.547 -13.421   6.445  1.00  0.00     0.190 HD
BRANCH  31  33
HETATM   33  N1  UNL     1       7.773 -13.665   8.426  1.00  0.00    -0.300 N 
ATOM     34  H1  UNL     1       7.382 -14.463   8.926  1.00  0.00     0.186 HD
BRANCH  33  35
HETATM   35  C2  UNL     1       7.885 -12.719   9.212  1.00  0.00     0.052 C 
HETATM   36  C1  UNL     1       8.291 -13.129  10.629  1.00  0.00     0.072 C 
BRANCH  35  37
HETATM   37  C10 UNL     1       7.687 -11.284   8.983  1.00  0.00     0.100 A 
HETATM   38  N13 UNL     1       7.549 -10.372  10.010  1.00  0.00    -0.346 N 
HETATM   39  C11 UNL     1       7.385  -9.157   9.480  1.00  0.00     0.208 A 
ATOM     40  H13 UNL     1       7.568 -10.590  11.006  1.00  0.00     0.167 HD
HETATM   41  N14 UNL     1       7.407  -9.207   8.150  1.00  0.00    -0.242 N 
HETATM   42  C12 UNL     1       7.595 -10.533   7.848  1.00  0.00     0.167 A 
HETATM   43  N16 UNL     1       7.678 -11.016   6.510  1.00  0.00    -0.078 NA
BRANCH  41  44
HETATM   44  N15 UNL     1       7.276  -8.194   7.207  1.00  0.00    -0.336 N 
ATOM     45 2H15 UNL     1       7.768  -8.165   6.314  1.00  0.00     0.177 HD
ATOM     46 1H15 UNL     1       6.707  -7.347   7.221  1.00  0.00     0.177 HD
ENDBRANCH  41  44
ENDBRANCH  35  37
ENDBRANCH  33  35
ENDBRANCH  31  33
ENDBRANCH   1  31
TORSDOF 11
ENDMDL
