MODEL 1
REMARK VINA RESULT: -4.241488523      0.000      0.000
REMARK  2 active torsions:
REMARK  status: ('A' for Active; 'I' for Inactive)
REMARK    1  A    between atoms: N1_6  and  O1_8 
REMARK    2  A    between atoms: C6_11  and  C7_12 
ROOT
HETATM    1  C1  UNL     1     -23.366  12.224  -4.201  1.00  0.00     0.015 C 
HETATM    2  C2  UNL     1     -22.478  11.479  -5.204  1.00  0.00    -0.041 C 
HETATM    3  C3  UNL     1     -22.496  12.364  -6.458  1.00  0.00     0.015 C 
HETATM    4  C4  UNL     1     -23.155  10.216  -5.622  1.00  0.00     0.075 C 
HETATM    5  C5  UNL     1     -22.904   9.065  -4.761  1.00  0.00     0.069 C 
HETATM    6  N1  UNL     1     -23.844   8.308  -4.420  1.00  0.00    -0.267 N 
ATOM      7  H1  UNL     1     -24.762   8.562  -4.786  1.00  0.00     0.194 HD
HETATM    8  S1  UNL     1     -21.249   8.772  -4.219  1.00  0.00    -0.103 SA
HETATM    9  C6  UNL     1     -20.308  10.177  -4.943  1.00  0.00     0.115 C 
HETATM   10  C8  UNL     1     -21.095  11.411  -4.726  1.00  0.00     0.031 C 
ENDROOT
BRANCH   6  11
HETATM   11  O1  UNL     1     -23.820   7.212  -3.646  1.00  0.00    -0.289 OA
ATOM     12  H1  UNL     1     -24.541   6.715  -3.279  1.00  0.00     0.244 HD
ENDBRANCH   6  11
BRANCH   9  13
HETATM   13  C7  UNL     1     -19.017  10.285  -4.208  1.00  0.00     0.246 C 
HETATM   14  O2  UNL     1     -17.938  10.210  -4.792  1.00  0.00    -0.306 OA
ENDBRANCH   9  13
TORSDOF 2
ENDMDL
MODEL 2
REMARK VINA RESULT: -3.900586514      1.909      4.016
REMARK  2 active torsions:
REMARK  status: ('A' for Active; 'I' for Inactive)
REMARK    1  A    between atoms: N1_6  and  O1_8 
REMARK    2  A    between atoms: C6_11  and  C7_12 
ROOT
HETATM    1  C1  UNL     1     -21.923  12.158  -6.094  1.00  0.00     0.015 C 
HETATM    2  C2  UNL     1     -22.541  11.260  -5.016  1.00  0.00    -0.041 C 
HETATM    3  C3  UNL     1     -23.138  12.243  -3.998  1.00  0.00     0.015 C 
HETATM    4  C4  UNL     1     -21.453  10.559  -4.272  1.00  0.00     0.075 C 
HETATM    5  C5  UNL     1     -21.009   9.301  -4.864  1.00  0.00     0.069 C 
HETATM    6  N1  UNL     1     -19.787   9.035  -4.952  1.00  0.00    -0.267 N 
ATOM      7  H1  UNL     1     -19.158   9.752  -4.588  1.00  0.00     0.194 HD
HETATM    8  S1  UNL     1     -22.236   8.173  -5.446  1.00  0.00    -0.103 SA
HETATM    9  C6  UNL     1     -23.817   9.061  -5.133  1.00  0.00     0.115 C 
HETATM   10  C8  UNL     1     -23.642  10.465  -5.567  1.00  0.00     0.031 C 
ENDROOT
BRANCH   6  11
HETATM   11  O1  UNL     1     -19.184   7.948  -5.456  1.00  0.00    -0.289 OA
ATOM     12  H1  UNL     1     -18.545   7.881  -6.156  1.00  0.00     0.244 HD
ENDBRANCH   6  11
BRANCH   9  13
HETATM   13  C7  UNL     1     -24.871   8.420  -5.966  1.00  0.00     0.246 C 
HETATM   14  O2  UNL     1     -25.437   7.391  -5.604  1.00  0.00    -0.306 OA
ENDBRANCH   9  13
TORSDOF 2
ENDMDL
MODEL 3
REMARK VINA RESULT: -3.856996998      2.924      3.864
REMARK  2 active torsions:
REMARK  status: ('A' for Active; 'I' for Inactive)
REMARK    1  A    between atoms: N1_6  and  O1_8 
REMARK    2  A    between atoms: C6_11  and  C7_12 
ROOT
HETATM    1  C1  UNL     1     -20.900  12.785  -5.185  1.00  0.00     0.015 C 
HETATM    2  C2  UNL     1     -22.281  12.132  -5.059  1.00  0.00    -0.041 C 
HETATM    3  C3  UNL     1     -23.007  12.976  -4.002  1.00  0.00     0.015 C 
HETATM    4  C4  UNL     1     -22.135  10.784  -4.433  1.00  0.00     0.075 C 
HETATM    5  C5  UNL     1     -21.862   9.695  -5.365  1.00  0.00     0.069 C 
HETATM    6  N1  UNL     1     -20.988   8.835  -5.101  1.00  0.00    -0.267 N 
ATOM      7  H1  UNL     1     -20.506   8.965  -4.211  1.00  0.00     0.194 HD
HETATM    8  S1  UNL     1     -22.792   9.623  -6.864  1.00  0.00    -0.103 SA
HETATM    9  C6  UNL     1     -23.864  11.116  -6.773  1.00  0.00     0.115 C 
HETATM   10  C8  UNL     1     -23.029  12.248  -6.314  1.00  0.00     0.031 C 
ENDROOT
BRANCH   6  11
HETATM   11  O1  UNL     1     -20.593   7.771  -5.816  1.00  0.00    -0.289 OA
ATOM     12  H1  UNL     1     -19.890   7.697  -6.451  1.00  0.00     0.244 HD
ENDBRANCH   6  11
BRANCH   9  13
HETATM   13  C7  UNL     1     -24.362  11.401  -8.146  1.00  0.00     0.246 C 
HETATM   14  O2  UNL     1     -23.917  12.336  -8.809  1.00  0.00    -0.306 OA
ENDBRANCH   9  13
TORSDOF 2
ENDMDL
MODEL 4
REMARK VINA RESULT: -3.843344156      1.812      3.789
REMARK  2 active torsions:
REMARK  status: ('A' for Active; 'I' for Inactive)
REMARK    1  A    between atoms: N1_6  and  O1_8 
REMARK    2  A    between atoms: C6_11  and  C7_12 
ROOT
HETATM    1  C1  UNL     1     -22.687  11.981  -6.413  1.00  0.00     0.015 C 
HETATM    2  C2  UNL     1     -22.897  11.092  -5.182  1.00  0.00    -0.041 C 
HETATM    3  C3  UNL     1     -24.072  11.741  -4.438  1.00  0.00     0.015 C 
HETATM    4  C4  UNL     1     -21.733  11.243  -4.258  1.00  0.00     0.075 C 
HETATM    5  C5  UNL     1     -20.607  10.357  -4.530  1.00  0.00     0.069 C 
HETATM    6  N1  UNL     1     -19.432  10.797  -4.511  1.00  0.00    -0.267 N 
ATOM      7  H1  UNL     1     -19.343  11.790  -4.296  1.00  0.00     0.194 HD
HETATM    8  S1  UNL     1     -20.944   8.661  -4.885  1.00  0.00    -0.103 SA
HETATM    9  C6  UNL     1     -22.781   8.572  -4.841  1.00  0.00     0.115 C 
HETATM   10  C8  UNL     1     -23.309   9.742  -5.578  1.00  0.00     0.031 C 
ENDROOT
BRANCH   6  11
HETATM   11  O1  UNL     1     -18.276  10.153  -4.731  1.00  0.00    -0.289 OA
ATOM     12  H1  UNL     1     -17.897   9.853  -5.549  1.00  0.00     0.244 HD
ENDBRANCH   6  11
BRANCH   9  13
HETATM   13  C7  UNL     1     -23.192   7.326  -5.545  1.00  0.00     0.246 C 
HETATM   14  O2  UNL     1     -22.436   6.361  -5.633  1.00  0.00    -0.306 OA
ENDBRANCH   9  13
TORSDOF 2
ENDMDL
MODEL 5
REMARK VINA RESULT: -3.789378285      3.783      4.607
REMARK  2 active torsions:
REMARK  status: ('A' for Active; 'I' for Inactive)
REMARK    1  A    between atoms: N1_6  and  O1_8 
REMARK    2  A    between atoms: C6_11  and  C7_12 
ROOT
HETATM    1  C1  UNL     1     -22.026  10.555  -4.303  1.00  0.00     0.015 C 
HETATM    2  C2  UNL     1     -22.301  11.864  -5.053  1.00  0.00    -0.041 C 
HETATM    3  C3  UNL     1     -20.952  12.597  -5.049  1.00  0.00     0.015 C 
HETATM    4  C4  UNL     1     -23.203  12.725  -4.232  1.00  0.00     0.075 C 
HETATM    5  C5  UNL     1     -24.630  12.483  -4.420  1.00  0.00     0.069 C 
HETATM    6  N1  UNL     1     -25.399  12.419  -3.431  1.00  0.00    -0.267 N 
ATOM      7  H1  UNL     1     -24.953  12.546  -2.523  1.00  0.00     0.194 HD
HETATM    8  S1  UNL     1     -25.235  12.286  -6.066  1.00  0.00    -0.103 SA
HETATM    9  C6  UNL     1     -23.716  12.409  -7.097  1.00  0.00     0.115 C 
HETATM   10  C8  UNL     1     -22.660  11.599  -6.449  1.00  0.00     0.031 C 
ENDROOT
BRANCH   6  11
HETATM   11  O1  UNL     1     -26.724  12.208  -3.394  1.00  0.00    -0.289 OA
ATOM     12  H1  UNL     1     -27.360  12.474  -2.740  1.00  0.00     0.244 HD
ENDBRANCH   6  11
BRANCH   9  13
HETATM   13  C7  UNL     1     -24.026  11.829  -8.433  1.00  0.00     0.246 C 
HETATM   14  O2  UNL     1     -24.104  12.535  -9.436  1.00  0.00    -0.306 OA
ENDBRANCH   9  13
TORSDOF 2
ENDMDL
