MODEL 1
REMARK VINA RESULT: -7.305328816      0.000      0.000
REMARK  4 active torsions:
REMARK  status: ('A' for Active; 'I' for Inactive)
REMARK    1  A    between atoms: C2_2  and  C3_4 
REMARK    2  A    between atoms: C10_11  and  N1_12 
REMARK    3  A    between atoms: N1_12  and  N2_13 
REMARK    4  A    between atoms: C11_16  and  C12_17 
ROOT
HETATM    1  C3  UNL     1      44.582  40.754  75.742  1.00  0.00     0.068 C 
HETATM    2  C4  UNL     1      44.674  41.612  76.967  1.00  0.00     0.018 C 
HETATM    3  C5  UNL     1      46.001  41.799  77.574  1.00  0.00    -0.009 C 
HETATM    4  C6  UNL     1      45.923  42.925  78.619  1.00  0.00     0.005 C 
HETATM    5  C7  UNL     1      45.486  41.831  79.605  1.00  0.00     0.006 C 
HETATM    6  C8  UNL     1      46.252  40.866  78.763  1.00  0.00    -0.004 C 
HETATM    7  C9  UNL     1      45.611  39.520  78.519  1.00  0.00     0.076 C 
HETATM    8  C10 UNL     1      45.943  39.162  77.120  1.00  0.00     0.094 C 
HETATM    9  C11 UNL     1      45.102  39.348  75.936  1.00  0.00     0.092 C 
ENDROOT
BRANCH   8  10
HETATM   10  N1  UNL     1      47.074  38.646  76.977  1.00  0.00    -0.341 NA
BRANCH  10  11
HETATM   11  N2  UNL     1      48.085  37.926  76.918  1.00  0.00    -0.280 N 
ATOM     12  H22 UNL     1      48.033  37.765  77.924  1.00  0.00     0.191 HD
ATOM     13  H21 UNL     1      48.909  37.379  76.668  1.00  0.00     0.191 HD
ENDBRANCH  10  11
ENDBRANCH   8  10
BRANCH   9  14
HETATM   14  C12 UNL     1      43.989  38.318  75.972  1.00  0.00     0.177 C 
HETATM   15  C13 UNL     1      44.359  37.110  75.106  1.00  0.00     0.046 C 
HETATM   16  F1  UNL     1      42.803  38.821  75.482  1.00  0.00    -0.249 F 
ENDBRANCH   9  14
BRANCH   1  17
HETATM   17  C2  UNL     1      45.101  41.374  74.528  1.00  0.00     0.128 C 
HETATM   18  C1  UNL     1      44.416  42.435  73.745  1.00  0.00     0.091 C 
HETATM   19  O1  UNL     1      46.181  41.020  74.091  1.00  0.00    -0.298 OA
ENDBRANCH   1  17
TORSDOF 4
ENDMDL
MODEL 2
REMARK VINA RESULT: -7.126787299      2.543      3.908
REMARK  4 active torsions:
REMARK  status: ('A' for Active; 'I' for Inactive)
REMARK    1  A    between atoms: C2_2  and  C3_4 
REMARK    2  A    between atoms: C10_11  and  N1_12 
REMARK    3  A    between atoms: N1_12  and  N2_13 
REMARK    4  A    between atoms: C11_16  and  C12_17 
ROOT
HETATM    1  C3  UNL     1      45.127  39.760  76.124  1.00  0.00     0.068 C 
HETATM    2  C4  UNL     1      46.076  39.279  77.180  1.00  0.00     0.018 C 
HETATM    3  C5  UNL     1      45.677  39.448  78.586  1.00  0.00    -0.009 C 
HETATM    4  C6  UNL     1      46.633  38.641  79.481  1.00  0.00     0.005 C 
HETATM    5  C7  UNL     1      47.533  39.885  79.455  1.00  0.00     0.006 C 
HETATM    6  C8  UNL     1      46.295  40.689  79.239  1.00  0.00    -0.004 C 
HETATM    7  C9  UNL     1      46.385  41.818  78.239  1.00  0.00     0.076 C 
HETATM    8  C10 UNL     1      45.084  41.835  77.531  1.00  0.00     0.094 C 
HETATM    9  C11 UNL     1      44.774  41.225  76.236  1.00  0.00     0.092 C 
ENDROOT
BRANCH   8  10
HETATM   10  N1  UNL     1      44.176  42.448  78.138  1.00  0.00    -0.341 NA
BRANCH  10  11
HETATM   11  N2  UNL     1      43.465  43.165  78.861  1.00  0.00    -0.280 N 
ATOM     12  H22 UNL     1      44.298  43.533  79.321  1.00  0.00     0.191 HD
ATOM     13  H21 UNL     1      42.726  43.669  79.351  1.00  0.00     0.191 HD
ENDBRANCH  10  11
ENDBRANCH   8  10
BRANCH   9  14
HETATM   14  C12 UNL     1      45.417  42.062  75.146  1.00  0.00     0.177 C 
HETATM   15  C13 UNL     1      44.468  42.193  73.951  1.00  0.00     0.046 C 
HETATM   16  F1  UNL     1      46.583  41.494  74.680  1.00  0.00    -0.249 F 
ENDBRANCH   9  14
BRANCH   1  17
HETATM   17  C2  UNL     1      43.950  38.918  75.940  1.00  0.00     0.128 C 
HETATM   18  C1  UNL     1      43.955  37.433  75.892  1.00  0.00     0.091 C 
HETATM   19  O1  UNL     1      42.857  39.439  75.812  1.00  0.00    -0.298 OA
ENDBRANCH   1  17
TORSDOF 4
ENDMDL
MODEL 3
REMARK VINA RESULT: -6.551672857      2.638      4.924
REMARK  4 active torsions:
REMARK  status: ('A' for Active; 'I' for Inactive)
REMARK    1  A    between atoms: C2_2  and  C3_4 
REMARK    2  A    between atoms: C10_11  and  N1_12 
REMARK    3  A    between atoms: N1_12  and  N2_13 
REMARK    4  A    between atoms: C11_16  and  C12_17 
ROOT
HETATM    1  C3  UNL     1      46.216  39.435  78.360  1.00  0.00     0.068 C 
HETATM    2  C4  UNL     1      45.278  38.544  77.604  1.00  0.00     0.018 C 
HETATM    3  C5  UNL     1      45.314  38.600  76.135  1.00  0.00    -0.009 C 
HETATM    4  C6  UNL     1      44.505  37.422  75.565  1.00  0.00     0.005 C 
HETATM    5  C7  UNL     1      43.282  38.342  75.696  1.00  0.00     0.006 C 
HETATM    6  C8  UNL     1      44.219  39.493  75.542  1.00  0.00    -0.004 C 
HETATM    7  C9  UNL     1      43.977  40.689  76.434  1.00  0.00     0.076 C 
HETATM    8  C10 UNL     1      45.320  41.190  76.810  1.00  0.00     0.094 C 
HETATM    9  C11 UNL     1      46.059  40.904  78.042  1.00  0.00     0.092 C 
ENDROOT
BRANCH   8  10
HETATM   10  N1  UNL     1      45.847  41.937  75.954  1.00  0.00    -0.341 NA
BRANCH  10  11
HETATM   11  N2  UNL     1      46.186  42.596  74.957  1.00  0.00    -0.280 N 
ATOM     12  H22 UNL     1      45.869  41.843  74.347  1.00  0.00     0.191 HD
ATOM     13  H21 UNL     1      46.523  43.277  74.277  1.00  0.00     0.191 HD
ENDBRANCH  10  11
ENDBRANCH   8  10
BRANCH   9  14
HETATM   14  C12 UNL     1      45.414  41.678  79.176  1.00  0.00     0.177 C 
HETATM   15  C13 UNL     1      45.789  43.160  79.085  1.00  0.00     0.046 C 
HETATM   16  F1  UNL     1      45.831  41.227  80.411  1.00  0.00    -0.249 F 
ENDBRANCH   9  14
BRANCH   1  17
HETATM   17  C2  UNL     1      47.611  39.009  78.331  1.00  0.00     0.128 C 
HETATM   18  C1  UNL     1      48.620  39.301  79.382  1.00  0.00     0.091 C 
HETATM   19  O1  UNL     1      48.018  38.359  77.385  1.00  0.00    -0.298 OA
ENDBRANCH   1  17
TORSDOF 4
ENDMDL
MODEL 4
REMARK VINA RESULT: -6.522229622      1.626      2.117
REMARK  4 active torsions:
REMARK  status: ('A' for Active; 'I' for Inactive)
REMARK    1  A    between atoms: C2_2  and  C3_4 
REMARK    2  A    between atoms: C10_11  and  N1_12 
REMARK    3  A    between atoms: N1_12  and  N2_13 
REMARK    4  A    between atoms: C11_16  and  C12_17 
ROOT
HETATM    1  C3  UNL     1      44.816  40.666  77.077  1.00  0.00     0.068 C 
HETATM    2  C4  UNL     1      45.278  40.400  78.478  1.00  0.00     0.018 C 
HETATM    3  C5  UNL     1      46.717  40.189  78.696  1.00  0.00    -0.009 C 
HETATM    4  C6  UNL     1      47.008  40.227  80.206  1.00  0.00     0.005 C 
HETATM    5  C7  UNL     1      46.660  38.731  80.200  1.00  0.00     0.006 C 
HETATM    6  C8  UNL     1      47.099  38.707  78.774  1.00  0.00    -0.004 C 
HETATM    7  C9  UNL     1      46.256  37.896  77.818  1.00  0.00     0.076 C 
HETATM    8  C10 UNL     1      46.231  38.664  76.551  1.00  0.00     0.094 C 
HETATM    9  C11 UNL     1      45.185  39.580  76.092  1.00  0.00     0.092 C 
ENDROOT
BRANCH   8  10
HETATM   10  N1  UNL     1      47.231  38.481  75.820  1.00  0.00    -0.341 NA
BRANCH  10  11
HETATM   11  N2  UNL     1      48.079  38.130  74.983  1.00  0.00    -0.280 N 
ATOM     12  H22 UNL     1      48.668  37.761  75.730  1.00  0.00     0.191 HD
ATOM     13  H21 UNL     1      48.643  37.921  74.159  1.00  0.00     0.191 HD
ENDBRANCH  10  11
ENDBRANCH   8  10
BRANCH   9  14
HETATM   14  C12 UNL     1      43.986  38.759  75.658  1.00  0.00     0.177 C 
HETATM   15  C13 UNL     1      43.974  38.605  74.134  1.00  0.00     0.046 C 
HETATM   16  F1  UNL     1      42.795  39.354  76.017  1.00  0.00    -0.249 F 
ENDBRANCH   9  14
BRANCH   1  17
HETATM   17  C2  UNL     1      45.136  41.999  76.577  1.00  0.00     0.128 C 
HETATM   18  C1  UNL     1      45.814  42.292  75.287  1.00  0.00     0.091 C 
HETATM   19  O1  UNL     1      44.838  42.974  77.242  1.00  0.00    -0.298 OA
ENDBRANCH   1  17
TORSDOF 4
ENDMDL
MODEL 5
REMARK VINA RESULT: -6.467565740      1.679      1.904
REMARK  4 active torsions:
REMARK  status: ('A' for Active; 'I' for Inactive)
REMARK    1  A    between atoms: C2_2  and  C3_4 
REMARK    2  A    between atoms: C10_11  and  N1_12 
REMARK    3  A    between atoms: N1_12  and  N2_13 
REMARK    4  A    between atoms: C11_16  and  C12_17 
ROOT
HETATM    1  C3  UNL     1      45.295  40.606  76.728  1.00  0.00     0.068 C 
HETATM    2  C4  UNL     1      44.804  41.728  77.592  1.00  0.00     0.018 C 
HETATM    3  C5  UNL     1      45.807  42.539  78.298  1.00  0.00    -0.009 C 
HETATM    4  C6  UNL     1      45.126  43.790  78.879  1.00  0.00     0.005 C 
HETATM    5  C7  UNL     1      44.796  42.912  80.095  1.00  0.00     0.006 C 
HETATM    6  C8  UNL     1      46.007  42.110  79.755  1.00  0.00    -0.004 C 
HETATM    7  C9  UNL     1      45.884  40.609  79.882  1.00  0.00     0.076 C 
HETATM    8  C10 UNL     1      46.661  40.044  78.754  1.00  0.00     0.094 C 
HETATM    9  C11 UNL     1      46.143  39.592  77.461  1.00  0.00     0.092 C 
ENDROOT
BRANCH   8  10
HETATM   10  N1  UNL     1      47.892  39.959  78.970  1.00  0.00    -0.341 NA
BRANCH  10  11
HETATM   11  N2  UNL     1      49.042  39.781  79.404  1.00  0.00    -0.280 N 
ATOM     12  H22 UNL     1      48.682  39.765  80.359  1.00  0.00     0.191 HD
ATOM     13  H21 UNL     1      50.040  39.642  79.563  1.00  0.00     0.191 HD
ENDBRANCH  10  11
ENDBRANCH   8  10
BRANCH   9  14
HETATM   14  C12 UNL     1      45.420  38.274  77.669  1.00  0.00     0.177 C 
HETATM   15  C13 UNL     1      46.380  37.103  77.439  1.00  0.00     0.046 C 
HETATM   16  F1  UNL     1      44.368  38.118  76.792  1.00  0.00    -0.249 F 
ENDBRANCH   9  14
BRANCH   1  17
HETATM   17  C2  UNL     1      45.903  41.032  75.472  1.00  0.00     0.128 C 
HETATM   18  C1  UNL     1      45.771  42.383  74.869  1.00  0.00     0.091 C 
HETATM   19  O1  UNL     1      46.581  40.243  74.839  1.00  0.00    -0.298 OA
ENDBRANCH   1  17
TORSDOF 4
ENDMDL
