MODEL 1
REMARK VINA RESULT: -7.230646121      0.000      0.000
REMARK  2 active torsions:
REMARK  status: ('A' for Active; 'I' for Inactive)
REMARK    1  A    between atoms: C2_2  and  N1_4 
REMARK       I    between atoms: N1_4  and  C5_6 
REMARK    2  A    between atoms: C5_6  and  C6_8 
ROOT
HETATM    1  C6  UNL     1      45.014  40.553  76.183  1.00  0.00     0.045 C 
HETATM    2  C7  UNL     1      46.357  39.911  75.974  1.00  0.00     0.027 C 
HETATM    3  C8  UNL     1      45.910  38.527  75.484  1.00  0.00     0.021 C 
HETATM    4  C9  UNL     1      44.992  38.157  76.656  1.00  0.00     0.013 C 
HETATM    5  C10 UNL     1      44.154  39.418  76.715  1.00  0.00     0.004 C 
HETATM    6  C11 UNL     1      43.062  39.229  75.654  1.00  0.00     0.013 C 
HETATM    7  C12 UNL     1      43.880  39.525  74.410  1.00  0.00     0.021 C 
HETATM    8  C13 UNL     1      44.471  40.887  74.811  1.00  0.00     0.027 C 
HETATM    9  C14 UNL     1      45.059  38.597  74.265  1.00  0.00     0.178 C 
HETATM   10  F1  UNL     1      44.573  37.327  74.020  1.00  0.00    -0.249 F 
ENDROOT
BRANCH   1  11
HETATM   11  C5  UNL     1      45.008  41.683  77.120  1.00  0.00     0.229 C 
HETATM   12  N1  UNL     1      45.361  41.639  78.489  1.00  0.00    -0.352 N 
HETATM   13  C4  UNL     1      45.786  40.436  79.170  1.00  0.00     0.153 C 
HETATM   14  O1  UNL     1      44.648  42.808  76.653  1.00  0.00    -0.272 OA
BRANCH  12  15
HETATM   15  C2  UNL     1      45.297  42.853  79.264  1.00  0.00     0.078 C 
HETATM   16  C1  UNL     1      45.927  42.552  80.632  1.00  0.00     0.032 C 
HETATM   17  C3  UNL     1      43.878  43.309  79.501  1.00  0.00     0.032 C 
ENDBRANCH  12  15
ENDBRANCH   1  11
TORSDOF 2
ENDMDL
MODEL 2
REMARK VINA RESULT: -7.160177029      0.683      1.856
REMARK  2 active torsions:
REMARK  status: ('A' for Active; 'I' for Inactive)
REMARK    1  A    between atoms: C2_2  and  N1_4 
REMARK       I    between atoms: N1_4  and  C5_6 
REMARK    2  A    between atoms: C5_6  and  C6_8 
ROOT
HETATM    1  C6  UNL     1      45.060  40.491  76.402  1.00  0.00     0.045 C 
HETATM    2  C7  UNL     1      43.849  39.607  76.515  1.00  0.00     0.027 C 
HETATM    3  C8  UNL     1      43.885  38.938  75.134  1.00  0.00     0.021 C 
HETATM    4  C9  UNL     1      43.904  40.206  74.269  1.00  0.00     0.013 C 
HETATM    5  C10 UNL     1      45.034  40.950  74.952  1.00  0.00     0.004 C 
HETATM    6  C11 UNL     1      46.321  40.379  74.342  1.00  0.00     0.013 C 
HETATM    7  C12 UNL     1      46.387  39.066  75.100  1.00  0.00     0.021 C 
HETATM    8  C13 UNL     1      46.271  39.594  76.540  1.00  0.00     0.027 C 
HETATM    9  C14 UNL     1      45.161  38.215  74.879  1.00  0.00     0.178 C 
HETATM   10  F1  UNL     1      45.156  37.810  73.558  1.00  0.00    -0.249 F 
ENDROOT
BRANCH   1  11
HETATM   11  C5  UNL     1      45.068  41.648  77.305  1.00  0.00     0.229 C 
HETATM   12  N1  UNL     1      45.406  41.637  78.678  1.00  0.00    -0.352 N 
HETATM   13  C4  UNL     1      45.798  40.446  79.398  1.00  0.00     0.153 C 
HETATM   14  O1  UNL     1      44.737  42.766  76.801  1.00  0.00    -0.272 OA
BRANCH  12  15
HETATM   15  C2  UNL     1      45.361  42.875  79.417  1.00  0.00     0.078 C 
HETATM   16  C1  UNL     1      45.971  42.601  80.799  1.00  0.00     0.032 C 
HETATM   17  C3  UNL     1      43.950  43.367  79.626  1.00  0.00     0.032 C 
ENDBRANCH  12  15
ENDBRANCH   1  11
TORSDOF 2
ENDMDL
MODEL 3
REMARK VINA RESULT: -7.097033456      1.336      2.006
REMARK  2 active torsions:
REMARK  status: ('A' for Active; 'I' for Inactive)
REMARK    1  A    between atoms: C2_2  and  N1_4 
REMARK       I    between atoms: N1_4  and  C5_6 
REMARK    2  A    between atoms: C5_6  and  C6_8 
ROOT
HETATM    1  C6  UNL     1      45.128  39.405  76.592  1.00  0.00     0.045 C 
HETATM    2  C7  UNL     1      45.415  37.958  76.878  1.00  0.00     0.027 C 
HETATM    3  C8  UNL     1      44.796  37.318  75.628  1.00  0.00     0.021 C 
HETATM    4  C9  UNL     1      43.388  37.918  75.740  1.00  0.00     0.013 C 
HETATM    5  C10 UNL     1      43.759  39.375  75.930  1.00  0.00     0.004 C 
HETATM    6  C11 UNL     1      44.000  39.919  74.516  1.00  0.00     0.013 C 
HETATM    7  C12 UNL     1      45.379  39.337  74.264  1.00  0.00     0.021 C 
HETATM    8  C13 UNL     1      46.104  39.843  75.522  1.00  0.00     0.027 C 
HETATM    9  C14 UNL     1      45.392  37.832  74.364  1.00  0.00     0.178 C 
HETATM   10  F1  UNL     1      44.647  37.329  73.315  1.00  0.00    -0.249 F 
ENDROOT
BRANCH   1  11
HETATM   11  C5  UNL     1      45.106  40.277  77.773  1.00  0.00     0.229 C 
HETATM   12  N1  UNL     1      44.827  41.663  77.786  1.00  0.00    -0.352 N 
HETATM   13  C4  UNL     1      44.520  42.432  76.600  1.00  0.00     0.153 C 
HETATM   14  O1  UNL     1      45.364  39.730  78.890  1.00  0.00    -0.272 OA
BRANCH  12  15
HETATM   15  C2  UNL     1      44.847  42.367  79.045  1.00  0.00     0.078 C 
HETATM   16  C1  UNL     1      43.606  43.269  79.081  1.00  0.00     0.032 C 
HETATM   17  C3  UNL     1      46.062  43.250  79.189  1.00  0.00     0.032 C 
ENDBRANCH  12  15
ENDBRANCH   1  11
TORSDOF 2
ENDMDL
MODEL 4
REMARK VINA RESULT: -7.088508610      1.059      1.620
REMARK  2 active torsions:
REMARK  status: ('A' for Active; 'I' for Inactive)
REMARK    1  A    between atoms: C2_2  and  N1_4 
REMARK       I    between atoms: N1_4  and  C5_6 
REMARK    2  A    between atoms: C5_6  and  C6_8 
ROOT
HETATM    1  C6  UNL     1      44.958  39.775  76.609  1.00  0.00     0.045 C 
HETATM    2  C7  UNL     1      45.175  38.361  77.069  1.00  0.00     0.027 C 
HETATM    3  C8  UNL     1      44.666  37.605  75.833  1.00  0.00     0.021 C 
HETATM    4  C9  UNL     1      43.271  38.238  75.739  1.00  0.00     0.013 C 
HETATM    5  C10 UNL     1      43.662  39.700  75.817  1.00  0.00     0.004 C 
HETATM    6  C11 UNL     1      44.058  40.089  74.387  1.00  0.00     0.013 C 
HETATM    7  C12 UNL     1      45.439  39.460  74.338  1.00  0.00     0.021 C 
HETATM    8  C13 UNL     1      46.049  40.081  75.606  1.00  0.00     0.027 C 
HETATM    9  C14 UNL     1      45.400  37.974  74.592  1.00  0.00     0.178 C 
HETATM   10  F1  UNL     1      44.750  37.377  73.528  1.00  0.00    -0.249 F 
ENDROOT
BRANCH   1  11
HETATM   11  C5  UNL     1      44.842  40.765  77.687  1.00  0.00     0.229 C 
HETATM   12  N1  UNL     1      45.767  40.973  78.735  1.00  0.00    -0.352 N 
HETATM   13  C4  UNL     1      46.986  40.213  78.893  1.00  0.00     0.153 C 
HETATM   14  O1  UNL     1      43.809  41.504  77.672  1.00  0.00    -0.272 OA
BRANCH  12  15
HETATM   15  C2  UNL     1      45.493  41.998  79.713  1.00  0.00     0.078 C 
HETATM   16  C1  UNL     1      45.968  43.331  79.119  1.00  0.00     0.032 C 
HETATM   17  C3  UNL     1      46.245  41.775  81.003  1.00  0.00     0.032 C 
ENDBRANCH  12  15
ENDBRANCH   1  11
TORSDOF 2
ENDMDL
MODEL 5
REMARK VINA RESULT: -7.004382979      3.188      5.640
REMARK  2 active torsions:
REMARK  status: ('A' for Active; 'I' for Inactive)
REMARK    1  A    between atoms: C2_2  and  N1_4 
REMARK       I    between atoms: N1_4  and  C5_6 
REMARK    2  A    between atoms: C5_6  and  C6_8 
ROOT
HETATM    1  C6  UNL     1      45.625  39.473  74.919  1.00  0.00     0.045 C 
HETATM    2  C7  UNL     1      46.498  40.542  74.324  1.00  0.00     0.027 C 
HETATM    3  C8  UNL     1      45.822  41.787  74.914  1.00  0.00     0.021 C 
HETATM    4  C9  UNL     1      44.391  41.521  74.426  1.00  0.00     0.013 C 
HETATM    5  C10 UNL     1      44.236  40.089  74.897  1.00  0.00     0.004 C 
HETATM    6  C11 UNL     1      43.833  40.191  76.374  1.00  0.00     0.013 C 
HETATM    7  C12 UNL     1      45.190  40.510  76.974  1.00  0.00     0.021 C 
HETATM    8  C13 UNL     1      46.011  39.355  76.378  1.00  0.00     0.027 C 
HETATM    9  C14 UNL     1      45.787  41.771  76.402  1.00  0.00     0.178 C 
HETATM   10  F1  UNL     1      45.008  42.836  76.814  1.00  0.00    -0.249 F 
ENDROOT
BRANCH   1  11
HETATM   11  C5  UNL     1      45.630  38.195  74.195  1.00  0.00     0.229 C 
HETATM   12  N1  UNL     1      46.732  37.323  74.043  1.00  0.00    -0.352 N 
HETATM   13  C4  UNL     1      48.043  37.582  74.595  1.00  0.00     0.153 C 
HETATM   14  O1  UNL     1      44.536  37.844  73.654  1.00  0.00    -0.272 OA
BRANCH  12  15
HETATM   15  C2  UNL     1      46.556  36.101  73.297  1.00  0.00     0.078 C 
HETATM   16  C1  UNL     1      46.346  34.973  74.316  1.00  0.00     0.032 C 
HETATM   17  C3  UNL     1      47.771  35.754  72.470  1.00  0.00     0.032 C 
ENDBRANCH  12  15
ENDBRANCH   1  11
TORSDOF 2
ENDMDL
