MODEL 1
REMARK VINA RESULT: -7.197848927      0.000      0.000
REMARK  4 active torsions:
REMARK  status: ('A' for Active; 'I' for Inactive)
REMARK    1  A    between atoms: C5_6  and  C6_7 
REMARK    2  A    between atoms: C6_7  and  O2_8 
REMARK    3  A    between atoms: C11_14  and  C12_15 
REMARK    4  A    between atoms: C12_15  and  O3_16 
ROOT
HETATM    1  C1  UNL     1      54.324  37.102  62.792  1.00  0.00     0.020 C 
HETATM    2  C2  UNL     1      53.782  37.959  63.877  1.00  0.00     0.005 C 
HETATM    3  C3  UNL     1      52.995  37.139  64.915  1.00  0.00     0.179 C 
HETATM    4  O1  UNL     1      51.951  37.858  65.437  1.00  0.00    -0.389 OA
HETATM    5  C4  UNL     1      52.214  39.182  65.696  1.00  0.00     0.179 C 
HETATM    6  C5  UNL     1      52.764  39.944  64.520  1.00  0.00     0.009 C 
HETATM    7  C7  UNL     1      52.726  38.946  63.342  1.00  0.00     0.028 C 
HETATM    8  C8  UNL     1      54.210  40.188  64.577  1.00  0.00     0.028 C 
HETATM    9  C9  UNL     1      54.774  40.850  65.770  1.00  0.00     0.011 C 
HETATM   10  C10 UNL     1      56.286  40.858  65.491  1.00  0.00     0.034 C 
HETATM   11  C11 UNL     1      56.811  39.553  65.040  1.00  0.00     0.145 C 
HETATM   12  O4  UNL     1      56.025  38.872  64.121  1.00  0.00    -0.377 OA
HETATM   13  C13 UNL     1      54.769  38.756  64.630  1.00  0.00     0.137 C 
ENDROOT
BRANCH   6  14
HETATM   14  C6  UNL     1      51.962  41.138  64.132  1.00  0.00     0.176 C 
BRANCH  14  15
HETATM   15  O2  UNL     1      50.982  40.733  63.225  1.00  0.00    -0.400 OA
ATOM     16  H2  UNL     1      51.308  39.977  62.750  1.00  0.00     0.209 HD
ENDBRANCH  14  15
ENDBRANCH   6  14
BRANCH  11  17
HETATM   17  C12 UNL     1      58.168  39.807  64.373  1.00  0.00     0.196 C 
BRANCH  17  18
HETATM   18  O3  UNL     1      58.193  39.279  63.083  1.00  0.00    -0.398 OA
ATOM     19  H3  UNL     1      59.071  39.000  62.849  1.00  0.00     0.209 HD
ENDBRANCH  17  18
ENDBRANCH  11  17
TORSDOF 4
ENDMDL
MODEL 2
REMARK VINA RESULT: -7.051565321      1.874      4.493
REMARK  4 active torsions:
REMARK  status: ('A' for Active; 'I' for Inactive)
REMARK    1  A    between atoms: C5_6  and  C6_7 
REMARK    2  A    between atoms: C6_7  and  O2_8 
REMARK    3  A    between atoms: C11_14  and  C12_15 
REMARK    4  A    between atoms: C12_15  and  O3_16 
ROOT
HETATM    1  C1  UNL     1      53.259  36.861  65.300  1.00  0.00     0.020 C 
HETATM    2  C2  UNL     1      53.618  38.148  64.653  1.00  0.00     0.005 C 
HETATM    3  C3  UNL     1      53.527  38.062  63.118  1.00  0.00     0.179 C 
HETATM    4  O1  UNL     1      54.470  38.853  62.514  1.00  0.00    -0.389 OA
HETATM    5  C4  UNL     1      54.679  40.079  63.100  1.00  0.00     0.179 C 
HETATM    6  C5  UNL     1      54.998  40.014  64.569  1.00  0.00     0.009 C 
HETATM    7  C7  UNL     1      55.098  38.507  64.893  1.00  0.00     0.028 C 
HETATM    8  C8  UNL     1      53.878  40.370  65.450  1.00  0.00     0.028 C 
HETATM    9  C9  UNL     1      53.203  41.668  65.254  1.00  0.00     0.011 C 
HETATM   10  C10 UNL     1      52.068  41.640  66.291  1.00  0.00     0.034 C 
HETATM   11  C11 UNL     1      51.293  40.383  66.284  1.00  0.00     0.145 C 
HETATM   12  O4  UNL     1      52.034  39.217  66.161  1.00  0.00    -0.377 OA
HETATM   13  C13 UNL     1      52.823  39.323  65.057  1.00  0.00     0.137 C 
ENDROOT
BRANCH   6  14
HETATM   14  C6  UNL     1      56.291  40.648  64.947  1.00  0.00     0.176 C 
BRANCH  14  15
HETATM   15  O2  UNL     1      56.376  40.678  66.339  1.00  0.00    -0.400 OA
ATOM     16  H2  UNL     1      56.835  41.470  66.594  1.00  0.00     0.209 HD
ENDBRANCH  14  15
ENDBRANCH   6  14
BRANCH  11  17
HETATM   17  C12 UNL     1      50.539  40.299  67.617  1.00  0.00     0.196 C 
BRANCH  17  18
HETATM   18  O3  UNL     1      51.360  40.683  68.676  1.00  0.00    -0.398 OA
ATOM     19  H3  UNL     1      52.222  40.291  68.595  1.00  0.00     0.209 HD
ENDBRANCH  17  18
ENDBRANCH  11  17
TORSDOF 4
ENDMDL
MODEL 3
REMARK VINA RESULT: -6.090507179      2.586      3.828
REMARK  4 active torsions:
REMARK  status: ('A' for Active; 'I' for Inactive)
REMARK    1  A    between atoms: C5_6  and  C6_7 
REMARK    2  A    between atoms: C6_7  and  O2_8 
REMARK    3  A    between atoms: C11_14  and  C12_15 
REMARK    4  A    between atoms: C12_15  and  O3_16 
ROOT
HETATM    1  C1  UNL     1      51.015  39.205  66.997  1.00  0.00     0.020 C 
HETATM    2  C2  UNL     1      51.719  40.194  66.143  1.00  0.00     0.005 C 
HETATM    3  C3  UNL     1      52.474  41.241  66.983  1.00  0.00     0.179 C 
HETATM    4  O1  UNL     1      52.488  42.465  66.365  1.00  0.00    -0.389 OA
HETATM    5  C4  UNL     1      52.679  42.441  65.004  1.00  0.00     0.179 C 
HETATM    6  C5  UNL     1      51.715  41.555  64.262  1.00  0.00     0.009 C 
HETATM    7  C7  UNL     1      50.725  41.050  65.334  1.00  0.00     0.028 C 
HETATM    8  C8  UNL     1      52.278  40.268  63.835  1.00  0.00     0.028 C 
HETATM    9  C9  UNL     1      53.514  40.264  63.029  1.00  0.00     0.011 C 
HETATM   10  C10 UNL     1      53.819  38.767  62.851  1.00  0.00     0.034 C 
HETATM   11  C11 UNL     1      53.742  37.995  64.108  1.00  0.00     0.145 C 
HETATM   12  O4  UNL     1      52.678  38.306  64.942  1.00  0.00    -0.377 OA
HETATM   13  C13 UNL     1      52.693  39.645  65.179  1.00  0.00     0.137 C 
ENDROOT
BRANCH   6  14
HETATM   14  C6  UNL     1      50.928  42.251  63.207  1.00  0.00     0.176 C 
BRANCH  14  15
HETATM   15  O2  UNL     1      49.880  42.938  63.821  1.00  0.00    -0.400 OA
ATOM     16  H2  UNL     1      49.130  42.923  63.239  1.00  0.00     0.209 HD
ENDBRANCH  14  15
ENDBRANCH   6  14
BRANCH  11  17
HETATM   17  C12 UNL     1      53.603  36.515  63.733  1.00  0.00     0.196 C 
BRANCH  17  18
HETATM   18  O3  UNL     1      53.954  36.306  62.400  1.00  0.00    -0.398 OA
ATOM     19  H3  UNL     1      53.895  37.114  61.905  1.00  0.00     0.209 HD
ENDBRANCH  17  18
ENDBRANCH  11  17
TORSDOF 4
ENDMDL
MODEL 4
REMARK VINA RESULT: -6.030612116      2.145      4.131
REMARK  4 active torsions:
REMARK  status: ('A' for Active; 'I' for Inactive)
REMARK    1  A    between atoms: C5_6  and  C6_7 
REMARK    2  A    between atoms: C6_7  and  O2_8 
REMARK    3  A    between atoms: C11_14  and  C12_15 
REMARK    4  A    between atoms: C12_15  and  O3_16 
ROOT
HETATM    1  C1  UNL     1      55.344  38.614  63.546  1.00  0.00     0.020 C 
HETATM    2  C2  UNL     1      54.047  39.252  63.886  1.00  0.00     0.005 C 
HETATM    3  C3  UNL     1      53.303  39.741  62.630  1.00  0.00     0.179 C 
HETATM    4  O1  UNL     1      52.581  40.878  62.884  1.00  0.00    -0.389 OA
HETATM    5  C4  UNL     1      51.933  40.911  64.096  1.00  0.00     0.179 C 
HETATM    6  C5  UNL     1      52.825  40.650  65.280  1.00  0.00     0.009 C 
HETATM    7  C7  UNL     1      54.251  40.548  64.695  1.00  0.00     0.028 C 
HETATM    8  C8  UNL     1      52.704  39.300  65.845  1.00  0.00     0.028 C 
HETATM    9  C9  UNL     1      51.370  38.812  66.245  1.00  0.00     0.011 C 
HETATM   10  C10 UNL     1      51.642  37.370  66.707  1.00  0.00     0.034 C 
HETATM   11  C11 UNL     1      52.471  36.594  65.763  1.00  0.00     0.145 C 
HETATM   12  O4  UNL     1      53.549  37.271  65.211  1.00  0.00    -0.377 OA
HETATM   13  C13 UNL     1      53.092  38.420  64.645  1.00  0.00     0.137 C 
ENDROOT
BRANCH   6  14
HETATM   14  C6  UNL     1      52.827  41.735  66.300  1.00  0.00     0.176 C 
BRANCH  14  15
HETATM   15  O2  UNL     1      53.527  41.285  67.419  1.00  0.00    -0.400 OA
ATOM     16  H2  UNL     1      53.552  41.987  68.059  1.00  0.00     0.209 HD
ENDBRANCH  14  15
ENDBRANCH   6  14
BRANCH  11  17
HETATM   17  C12 UNL     1      53.038  35.391  66.527  1.00  0.00     0.196 C 
BRANCH  17  18
HETATM   18  O3  UNL     1      52.592  34.194  65.968  1.00  0.00    -0.398 OA
ATOM     19  H3  UNL     1      52.829  33.457  66.518  1.00  0.00     0.209 HD
ENDBRANCH  17  18
ENDBRANCH  11  17
TORSDOF 4
ENDMDL
MODEL 5
REMARK VINA RESULT: -5.971667902      2.115      4.957
REMARK  4 active torsions:
REMARK  status: ('A' for Active; 'I' for Inactive)
REMARK    1  A    between atoms: C5_6  and  C6_7 
REMARK    2  A    between atoms: C6_7  and  O2_8 
REMARK    3  A    between atoms: C11_14  and  C12_15 
REMARK    4  A    between atoms: C12_15  and  O3_16 
ROOT
HETATM    1  C1  UNL     1      51.138  42.366  66.774  1.00  0.00     0.020 C 
HETATM    2  C2  UNL     1      51.770  41.198  66.113  1.00  0.00     0.005 C 
HETATM    3  C3  UNL     1      51.143  39.869  66.576  1.00  0.00     0.179 C 
HETATM    4  O1  UNL     1      52.070  38.859  66.604  1.00  0.00    -0.389 OA
HETATM    5  C4  UNL     1      52.963  38.844  65.559  1.00  0.00     0.179 C 
HETATM    6  C5  UNL     1      53.695  40.143  65.355  1.00  0.00     0.009 C 
HETATM    7  C7  UNL     1      53.247  41.046  66.525  1.00  0.00     0.028 C 
HETATM    8  C8  UNL     1      53.200  40.949  64.232  1.00  0.00     0.028 C 
HETATM    9  C9  UNL     1      53.118  40.332  62.894  1.00  0.00     0.011 C 
HETATM   10  C10 UNL     1      52.498  41.441  62.027  1.00  0.00     0.034 C 
HETATM   11  C11 UNL     1      51.310  42.072  62.636  1.00  0.00     0.145 C 
HETATM   12  O4  UNL     1      51.397  42.337  63.995  1.00  0.00    -0.377 OA
HETATM   13  C13 UNL     1      51.735  41.188  64.637  1.00  0.00     0.137 C 
ENDROOT
BRANCH   6  14
HETATM   14  C6  UNL     1      55.179  40.028  65.410  1.00  0.00     0.176 C 
BRANCH  14  15
HETATM   15  O2  UNL     1      55.693  41.216  65.931  1.00  0.00    -0.400 OA
ATOM     16  H2  UNL     1      56.640  41.191  65.857  1.00  0.00     0.209 HD
ENDBRANCH  14  15
ENDBRANCH   6  14
BRANCH  11  17
HETATM   17  C12 UNL     1      51.086  43.414  61.928  1.00  0.00     0.196 C 
BRANCH  17  18
HETATM   18  O3  UNL     1      51.415  43.322  60.576  1.00  0.00    -0.398 OA
ATOM     19  H3  UNL     1      50.637  43.183  60.048  1.00  0.00     0.209 HD
ENDBRANCH  17  18
ENDBRANCH  11  17
TORSDOF 4
ENDMDL
