MODEL 1
REMARK VINA RESULT: -5.610401098      0.000      0.000
REMARK  4 active torsions:
REMARK  status: ('A' for Active; 'I' for Inactive)
REMARK    1  A    between atoms: C2_2  and  N1_3 
REMARK    2  A    between atoms: N2_7  and  C6_8 
REMARK    3  A    between atoms: C6_8  and  C7_9 
REMARK    4  A    between atoms: C7_9  and  O1_10 
ROOT
HETATM    1  C6  UNL     1      54.011  39.750  64.119  1.00  0.00     0.315 C 
ENDROOT
BRANCH   1   2
HETATM    2  N2  UNL     1      53.812  39.932  65.555  1.00  0.00     0.093 N 
HETATM    3  C5  UNL     1      53.745  41.393  65.730  1.00  0.00     0.274 C 
HETATM    4  C4  UNL     1      52.499  41.997  65.151  1.00  0.00     0.060 C 
HETATM    5  C3  UNL     1      51.503  42.318  66.275  1.00  0.00     0.274 C 
HETATM    6  N1  UNL     1      50.754  41.070  66.525  1.00  0.00     0.089 N 
HETATM    7  C13 UNL     1      51.795  40.131  66.993  1.00  0.00     0.302 C 
HETATM    8  C12 UNL     1      52.490  39.401  65.891  1.00  0.00     0.302 C 
BRANCH   6   9
HETATM    9  C2  UNL     1      49.909  41.391  67.677  1.00  0.00     0.268 C 
HETATM   10  C1  UNL     1      50.667  41.044  68.942  1.00  0.00     0.037 C 
ENDBRANCH   6   9
ENDBRANCH   1   2
BRANCH   1  11
HETATM   11  C7  UNL     1      55.061  38.701  63.792  1.00  0.00     0.116 C 
HETATM   12  C8  UNL     1      56.132  38.778  64.861  1.00  0.00     0.050 C 
HETATM   13  C9  UNL     1      57.149  39.869  64.492  1.00  0.00     0.048 C 
HETATM   14  C10 UNL     1      57.851  39.269  63.286  1.00  0.00     0.060 C 
HETATM   15  N3  UNL     1      56.945  39.175  62.230  1.00  0.00    -0.380 N 
HETATM   16  C11 UNL     1      55.575  38.979  62.419  1.00  0.00     0.099 C 
ATOM     17  H3  UNL     1      57.299  39.252  61.277  1.00  0.00     0.164 HD
BRANCH  11  18
HETATM   18  O1  UNL     1      54.461  37.458  63.885  1.00  0.00    -0.383 OA
ATOM     19  H1  UNL     1      55.005  36.837  63.417  1.00  0.00     0.211 HD
ENDBRANCH  11  18
ENDBRANCH   1  11
TORSDOF 4
ENDMDL
MODEL 2
REMARK VINA RESULT: -5.471553300      1.174      1.455
REMARK  4 active torsions:
REMARK  status: ('A' for Active; 'I' for Inactive)
REMARK    1  A    between atoms: C2_2  and  N1_3 
REMARK    2  A    between atoms: N2_7  and  C6_8 
REMARK    3  A    between atoms: C6_8  and  C7_9 
REMARK    4  A    between atoms: C7_9  and  O1_10 
ROOT
HETATM    1  C6  UNL     1      54.344  39.926  63.200  1.00  0.00     0.315 C 
ENDROOT
BRANCH   1   2
HETATM    2  N2  UNL     1      53.135  39.566  63.937  1.00  0.00     0.093 N 
HETATM    3  C5  UNL     1      53.503  39.751  65.351  1.00  0.00     0.274 C 
HETATM    4  C4  UNL     1      53.692  41.192  65.725  1.00  0.00     0.060 C 
HETATM    5  C3  UNL     1      52.465  41.698  66.497  1.00  0.00     0.274 C 
HETATM    6  N1  UNL     1      51.483  42.114  65.474  1.00  0.00     0.089 N 
HETATM    7  C13 UNL     1      51.178  40.858  64.757  1.00  0.00     0.302 C 
HETATM    8  C12 UNL     1      52.111  40.564  63.629  1.00  0.00     0.302 C 
BRANCH   6   9
HETATM    9  C2  UNL     1      50.295  42.471  66.251  1.00  0.00     0.268 C 
HETATM   10  C1  UNL     1      50.378  41.787  67.601  1.00  0.00     0.037 C 
ENDBRANCH   6   9
ENDBRANCH   1   2
BRANCH   1  11
HETATM   11  C7  UNL     1      55.434  38.872  63.291  1.00  0.00     0.116 C 
HETATM   12  C8  UNL     1      55.953  38.875  64.716  1.00  0.00     0.050 C 
HETATM   13  C9  UNL     1      57.029  39.961  64.869  1.00  0.00     0.048 C 
HETATM   14  C10 UNL     1      58.176  39.405  64.042  1.00  0.00     0.060 C 
HETATM   15  N3  UNL     1      57.802  39.382  62.699  1.00  0.00    -0.380 N 
HETATM   16  C11 UNL     1      56.481  39.206  62.282  1.00  0.00     0.099 C 
ATOM     17  H3  UNL     1      58.526  39.498  61.990  1.00  0.00     0.164 HD
BRANCH  11  18
HETATM   18  O1  UNL     1      54.853  37.640  63.057  1.00  0.00    -0.383 OA
ATOM     19  H1  UNL     1      55.036  37.085  63.805  1.00  0.00     0.211 HD
ENDBRANCH  11  18
ENDBRANCH   1  11
TORSDOF 4
ENDMDL
MODEL 3
REMARK VINA RESULT: -5.433055172      1.900      6.085
REMARK  4 active torsions:
REMARK  status: ('A' for Active; 'I' for Inactive)
REMARK    1  A    between atoms: C2_2  and  N1_3 
REMARK    2  A    between atoms: N2_7  and  C6_8 
REMARK    3  A    between atoms: C6_8  and  C7_9 
REMARK    4  A    between atoms: C7_9  and  O1_10 
ROOT
HETATM    1  C6  UNL     1      52.268  41.221  64.732  1.00  0.00     0.315 C 
ENDROOT
BRANCH   1   2
HETATM    2  N2  UNL     1      53.136  40.114  65.127  1.00  0.00     0.093 N 
HETATM    3  C5  UNL     1      53.351  39.357  63.882  1.00  0.00     0.274 C 
HETATM    4  C4  UNL     1      54.199  40.094  62.886  1.00  0.00     0.060 C 
HETATM    5  C3  UNL     1      55.624  39.523  62.890  1.00  0.00     0.274 C 
HETATM    6  N1  UNL     1      56.339  40.219  63.979  1.00  0.00     0.089 N 
HETATM    7  C13 UNL     1      55.602  39.808  65.192  1.00  0.00     0.302 C 
HETATM    8  C12 UNL     1      54.430  40.679  65.511  1.00  0.00     0.302 C 
BRANCH   6   9
HETATM    9  C2  UNL     1      57.645  39.558  64.020  1.00  0.00     0.268 C 
HETATM   10  C1  UNL     1      57.849  38.809  62.720  1.00  0.00     0.037 C 
ENDBRANCH   6   9
ENDBRANCH   1   2
BRANCH   1  11
HETATM   11  C7  UNL     1      50.952  41.245  65.491  1.00  0.00     0.116 C 
HETATM   12  C8  UNL     1      51.068  42.300  66.573  1.00  0.00     0.050 C 
HETATM   13  C9  UNL     1      51.740  41.693  67.814  1.00  0.00     0.048 C 
HETATM   14  C10 UNL     1      50.679  40.733  68.324  1.00  0.00     0.060 C 
HETATM   15  N3  UNL     1      50.511  39.703  67.400  1.00  0.00    -0.380 N 
HETATM   16  C11 UNL     1      50.707  39.874  66.028  1.00  0.00     0.099 C 
ATOM     17  H3  UNL     1      50.234  38.783  67.741  1.00  0.00     0.164 HD
BRANCH  11  18
HETATM   18  O1  UNL     1      49.964  41.649  64.613  1.00  0.00    -0.383 OA
ATOM     19  H1  UNL     1      50.383  42.118  63.900  1.00  0.00     0.211 HD
ENDBRANCH  11  18
ENDBRANCH   1  11
TORSDOF 4
ENDMDL
MODEL 4
REMARK VINA RESULT: -5.274604399      1.143      1.224
REMARK  4 active torsions:
REMARK  status: ('A' for Active; 'I' for Inactive)
REMARK    1  A    between atoms: C2_2  and  N1_3 
REMARK    2  A    between atoms: N2_7  and  C6_8 
REMARK    3  A    between atoms: C6_8  and  C7_9 
REMARK    4  A    between atoms: C7_9  and  O1_10 
ROOT
HETATM    1  C6  UNL     1      54.247  39.510  63.194  1.00  0.00     0.315 C 
ENDROOT
BRANCH   1   2
HETATM    2  N2  UNL     1      54.057  40.303  64.407  1.00  0.00     0.093 N 
HETATM    3  C5  UNL     1      53.094  41.345  64.013  1.00  0.00     0.274 C 
HETATM    4  C4  UNL     1      51.716  40.807  63.759  1.00  0.00     0.060 C 
HETATM    5  C3  UNL     1      50.805  41.119  64.954  1.00  0.00     0.274 C 
HETATM    6  N1  UNL     1      51.025  40.032  65.930  1.00  0.00     0.089 N 
HETATM    7  C13 UNL     1      52.449  40.183  66.297  1.00  0.00     0.302 C 
HETATM    8  C12 UNL     1      53.387  39.453  65.392  1.00  0.00     0.302 C 
BRANCH   6   9
HETATM    9  C2  UNL     1      50.232  40.437  67.092  1.00  0.00     0.268 C 
HETATM   10  C1  UNL     1      50.681  41.817  67.526  1.00  0.00     0.037 C 
ENDBRANCH   6   9
ENDBRANCH   1   2
BRANCH   1  11
HETATM   11  C7  UNL     1      55.481  38.625  63.248  1.00  0.00     0.116 C 
HETATM   12  C8  UNL     1      55.995  38.645  64.675  1.00  0.00     0.050 C 
HETATM   13  C9  UNL     1      56.899  39.870  64.878  1.00  0.00     0.048 C 
HETATM   14  C10 UNL     1      58.115  39.524  64.036  1.00  0.00     0.060 C 
HETATM   15  N3  UNL     1      57.748  39.501  62.691  1.00  0.00    -0.380 N 
HETATM   16  C11 UNL     1      56.466  39.151  62.259  1.00  0.00     0.099 C 
ATOM     17  H3  UNL     1      58.446  39.752  61.991  1.00  0.00     0.164 HD
BRANCH  11  18
HETATM   18  O1  UNL     1      55.087  37.332  62.960  1.00  0.00    -0.383 OA
ATOM     19  H1  UNL     1      55.841  36.868  62.614  1.00  0.00     0.211 HD
ENDBRANCH  11  18
ENDBRANCH   1  11
TORSDOF 4
ENDMDL
MODEL 5
REMARK VINA RESULT: -5.182615953      1.945      6.038
REMARK  4 active torsions:
REMARK  status: ('A' for Active; 'I' for Inactive)
REMARK    1  A    between atoms: C2_2  and  N1_3 
REMARK    2  A    between atoms: N2_7  and  C6_8 
REMARK    3  A    between atoms: C6_8  and  C7_9 
REMARK    4  A    between atoms: C7_9  and  O1_10 
ROOT
HETATM    1  C6  UNL     1      52.005  40.382  64.333  1.00  0.00     0.315 C 
ENDROOT
BRANCH   1   2
HETATM    2  N2  UNL     1      53.250  39.962  64.972  1.00  0.00     0.093 N 
HETATM    3  C5  UNL     1      53.359  38.529  64.650  1.00  0.00     0.274 C 
HETATM    4  C4  UNL     1      53.637  38.272  63.198  1.00  0.00     0.060 C 
HETATM    5  C3  UNL     1      55.118  37.917  63.004  1.00  0.00     0.274 C 
HETATM    6  N1  UNL     1      55.836  39.203  62.892  1.00  0.00     0.089 N 
HETATM    7  C13 UNL     1      55.611  39.839  64.208  1.00  0.00     0.302 C 
HETATM    8  C12 UNL     1      54.351  40.638  64.285  1.00  0.00     0.302 C 
BRANCH   6   9
HETATM    9  C2  UNL     1      57.246  38.815  62.832  1.00  0.00     0.268 C 
HETATM   10  C1  UNL     1      58.006  39.592  63.888  1.00  0.00     0.037 C 
ENDBRANCH   6   9
ENDBRANCH   1   2
BRANCH   1  11
HETATM   11  C7  UNL     1      51.022  41.017  65.303  1.00  0.00     0.116 C 
HETATM   12  C8  UNL     1      51.775  42.072  66.090  1.00  0.00     0.050 C 
HETATM   13  C9  UNL     1      52.485  41.415  67.283  1.00  0.00     0.048 C 
HETATM   14  C10 UNL     1      51.324  41.021  68.179  1.00  0.00     0.060 C 
HETATM   15  N3  UNL     1      50.575  40.029  67.548  1.00  0.00    -0.380 N 
HETATM   16  C11 UNL     1      50.459  39.933  66.160  1.00  0.00     0.099 C 
ATOM     17  H3  UNL     1      50.090  39.343  68.126  1.00  0.00     0.164 HD
BRANCH  11  18
HETATM   18  O1  UNL     1      50.049  41.659  64.561  1.00  0.00    -0.383 OA
ATOM     19  H1  UNL     1      49.425  41.004  64.271  1.00  0.00     0.211 HD
ENDBRANCH  11  18
ENDBRANCH   1  11
TORSDOF 4
ENDMDL
