MODEL 1
REMARK VINA RESULT: -6.521231270      0.000      0.000
REMARK  5 active torsions:
REMARK  status: ('A' for Active; 'I' for Inactive)
REMARK    1  A    between atoms: N2_4  and  C3_5 
REMARK    2  A    between atoms: C3_5  and  C4_6 
REMARK    3  A    between atoms: C6_8  and  O1_9 
REMARK    4  A    between atoms: C7_11  and  C8_12 
REMARK    5  A    between atoms: C8_12  and  O2_13 
ROOT
HETATM    1  C4  UNL     1      54.469  39.339  63.848  1.00  0.00     0.153 C 
HETATM    2  C5  UNL     1      55.220  39.820  65.063  1.00  0.00     0.068 C 
HETATM    3  C6  UNL     1      56.562  39.161  64.959  1.00  0.00     0.151 C 
HETATM    4  C7  UNL     1      56.467  38.485  63.608  1.00  0.00     0.174 C 
HETATM    5  O3  UNL     1      55.126  38.204  63.446  1.00  0.00    -0.374 OA
ENDROOT
BRANCH   1   6
HETATM    6  C3  UNL     1      53.036  39.052  64.271  1.00  0.00     0.306 C 
BRANCH   6   7
HETATM    7  N2  UNL     1      52.073  39.958  63.747  1.00  0.00     0.121 N 
HETATM    8  C2  UNL     1      52.592  41.058  63.004  1.00  0.00     0.543 C 
HETATM    9  N1  UNL     1      51.944  42.258  63.499  1.00  0.00     0.123 N 
HETATM   10  C1  UNL     1      50.905  42.739  62.651  1.00  0.00     0.313 C 
HETATM   11  C10 UNL     1      51.554  41.930  64.826  1.00  0.00     0.180 C 
HETATM   12  C9  UNL     1      51.179  40.461  64.760  1.00  0.00     0.315 C 
HETATM   13  C11 UNL     1      52.741  42.169  65.737  1.00  0.00     0.051 C 
HETATM   14  C12 UNL     1      50.379  42.674  65.377  1.00  0.00     0.051 C 
ENDBRANCH   6   7
ENDBRANCH   1   6
BRANCH   3  15
HETATM   15  O1  UNL     1      57.600  40.059  64.943  1.00  0.00    -0.393 OA
ATOM     16  H1  UNL     1      58.384  39.727  65.366  1.00  0.00     0.210 HD
ENDBRANCH   3  15
BRANCH   4  17
HETATM   17  C8  UNL     1      56.952  39.428  62.529  1.00  0.00     0.198 C 
BRANCH  17  18
HETATM   18  O2  UNL     1      58.363  39.393  62.447  1.00  0.00    -0.398 OA
ATOM     19  H2  UNL     1      58.640  39.350  61.540  1.00  0.00     0.209 HD
ENDBRANCH  17  18
ENDBRANCH   4  17
TORSDOF 5
ENDMDL
MODEL 2
REMARK VINA RESULT: -6.184970346      1.313      2.048
REMARK  5 active torsions:
REMARK  status: ('A' for Active; 'I' for Inactive)
REMARK    1  A    between atoms: N2_4  and  C3_5 
REMARK    2  A    between atoms: C3_5  and  C4_6 
REMARK    3  A    between atoms: C6_8  and  O1_9 
REMARK    4  A    between atoms: C7_11  and  C8_12 
REMARK    5  A    between atoms: C8_12  and  O2_13 
ROOT
HETATM    1  C4  UNL     1      54.914  40.299  64.962  1.00  0.00     0.153 C 
HETATM    2  C5  UNL     1      56.294  40.484  65.540  1.00  0.00     0.068 C 
HETATM    3  C6  UNL     1      57.121  39.421  64.884  1.00  0.00     0.151 C 
HETATM    4  C7  UNL     1      56.137  38.837  63.892  1.00  0.00     0.174 C 
HETATM    5  O3  UNL     1      54.899  39.017  64.473  1.00  0.00    -0.374 OA
ENDROOT
BRANCH   1   6
HETATM    6  C3  UNL     1      53.908  40.494  66.087  1.00  0.00     0.306 C 
BRANCH   6   7
HETATM    7  N2  UNL     1      52.978  41.548  65.870  1.00  0.00     0.121 N 
HETATM    8  C2  UNL     1      51.625  41.265  66.215  1.00  0.00     0.543 C 
HETATM    9  N1  UNL     1      50.797  41.683  65.099  1.00  0.00     0.123 N 
HETATM   10  C1  UNL     1      50.135  42.927  65.311  1.00  0.00     0.313 C 
HETATM   11  C10 UNL     1      51.666  41.632  63.974  1.00  0.00     0.180 C 
HETATM   12  C9  UNL     1      53.019  42.050  64.519  1.00  0.00     0.315 C 
HETATM   13  C11 UNL     1      51.681  40.208  63.458  1.00  0.00     0.051 C 
HETATM   14  C12 UNL     1      51.333  42.544  62.836  1.00  0.00     0.051 C 
ENDBRANCH   6   7
ENDBRANCH   1   6
BRANCH   3  15
HETATM   15  O1  UNL     1      58.202  39.925  64.205  1.00  0.00    -0.393 OA
ATOM     16  H1  UNL     1      59.005  39.450  64.381  1.00  0.00     0.210 HD
ENDBRANCH   3  15
BRANCH   4  17
HETATM   17  C8  UNL     1      56.230  39.584  62.580  1.00  0.00     0.198 C 
BRANCH  17  18
HETATM   18  O2  UNL     1      57.298  39.079  61.803  1.00  0.00    -0.398 OA
ATOM     19  H2  UNL     1      58.097  39.060  62.315  1.00  0.00     0.209 HD
ENDBRANCH  17  18
ENDBRANCH   4  17
TORSDOF 5
ENDMDL
MODEL 3
REMARK VINA RESULT: -6.160501979      3.235      6.018
REMARK  5 active torsions:
REMARK  status: ('A' for Active; 'I' for Inactive)
REMARK    1  A    between atoms: N2_4  and  C3_5 
REMARK    2  A    between atoms: C3_5  and  C4_6 
REMARK    3  A    between atoms: C6_8  and  O1_9 
REMARK    4  A    between atoms: C7_11  and  C8_12 
REMARK    5  A    between atoms: C8_12  and  O2_13 
ROOT
HETATM    1  C4  UNL     1      52.826  41.404  66.394  1.00  0.00     0.153 C 
HETATM    2  C5  UNL     1      52.219  42.201  65.268  1.00  0.00     0.068 C 
HETATM    3  C6  UNL     1      50.763  41.849  65.300  1.00  0.00     0.151 C 
HETATM    4  C7  UNL     1      50.685  40.991  66.545  1.00  0.00     0.174 C 
HETATM    5  O3  UNL     1      51.927  40.400  66.647  1.00  0.00    -0.374 OA
ENDROOT
BRANCH   1   6
HETATM    6  C3  UNL     1      54.166  40.866  65.915  1.00  0.00     0.306 C 
BRANCH   6   7
HETATM    7  N2  UNL     1      54.093  40.058  64.747  1.00  0.00     0.121 N 
HETATM    8  C2  UNL     1      54.059  38.651  64.965  1.00  0.00     0.543 C 
HETATM    9  N1  UNL     1      55.036  38.052  64.074  1.00  0.00     0.123 N 
HETATM   10  C1  UNL     1      54.463  37.447  62.918  1.00  0.00     0.313 C 
HETATM   11  C10 UNL     1      55.973  39.091  63.825  1.00  0.00     0.180 C 
HETATM   12  C9  UNL     1      55.139  40.359  63.801  1.00  0.00     0.315 C 
HETATM   13  C11 UNL     1      56.979  39.099  64.958  1.00  0.00     0.051 C 
HETATM   14  C12 UNL     1      56.721  39.016  62.531  1.00  0.00     0.051 C 
ENDBRANCH   6   7
ENDBRANCH   1   6
BRANCH   3  15
HETATM   15  O1  UNL     1      49.950  42.944  65.455  1.00  0.00    -0.393 OA
ATOM     16  H1  UNL     1      49.341  42.854  66.178  1.00  0.00     0.210 HD
ENDBRANCH   3  15
BRANCH   4  17
HETATM   17  C8  UNL     1      50.403  41.862  67.750  1.00  0.00     0.198 C 
BRANCH  17  18
HETATM   18  O2  UNL     1      50.817  41.209  68.934  1.00  0.00    -0.398 OA
ATOM     19  H2  UNL     1      50.166  40.571  69.202  1.00  0.00     0.209 HD
ENDBRANCH  17  18
ENDBRANCH   4  17
TORSDOF 5
ENDMDL
MODEL 4
REMARK VINA RESULT: -6.127213268      1.321      2.076
REMARK  5 active torsions:
REMARK  status: ('A' for Active; 'I' for Inactive)
REMARK    1  A    between atoms: N2_4  and  C3_5 
REMARK    2  A    between atoms: C3_5  and  C4_6 
REMARK    3  A    between atoms: C6_8  and  O1_9 
REMARK    4  A    between atoms: C7_11  and  C8_12 
REMARK    5  A    between atoms: C8_12  and  O2_13 
ROOT
HETATM    1  C4  UNL     1      54.983  40.191  63.700  1.00  0.00     0.153 C 
HETATM    2  C5  UNL     1      55.539  40.251  65.100  1.00  0.00     0.068 C 
HETATM    3  C6  UNL     1      56.545  39.141  65.151  1.00  0.00     0.151 C 
HETATM    4  C7  UNL     1      56.545  38.662  63.715  1.00  0.00     0.174 C 
HETATM    5  O3  UNL     1      55.273  38.927  63.253  1.00  0.00    -0.374 OA
ENDROOT
BRANCH   1   6
HETATM    6  C3  UNL     1      53.484  40.439  63.784  1.00  0.00     0.306 C 
BRANCH   6   7
HETATM    7  N2  UNL     1      52.955  40.408  65.104  1.00  0.00     0.121 N 
HETATM    8  C2  UNL     1      51.801  39.595  65.294  1.00  0.00     0.543 C 
HETATM    9  N1  UNL     1      50.828  40.388  66.023  1.00  0.00     0.123 N 
HETATM   10  C1  UNL     1      50.748  40.064  67.409  1.00  0.00     0.313 C 
HETATM   11  C10 UNL     1      51.172  41.735  65.725  1.00  0.00     0.180 C 
HETATM   12  C9  UNL     1      52.687  41.727  65.622  1.00  0.00     0.315 C 
HETATM   13  C11 UNL     1      50.520  42.105  64.409  1.00  0.00     0.051 C 
HETATM   14  C12 UNL     1      50.792  42.760  66.745  1.00  0.00     0.051 C 
ENDBRANCH   6   7
ENDBRANCH   1   6
BRANCH   3  15
HETATM   15  O1  UNL     1      57.804  39.573  65.484  1.00  0.00    -0.393 OA
ATOM     16  H1  UNL     1      58.444  38.871  65.505  1.00  0.00     0.210 HD
ENDBRANCH   3  15
BRANCH   4  17
HETATM   17  C8  UNL     1      57.577  39.432  62.920  1.00  0.00     0.198 C 
BRANCH  17  18
HETATM   18  O2  UNL     1      57.445  39.147  61.541  1.00  0.00    -0.398 OA
ATOM     19  H2  UNL     1      56.937  38.354  61.416  1.00  0.00     0.209 HD
ENDBRANCH  17  18
ENDBRANCH   4  17
TORSDOF 5
ENDMDL
MODEL 5
REMARK VINA RESULT: -6.122124513      3.371      5.763
REMARK  5 active torsions:
REMARK  status: ('A' for Active; 'I' for Inactive)
REMARK    1  A    between atoms: N2_4  and  C3_5 
REMARK    2  A    between atoms: C3_5  and  C4_6 
REMARK    3  A    between atoms: C6_8  and  O1_9 
REMARK    4  A    between atoms: C7_11  and  C8_12 
REMARK    5  A    between atoms: C8_12  and  O2_13 
ROOT
HETATM    1  C4  UNL     1      52.239  40.144  65.947  1.00  0.00     0.153 C 
HETATM    2  C5  UNL     1      52.286  41.277  66.940  1.00  0.00     0.068 C 
HETATM    3  C6  UNL     1      51.106  41.043  67.833  1.00  0.00     0.151 C 
HETATM    4  C7  UNL     1      50.599  39.709  67.326  1.00  0.00     0.174 C 
HETATM    5  O3  UNL     1      50.948  39.683  65.991  1.00  0.00    -0.374 OA
ENDROOT
BRANCH   1   6
HETATM    6  C3  UNL     1      52.598  40.708  64.581  1.00  0.00     0.306 C 
BRANCH   6   7
HETATM    7  N2  UNL     1      53.076  39.744  63.652  1.00  0.00     0.121 N 
HETATM    8  C2  UNL     1      53.205  38.414  64.145  1.00  0.00     0.543 C 
HETATM    9  N1  UNL     1      54.517  37.932  63.757  1.00  0.00     0.123 N 
HETATM   10  C1  UNL     1      54.497  37.051  62.638  1.00  0.00     0.313 C 
HETATM   11  C10 UNL     1      55.295  39.112  63.597  1.00  0.00     0.180 C 
HETATM   12  C9  UNL     1      54.322  40.136  63.041  1.00  0.00     0.315 C 
HETATM   13  C11 UNL     1      55.821  39.516  64.959  1.00  0.00     0.051 C 
HETATM   14  C12 UNL     1      56.450  39.024  62.651  1.00  0.00     0.051 C 
ENDBRANCH   6   7
ENDBRANCH   1   6
BRANCH   3  15
HETATM   15  O1  UNL     1      51.451  40.920  69.157  1.00  0.00    -0.393 OA
ATOM     16  H1  UNL     1      51.150  41.649  69.687  1.00  0.00     0.210 HD
ENDBRANCH   3  15
BRANCH   4  17
HETATM   17  C8  UNL     1      51.273  38.584  68.080  1.00  0.00     0.198 C 
BRANCH  17  18
HETATM   18  O2  UNL     1      50.608  38.349  69.305  1.00  0.00    -0.398 OA
ATOM     19  H2  UNL     1      49.766  38.789  69.313  1.00  0.00     0.209 HD
ENDBRANCH  17  18
ENDBRANCH   4  17
TORSDOF 5
ENDMDL
