MODEL 1
REMARK VINA RESULT: -6.218071511      0.000      0.000
REMARK  5 active torsions:
REMARK  status: ('A' for Active; 'I' for Inactive)
REMARK    1  A    between atoms: C2_2  and  N1_3 
REMARK    2  A    between atoms: C5_8  and  N3_9 
REMARK    3  A    between atoms: N3_9  and  C6_11 
REMARK    4  A    between atoms: C6_11  and  C7_12 
REMARK    5  A    between atoms: C7_12  and  O1_14 
ROOT
HETATM    1  N1  UNL     1      52.377  38.442  65.822  1.00  0.00    -0.277 N 
HETATM    2  N2  UNL     1      52.629  37.465  64.980  1.00  0.00    -0.300 N 
ATOM      3  H2  UNL     1      52.179  36.550  64.988  1.00  0.00     0.187 HD
HETATM    4  C3  UNL     1      53.569  37.859  64.109  1.00  0.00     0.039 A 
HETATM    5  C4  UNL     1      53.902  39.153  64.448  1.00  0.00     0.039 A 
HETATM    6  C5  UNL     1      53.152  39.520  65.526  1.00  0.00     0.128 A 
HETATM    7  C9  UNL     1      54.920  39.939  63.704  1.00  0.00     0.316 C 
HETATM    8  N4  UNL     1      55.757  39.175  62.843  1.00  0.00     0.088 N 
HETATM    9  C10 UNL     1      57.152  39.568  62.906  1.00  0.00     0.310 C 
HETATM   10  C11 UNL     1      55.686  37.761  62.978  1.00  0.00     0.278 C 
HETATM   11  C12 UNL     1      54.263  37.235  62.952  1.00  0.00     0.089 C 
ENDROOT
BRANCH   6  12
HETATM   12  N3  UNL     1      53.080  40.605  66.218  1.00  0.00    -0.372 N 
ATOM     13  H3  UNL     1      53.408  40.553  67.183  1.00  0.00     0.161 HD
BRANCH  12  14
HETATM   14  C6  UNL     1      52.590  41.867  65.778  1.00  0.00     0.152 C 
BRANCH  14  15
HETATM   15  C7  UNL     1      51.318  41.658  64.955  1.00  0.00     0.132 C 
HETATM   16  C8  UNL     1      51.505  42.167  63.539  1.00  0.00     0.041 C 
BRANCH  15  17
HETATM   17  O1  UNL     1      50.246  42.350  65.505  1.00  0.00    -0.394 OA
ATOM     18  H1  UNL     1      49.607  41.753  65.875  1.00  0.00     0.210 HD
ENDBRANCH  15  17
ENDBRANCH  14  15
ENDBRANCH  12  14
ENDBRANCH   6  12
BRANCH   1  19
HETATM   19  C2  UNL     1      51.406  38.337  66.892  1.00  0.00     0.146 C 
HETATM   20  C1  UNL     1      51.566  37.041  67.660  1.00  0.00     0.028 C 
ENDBRANCH   1  19
TORSDOF 5
ENDMDL
MODEL 2
REMARK VINA RESULT: -6.215956536      0.814      1.142
REMARK  5 active torsions:
REMARK  status: ('A' for Active; 'I' for Inactive)
REMARK    1  A    between atoms: C2_2  and  N1_3 
REMARK    2  A    between atoms: C5_8  and  N3_9 
REMARK    3  A    between atoms: N3_9  and  C6_11 
REMARK    4  A    between atoms: C6_11  and  C7_12 
REMARK    5  A    between atoms: C7_12  and  O1_14 
ROOT
HETATM    1  N1  UNL     1      52.308  38.215  65.943  1.00  0.00    -0.277 N 
HETATM    2  N2  UNL     1      52.597  37.279  65.067  1.00  0.00    -0.300 N 
ATOM      3  H2  UNL     1      52.202  36.340  65.057  1.00  0.00     0.187 HD
HETATM    4  C3  UNL     1      53.491  37.753  64.188  1.00  0.00     0.039 A 
HETATM    5  C4  UNL     1      53.756  39.055  64.558  1.00  0.00     0.039 A 
HETATM    6  C5  UNL     1      53.012  39.345  65.663  1.00  0.00     0.128 A 
HETATM    7  C9  UNL     1      54.709  39.920  63.817  1.00  0.00     0.316 C 
HETATM    8  N4  UNL     1      55.568  39.233  62.915  1.00  0.00     0.088 N 
HETATM    9  C10 UNL     1      56.939  39.705  62.959  1.00  0.00     0.310 C 
HETATM   10  C11 UNL     1      55.584  37.813  63.008  1.00  0.00     0.278 C 
HETATM   11  C12 UNL     1      54.193  37.205  62.998  1.00  0.00     0.089 C 
ENDROOT
BRANCH   6  12
HETATM   12  N3  UNL     1      52.892  40.403  66.389  1.00  0.00    -0.372 N 
ATOM     13  H3  UNL     1      53.091  40.298  67.385  1.00  0.00     0.161 HD
BRANCH  12  14
HETATM   14  C6  UNL     1      52.513  41.702  65.949  1.00  0.00     0.152 C 
BRANCH  14  15
HETATM   15  C7  UNL     1      51.034  41.932  66.263  1.00  0.00     0.132 C 
HETATM   16  C8  UNL     1      50.703  41.458  67.665  1.00  0.00     0.041 C 
BRANCH  15  17
HETATM   17  O1  UNL     1      50.218  41.230  65.385  1.00  0.00    -0.394 OA
ATOM     18  H1  UNL     1      49.301  41.406  65.554  1.00  0.00     0.210 HD
ENDBRANCH  15  17
ENDBRANCH  14  15
ENDBRANCH  12  14
ENDBRANCH   6  12
BRANCH   1  19
HETATM   19  C2  UNL     1      51.370  38.021  67.030  1.00  0.00     0.146 C 
HETATM   20  C1  UNL     1      51.638  36.727  67.770  1.00  0.00     0.028 C 
ENDBRANCH   1  19
TORSDOF 5
ENDMDL
MODEL 3
REMARK VINA RESULT: -6.098837867      2.392      4.505
REMARK  5 active torsions:
REMARK  status: ('A' for Active; 'I' for Inactive)
REMARK    1  A    between atoms: C2_2  and  N1_3 
REMARK    2  A    between atoms: C5_8  and  N3_9 
REMARK    3  A    between atoms: N3_9  and  C6_11 
REMARK    4  A    between atoms: C6_11  and  C7_12 
REMARK    5  A    between atoms: C7_12  and  O1_14 
ROOT
HETATM    1  N1  UNL     1      52.120  37.871  66.202  1.00  0.00    -0.277 N 
HETATM    2  N2  UNL     1      51.406  38.766  66.846  1.00  0.00    -0.300 N 
ATOM      3  H2  UNL     1      50.863  38.590  67.691  1.00  0.00     0.187 HD
HETATM    4  C3  UNL     1      51.503  39.949  66.221  1.00  0.00     0.039 A 
HETATM    5  C4  UNL     1      52.327  39.752  65.133  1.00  0.00     0.039 A 
HETATM    6  C5  UNL     1      52.715  38.445  65.121  1.00  0.00     0.128 A 
HETATM    7  C9  UNL     1      52.678  40.841  64.187  1.00  0.00     0.316 C 
HETATM    8  N4  UNL     1      51.861  42.003  64.278  1.00  0.00     0.088 N 
HETATM    9  C10 UNL     1      51.488  42.543  62.984  1.00  0.00     0.310 C 
HETATM   10  C11 UNL     1      50.684  41.891  65.069  1.00  0.00     0.278 C 
HETATM   11  C12 UNL     1      50.949  41.310  66.445  1.00  0.00     0.089 C 
ENDROOT
BRANCH   6  12
HETATM   12  N3  UNL     1      53.470  37.759  64.333  1.00  0.00    -0.372 N 
ATOM     13  H3  UNL     1      53.683  36.804  64.621  1.00  0.00     0.161 HD
BRANCH  12  14
HETATM   14  C6  UNL     1      54.038  38.195  63.103  1.00  0.00     0.152 C 
BRANCH  14  15
HETATM   15  C7  UNL     1      55.561  38.241  63.236  1.00  0.00     0.132 C 
HETATM   16  C8  UNL     1      55.972  39.116  64.404  1.00  0.00     0.041 C 
BRANCH  15  17
HETATM   17  O1  UNL     1      56.149  38.771  62.094  1.00  0.00    -0.394 OA
ATOM     18  H1  UNL     1      57.051  38.486  62.009  1.00  0.00     0.210 HD
ENDBRANCH  15  17
ENDBRANCH  14  15
ENDBRANCH  12  14
ENDBRANCH   6  12
BRANCH   1  19
HETATM   19  C2  UNL     1      52.225  36.489  66.622  1.00  0.00     0.146 C 
HETATM   20  C1  UNL     1      51.713  36.297  68.034  1.00  0.00     0.028 C 
ENDBRANCH   1  19
TORSDOF 5
ENDMDL
MODEL 4
REMARK VINA RESULT: -6.009250671      2.224      4.559
REMARK  5 active torsions:
REMARK  status: ('A' for Active; 'I' for Inactive)
REMARK    1  A    between atoms: C2_2  and  N1_3 
REMARK    2  A    between atoms: C5_8  and  N3_9 
REMARK    3  A    between atoms: N3_9  and  C6_11 
REMARK    4  A    between atoms: C6_11  and  C7_12 
REMARK    5  A    between atoms: C7_12  and  O1_14 
ROOT
HETATM    1  N1  UNL     1      52.609  38.219  65.281  1.00  0.00    -0.277 N 
HETATM    2  N2  UNL     1      51.976  39.069  66.059  1.00  0.00    -0.300 N 
ATOM      3  H2  UNL     1      51.618  38.860  66.990  1.00  0.00     0.187 HD
HETATM    4  C3  UNL     1      51.875  40.253  65.437  1.00  0.00     0.039 A 
HETATM    5  C4  UNL     1      52.486  40.106  64.209  1.00  0.00     0.039 A 
HETATM    6  C5  UNL     1      52.947  38.827  64.112  1.00  0.00     0.128 A 
HETATM    7  C9  UNL     1      52.578  41.212  63.223  1.00  0.00     0.316 C 
HETATM    8  N4  UNL     1      51.721  42.319  63.480  1.00  0.00     0.088 N 
HETATM    9  C10 UNL     1      51.072  42.829  62.286  1.00  0.00     0.310 C 
HETATM   10  C11 UNL     1      50.727  42.134  64.481  1.00  0.00     0.278 C 
HETATM   11  C12 UNL     1      51.289  41.576  65.776  1.00  0.00     0.089 C 
ENDROOT
BRANCH   6  12
HETATM   12  N3  UNL     1      53.580  38.188  63.187  1.00  0.00    -0.372 N 
ATOM     13  H3  UNL     1      53.042  37.934  62.358  1.00  0.00     0.161 HD
BRANCH  12  14
HETATM   14  C6  UNL     1      54.949  37.802  63.201  1.00  0.00     0.152 C 
BRANCH  14  15
HETATM   15  C7  UNL     1      55.819  39.026  63.493  1.00  0.00     0.132 C 
HETATM   16  C8  UNL     1      57.102  38.978  62.687  1.00  0.00     0.041 C 
BRANCH  15  17
HETATM   17  O1  UNL     1      56.175  39.079  64.835  1.00  0.00    -0.394 OA
ATOM     18  H1  UNL     1      56.064  39.955  65.184  1.00  0.00     0.210 HD
ENDBRANCH  15  17
ENDBRANCH  14  15
ENDBRANCH  12  14
ENDBRANCH   6  12
BRANCH   1  19
HETATM   19  C2  UNL     1      52.882  36.848  65.660  1.00  0.00     0.146 C 
HETATM   20  C1  UNL     1      51.848  36.327  66.637  1.00  0.00     0.028 C 
ENDBRANCH   1  19
TORSDOF 5
ENDMDL
MODEL 5
REMARK VINA RESULT: -5.940113596      2.315      4.118
REMARK  5 active torsions:
REMARK  status: ('A' for Active; 'I' for Inactive)
REMARK    1  A    between atoms: C2_2  and  N1_3 
REMARK    2  A    between atoms: C5_8  and  N3_9 
REMARK    3  A    between atoms: N3_9  and  C6_11 
REMARK    4  A    between atoms: C6_11  and  C7_12 
REMARK    5  A    between atoms: C7_12  and  O1_14 
ROOT
HETATM    1  N1  UNL     1      51.625  41.592  63.197  1.00  0.00    -0.277 N 
HETATM    2  N2  UNL     1      52.612  41.045  62.524  1.00  0.00    -0.300 N 
ATOM      3  H2  UNL     1      52.946  41.354  61.612  1.00  0.00     0.187 HD
HETATM    4  C3  UNL     1      53.113  40.016  63.224  1.00  0.00     0.039 A 
HETATM    5  C4  UNL     1      52.381  39.942  64.391  1.00  0.00     0.039 A 
HETATM    6  C5  UNL     1      51.446  40.933  64.373  1.00  0.00     0.128 A 
HETATM    7  C9  UNL     1      52.642  38.918  65.436  1.00  0.00     0.316 C 
HETATM    8  N4  UNL     1      53.459  37.830  65.020  1.00  0.00     0.088 N 
HETATM    9  C10 UNL     1      52.979  36.543  65.489  1.00  0.00     0.310 C 
HETATM   10  C11 UNL     1      53.717  37.726  63.624  1.00  0.00     0.278 C 
HETATM   11  C12 UNL     1      54.203  39.028  63.015  1.00  0.00     0.089 C 
ENDROOT
BRANCH   6  12
HETATM   12  N3  UNL     1      50.529  41.292  65.206  1.00  0.00    -0.372 N 
ATOM     13  H3  UNL     1      49.583  40.961  65.015  1.00  0.00     0.161 HD
BRANCH  12  14
HETATM   14  C6  UNL     1      50.699  42.102  66.365  1.00  0.00     0.152 C 
BRANCH  14  15
HETATM   15  C7  UNL     1      50.750  41.208  67.605  1.00  0.00     0.132 C 
HETATM   16  C8  UNL     1      49.952  41.819  68.740  1.00  0.00     0.041 C 
BRANCH  15  17
HETATM   17  O1  UNL     1      52.054  41.048  68.055  1.00  0.00    -0.394 OA
ATOM     18  H1  UNL     1      52.105  40.379  68.727  1.00  0.00     0.210 HD
ENDBRANCH  15  17
ENDBRANCH  14  15
ENDBRANCH  12  14
ENDBRANCH   6  12
BRANCH   1  19
HETATM   19  C2  UNL     1      50.871  42.730  62.713  1.00  0.00     0.146 C 
HETATM   20  C1  UNL     1      51.449  43.271  61.422  1.00  0.00     0.028 C 
ENDBRANCH   1  19
TORSDOF 5
ENDMDL
