MODEL 1
REMARK VINA RESULT: -9.476306728      0.000      0.000
REMARK  1 active torsions:
REMARK  status: ('A' for Active; 'I' for Inactive)
REMARK    1  A    between atoms: C18_23  and  O5_24 
ROOT
HETATM    1  C1  UNL     1      42.969 -18.065  -7.169  1.00  0.00     0.017 C 
HETATM    2  C2  UNL     1      42.498 -19.502  -6.912  1.00  0.00     0.071 C 
HETATM    3  C3  UNL     1      40.965 -19.363  -6.695  1.00  0.00     0.306 C 
HETATM    4  O1  UNL     1      40.318 -20.554  -6.902  1.00  0.00    -0.204 OA
HETATM    5  O2  UNL     1      39.521 -20.842  -5.951  1.00  0.00    -0.197 OA
HETATM    6  C4  UNL     1      39.616 -19.839  -4.951  1.00  0.00     0.212 C 
HETATM    7  C5  UNL     1      38.417 -18.971  -5.272  1.00  0.00     0.075 C 
HETATM    8  C6  UNL     1      37.903 -18.135  -4.172  1.00  0.00     0.042 C 
HETATM    9  C7  UNL     1      37.495 -19.102  -3.048  1.00  0.00     0.171 C 
HETATM   10  F1  UNL     1      36.832 -18.417  -2.055  1.00  0.00    -0.249 F 
HETATM   11  C8  UNL     1      38.859 -19.597  -2.544  1.00  0.00     0.057 C 
HETATM   12  C9  UNL     1      39.457 -20.449  -3.655  1.00  0.00     0.077 C 
HETATM   13  C10 UNL     1      38.446 -21.600  -3.843  1.00  0.00     0.027 C 
HETATM   14  C11 UNL     1      40.665 -21.119  -2.983  1.00  0.00     0.203 C 
HETATM   15  O3  UNL     1      40.090 -21.642  -1.834  1.00  0.00    -0.352 OA
HETATM   16  C12 UNL     1      40.024 -22.923  -1.566  1.00  0.00     0.171 C 
HETATM   17  C13 UNL     1      41.118 -23.854  -1.933  1.00  0.00     0.029 C 
HETATM   18  C14 UNL     1      42.473 -23.164  -2.119  1.00  0.00     0.034 C 
HETATM   19  C15 UNL     1      42.409 -22.572  -3.464  1.00  0.00     0.132 C 
HETATM   20  O4  UNL     1      41.154 -22.102  -3.777  1.00  0.00    -0.346 OA
HETATM   21  C16 UNL     1      43.440 -21.473  -3.712  1.00  0.00     0.049 C 
HETATM   22  C17 UNL     1      43.098 -20.363  -2.821  1.00  0.00     0.047 C 
HETATM   23  C18 UNL     1      41.671 -20.122  -2.485  1.00  0.00     0.182 C 
HETATM   24  C19 UNL     1      43.560 -21.176  -5.212  1.00  0.00     0.158 A 
HETATM   25  O6  UNL     1      42.315 -21.360  -5.714  1.00  0.00    -0.374 OA
HETATM   26  C20 UNL     1      43.016 -20.024  -5.626  1.00  0.00     0.160 A 
HETATM   27  O7  UNL     1      40.715 -19.167  -5.313  1.00  0.00    -0.318 OA
ENDROOT
BRANCH  23  28
HETATM   28  O5  UNL     1      41.532 -19.854  -1.093  1.00  0.00    -0.390 OA
ATOM     29  H5  UNL     1      42.350 -19.950  -0.619  1.00  0.00     0.210 HD
ENDBRANCH  23  28
TORSDOF 1
ENDMDL
MODEL 2
REMARK VINA RESULT: -9.213890003      2.178      4.373
REMARK  1 active torsions:
REMARK  status: ('A' for Active; 'I' for Inactive)
REMARK    1  A    between atoms: C18_23  and  O5_24 
ROOT
HETATM    1  C1  UNL     1      44.092 -19.554  -1.648  1.00  0.00     0.017 C 
HETATM    2  C2  UNL     1      43.050 -20.646  -1.921  1.00  0.00     0.071 C 
HETATM    3  C3  UNL     1      43.070 -20.807  -3.467  1.00  0.00     0.306 C 
HETATM    4  O1  UNL     1      42.557 -22.018  -3.853  1.00  0.00    -0.204 OA
HETATM    5  O2  UNL     1      41.685 -21.901  -4.775  1.00  0.00    -0.197 OA
HETATM    6  C4  UNL     1      41.494 -20.523  -5.056  1.00  0.00     0.212 C 
HETATM    7  C5  UNL     1      42.359 -20.340  -6.287  1.00  0.00     0.075 C 
HETATM    8  C6  UNL     1      42.030 -19.190  -7.149  1.00  0.00     0.042 C 
HETATM    9  C7  UNL     1      40.582 -19.404  -7.621  1.00  0.00     0.171 C 
HETATM   10  F1  UNL     1      40.258 -18.471  -8.581  1.00  0.00    -0.249 F 
HETATM   11  C8  UNL     1      39.787 -19.149  -6.332  1.00  0.00     0.057 C 
HETATM   12  C9  UNL     1      40.109 -20.296  -5.383  1.00  0.00     0.077 C 
HETATM   13  C10 UNL     1      39.631 -21.558  -6.130  1.00  0.00     0.027 C 
HETATM   14  C11 UNL     1      39.086 -20.122  -4.250  1.00  0.00     0.203 C 
HETATM   15  O3  UNL     1      37.898 -20.018  -4.961  1.00  0.00    -0.352 OA
HETATM   16  C12 UNL     1      36.915 -20.879  -4.871  1.00  0.00     0.171 C 
HETATM   17  C13 UNL     1      36.564 -21.533  -3.588  1.00  0.00     0.029 C 
HETATM   18  C14 UNL     1      37.035 -20.755  -2.355  1.00  0.00     0.034 C 
HETATM   19  C15 UNL     1      38.464 -21.081  -2.231  1.00  0.00     0.132 C 
HETATM   20  O4  UNL     1      39.084 -21.217  -3.451  1.00  0.00    -0.346 OA
HETATM   21  C16 UNL     1      39.254 -20.104  -1.364  1.00  0.00     0.049 C 
HETATM   22  C17 UNL     1      39.246 -18.817  -2.062  1.00  0.00     0.047 C 
HETATM   23  C18 UNL     1      39.225 -18.803  -3.547  1.00  0.00     0.182 C 
HETATM   24  C19 UNL     1      40.614 -20.701  -0.982  1.00  0.00     0.158 A 
HETATM   25  O6  UNL     1      40.988 -21.452  -2.046  1.00  0.00    -0.374 OA
HETATM   26  C20 UNL     1      41.679 -20.183  -1.607  1.00  0.00     0.160 A 
HETATM   27  O7  UNL     1      42.112 -19.926  -4.030  1.00  0.00    -0.318 OA
ENDROOT
BRANCH  23  28
HETATM   28  O5  UNL     1      38.296 -17.832  -4.018  1.00  0.00    -0.390 OA
ATOM     29  H5  UNL     1      38.589 -17.402  -4.813  1.00  0.00     0.210 HD
ENDBRANCH  23  28
TORSDOF 1
ENDMDL
MODEL 3
REMARK VINA RESULT: -8.918909484      2.137      4.471
REMARK  1 active torsions:
REMARK  status: ('A' for Active; 'I' for Inactive)
REMARK    1  A    between atoms: C18_23  and  O5_24 
ROOT
HETATM    1  C1  UNL     1      43.992 -19.270  -2.027  1.00  0.00     0.017 C 
HETATM    2  C2  UNL     1      43.289 -20.478  -2.658  1.00  0.00     0.071 C 
HETATM    3  C3  UNL     1      43.519 -20.293  -4.184  1.00  0.00     0.306 C 
HETATM    4  O1  UNL     1      43.367 -21.475  -4.862  1.00  0.00    -0.204 OA
HETATM    5  O2  UNL     1      42.601 -21.356  -5.873  1.00  0.00    -0.197 OA
HETATM    6  C4  UNL     1      42.109 -20.026  -5.924  1.00  0.00     0.212 C 
HETATM    7  C5  UNL     1      43.033 -19.397  -6.946  1.00  0.00     0.075 C 
HETATM    8  C6  UNL     1      42.529 -18.189  -7.625  1.00  0.00     0.042 C 
HETATM    9  C7  UNL     1      41.240 -18.607  -8.352  1.00  0.00     0.171 C 
HETATM   10  F1  UNL     1      40.805 -17.584  -9.164  1.00  0.00    -0.249 F 
HETATM   11  C8  UNL     1      40.269 -18.817  -7.181  1.00  0.00     0.057 C 
HETATM   12  C9  UNL     1      40.756 -20.043  -6.419  1.00  0.00     0.077 C 
HETATM   13  C10 UNL     1      40.690 -21.188  -7.452  1.00  0.00     0.027 C 
HETATM   14  C11 UNL     1      39.602 -20.346  -5.451  1.00  0.00     0.203 C 
HETATM   15  O3  UNL     1      38.513 -20.354  -6.311  1.00  0.00    -0.352 OA
HETATM   16  C12 UNL     1      37.768 -21.407  -6.538  1.00  0.00     0.171 C 
HETATM   17  C13 UNL     1      37.449 -22.384  -5.469  1.00  0.00     0.029 C 
HETATM   18  C14 UNL     1      37.573 -21.806  -4.055  1.00  0.00     0.034 C 
HETATM   19  C15 UNL     1      39.015 -21.830  -3.767  1.00  0.00     0.132 C 
HETATM   20  O4  UNL     1      39.781 -21.560  -4.877  1.00  0.00    -0.346 OA
HETATM   21  C16 UNL     1      39.439 -20.914  -2.622  1.00  0.00     0.049 C 
HETATM   22  C17 UNL     1      39.191 -19.541  -3.064  1.00  0.00     0.047 C 
HETATM   23  C18 UNL     1      39.333 -19.211  -4.505  1.00  0.00     0.182 C 
HETATM   24  C19 UNL     1      40.853 -21.267  -2.144  1.00  0.00     0.158 A 
HETATM   25  O6  UNL     1      41.516 -21.670  -3.255  1.00  0.00    -0.374 OA
HETATM   26  C20 UNL     1      41.819 -20.406  -2.486  1.00  0.00     0.160 A 
HETATM   27  O7  UNL     1      42.442 -19.543  -4.721  1.00  0.00    -0.318 OA
ENDROOT
BRANCH  23  28
HETATM   28  O5  UNL     1      38.250 -18.390  -4.932  1.00  0.00    -0.390 OA
ATOM     29  H5  UNL     1      38.215 -18.295  -5.877  1.00  0.00     0.210 HD
ENDBRANCH  23  28
TORSDOF 1
ENDMDL
MODEL 4
REMARK VINA RESULT: -8.705192976      2.350      4.697
REMARK  1 active torsions:
REMARK  status: ('A' for Active; 'I' for Inactive)
REMARK    1  A    between atoms: C18_23  and  O5_24 
ROOT
HETATM    1  C1  UNL     1      36.322 -20.648  -0.517  1.00  0.00     0.017 C 
HETATM    2  C2  UNL     1      37.361 -19.645  -1.034  1.00  0.00     0.071 C 
HETATM    3  C3  UNL     1      37.128 -19.620  -2.571  1.00  0.00     0.306 C 
HETATM    4  O1  UNL     1      37.633 -18.479  -3.138  1.00  0.00    -0.204 OA
HETATM    5  O2  UNL     1      38.359 -18.725  -4.155  1.00  0.00    -0.197 OA
HETATM    6  C4  UNL     1      38.447 -20.131  -4.328  1.00  0.00     0.212 C 
HETATM    7  C5  UNL     1      37.409 -20.373  -5.404  1.00  0.00     0.075 C 
HETATM    8  C6  UNL     1      37.561 -21.611  -6.190  1.00  0.00     0.042 C 
HETATM    9  C7  UNL     1      38.934 -21.523  -6.875  1.00  0.00     0.171 C 
HETATM   10  F1  UNL     1      39.078 -22.553  -7.777  1.00  0.00    -0.249 F 
HETATM   11  C8  UNL     1      39.893 -21.707  -5.689  1.00  0.00     0.057 C 
HETATM   12  C9  UNL     1      39.760 -20.464  -4.819  1.00  0.00     0.077 C 
HETATM   13  C10 UNL     1      40.182 -19.302  -5.742  1.00  0.00     0.027 C 
HETATM   14  C11 UNL     1      40.926 -20.595  -3.826  1.00  0.00     0.203 C 
HETATM   15  O3  UNL     1      41.994 -20.828  -4.681  1.00  0.00    -0.352 OA
HETATM   16  C12 UNL     1      43.017 -20.020  -4.811  1.00  0.00     0.171 C 
HETATM   17  C13 UNL     1      43.576 -19.276  -3.656  1.00  0.00     0.029 C 
HETATM   18  C14 UNL     1      43.252 -19.914  -2.302  1.00  0.00     0.034 C 
HETATM   19  C15 UNL     1      41.871 -19.498  -2.013  1.00  0.00     0.132 C 
HETATM   20  O4  UNL     1      41.090 -19.436  -3.144  1.00  0.00    -0.346 OA
HETATM   21  C16 UNL     1      41.170 -20.349  -0.957  1.00  0.00     0.049 C 
HETATM   22  C17 UNL     1      41.023 -21.690  -1.523  1.00  0.00     0.047 C 
HETATM   23  C18 UNL     1      40.831 -21.837  -2.989  1.00  0.00     0.182 C 
HETATM   24  C19 UNL     1      39.906 -19.644  -0.449  1.00  0.00     0.158 A 
HETATM   25  O6  UNL     1      39.418 -18.970  -1.519  1.00  0.00    -0.374 OA
HETATM   26  C20 UNL     1      38.741 -20.155  -0.869  1.00  0.00     0.160 A 
HETATM   27  O7  UNL     1      37.957 -20.600  -3.174  1.00  0.00    -0.318 OA
ENDROOT
BRANCH  23  28
HETATM   28  O5  UNL     1      41.641 -22.897  -3.489  1.00  0.00    -0.390 OA
ATOM     29  H5  UNL     1      41.900 -23.509  -2.810  1.00  0.00     0.210 HD
ENDBRANCH  23  28
TORSDOF 1
ENDMDL
MODEL 5
REMARK VINA RESULT: -8.457232251      2.304      4.004
REMARK  1 active torsions:
REMARK  status: ('A' for Active; 'I' for Inactive)
REMARK    1  A    between atoms: C18_23  and  O5_24 
ROOT
HETATM    1  C1  UNL     1      37.534 -17.136  -3.507  1.00  0.00     0.017 C 
HETATM    2  C2  UNL     1      37.782 -18.620  -3.805  1.00  0.00     0.071 C 
HETATM    3  C3  UNL     1      37.319 -19.347  -2.512  1.00  0.00     0.306 C 
HETATM    4  O1  UNL     1      37.041 -20.668  -2.750  1.00  0.00    -0.204 OA
HETATM    5  O2  UNL     1      37.605 -21.439  -1.907  1.00  0.00    -0.197 OA
HETATM    6  C4  UNL     1      38.392 -20.657  -1.022  1.00  0.00     0.212 C 
HETATM    7  C5  UNL     1      37.476 -20.536   0.177  1.00  0.00     0.075 C 
HETATM    8  C6  UNL     1      38.125 -20.230   1.465  1.00  0.00     0.042 C 
HETATM    9  C7  UNL     1      39.106 -21.381   1.739  1.00  0.00     0.171 C 
HETATM   10  F1  UNL     1      39.619 -21.270   3.012  1.00  0.00    -0.249 F 
HETATM   11  C8  UNL     1      40.200 -21.121   0.693  1.00  0.00     0.057 C 
HETATM   12  C9  UNL     1      39.579 -21.395  -0.670  1.00  0.00     0.077 C 
HETATM   13  C10 UNL     1      39.161 -22.879  -0.611  1.00  0.00     0.027 C 
HETATM   14  C11 UNL     1      40.784 -21.384  -1.623  1.00  0.00     0.203 C 
HETATM   15  O3  UNL     1      41.654 -22.255  -0.982  1.00  0.00    -0.352 OA
HETATM   16  C12 UNL     1      42.057 -23.393  -1.491  1.00  0.00     0.171 C 
HETATM   17  C13 UNL     1      42.322 -23.549  -2.942  1.00  0.00     0.029 C 
HETATM   18  C14 UNL     1      42.616 -22.226  -3.656  1.00  0.00     0.034 C 
HETATM   19  C15 UNL     1      41.295 -21.616  -3.874  1.00  0.00     0.132 C 
HETATM   20  O4  UNL     1      40.423 -21.860  -2.839  1.00  0.00    -0.346 OA
HETATM   21  C16 UNL     1      41.338 -20.118  -4.162  1.00  0.00     0.049 C 
HETATM   22  C17 UNL     1      41.829 -19.468  -2.946  1.00  0.00     0.047 C 
HETATM   23  C18 UNL     1      41.502 -20.065  -1.626  1.00  0.00     0.182 C 
HETATM   24  C19 UNL     1      39.999 -19.641  -4.737  1.00  0.00     0.158 A 
HETATM   25  O6  UNL     1      39.057 -20.406  -4.133  1.00  0.00    -0.374 OA
HETATM   26  C20 UNL     1      39.229 -18.921  -3.910  1.00  0.00     0.160 A 
HETATM   27  O7  UNL     1      38.425 -19.467  -1.633  1.00  0.00    -0.318 OA
ENDROOT
BRANCH  23  28
HETATM   28  O5  UNL     1      42.652 -20.066  -0.786  1.00  0.00    -0.390 OA
ATOM     29  H5  UNL     1      43.064 -19.212  -0.731  1.00  0.00     0.210 HD
ENDBRANCH  23  28
TORSDOF 1
ENDMDL
