MODEL 1
REMARK VINA RESULT: -6.054518541      0.000      0.000
REMARK  4 active torsions:
REMARK  status: ('A' for Active; 'I' for Inactive)
REMARK    1  A    between atoms: C2_2  and  C4_4 
REMARK    2  A    between atoms: N1_9  and  C8_10 
REMARK    3  A    between atoms: C8_10  and  C9_11 
REMARK    4  A    between atoms: C14_19  and  N3_20 
ROOT
HETATM    1  C4  UNL     1       5.244  44.388  23.905  1.00  0.00     0.088 C 
HETATM    2  C5  UNL     1       5.308  44.068  22.471  1.00  0.00     0.041 C 
HETATM    3  C6  UNL     1       6.359  44.824  21.703  1.00  0.00     0.078 C 
HETATM    4  C7  UNL     1       5.921  44.947  20.310  1.00  0.00     0.239 C 
HETATM    5  O1  UNL     1       5.499  43.954  19.691  1.00  0.00    -0.272 OA
HETATM    6  N1  UNL     1       5.961  46.210  19.608  1.00  0.00    -0.307 N 
HETATM    7  C11 UNL     1       6.890  47.154  20.120  1.00  0.00     0.080 C 
HETATM    8  N2  UNL     1       7.052  48.279  19.522  1.00  0.00    -0.389 N 
ATOM      9  H21 UNL     1       7.720  48.958  19.890  1.00  0.00     0.157 HD
ATOM     10  H22 UNL     1       6.514  48.498  18.684  1.00  0.00     0.157 HD
HETATM   11  C12 UNL     1       7.683  46.832  21.355  1.00  0.00     0.086 C 
HETATM   12  C13 UNL     1       6.739  46.146  22.319  1.00  0.00     0.062 C 
HETATM   13  C14 UNL     1       7.466  45.651  23.551  1.00  0.00     0.190 C 
HETATM   14  C15 UNL     1       6.441  45.066  24.445  1.00  0.00     0.174 C 
HETATM   15  O4  UNL     1       6.599  45.152  25.644  1.00  0.00    -0.294 OA
HETATM   16  C16 UNL     1       8.315  44.562  22.922  1.00  0.00    -0.001 A 
HETATM   17  C17 UNL     1       9.533  44.010  23.227  1.00  0.00     0.060 A 
HETATM   18  S1  UNL     1       9.757  42.852  22.001  1.00  0.00    -0.113 SA
HETATM   19  C18 UNL     1       8.314  43.085  21.131  1.00  0.00     0.058 A 
HETATM   20  C19 UNL     1       7.683  44.080  21.832  1.00  0.00    -0.023 A 
ENDROOT
BRANCH   1  21
HETATM   21  C2  UNL     1       4.002  45.122  24.237  1.00  0.00    -0.082 C 
HETATM   22  C1  UNL     1       3.970  46.336  24.742  1.00  0.00     0.015 C 
HETATM   23  C3  UNL     1       2.652  44.478  23.985  1.00  0.00     0.043 C 
ENDBRANCH   1  21
BRANCH  13  24
HETATM   24  N3  UNL     1       8.238  46.668  24.181  1.00  0.00    -0.132 N 
HETATM   25  O2  UNL     1       7.712  47.761  24.428  1.00  0.00    -0.535 OA
HETATM   26  O3  UNL     1       9.550  46.500  24.537  1.00  0.00    -0.535 OA
ENDBRANCH  13  24
BRANCH   6  27
HETATM   27  C8  UNL     1       5.115  46.485  18.470  1.00  0.00     0.133 C 
BRANCH  27  28
HETATM   28  C9  UNL     1       3.743  46.971  18.884  1.00  0.00     0.016 C 
HETATM   29  C10 UNL     1       2.926  47.177  17.628  1.00  0.00     0.006 C 
ENDBRANCH  27  28
ENDBRANCH   6  27
TORSDOF 4
ENDMDL
MODEL 2
REMARK VINA RESULT: -5.770280243      1.039      1.126
REMARK  4 active torsions:
REMARK  status: ('A' for Active; 'I' for Inactive)
REMARK    1  A    between atoms: C2_2  and  C4_4 
REMARK    2  A    between atoms: N1_9  and  C8_10 
REMARK    3  A    between atoms: C8_10  and  C9_11 
REMARK    4  A    between atoms: C14_19  and  N3_20 
ROOT
HETATM    1  C4  UNL     1       4.811  43.398  23.432  1.00  0.00     0.088 C 
HETATM    2  C5  UNL     1       5.276  43.453  22.037  1.00  0.00     0.041 C 
HETATM    3  C6  UNL     1       6.321  44.501  21.763  1.00  0.00     0.078 C 
HETATM    4  C7  UNL     1       6.215  44.908  20.358  1.00  0.00     0.239 C 
HETATM    5  O1  UNL     1       6.147  44.054  19.457  1.00  0.00    -0.272 OA
HETATM    6  N1  UNL     1       6.186  46.300  19.969  1.00  0.00    -0.307 N 
HETATM    7  C11 UNL     1       6.773  47.198  20.901  1.00  0.00     0.080 C 
HETATM    8  N2  UNL     1       6.861  48.447  20.615  1.00  0.00    -0.389 N 
ATOM      9  H21 UNL     1       7.282  49.092  21.284  1.00  0.00     0.157 HD
ATOM     10  H22 UNL     1       6.509  48.796  19.724  1.00  0.00     0.157 HD
HETATM   11  C12 UNL     1       7.291  46.683  22.213  1.00  0.00     0.086 C 
HETATM   12  C13 UNL     1       6.289  45.667  22.717  1.00  0.00     0.062 C 
HETATM   13  C14 UNL     1       6.778  44.978  23.973  1.00  0.00     0.190 C 
HETATM   14  C15 UNL     1       5.696  44.067  24.409  1.00  0.00     0.174 C 
HETATM   15  O4  UNL     1       5.543  43.874  25.595  1.00  0.00    -0.294 OA
HETATM   16  C16 UNL     1       7.941  44.194  23.394  1.00  0.00    -0.001 A 
HETATM   17  C17 UNL     1       9.130  43.741  23.904  1.00  0.00     0.060 A 
HETATM   18  S1  UNL     1       9.854  42.959  22.578  1.00  0.00    -0.113 SA
HETATM   19  C18 UNL     1       8.645  43.217  21.409  1.00  0.00     0.058 A 
HETATM   20  C19 UNL     1       7.690  43.921  22.097  1.00  0.00    -0.023 A 
ENDROOT
BRANCH   1  21
HETATM   21  C2  UNL     1       3.412  43.866  23.551  1.00  0.00    -0.082 C 
HETATM   22  C1  UNL     1       3.044  45.127  23.503  1.00  0.00     0.015 C 
HETATM   23  C3  UNL     1       2.291  42.860  23.728  1.00  0.00     0.043 C 
ENDBRANCH   1  21
BRANCH  13  24
HETATM   24  N3  UNL     1       7.173  45.898  24.987  1.00  0.00    -0.132 N 
HETATM   25  O2  UNL     1       6.367  46.754  25.374  1.00  0.00    -0.535 OA
HETATM   26  O3  UNL     1       8.413  45.884  25.568  1.00  0.00    -0.535 OA
ENDBRANCH  13  24
BRANCH   6  27
HETATM   27  C8  UNL     1       5.602  46.739  18.723  1.00  0.00     0.133 C 
BRANCH  27  28
HETATM   28  C9  UNL     1       4.092  46.656  18.741  1.00  0.00     0.016 C 
HETATM   29  C10 UNL     1       3.656  45.873  17.523  1.00  0.00     0.006 C 
ENDBRANCH  27  28
ENDBRANCH   6  27
TORSDOF 4
ENDMDL
MODEL 3
REMARK VINA RESULT: -5.529986574      0.815      1.086
REMARK  4 active torsions:
REMARK  status: ('A' for Active; 'I' for Inactive)
REMARK    1  A    between atoms: C2_2  and  C4_4 
REMARK    2  A    between atoms: N1_9  and  C8_10 
REMARK    3  A    between atoms: C8_10  and  C9_11 
REMARK    4  A    between atoms: C14_19  and  N3_20 
ROOT
HETATM    1  C4  UNL     1       5.775  44.502  24.469  1.00  0.00     0.088 C 
HETATM    2  C5  UNL     1       5.680  44.092  23.060  1.00  0.00     0.041 C 
HETATM    3  C6  UNL     1       6.562  44.868  22.118  1.00  0.00     0.078 C 
HETATM    4  C7  UNL     1       5.940  44.865  20.790  1.00  0.00     0.239 C 
HETATM    5  O1  UNL     1       5.524  43.806  20.290  1.00  0.00    -0.272 OA
HETATM    6  N1  UNL     1       5.790  46.078  20.017  1.00  0.00    -0.307 N 
HETATM    7  C11 UNL     1       6.699  47.118  20.347  1.00  0.00     0.080 C 
HETATM    8  N2  UNL     1       6.693  48.209  19.669  1.00  0.00    -0.389 N 
ATOM      9  H21 UNL     1       7.346  48.957  19.906  1.00  0.00     0.157 HD
ATOM     10  H22 UNL     1       6.037  48.332  18.898  1.00  0.00     0.157 HD
HETATM   11  C12 UNL     1       7.666  46.938  21.482  1.00  0.00     0.086 C 
HETATM   12  C13 UNL     1       6.911  46.252  22.601  1.00  0.00     0.062 C 
HETATM   13  C14 UNL     1       7.826  45.894  23.752  1.00  0.00     0.190 C 
HETATM   14  C15 UNL     1       6.974  45.299  24.806  1.00  0.00     0.174 C 
HETATM   15  O4  UNL     1       7.276  45.476  25.966  1.00  0.00    -0.294 OA
HETATM   16  C16 UNL     1       8.672  44.828  23.079  1.00  0.00    -0.001 A 
HETATM   17  C17 UNL     1       9.958  44.386  23.252  1.00  0.00     0.060 A 
HETATM   18  S1  UNL     1      10.116  43.167  22.076  1.00  0.00    -0.113 SA
HETATM   19  C18 UNL     1       8.559  43.238  21.392  1.00  0.00     0.058 A 
HETATM   20  C19 UNL     1       7.946  44.230  22.112  1.00  0.00    -0.023 A 
ENDROOT
BRANCH   1  21
HETATM   21  C2  UNL     1       4.531  45.167  24.920  1.00  0.00    -0.082 C 
HETATM   22  C1  UNL     1       4.181  46.390  24.589  1.00  0.00     0.015 C 
HETATM   23  C3  UNL     1       3.558  44.423  25.815  1.00  0.00     0.043 C 
ENDBRANCH   1  21
BRANCH  13  24
HETATM   24  N3  UNL     1       8.589  47.004  24.215  1.00  0.00    -0.132 N 
HETATM   25  O2  UNL     1       9.805  46.866  24.401  1.00  0.00    -0.535 OA
HETATM   26  O3  UNL     1       8.044  48.235  24.465  1.00  0.00    -0.535 OA
ENDBRANCH  13  24
BRANCH   6  27
HETATM   27  C8  UNL     1       4.786  46.215  18.988  1.00  0.00     0.133 C 
BRANCH  27  28
HETATM   28  C9  UNL     1       4.988  45.228  17.859  1.00  0.00     0.016 C 
HETATM   29  C10 UNL     1       3.693  45.136  17.085  1.00  0.00     0.006 C 
ENDBRANCH  27  28
ENDBRANCH   6  27
TORSDOF 4
ENDMDL
MODEL 4
REMARK VINA RESULT: -5.503720602      0.718      1.088
REMARK  4 active torsions:
REMARK  status: ('A' for Active; 'I' for Inactive)
REMARK    1  A    between atoms: C2_2  and  C4_4 
REMARK    2  A    between atoms: N1_9  and  C8_10 
REMARK    3  A    between atoms: C8_10  and  C9_11 
REMARK    4  A    between atoms: C14_19  and  N3_20 
ROOT
HETATM    1  C4  UNL     1       5.972  44.198  24.139  1.00  0.00     0.088 C 
HETATM    2  C5  UNL     1       6.020  43.916  22.696  1.00  0.00     0.041 C 
HETATM    3  C6  UNL     1       6.993  44.763  21.921  1.00  0.00     0.078 C 
HETATM    4  C7  UNL     1       6.509  44.885  20.542  1.00  0.00     0.239 C 
HETATM    5  O1  UNL     1       6.143  43.879  19.910  1.00  0.00    -0.272 OA
HETATM    6  N1  UNL     1       6.440  46.163  19.870  1.00  0.00    -0.307 N 
HETATM    7  C11 UNL     1       7.313  47.160  20.382  1.00  0.00     0.080 C 
HETATM    8  N2  UNL     1       7.378  48.308  19.807  1.00  0.00    -0.389 N 
ATOM      9  H21 UNL     1       8.005  49.024  20.175  1.00  0.00     0.157 HD
ATOM     10  H22 UNL     1       6.803  48.506  18.988  1.00  0.00     0.157 HD
HETATM   11  C12 UNL     1       8.159  46.869  21.588  1.00  0.00     0.086 C 
HETATM   12  C13 UNL     1       7.294  46.095  22.559  1.00  0.00     0.062 C 
HETATM   13  C14 UNL     1       8.088  45.625  23.759  1.00  0.00     0.190 C 
HETATM   14  C15 UNL     1       7.132  44.948  24.664  1.00  0.00     0.174 C 
HETATM   15  O4  UNL     1       7.316  45.019  25.860  1.00  0.00    -0.294 OA
HETATM   16  C16 UNL     1       8.995  44.615  23.082  1.00  0.00    -0.001 A 
HETATM   17  C17 UNL     1      10.257  44.146  23.343  1.00  0.00     0.060 A 
HETATM   18  S1  UNL     1      10.530  43.035  22.084  1.00  0.00    -0.113 SA
HETATM   19  C18 UNL     1       9.051  43.183  21.256  1.00  0.00     0.058 A 
HETATM   20  C19 UNL     1       8.369  44.114  21.997  1.00  0.00    -0.023 A 
ENDROOT
BRANCH   1  21
HETATM   21  C2  UNL     1       4.691  44.833  24.520  1.00  0.00    -0.082 C 
HETATM   22  C1  UNL     1       3.705  44.210  25.129  1.00  0.00     0.015 C 
HETATM   23  C3  UNL     1       4.456  46.302  24.222  1.00  0.00     0.043 C 
ENDBRANCH   1  21
BRANCH  13  24
HETATM   24  N3  UNL     1       8.802  46.682  24.394  1.00  0.00    -0.132 N 
HETATM   25  O2  UNL     1      10.035  46.610  24.482  1.00  0.00    -0.535 OA
HETATM   26  O3  UNL     1       8.191  47.791  24.916  1.00  0.00    -0.535 OA
ENDBRANCH  13  24
BRANCH   6  27
HETATM   27  C8  UNL     1       5.546  46.402  18.761  1.00  0.00     0.133 C 
BRANCH  27  28
HETATM   28  C9  UNL     1       4.120  46.623  19.216  1.00  0.00     0.016 C 
HETATM   29  C10 UNL     1       3.334  47.154  18.038  1.00  0.00     0.006 C 
ENDBRANCH  27  28
ENDBRANCH   6  27
TORSDOF 4
ENDMDL
MODEL 5
REMARK VINA RESULT: -5.501461652      2.602      4.747
REMARK  4 active torsions:
REMARK  status: ('A' for Active; 'I' for Inactive)
REMARK    1  A    between atoms: C2_2  and  C4_4 
REMARK    2  A    between atoms: N1_9  and  C8_10 
REMARK    3  A    between atoms: C8_10  and  C9_11 
REMARK    4  A    between atoms: C14_19  and  N3_20 
ROOT
HETATM    1  C4  UNL     1       4.367  43.491  22.992  1.00  0.00     0.088 C 
HETATM    2  C5  UNL     1       4.611  44.932  22.826  1.00  0.00     0.041 C 
HETATM    3  C6  UNL     1       5.887  45.276  22.105  1.00  0.00     0.078 C 
HETATM    4  C7  UNL     1       6.341  46.592  22.564  1.00  0.00     0.239 C 
HETATM    5  O1  UNL     1       5.551  47.550  22.618  1.00  0.00    -0.272 OA
HETATM    6  N1  UNL     1       7.710  46.826  22.966  1.00  0.00    -0.307 N 
HETATM    7  C11 UNL     1       8.661  45.925  22.419  1.00  0.00     0.080 C 
HETATM    8  N2  UNL     1       9.912  46.093  22.660  1.00  0.00    -0.389 N 
ATOM      9  H21 UNL     1      10.595  45.445  22.267  1.00  0.00     0.157 HD
ATOM     10  H22 UNL     1      10.224  46.869  23.243  1.00  0.00     0.157 HD
HETATM   11  C12 UNL     1       8.203  44.781  21.560  1.00  0.00     0.086 C 
HETATM   12  C13 UNL     1       6.954  44.217  22.203  1.00  0.00     0.062 C 
HETATM   13  C14 UNL     1       6.323  43.142  21.345  1.00  0.00     0.190 C 
HETATM   14  C15 UNL     1       5.162  42.620  22.101  1.00  0.00     0.174 C 
HETATM   15  O4  UNL     1       4.868  41.451  21.977  1.00  0.00    -0.294 OA
HETATM   16  C16 UNL     1       5.865  43.991  20.174  1.00  0.00    -0.001 A 
HETATM   17  C17 UNL     1       5.669  43.744  18.840  1.00  0.00     0.060 A 
HETATM   18  S1  UNL     1       5.157  45.248  18.233  1.00  0.00    -0.113 SA
HETATM   19  C18 UNL     1       5.197  46.157  19.671  1.00  0.00     0.058 A 
HETATM   20  C19 UNL     1       5.619  45.246  20.605  1.00  0.00    -0.023 A 
ENDROOT
BRANCH   1  21
HETATM   21  C2  UNL     1       4.491  43.084  24.409  1.00  0.00    -0.082 C 
HETATM   22  C1  UNL     1       5.516  43.376  25.179  1.00  0.00     0.015 C 
HETATM   23  C3  UNL     1       3.381  42.286  25.066  1.00  0.00     0.043 C 
ENDBRANCH   1  21
BRANCH  13  24
HETATM   24  N3  UNL     1       7.247  42.124  20.971  1.00  0.00    -0.132 N 
HETATM   25  O2  UNL     1       7.371  41.831  19.774  1.00  0.00    -0.535 OA
HETATM   26  O3  UNL     1       8.019  41.444  21.874  1.00  0.00    -0.535 OA
ENDBRANCH  13  24
BRANCH   6  27
HETATM   27  C8  UNL     1       8.076  47.901  23.860  1.00  0.00     0.133 C 
BRANCH  27  28
HETATM   28  C9  UNL     1       7.808  47.554  25.308  1.00  0.00     0.016 C 
HETATM   29  C10 UNL     1       8.068  48.792  26.137  1.00  0.00     0.006 C 
ENDBRANCH  27  28
ENDBRANCH   6  27
TORSDOF 4
ENDMDL
