MODEL 1
REMARK VINA RESULT: -5.791157571      0.000      0.000
REMARK  5 active torsions:
REMARK  status: ('A' for Active; 'I' for Inactive)
REMARK    1  A    between atoms: C2_2  and  C4_4 
REMARK    2  A    between atoms: C9_12  and  C10_13 
REMARK    3  A    between atoms: C12_15  and  C13_16 
REMARK    4  A    between atoms: C18_23  and  O6_24 
REMARK    5  A    between atoms: O6_24  and  C19_25 
ROOT
HETATM    1  C4  UNL     1       5.726  44.561  22.985  1.00  0.00    -0.047 C 
HETATM    2  C5  UNL     1       7.068  44.894  23.556  1.00  0.00     0.120 C 
HETATM    3  C6  UNL     1       8.030  45.396  22.594  1.00  0.00     0.161 C 
HETATM    4  O1  UNL     1       7.921  46.571  22.208  1.00  0.00    -0.295 OA
HETATM    5  C7  UNL     1       9.171  44.642  21.997  1.00  0.00     0.210 C 
HETATM    6  O2  UNL     1      10.303  45.191  22.649  1.00  0.00    -0.307 OA
HETATM    7  C8  UNL     1      11.546  44.825  22.174  1.00  0.00     0.264 C 
HETATM    8  O3  UNL     1      12.525  45.611  22.167  1.00  0.00    -0.265 OA
HETATM    9  C9  UNL     1      11.615  43.425  21.677  1.00  0.00     0.100 C 
HETATM   10  C12 UNL     1      10.565  42.655  22.399  1.00  0.00     0.111 C 
HETATM   11  C14 UNL     1       9.143  43.187  22.197  1.00  0.00     0.060 C 
HETATM   12  C15 UNL     1       8.516  42.415  21.083  1.00  0.00    -0.013 C 
HETATM   13  C16 UNL     1       7.411  42.597  20.448  1.00  0.00    -0.054 C 
HETATM   14  C17 UNL     1       7.057  41.612  19.349  1.00  0.00     0.046 C 
HETATM   15  C18 UNL     1       6.385  43.698  20.654  1.00  0.00     0.183 C 
HETATM   16  C21 UNL     1       5.647  43.565  21.914  1.00  0.00     0.018 C 
ENDROOT
BRANCH  15  17
HETATM   17  O6  UNL     1       5.403  43.570  19.590  1.00  0.00    -0.308 OA
BRANCH  17  18
HETATM   18  C19 UNL     1       5.286  44.554  18.636  1.00  0.00     0.255 C 
HETATM   19  C20 UNL     1       4.454  44.379  17.421  1.00  0.00     0.126 C 
HETATM   20  O7  UNL     1       5.897  45.636  18.786  1.00  0.00    -0.266 OA
ENDBRANCH  17  18
ENDBRANCH  15  17
BRANCH   1  21
HETATM   21  C2  UNL     1       4.827  45.735  22.898  1.00  0.00    -0.065 C 
HETATM   22  C1  UNL     1       4.429  46.291  21.786  1.00  0.00     0.019 C 
HETATM   23  C3  UNL     1       4.351  46.305  24.190  1.00  0.00     0.048 C 
ENDBRANCH   1  21
BRANCH  10  24
HETATM   24  C13 UNL     1      10.904  42.422  23.808  1.00  0.00     0.178 C 
HETATM   25  O4  UNL     1      11.713  41.503  24.191  1.00  0.00    -0.648 OA
HETATM   26  O5  UNL     1      10.375  43.176  24.844  1.00  0.00    -0.648 OA
ENDBRANCH  10  24
BRANCH   9  27
HETATM   27  C10 UNL     1      12.944  42.809  21.948  1.00  0.00     0.011 C 
HETATM   28  C11 UNL     1      13.796  42.898  20.710  1.00  0.00     0.006 C 
ENDBRANCH   9  27
TORSDOF 5
ENDMDL
MODEL 2
REMARK VINA RESULT: -5.649797756      8.407     11.871
REMARK  5 active torsions:
REMARK  status: ('A' for Active; 'I' for Inactive)
REMARK    1  A    between atoms: C2_2  and  C4_4 
REMARK    2  A    between atoms: C9_12  and  C10_13 
REMARK    3  A    between atoms: C12_15  and  C13_16 
REMARK    4  A    between atoms: C18_23  and  O6_24 
REMARK    5  A    between atoms: O6_24  and  C19_25 
ROOT
HETATM    1  C4  UNL     1       3.358  39.646  17.242  1.00  0.00    -0.047 C 
HETATM    2  C5  UNL     1       2.852  39.038  18.512  1.00  0.00     0.120 C 
HETATM    3  C6  UNL     1       2.239  37.733  18.359  1.00  0.00     0.161 C 
HETATM    4  O1  UNL     1       2.977  36.747  18.200  1.00  0.00    -0.295 OA
HETATM    5  C7  UNL     1       0.777  37.428  18.371  1.00  0.00     0.210 C 
HETATM    6  O2  UNL     1       0.584  36.806  19.629  1.00  0.00    -0.307 OA
HETATM    7  C8  UNL     1      -0.648  36.232  19.868  1.00  0.00     0.264 C 
HETATM    8  O3  UNL     1      -0.787  35.188  20.550  1.00  0.00    -0.265 OA
HETATM    9  C9  UNL     1      -1.786  36.962  19.247  1.00  0.00     0.100 C 
HETATM   10  C12 UNL     1      -1.366  38.383  19.108  1.00  0.00     0.111 C 
HETATM   11  C14 UNL     1      -0.114  38.589  18.250  1.00  0.00     0.060 C 
HETATM   12  C15 UNL     1      -0.553  38.899  16.858  1.00  0.00    -0.013 C 
HETATM   13  C16 UNL     1       0.116  38.989  15.762  1.00  0.00    -0.054 C 
HETATM   14  C17 UNL     1      -0.645  39.326  14.493  1.00  0.00     0.046 C 
HETATM   15  C18 UNL     1       1.609  38.794  15.560  1.00  0.00     0.183 C 
HETATM   16  C21 UNL     1       2.412  39.872  16.147  1.00  0.00     0.018 C 
ENDROOT
BRANCH  15  17
HETATM   17  O6  UNL     1       1.855  38.836  14.128  1.00  0.00    -0.308 OA
BRANCH  17  18
HETATM   18  C19 UNL     1       2.212  37.690  13.455  1.00  0.00     0.255 C 
HETATM   19  C20 UNL     1       2.658  36.467  14.165  1.00  0.00     0.126 C 
HETATM   20  O7  UNL     1       2.162  37.666  12.205  1.00  0.00    -0.266 OA
ENDBRANCH  17  18
ENDBRANCH  15  17
BRANCH   1  21
HETATM   21  C2  UNL     1       4.723  39.192  16.887  1.00  0.00    -0.065 C 
HETATM   22  C1  UNL     1       5.094  38.798  15.700  1.00  0.00     0.019 C 
HETATM   23  C3  UNL     1       5.732  39.199  17.984  1.00  0.00     0.048 C 
ENDBRANCH   1  21
BRANCH  10  24
HETATM   24  C13 UNL     1      -1.311  39.085  20.395  1.00  0.00     0.178 C 
HETATM   25  O4  UNL     1      -2.351  39.558  20.980  1.00  0.00    -0.648 OA
HETATM   26  O5  UNL     1      -0.129  39.298  21.087  1.00  0.00    -0.648 OA
ENDBRANCH  10  24
BRANCH   9  27
HETATM   27  C10 UNL     1      -3.011  36.896  20.092  1.00  0.00     0.011 C 
HETATM   28  C11 UNL     1      -4.064  36.088  19.380  1.00  0.00     0.006 C 
ENDBRANCH   9  27
TORSDOF 5
ENDMDL
MODEL 3
REMARK VINA RESULT: -5.379910151      2.817      6.666
REMARK  5 active torsions:
REMARK  status: ('A' for Active; 'I' for Inactive)
REMARK    1  A    between atoms: C2_2  and  C4_4 
REMARK    2  A    between atoms: C9_12  and  C10_13 
REMARK    3  A    between atoms: C12_15  and  C13_16 
REMARK    4  A    between atoms: C18_23  and  O6_24 
REMARK    5  A    between atoms: O6_24  and  C19_25 
ROOT
HETATM    1  C4  UNL     1       9.448  47.485  25.247  1.00  0.00    -0.047 C 
HETATM    2  C5  UNL     1       8.181  47.973  24.616  1.00  0.00     0.120 C 
HETATM    3  C6  UNL     1       7.176  46.950  24.404  1.00  0.00     0.161 C 
HETATM    4  O1  UNL     1       6.518  46.556  25.381  1.00  0.00    -0.295 OA
HETATM    5  C7  UNL     1       6.829  46.296  23.108  1.00  0.00     0.210 C 
HETATM    6  O2  UNL     1       5.578  46.873  22.775  1.00  0.00    -0.307 OA
HETATM    7  C8  UNL     1       4.896  46.331  21.706  1.00  0.00     0.264 C 
HETATM    8  O3  UNL     1       3.643  46.257  21.671  1.00  0.00    -0.265 OA
HETATM    9  C9  UNL     1       5.776  45.848  20.609  1.00  0.00     0.100 C 
HETATM   10  C12 UNL     1       7.035  46.640  20.681  1.00  0.00     0.111 C 
HETATM   11  C14 UNL     1       7.782  46.515  22.012  1.00  0.00     0.060 C 
HETATM   12  C15 UNL     1       8.817  45.450  21.862  1.00  0.00    -0.013 C 
HETATM   13  C16 UNL     1       9.573  44.879  22.734  1.00  0.00    -0.054 C 
HETATM   14  C17 UNL     1      10.538  43.814  22.245  1.00  0.00     0.046 C 
HETATM   15  C18 UNL     1       9.629  45.131  24.230  1.00  0.00     0.183 C 
HETATM   16  C21 UNL     1      10.210  46.433  24.571  1.00  0.00     0.018 C 
ENDROOT
BRANCH  15  17
HETATM   17  O6  UNL     1      10.514  44.128  24.799  1.00  0.00    -0.308 OA
BRANCH  17  18
HETATM   18  C19 UNL     1      10.049  43.262  25.761  1.00  0.00     0.255 C 
HETATM   19  C20 UNL     1       8.624  43.232  26.172  1.00  0.00     0.126 C 
HETATM   20  O7  UNL     1      10.843  42.468  26.315  1.00  0.00    -0.266 OA
ENDBRANCH  17  18
ENDBRANCH  15  17
BRANCH   1  21
HETATM   21  C2  UNL     1       9.375  47.437  26.726  1.00  0.00    -0.065 C 
HETATM   22  C1  UNL     1       9.897  46.500  27.470  1.00  0.00     0.019 C 
HETATM   23  C3  UNL     1       8.651  48.555  27.394  1.00  0.00     0.048 C 
ENDBRANCH   1  21
BRANCH  10  24
HETATM   24  C13 UNL     1       6.854  48.029  20.244  1.00  0.00     0.178 C 
HETATM   25  O4  UNL     1       6.678  48.360  19.016  1.00  0.00    -0.648 OA
HETATM   26  O5  UNL     1       6.861  49.101  21.122  1.00  0.00    -0.648 OA
ENDBRANCH  10  24
BRANCH   9  27
HETATM   27  C10 UNL     1       5.151  46.047  19.271  1.00  0.00     0.011 C 
HETATM   28  C11 UNL     1       5.397  44.830  18.420  1.00  0.00     0.006 C 
ENDBRANCH   9  27
TORSDOF 5
ENDMDL
MODEL 4
REMARK VINA RESULT: -5.342483531      0.841      1.002
REMARK  5 active torsions:
REMARK  status: ('A' for Active; 'I' for Inactive)
REMARK    1  A    between atoms: C2_2  and  C4_4 
REMARK    2  A    between atoms: C9_12  and  C10_13 
REMARK    3  A    between atoms: C12_15  and  C13_16 
REMARK    4  A    between atoms: C18_23  and  O6_24 
REMARK    5  A    between atoms: O6_24  and  C19_25 
ROOT
HETATM    1  C4  UNL     1       6.225  45.114  22.853  1.00  0.00    -0.047 C 
HETATM    2  C5  UNL     1       7.608  45.471  23.298  1.00  0.00     0.120 C 
HETATM    3  C6  UNL     1       8.546  45.720  22.221  1.00  0.00     0.161 C 
HETATM    4  O1  UNL     1       8.479  46.803  21.617  1.00  0.00    -0.295 OA
HETATM    5  C7  UNL     1       9.618  44.799  21.741  1.00  0.00     0.210 C 
HETATM    6  O2  UNL     1      10.806  45.396  22.230  1.00  0.00    -0.307 OA
HETATM    7  C8  UNL     1      12.005  44.873  21.790  1.00  0.00     0.264 C 
HETATM    8  O3  UNL     1      13.021  45.582  21.593  1.00  0.00    -0.265 OA
HETATM    9  C9  UNL     1      11.979  43.401  21.574  1.00  0.00     0.100 C 
HETATM   10  C12 UNL     1      10.927  42.849  22.471  1.00  0.00     0.111 C 
HETATM   11  C14 UNL     1       9.526  43.414  22.222  1.00  0.00     0.060 C 
HETATM   12  C15 UNL     1       8.808  42.480  21.305  1.00  0.00    -0.013 C 
HETATM   13  C16 UNL     1       7.684  42.601  20.688  1.00  0.00    -0.054 C 
HETATM   14  C17 UNL     1       7.228  41.445  19.817  1.00  0.00     0.046 C 
HETATM   15  C18 UNL     1       6.726  43.779  20.713  1.00  0.00     0.183 C 
HETATM   16  C21 UNL     1       6.043  43.936  22.001  1.00  0.00     0.018 C 
ENDROOT
BRANCH  15  17
HETATM   17  O6  UNL     1       5.689  43.507  19.732  1.00  0.00    -0.308 OA
BRANCH  17  18
HETATM   18  C19 UNL     1       5.372  44.450  18.781  1.00  0.00     0.255 C 
HETATM   19  C20 UNL     1       5.786  45.867  18.910  1.00  0.00     0.126 C 
HETATM   20  O7  UNL     1       4.715  44.113  17.771  1.00  0.00    -0.266 OA
ENDBRANCH  17  18
ENDBRANCH  15  17
BRANCH   1  21
HETATM   21  C2  UNL     1       5.383  46.300  22.572  1.00  0.00    -0.065 C 
HETATM   22  C1  UNL     1       5.765  47.539  22.714  1.00  0.00     0.019 C 
HETATM   23  C3  UNL     1       3.998  46.033  22.088  1.00  0.00     0.048 C 
ENDBRANCH   1  21
BRANCH  10  24
HETATM   24  C13 UNL     1      11.321  42.872  23.884  1.00  0.00     0.178 C 
HETATM   25  O4  UNL     1      12.125  42.016  24.402  1.00  0.00    -0.648 OA
HETATM   26  O5  UNL     1      10.854  43.822  24.780  1.00  0.00    -0.648 OA
ENDBRANCH  10  24
BRANCH   9  27
HETATM   27  C10 UNL     1      13.286  42.771  21.910  1.00  0.00     0.011 C 
HETATM   28  C11 UNL     1      14.122  42.663  20.662  1.00  0.00     0.006 C 
ENDBRANCH   9  27
TORSDOF 5
ENDMDL
MODEL 5
REMARK VINA RESULT: -5.295995376      2.968      6.554
REMARK  5 active torsions:
REMARK  status: ('A' for Active; 'I' for Inactive)
REMARK    1  A    between atoms: C2_2  and  C4_4 
REMARK    2  A    between atoms: C9_12  and  C10_13 
REMARK    3  A    between atoms: C12_15  and  C13_16 
REMARK    4  A    between atoms: C18_23  and  O6_24 
REMARK    5  A    between atoms: O6_24  and  C19_25 
ROOT
HETATM    1  C4  UNL     1       7.982  44.307  24.719  1.00  0.00    -0.047 C 
HETATM    2  C5  UNL     1       8.305  44.661  23.301  1.00  0.00     0.120 C 
HETATM    3  C6  UNL     1       7.827  45.961  22.876  1.00  0.00     0.161 C 
HETATM    4  O1  UNL     1       8.446  46.970  23.251  1.00  0.00    -0.295 OA
HETATM    5  C7  UNL     1       6.642  46.237  22.011  1.00  0.00     0.210 C 
HETATM    6  O2  UNL     1       7.220  46.611  20.773  1.00  0.00    -0.307 OA
HETATM    7  C8  UNL     1       6.373  47.111  19.805  1.00  0.00     0.264 C 
HETATM    8  O3  UNL     1       6.723  48.008  18.999  1.00  0.00    -0.265 OA
HETATM    9  C9  UNL     1       5.021  46.493  19.807  1.00  0.00     0.100 C 
HETATM   10  C12 UNL     1       5.167  45.129  20.384  1.00  0.00     0.111 C 
HETATM   11  C14 UNL     1       5.728  45.105  21.809  1.00  0.00     0.060 C 
HETATM   12  C15 UNL     1       4.576  45.053  22.757  1.00  0.00    -0.013 C 
HETATM   13  C16 UNL     1       4.531  45.179  24.038  1.00  0.00    -0.054 C 
HETATM   14  C17 UNL     1       3.176  45.072  24.712  1.00  0.00     0.046 C 
HETATM   15  C18 UNL     1       5.685  45.430  24.993  1.00  0.00     0.183 C 
HETATM   16  C21 UNL     1       6.577  44.274  25.131  1.00  0.00     0.018 C 
ENDROOT
BRANCH  15  17
HETATM   17  O6  UNL     1       5.108  45.660  26.308  1.00  0.00    -0.308 OA
BRANCH  17  18
HETATM   18  C19 UNL     1       5.497  46.750  27.052  1.00  0.00     0.255 C 
HETATM   19  C20 UNL     1       4.983  46.992  28.421  1.00  0.00     0.126 C 
HETATM   20  O7  UNL     1       6.311  47.569  26.569  1.00  0.00    -0.266 OA
ENDBRANCH  17  18
ENDBRANCH  15  17
BRANCH   1  21
HETATM   21  C2  UNL     1       8.969  44.840  25.687  1.00  0.00    -0.065 C 
HETATM   22  C1  UNL     1       8.689  45.236  26.899  1.00  0.00     0.019 C 
HETATM   23  C3  UNL     1      10.383  44.916  25.222  1.00  0.00     0.048 C 
ENDBRANCH   1  21
BRANCH  10  24
HETATM   24  C13 UNL     1       5.850  44.200  19.475  1.00  0.00     0.178 C 
HETATM   25  O4  UNL     1       5.475  44.004  18.263  1.00  0.00    -0.648 OA
HETATM   26  O5  UNL     1       6.956  43.456  19.851  1.00  0.00    -0.648 OA
ENDBRANCH  10  24
BRANCH   9  27
HETATM   27  C10 UNL     1       4.463  46.382  18.429  1.00  0.00     0.011 C 
HETATM   28  C11 UNL     1       3.285  47.309  18.292  1.00  0.00     0.006 C 
ENDBRANCH   9  27
TORSDOF 5
ENDMDL
