MODEL 1
REMARK VINA RESULT: -6.991900273      0.000      0.000
REMARK  4 active torsions:
REMARK  status: ('A' for Active; 'I' for Inactive)
REMARK    1  A    between atoms: O1_2  and  C2_3 
REMARK    2  A    between atoms: C14_17  and  O4_18 
REMARK    3  A    between atoms: N1_25  and  C19_26 
REMARK    4  A    between atoms: C19_26  and  C20_27 
ROOT
HETATM    1  C2  UNL     1       6.774  45.527  22.804  1.00  0.00     0.282 C 
HETATM    2  O2  UNL     1       6.862  44.211  23.317  1.00  0.00    -0.358 OA
HETATM    3  C3  UNL     1       6.921  43.266  22.342  1.00  0.00     0.181 C 
HETATM    4  C4  UNL     1       5.679  43.185  21.454  1.00  0.00     0.049 C 
HETATM    5  C5  UNL     1       6.013  43.747  20.147  1.00  0.00     0.019 C 
HETATM    6  C6  UNL     1       5.226  44.834  19.534  1.00  0.00     0.021 C 
HETATM    7  C7  UNL     1       5.741  44.909  18.078  1.00  0.00     0.013 C 
HETATM    8  C8  UNL     1       4.853  44.050  17.251  1.00  0.00    -0.005 A 
HETATM    9  C9  UNL     1       4.393  44.328  15.905  1.00  0.00     0.015 A 
HETATM   10  C10 UNL     1       3.516  44.575  17.179  1.00  0.00     0.031 A 
HETATM   11  C11 UNL     1       3.219  45.973  17.365  1.00  0.00     0.040 A 
HETATM   12  C12 UNL     1       3.597  46.967  18.233  1.00  0.00     0.103 A 
HETATM   13  C13 UNL     1       2.915  48.086  17.833  1.00  0.00     0.182 A 
HETATM   14  O3  UNL     1       2.162  47.772  16.770  1.00  0.00    -0.297 OA
HETATM   15  C14 UNL     1       2.306  46.519  16.448  1.00  0.00     0.192 A 
HETATM   16  O5  UNL     1       4.426  47.019  19.285  1.00  0.00    -0.338 OA
HETATM   17  C15 UNL     1       5.327  46.188  20.068  1.00  0.00     0.070 C 
HETATM   18  C16 UNL     1       6.689  46.812  19.740  1.00  0.00     0.047 C 
HETATM   19  C17 UNL     1       4.853  46.485  21.433  1.00  0.00     0.069 C 
HETATM   20  C18 UNL     1       5.343  45.851  22.633  1.00  0.00     0.146 C 
HETATM   21  N1  UNL     1       4.514  44.735  22.988  1.00  0.00    -0.364 N 
HETATM   22  C23 UNL     1       4.443  43.651  22.126  1.00  0.00     0.070 C 
ENDROOT
BRANCH  21  23
HETATM   23  C19 UNL     1       4.185  44.598  24.342  1.00  0.00     0.068 C 
BRANCH  23  24
HETATM   24  C20 UNL     1       2.770  44.974  24.717  1.00  0.00     0.024 A 
HETATM   25  C21 UNL     1       1.619  44.211  24.211  1.00  0.00     0.010 A 
HETATM   26  C22 UNL     1       2.000  44.056  25.652  1.00  0.00     0.010 A 
ENDBRANCH  23  24
ENDBRANCH  21  23
BRANCH   1  27
HETATM   27  O1  UNL     1       7.427  46.305  23.796  1.00  0.00    -0.364 OA
HETATM   28  C1  UNL     1       7.793  47.550  23.319  1.00  0.00     0.204 C 
ENDBRANCH   1  27
BRANCH  15  29
HETATM   29  O4  UNL     1       1.659  45.899  15.393  1.00  0.00    -0.340 OA
ATOM     30  H4  UNL     1       0.747  45.645  15.321  1.00  0.00     0.220 HD
ENDBRANCH  15  29
TORSDOF 4
ENDMDL
MODEL 2
REMARK VINA RESULT: -6.351446093      6.404      9.430
REMARK  4 active torsions:
REMARK  status: ('A' for Active; 'I' for Inactive)
REMARK    1  A    between atoms: O1_2  and  C2_3 
REMARK    2  A    between atoms: C14_17  and  O4_18 
REMARK    3  A    between atoms: N1_25  and  C19_26 
REMARK    4  A    between atoms: C19_26  and  C20_27 
ROOT
HETATM    1  C2  UNL     1       3.116  38.806  15.533  1.00  0.00     0.282 C 
HETATM    2  O2  UNL     1       4.476  39.189  15.602  1.00  0.00    -0.358 OA
HETATM    3  C3  UNL     1       5.103  38.719  16.714  1.00  0.00     0.181 C 
HETATM    4  C4  UNL     1       4.548  39.255  18.034  1.00  0.00     0.049 C 
HETATM    5  C5  UNL     1       3.801  38.181  18.687  1.00  0.00     0.019 C 
HETATM    6  C6  UNL     1       2.399  38.345  19.117  1.00  0.00     0.021 C 
HETATM    7  C7  UNL     1       2.116  37.102  19.993  1.00  0.00     0.013 C 
HETATM    8  C8  UNL     1       2.400  37.482  21.402  1.00  0.00    -0.005 A 
HETATM    9  C9  UNL     1       1.648  37.074  22.572  1.00  0.00     0.015 A 
HETATM   10  C10 UNL     1       1.476  38.471  21.886  1.00  0.00     0.031 A 
HETATM   11  C11 UNL     1       0.155  38.638  21.332  1.00  0.00     0.040 A 
HETATM   12  C12 UNL     1      -0.403  38.684  20.079  1.00  0.00     0.103 A 
HETATM   13  C13 UNL     1      -1.744  38.877  20.279  1.00  0.00     0.182 A 
HETATM   14  O3  UNL     1      -1.977  38.943  21.597  1.00  0.00    -0.297 OA
HETATM   15  C14 UNL     1      -0.873  38.807  22.274  1.00  0.00     0.192 A 
HETATM   16  O5  UNL     1       0.089  38.582  18.836  1.00  0.00    -0.338 OA
HETATM   17  C15 UNL     1       1.338  38.385  18.118  1.00  0.00     0.070 C 
HETATM   18  C16 UNL     1       1.119  37.005  17.486  1.00  0.00     0.047 C 
HETATM   19  C17 UNL     1       1.272  39.496  17.149  1.00  0.00     0.069 C 
HETATM   20  C18 UNL     1       2.319  39.843  16.219  1.00  0.00     0.146 C 
HETATM   21  N1  UNL     1       3.163  40.865  16.769  1.00  0.00    -0.364 N 
HETATM   22  C23 UNL     1       3.903  40.583  17.907  1.00  0.00     0.070 C 
ENDROOT
BRANCH  21  23
HETATM   23  C19 UNL     1       3.535  41.907  15.910  1.00  0.00     0.068 C 
BRANCH  23  24
HETATM   24  C20 UNL     1       2.938  43.260  16.219  1.00  0.00     0.024 A 
HETATM   25  C21 UNL     1       3.760  44.346  16.776  1.00  0.00     0.010 A 
HETATM   26  C22 UNL     1       3.328  44.441  15.345  1.00  0.00     0.010 A 
ENDBRANCH  23  24
ENDBRANCH  21  23
BRANCH   1  27
HETATM   27  O1  UNL     1       2.874  38.722  14.136  1.00  0.00    -0.364 OA
HETATM   28  C1  UNL     1       1.963  37.728  13.828  1.00  0.00     0.204 C 
ENDBRANCH   1  27
BRANCH  15  29
HETATM   29  O4  UNL     1      -0.790  38.830  23.655  1.00  0.00    -0.340 OA
ATOM     30  H4  UNL     1      -1.187  39.441  24.266  1.00  0.00     0.220 HD
ENDBRANCH  15  29
TORSDOF 4
ENDMDL
MODEL 3
REMARK VINA RESULT: -6.194230940      7.545     10.091
REMARK  4 active torsions:
REMARK  status: ('A' for Active; 'I' for Inactive)
REMARK    1  A    between atoms: O1_2  and  C2_3 
REMARK    2  A    between atoms: C14_17  and  O4_18 
REMARK    3  A    between atoms: N1_25  and  C19_26 
REMARK    4  A    between atoms: C19_26  and  C20_27 
ROOT
HETATM    1  C2  UNL     1       3.725  38.275  16.893  1.00  0.00     0.282 C 
HETATM    2  O2  UNL     1       3.174  38.944  18.012  1.00  0.00    -0.358 OA
HETATM    3  C3  UNL     1       1.841  38.720  18.160  1.00  0.00     0.181 C 
HETATM    4  C4  UNL     1       0.975  39.240  17.012  1.00  0.00     0.049 C 
HETATM    5  C5  UNL     1       0.509  38.093  16.234  1.00  0.00     0.019 C 
HETATM    6  C6  UNL     1       0.722  37.992  14.777  1.00  0.00     0.021 C 
HETATM    7  C7  UNL     1      -0.161  36.801  14.340  1.00  0.00     0.013 C 
HETATM    8  C8  UNL     1      -1.475  37.355  13.923  1.00  0.00    -0.005 A 
HETATM    9  C9  UNL     1      -2.290  36.903  12.812  1.00  0.00     0.015 A 
HETATM   10  C10 UNL     1      -1.364  38.164  12.739  1.00  0.00     0.031 A 
HETATM   11  C11 UNL     1      -0.301  37.995  11.780  1.00  0.00     0.040 A 
HETATM   12  C12 UNL     1       1.058  37.809  11.820  1.00  0.00     0.103 A 
HETATM   13  C13 UNL     1       1.458  37.728  10.512  1.00  0.00     0.182 A 
HETATM   14  O3  UNL     1       0.382  37.860   9.725  1.00  0.00    -0.297 OA
HETATM   15  C14 UNL     1      -0.698  38.023  10.433  1.00  0.00     0.192 A 
HETATM   16  O5  UNL     1       1.955  37.704  12.811  1.00  0.00    -0.338 OA
HETATM   17  C15 UNL     1       2.057  37.715  14.261  1.00  0.00     0.070 C 
HETATM   18  C16 UNL     1       2.476  36.270  14.554  1.00  0.00     0.047 C 
HETATM   19  C17 UNL     1       3.144  38.695  14.449  1.00  0.00     0.069 C 
HETATM   20  C18 UNL     1       3.612  39.175  15.727  1.00  0.00     0.146 C 
HETATM   21  N1  UNL     1       2.950  40.397  16.080  1.00  0.00    -0.364 N 
HETATM   22  C23 UNL     1       1.579  40.383  16.289  1.00  0.00     0.070 C 
ENDROOT
BRANCH  21  23
HETATM   23  C19 UNL     1       3.747  41.414  16.620  1.00  0.00     0.068 C 
BRANCH  23  24
HETATM   24  C20 UNL     1       3.153  42.803  16.591  1.00  0.00     0.024 A 
HETATM   25  C21 UNL     1       3.958  43.984  16.937  1.00  0.00     0.010 A 
HETATM   26  C22 UNL     1       3.602  43.761  15.499  1.00  0.00     0.010 A 
ENDBRANCH  23  24
ENDBRANCH  21  23
BRANCH   1  27
HETATM   27  O1  UNL     1       5.062  38.017  17.296  1.00  0.00    -0.364 OA
HETATM   28  C1  UNL     1       5.536  36.825  16.781  1.00  0.00     0.204 C 
ENDBRANCH   1  27
BRANCH  15  29
HETATM   29  O4  UNL     1      -1.967  38.187   9.905  1.00  0.00    -0.340 OA
ATOM     30  H4  UNL     1      -2.479  37.578   9.385  1.00  0.00     0.220 HD
ENDBRANCH  15  29
TORSDOF 4
ENDMDL
MODEL 4
REMARK VINA RESULT: -5.987409166      2.785      5.089
REMARK  4 active torsions:
REMARK  status: ('A' for Active; 'I' for Inactive)
REMARK    1  A    between atoms: O1_2  and  C2_3 
REMARK    2  A    between atoms: C14_17  and  O4_18 
REMARK    3  A    between atoms: N1_25  and  C19_26 
REMARK    4  A    between atoms: C19_26  and  C20_27 
ROOT
HETATM    1  C2  UNL     1       8.107  44.918  23.964  1.00  0.00     0.282 C 
HETATM    2  O2  UNL     1       8.860  46.104  24.136  1.00  0.00    -0.358 OA
HETATM    3  C3  UNL     1       8.258  47.197  23.597  1.00  0.00     0.181 C 
HETATM    4  C4  UNL     1       8.077  47.144  22.079  1.00  0.00     0.049 C 
HETATM    5  C5  UNL     1       6.661  46.920  21.794  1.00  0.00     0.019 C 
HETATM    6  C6  UNL     1       6.196  45.808  20.943  1.00  0.00     0.021 C 
HETATM    7  C7  UNL     1       4.704  46.119  20.683  1.00  0.00     0.013 C 
HETATM    8  C8  UNL     1       4.628  46.881  19.409  1.00  0.00    -0.005 A 
HETATM    9  C9  UNL     1       3.610  46.751  18.386  1.00  0.00     0.015 A 
HETATM   10  C10 UNL     1       5.022  46.081  18.282  1.00  0.00     0.031 A 
HETATM   11  C11 UNL     1       4.935  44.642  18.282  1.00  0.00     0.040 A 
HETATM   12  C12 UNL     1       5.238  43.625  19.152  1.00  0.00     0.103 A 
HETATM   13  C13 UNL     1       4.900  42.468  18.500  1.00  0.00     0.182 A 
HETATM   14  O3  UNL     1       4.414  42.783  17.292  1.00  0.00    -0.297 OA
HETATM   15  C14 UNL     1       4.413  44.072  17.110  1.00  0.00     0.192 A 
HETATM   16  O5  UNL     1       5.751  43.579  20.390  1.00  0.00    -0.338 OA
HETATM   17  C15 UNL     1       6.240  44.442  21.453  1.00  0.00     0.070 C 
HETATM   18  C16 UNL     1       5.184  44.223  22.542  1.00  0.00     0.047 C 
HETATM   19  C17 UNL     1       7.536  43.802  21.748  1.00  0.00     0.069 C 
HETATM   20  C18 UNL     1       8.512  44.305  22.683  1.00  0.00     0.146 C 
HETATM   21  N1  UNL     1       9.486  45.114  22.009  1.00  0.00    -0.364 N 
HETATM   22  C23 UNL     1       9.077  46.289  21.397  1.00  0.00     0.070 C 
ENDROOT
BRANCH  21  23
HETATM   23  C19 UNL     1      10.826  44.924  22.372  1.00  0.00     0.068 C 
BRANCH  23  24
HETATM   24  C20 UNL     1      11.430  43.593  21.987  1.00  0.00     0.024 A 
HETATM   25  C21 UNL     1      12.691  43.519  21.233  1.00  0.00     0.010 A 
HETATM   26  C22 UNL     1      12.705  43.147  22.684  1.00  0.00     0.010 A 
ENDBRANCH  23  24
ENDBRANCH  21  23
BRANCH   1  27
HETATM   27  O1  UNL     1       8.451  44.149  25.107  1.00  0.00    -0.364 OA
HETATM   28  C1  UNL     1       7.340  43.573  25.696  1.00  0.00     0.204 C 
ENDBRANCH   1  27
BRANCH  15  29
HETATM   29  O4  UNL     1       3.970  44.704  15.960  1.00  0.00    -0.340 OA
ATOM     30  H4  UNL     1       3.330  45.400  15.872  1.00  0.00     0.220 HD
ENDBRANCH  15  29
TORSDOF 4
ENDMDL
MODEL 5
REMARK VINA RESULT: -5.876545535      2.709      6.439
REMARK  4 active torsions:
REMARK  status: ('A' for Active; 'I' for Inactive)
REMARK    1  A    between atoms: O1_2  and  C2_3 
REMARK    2  A    between atoms: C14_17  and  O4_18 
REMARK    3  A    between atoms: N1_25  and  C19_26 
REMARK    4  A    between atoms: C19_26  and  C20_27 
ROOT
HETATM    1  C2  UNL     1       7.246  45.547  21.960  1.00  0.00     0.282 C 
HETATM    2  O2  UNL     1       6.834  46.899  21.886  1.00  0.00    -0.358 OA
HETATM    3  C3  UNL     1       5.886  47.215  22.809  1.00  0.00     0.181 C 
HETATM    4  C4  UNL     1       4.564  46.464  22.649  1.00  0.00     0.049 C 
HETATM    5  C5  UNL     1       4.469  45.472  23.719  1.00  0.00     0.019 C 
HETATM    6  C6  UNL     1       4.229  44.042  23.446  1.00  0.00     0.021 C 
HETATM    7  C7  UNL     1       3.920  43.431  24.832  1.00  0.00     0.013 C 
HETATM    8  C8  UNL     1       2.444  43.456  25.005  1.00  0.00    -0.005 A 
HETATM    9  C9  UNL     1       1.631  42.431  25.630  1.00  0.00     0.015 A 
HETATM   10  C10 UNL     1       1.782  42.578  24.079  1.00  0.00     0.031 A 
HETATM   11  C11 UNL     1       2.433  41.434  23.491  1.00  0.00     0.040 A 
HETATM   12  C12 UNL     1       3.654  41.163  22.926  1.00  0.00     0.103 A 
HETATM   13  C13 UNL     1       3.606  39.843  22.561  1.00  0.00     0.182 A 
HETATM   14  O3  UNL     1       2.407  39.348  22.896  1.00  0.00    -0.297 OA
HETATM   15  C14 UNL     1       1.664  40.259  23.455  1.00  0.00     0.192 A 
HETATM   16  O5  UNL     1       4.757  41.889  22.698  1.00  0.00    -0.338 OA
HETATM   17  C15 UNL     1       5.296  43.227  22.876  1.00  0.00     0.070 C 
HETATM   18  C16 UNL     1       6.411  42.980  23.899  1.00  0.00     0.047 C 
HETATM   19  C17 UNL     1       5.794  43.503  21.515  1.00  0.00     0.069 C 
HETATM   20  C18 UNL     1       6.362  44.756  21.081  1.00  0.00     0.146 C 
HETATM   21  N1  UNL     1       5.356  45.583  20.479  1.00  0.00    -0.364 N 
HETATM   22  C23 UNL     1       4.298  46.028  21.259  1.00  0.00     0.070 C 
ENDROOT
BRANCH  21  23
HETATM   23  C19 UNL     1       5.709  46.253  19.301  1.00  0.00     0.068 C 
BRANCH  23  24
HETATM   24  C20 UNL     1       5.486  45.488  18.017  1.00  0.00     0.024 A 
HETATM   25  C21 UNL     1       4.831  44.170  18.019  1.00  0.00     0.010 A 
HETATM   26  C22 UNL     1       4.066  45.347  17.494  1.00  0.00     0.010 A 
ENDBRANCH  23  24
ENDBRANCH  21  23
BRANCH   1  27
HETATM   27  O1  UNL     1       8.597  45.597  21.527  1.00  0.00    -0.364 OA
HETATM   28  C1  UNL     1       9.401  44.728  22.241  1.00  0.00     0.204 C 
ENDBRANCH   1  27
BRANCH  15  29
HETATM   29  O4  UNL     1       0.374  40.051  23.910  1.00  0.00    -0.340 OA
ATOM     30  H4  UNL     1      -0.132  40.569  24.526  1.00  0.00     0.220 HD
ENDBRANCH  15  29
TORSDOF 4
ENDMDL
