MODEL 1
REMARK VINA RESULT: -9.380588639      0.000      0.000
REMARK  5 active torsions:
REMARK  status: ('A' for Active; 'I' for Inactive)
REMARK    1  A    between atoms: C4_4  and  C5_5 
REMARK    2  A    between atoms: C5_5  and  C6_6 
REMARK    3  A    between atoms: C13_17  and  C14_18 
REMARK    4  A    between atoms: C18_22  and  C19_23 
REMARK    5  A    between atoms: C19_23  and  O3_24 
ROOT
HETATM    1  C1  UNL     1      15.653  14.348 -14.571  1.00  0.00     0.048 C 
HETATM    2  C2  UNL     1      15.338  13.275 -13.557  1.00  0.00    -0.060 A 
HETATM    3  C3  UNL     1      14.001  13.070 -13.299  1.00  0.00     0.016 A 
HETATM    4  C4  UNL     1      13.671  12.148 -12.373  1.00  0.00    -0.022 A 
HETATM    5  C9  UNL     1      14.692  11.454 -11.725  1.00  0.00     0.097 A 
HETATM    6  O1  UNL     1      14.317  10.518 -10.848  1.00  0.00    -0.272 OA
HETATM    7  C10 UNL     1      15.191   9.801 -10.209  1.00  0.00     0.316 A 
HETATM    8  O2  UNL     1      14.801   8.918  -9.394  1.00  0.00    -0.257 OA
HETATM    9  C11 UNL     1      16.540   9.955 -10.380  1.00  0.00     0.121 A 
HETATM   10  N1  UNL     1      17.594   9.422  -9.785  1.00  0.00    -0.349 N 
ATOM     11  H1  UNL     1      17.565   8.675  -9.092  1.00  0.00     0.166 HD
HETATM   12  C12 UNL     1      18.721  10.028 -10.245  1.00  0.00     0.058 A 
HETATM   13  C13 UNL     1      19.989   9.854  -9.742  1.00  0.00     0.033 A 
HETATM   14  C20 UNL     1      20.938  10.734 -10.232  1.00  0.00     0.129 A 
HETATM   15  F1  UNL     1      22.202  10.598  -9.777  1.00  0.00    -0.205 F 
HETATM   16  C21 UNL     1      20.602  11.689 -11.137  1.00  0.00     0.050 A 
HETATM   17  C22 UNL     1      19.302  11.868 -11.648  1.00  0.00    -0.046 A 
HETATM   18  C23 UNL     1      19.137  13.161 -12.355  1.00  0.00     0.049 C 
HETATM   19  C24 UNL     1      18.347  11.000 -11.190  1.00  0.00     0.011 A 
HETATM   20  C25 UNL     1      16.976  10.940 -11.295  1.00  0.00     0.023 A 
HETATM   21  C26 UNL     1      16.032  11.660 -11.962  1.00  0.00     0.013 A 
HETATM   22  C27 UNL     1      16.313  12.576 -12.900  1.00  0.00     0.022 A 
ENDROOT
BRANCH  13  23
HETATM   23  C14 UNL     1      20.403   8.775  -8.825  1.00  0.00    -0.058 A 
HETATM   24  C15 UNL     1      21.246   7.737  -9.573  1.00  0.00     0.036 A 
HETATM   25  C16 UNL     1      22.202   7.243  -8.542  1.00  0.00     0.005 A 
HETATM   26  C17 UNL     1      21.949   7.934  -7.253  1.00  0.00     0.011 A 
HETATM   27  C18 UNL     1      20.752   8.879  -7.446  1.00  0.00     0.039 A 
BRANCH  27  28
HETATM   28  C19 UNL     1      19.668   8.269  -6.515  1.00  0.00     0.173 C 
BRANCH  28  29
HETATM   29  O3  UNL     1      18.421   8.274  -7.069  1.00  0.00    -0.400 OA
ATOM     30  H3  UNL     1      18.287   7.570  -7.692  1.00  0.00     0.209 HD
ENDBRANCH  28  29
ENDBRANCH  27  28
ENDBRANCH  13  23
BRANCH   4  31
HETATM   31  C5  UNL     1      12.309  11.851 -11.923  1.00  0.00     0.045 C 
BRANCH  31  32
HETATM   32  C6  UNL     1      11.574  12.849 -11.133  1.00  0.00    -0.018 C 
HETATM   33  C7  UNL     1      11.249  12.502  -9.722  1.00  0.00     0.010 C 
HETATM   34  C8  UNL     1      10.322  13.366 -11.874  1.00  0.00     0.010 C 
ENDBRANCH  31  32
ENDBRANCH   4  31
TORSDOF 5
ENDMDL
MODEL 2
REMARK VINA RESULT: -8.279158865      5.000      8.025
REMARK  5 active torsions:
REMARK  status: ('A' for Active; 'I' for Inactive)
REMARK    1  A    between atoms: C4_4  and  C5_5 
REMARK    2  A    between atoms: C5_5  and  C6_6 
REMARK    3  A    between atoms: C13_17  and  C14_18 
REMARK    4  A    between atoms: C18_22  and  C19_23 
REMARK    5  A    between atoms: C19_23  and  O3_24 
ROOT
HETATM    1  C1  UNL     1      22.166   7.144 -10.900  1.00  0.00     0.048 C 
HETATM    2  C2  UNL     1      21.581   8.529 -10.760  1.00  0.00    -0.060 A 
HETATM    3  C3  UNL     1      20.338   8.597 -10.174  1.00  0.00     0.016 A 
HETATM    4  C4  UNL     1      19.759   9.809 -10.062  1.00  0.00    -0.022 A 
HETATM    5  C9  UNL     1      20.441  10.925 -10.543  1.00  0.00     0.097 A 
HETATM    6  O1  UNL     1      19.849  12.110 -10.369  1.00  0.00    -0.272 OA
HETATM    7  C10 UNL     1      20.412  13.212 -10.762  1.00  0.00     0.316 A 
HETATM    8  O2  UNL     1      19.829  14.317 -10.572  1.00  0.00    -0.257 OA
HETATM    9  C11 UNL     1      21.634  13.238 -11.379  1.00  0.00     0.121 A 
HETATM   10  N1  UNL     1      22.344  14.203 -11.938  1.00  0.00    -0.349 N 
ATOM     11  H1  UNL     1      22.109  15.195 -11.923  1.00  0.00     0.166 HD
HETATM   12  C12 UNL     1      23.439  13.663 -12.536  1.00  0.00     0.058 A 
HETATM   13  C13 UNL     1      24.322  14.331 -13.353  1.00  0.00     0.033 A 
HETATM   14  C20 UNL     1      25.232  13.526 -14.013  1.00  0.00     0.129 A 
HETATM   15  F1  UNL     1      26.128  14.136 -14.819  1.00  0.00    -0.205 F 
HETATM   16  C21 UNL     1      25.221  12.178 -13.845  1.00  0.00     0.050 A 
HETATM   17  C22 UNL     1      24.315  11.495 -13.011  1.00  0.00    -0.046 A 
HETATM   18  C23 UNL     1      24.303  10.032 -13.255  1.00  0.00     0.049 C 
HETATM   19  C24 UNL     1      23.412  12.270 -12.335  1.00  0.00     0.011 A 
HETATM   20  C25 UNL     1      22.289  12.003 -11.586  1.00  0.00     0.023 A 
HETATM   21  C26 UNL     1      21.678  10.869 -11.145  1.00  0.00     0.013 A 
HETATM   22  C27 UNL     1      22.222   9.646 -11.223  1.00  0.00     0.022 A 
ENDROOT
BRANCH  13  23
HETATM   23  C14 UNL     1      24.413  15.797 -13.491  1.00  0.00    -0.058 A 
HETATM   24  C15 UNL     1      23.348  16.306 -14.469  1.00  0.00     0.036 A 
HETATM   25  C16 UNL     1      22.995  17.654 -13.944  1.00  0.00     0.005 A 
HETATM   26  C17 UNL     1      23.800  17.946 -12.731  1.00  0.00     0.011 A 
HETATM   27  C18 UNL     1      24.742  16.756 -12.488  1.00  0.00     0.039 A 
BRANCH  27  28
HETATM   28  C19 UNL     1      26.152  17.374 -12.701  1.00  0.00     0.173 C 
BRANCH  28  29
HETATM   29  O3  UNL     1      26.470  18.317 -11.768  1.00  0.00    -0.400 OA
ATOM     30  H3  UNL     1      27.241  18.823 -11.997  1.00  0.00     0.209 HD
ENDBRANCH  28  29
ENDBRANCH  27  28
ENDBRANCH  13  23
BRANCH   4  31
HETATM   31  C5  UNL     1      18.416  10.058  -9.532  1.00  0.00     0.045 C 
BRANCH  31  32
HETATM   32  C6  UNL     1      17.243   9.795 -10.378  1.00  0.00    -0.018 C 
HETATM   33  C7  UNL     1      16.244  10.888 -10.526  1.00  0.00     0.010 C 
HETATM   34  C8  UNL     1      16.551   8.465 -10.010  1.00  0.00     0.010 C 
ENDBRANCH  31  32
ENDBRANCH   4  31
TORSDOF 5
ENDMDL
MODEL 3
REMARK VINA RESULT: -8.170815847      4.532      7.759
REMARK  5 active torsions:
REMARK  status: ('A' for Active; 'I' for Inactive)
REMARK    1  A    between atoms: C4_4  and  C5_5 
REMARK    2  A    between atoms: C5_5  and  C6_6 
REMARK    3  A    between atoms: C13_17  and  C14_18 
REMARK    4  A    between atoms: C18_22  and  C19_23 
REMARK    5  A    between atoms: C19_23  and  O3_24 
ROOT
HETATM    1  C1  UNL     1      22.209   7.338 -10.878  1.00  0.00     0.048 C 
HETATM    2  C2  UNL     1      21.480   8.643 -10.666  1.00  0.00    -0.060 A 
HETATM    3  C3  UNL     1      20.220   8.542 -10.121  1.00  0.00     0.016 A 
HETATM    4  C4  UNL     1      19.515   9.678  -9.949  1.00  0.00    -0.022 A 
HETATM    5  C9  UNL     1      20.091  10.889 -10.330  1.00  0.00     0.097 A 
HETATM    6  O1  UNL     1      19.373  11.992 -10.099  1.00  0.00    -0.272 OA
HETATM    7  C10 UNL     1      19.829  13.170 -10.398  1.00  0.00     0.316 A 
HETATM    8  O2  UNL     1      19.129  14.193 -10.156  1.00  0.00    -0.257 OA
HETATM    9  C11 UNL     1      21.058  13.364 -10.969  1.00  0.00     0.121 A 
HETATM   10  N1  UNL     1      21.680  14.433 -11.437  1.00  0.00    -0.349 N 
ATOM     11  H1  UNL     1      21.341  15.392 -11.364  1.00  0.00     0.166 HD
HETATM   12  C12 UNL     1      22.841  14.051 -12.032  1.00  0.00     0.058 A 
HETATM   13  C13 UNL     1      23.672  14.860 -12.770  1.00  0.00     0.033 A 
HETATM   14  C20 UNL     1      24.680  14.201 -13.450  1.00  0.00     0.129 A 
HETATM   15  F1  UNL     1      25.529  14.953 -14.182  1.00  0.00    -0.205 F 
HETATM   16  C21 UNL     1      24.805  12.851 -13.373  1.00  0.00     0.050 A 
HETATM   17  C22 UNL     1      23.952  12.022 -12.618  1.00  0.00    -0.046 A 
HETATM   18  C23 UNL     1      24.099  10.586 -12.959  1.00  0.00     0.049 C 
HETATM   19  C24 UNL     1      22.954  12.652 -11.924  1.00  0.00     0.011 A 
HETATM   20  C25 UNL     1      21.845  12.220 -11.234  1.00  0.00     0.023 A 
HETATM   21  C26 UNL     1      21.343  11.002 -10.891  1.00  0.00     0.013 A 
HETATM   22  C27 UNL     1      22.013   9.849 -11.031  1.00  0.00     0.022 A 
ENDROOT
BRANCH  13  23
HETATM   23  C14 UNL     1      23.613  16.334 -12.807  1.00  0.00    -0.058 A 
HETATM   24  C15 UNL     1      24.857  16.931 -12.138  1.00  0.00     0.036 A 
HETATM   25  C16 UNL     1      25.098  18.193 -12.893  1.00  0.00     0.005 A 
HETATM   26  C17 UNL     1      24.063  18.352 -13.945  1.00  0.00     0.011 A 
HETATM   27  C18 UNL     1      23.089  17.169 -13.837  1.00  0.00     0.039 A 
BRANCH  27  28
HETATM   28  C19 UNL     1      21.754  17.849 -13.423  1.00  0.00     0.173 C 
BRANCH  28  29
HETATM   29  O3  UNL     1      21.301  17.443 -12.202  1.00  0.00    -0.400 OA
ATOM     30  H3  UNL     1      21.951  17.533 -11.515  1.00  0.00     0.209 HD
ENDBRANCH  28  29
ENDBRANCH  27  28
ENDBRANCH  13  23
BRANCH   4  31
HETATM   31  C5  UNL     1      18.139   9.751  -9.452  1.00  0.00     0.045 C 
BRANCH  31  32
HETATM   32  C6  UNL     1      17.021   9.504 -10.374  1.00  0.00    -0.018 C 
HETATM   33  C7  UNL     1      15.995  10.574 -10.509  1.00  0.00     0.010 C 
HETATM   34  C8  UNL     1      16.356   8.134 -10.124  1.00  0.00     0.010 C 
ENDBRANCH  31  32
ENDBRANCH   4  31
TORSDOF 5
ENDMDL
MODEL 4
REMARK VINA RESULT: -8.133881921      2.397      7.392
REMARK  5 active torsions:
REMARK  status: ('A' for Active; 'I' for Inactive)
REMARK    1  A    between atoms: C4_4  and  C5_5 
REMARK    2  A    between atoms: C5_5  and  C6_6 
REMARK    3  A    between atoms: C13_17  and  C14_18 
REMARK    4  A    between atoms: C18_22  and  C19_23 
REMARK    5  A    between atoms: C19_23  and  O3_24 
ROOT
HETATM    1  C1  UNL     1      22.045  13.355 -12.453  1.00  0.00     0.048 C 
HETATM    2  C2  UNL     1      21.329  12.318 -11.621  1.00  0.00    -0.060 A 
HETATM    3  C3  UNL     1      22.138  11.467 -10.902  1.00  0.00     0.016 A 
HETATM    4  C4  UNL     1      21.545  10.500 -10.174  1.00  0.00    -0.022 A 
HETATM    5  C9  UNL     1      20.155  10.409 -10.185  1.00  0.00     0.097 A 
HETATM    6  O1  UNL     1      19.610   9.465  -9.413  1.00  0.00    -0.272 OA
HETATM    7  C10 UNL     1      18.323   9.313  -9.336  1.00  0.00     0.316 A 
HETATM    8  O2  UNL     1      17.841   8.416  -8.587  1.00  0.00    -0.257 OA
HETATM    9  C11 UNL     1      17.443  10.094 -10.035  1.00  0.00     0.121 A 
HETATM   10  N1  UNL     1      16.130  10.065 -10.188  1.00  0.00    -0.349 N 
ATOM     11  H1  UNL     1      15.492   9.444  -9.692  1.00  0.00     0.166 HD
HETATM   12  C12 UNL     1      15.766  10.995 -11.111  1.00  0.00     0.058 A 
HETATM   13  C13 UNL     1      14.510  11.146 -11.649  1.00  0.00     0.033 A 
HETATM   14  C20 UNL     1      14.432  12.017 -12.720  1.00  0.00     0.129 A 
HETATM   15  F1  UNL     1      13.217  12.207 -13.277  1.00  0.00    -0.205 F 
HETATM   16  C21 UNL     1      15.539  12.653 -13.183  1.00  0.00     0.050 A 
HETATM   17  C22 UNL     1      16.826  12.495 -12.634  1.00  0.00    -0.046 A 
HETATM   18  C23 UNL     1      17.893  13.035 -13.510  1.00  0.00     0.049 C 
HETATM   19  C24 UNL     1      16.928  11.649 -11.562  1.00  0.00     0.011 A 
HETATM   20  C25 UNL     1      17.982  11.101 -10.869  1.00  0.00     0.023 A 
HETATM   21  C26 UNL     1      19.336  11.244 -10.911  1.00  0.00     0.013 A 
HETATM   22  C27 UNL     1      19.967  12.199 -11.609  1.00  0.00     0.022 A 
ENDROOT
BRANCH  13  23
HETATM   23  C14 UNL     1      13.276  10.535 -11.117  1.00  0.00    -0.058 A 
HETATM   24  C15 UNL     1      13.333   9.010 -11.264  1.00  0.00     0.036 A 
HETATM   25  C16 UNL     1      12.570   8.508 -10.087  1.00  0.00     0.005 A 
HETATM   26  C17 UNL     1      12.078   9.656  -9.284  1.00  0.00     0.011 A 
HETATM   27  C18 UNL     1      12.501  10.951  -9.995  1.00  0.00     0.039 A 
BRANCH  27  28
HETATM   28  C19 UNL     1      11.145  11.582 -10.414  1.00  0.00     0.173 C 
BRANCH  28  29
HETATM   29  O3  UNL     1      10.725  11.179 -11.649  1.00  0.00    -0.400 OA
ATOM     30  H3  UNL     1      10.226  11.844 -12.108  1.00  0.00     0.209 HD
ENDBRANCH  28  29
ENDBRANCH  27  28
ENDBRANCH  13  23
BRANCH   4  31
HETATM   31  C5  UNL     1      22.249   9.467  -9.409  1.00  0.00     0.045 C 
BRANCH  31  32
HETATM   32  C6  UNL     1      21.853   8.059  -9.559  1.00  0.00    -0.018 C 
HETATM   33  C7  UNL     1      22.210   7.125  -8.457  1.00  0.00     0.010 C 
HETATM   34  C8  UNL     1      22.275   7.481 -10.927  1.00  0.00     0.010 C 
ENDBRANCH  31  32
ENDBRANCH   4  31
TORSDOF 5
ENDMDL
MODEL 5
REMARK VINA RESULT: -8.123611982      1.665      2.187
REMARK  5 active torsions:
REMARK  status: ('A' for Active; 'I' for Inactive)
REMARK    1  A    between atoms: C4_4  and  C5_5 
REMARK    2  A    between atoms: C5_5  and  C6_6 
REMARK    3  A    between atoms: C13_17  and  C14_18 
REMARK    4  A    between atoms: C18_22  and  C19_23 
REMARK    5  A    between atoms: C19_23  and  O3_24 
ROOT
HETATM    1  C1  UNL     1      13.832  13.553 -13.361  1.00  0.00     0.048 C 
HETATM    2  C2  UNL     1      14.082  12.345 -12.489  1.00  0.00    -0.060 A 
HETATM    3  C3  UNL     1      12.958  11.705 -12.018  1.00  0.00     0.016 A 
HETATM    4  C4  UNL     1      13.131  10.645 -11.204  1.00  0.00    -0.022 A 
HETATM    5  C9  UNL     1      14.428  10.252 -10.881  1.00  0.00     0.097 A 
HETATM    6  O1  UNL     1      14.551   9.169 -10.109  1.00  0.00    -0.272 OA
HETATM    7  C10 UNL     1      15.717   8.710  -9.769  1.00  0.00     0.316 A 
HETATM    8  O2  UNL     1      15.797   7.676  -9.046  1.00  0.00    -0.257 OA
HETATM    9  C11 UNL     1      16.888   9.297 -10.167  1.00  0.00     0.121 A 
HETATM   10  N1  UNL     1      18.158   9.072  -9.876  1.00  0.00    -0.349 N 
ATOM     11  H1  UNL     1      18.506   8.294  -9.317  1.00  0.00     0.166 HD
HETATM   12  C12 UNL     1      18.925  10.043 -10.439  1.00  0.00     0.058 A 
HETATM   13  C13 UNL     1      20.269  10.234 -10.221  1.00  0.00     0.033 A 
HETATM   14  C20 UNL     1      20.784  11.410 -10.736  1.00  0.00     0.129 A 
HETATM   15  F1  UNL     1      22.103  11.639 -10.558  1.00  0.00    -0.205 F 
HETATM   16  C21 UNL     1      19.988  12.289 -11.397  1.00  0.00     0.050 A 
HETATM   17  C22 UNL     1      18.611  12.094 -11.617  1.00  0.00    -0.046 A 
HETATM   18  C23 UNL     1      17.922  13.328 -12.066  1.00  0.00     0.049 C 
HETATM   19  C24 UNL     1      18.079  10.931 -11.129  1.00  0.00     0.011 A 
HETATM   20  C25 UNL     1      16.798  10.450 -10.980  1.00  0.00     0.023 A 
HETATM   21  C26 UNL     1      15.560  10.893 -11.332  1.00  0.00     0.013 A 
HETATM   22  C27 UNL     1      15.341  11.933 -12.150  1.00  0.00     0.022 A 
ENDROOT
BRANCH  13  23
HETATM   23  C14 UNL     1      21.176   9.261  -9.582  1.00  0.00    -0.058 A 
HETATM   24  C15 UNL     1      21.304   9.560  -8.084  1.00  0.00     0.036 A 
HETATM   25  C16 UNL     1      21.494   8.217  -7.467  1.00  0.00     0.005 A 
HETATM   26  C17 UNL     1      21.489   7.175  -8.524  1.00  0.00     0.011 A 
HETATM   27  C18 UNL     1      21.333   7.876  -9.882  1.00  0.00     0.039 A 
BRANCH  27  28
HETATM   28  C19 UNL     1      22.684   7.575 -10.590  1.00  0.00     0.173 C 
BRANCH  28  29
HETATM   29  O3  UNL     1      23.117   8.602 -11.378  1.00  0.00    -0.400 OA
ATOM     30  H3  UNL     1      23.879   9.046 -11.026  1.00  0.00     0.209 HD
ENDBRANCH  28  29
ENDBRANCH  27  28
ENDBRANCH  13  23
BRANCH   4  31
HETATM   31  C5  UNL     1      12.054   9.892 -10.557  1.00  0.00     0.045 C 
BRANCH  31  32
HETATM   32  C6  UNL     1      11.094  10.597  -9.695  1.00  0.00    -0.018 C 
HETATM   33  C7  UNL     1      10.856  10.040  -8.335  1.00  0.00     0.010 C 
HETATM   34  C8  UNL     1       9.758  10.871 -10.418  1.00  0.00     0.010 C 
ENDBRANCH  31  32
ENDBRANCH   4  31
TORSDOF 5
ENDMDL
