MODEL 1
REMARK VINA RESULT: -8.597447477      0.000      0.000
REMARK  7 active torsions:
REMARK  status: ('A' for Active; 'I' for Inactive)
REMARK    1  A    between atoms: C2_2  and  C3_3 
REMARK    2  A    between atoms: C3_3  and  C5_5 
REMARK    3  A    between atoms: C6_6  and  O1_7 
REMARK    4  A    between atoms: C14_16  and  C15_17 
REMARK    5  A    between atoms: C15_17  and  C16_18 
REMARK    6  A    between atoms: C18_20  and  O2_21 
REMARK    7  A    between atoms: C19_23  and  O3_24 
ROOT
HETATM    1  C5  UNL     1      18.785  12.635 -12.295  1.00  0.00     0.023 C 
HETATM    2  C6  UNL     1      18.604  13.865 -13.156  1.00  0.00     0.123 C 
HETATM    3  C7  UNL     1      18.857  13.241 -14.540  1.00  0.00     0.041 C 
HETATM    4  C8  UNL     1      20.124  12.495 -14.279  1.00  0.00    -0.037 C 
HETATM    5  C9  UNL     1      21.243  13.415 -14.692  1.00  0.00     0.015 C 
HETATM    6  C10 UNL     1      20.276  11.227 -15.074  1.00  0.00     0.010 C 
HETATM    7  C11 UNL     1      21.652  10.650 -14.768  1.00  0.00     0.006 C 
HETATM    8  C12 UNL     1      21.997  10.864 -13.332  1.00  0.00    -0.009 C 
HETATM    9  C13 UNL     1      22.785   9.712 -12.734  1.00  0.00     0.014 C 
HETATM   10  C14 UNL     1      21.811   9.185 -11.701  1.00  0.00     0.013 C 
HETATM   11  C23 UNL     1      21.174  10.433 -11.222  1.00  0.00    -0.006 C 
HETATM   12  C24 UNL     1      22.055  11.487 -10.642  1.00  0.00     0.011 C 
HETATM   13  C25 UNL     1      20.659  10.904 -12.553  1.00  0.00    -0.001 C 
HETATM   14  C26 UNL     1      20.102  12.203 -12.763  1.00  0.00     0.005 C 
ENDROOT
BRANCH  10  15
HETATM   15  C15 UNL     1      22.268   8.127 -10.850  1.00  0.00    -0.010 C 
BRANCH  15  16
HETATM   16  C16 UNL     1      21.906   8.001  -9.460  1.00  0.00    -0.035 A 
HETATM   17  C17 UNL     1      22.517   7.085  -8.616  1.00  0.00     0.050 A 
HETATM   18  C18 UNL     1      22.176   6.934  -7.289  1.00  0.00     0.101 A 
HETATM   19  C19 UNL     1      21.188   7.709  -6.746  1.00  0.00     0.123 A 
HETATM   20  C21 UNL     1      20.559   8.628  -7.551  1.00  0.00     0.070 A 
HETATM   21 CL1  UNL     1      19.300   9.630  -6.890  1.00  0.00    -0.081 Cl
HETATM   22  C22 UNL     1      20.919   8.756  -8.860  1.00  0.00     0.038 A 
BRANCH  18  23
HETATM   23  O2  UNL     1      22.824   5.993  -6.481  1.00  0.00    -0.358 OA
ATOM     24  H2  UNL     1      23.092   6.211  -5.595  1.00  0.00     0.217 HD
ENDBRANCH  18  23
BRANCH  19  25
HETATM   25  O3  UNL     1      20.818   7.573  -5.386  1.00  0.00    -0.351 OA
HETATM   26  C20 UNL     1      19.837   6.608  -5.080  1.00  0.00     0.210 C 
ENDBRANCH  19  25
ENDBRANCH  15  16
ENDBRANCH  10  15
BRANCH   1  27
HETATM   27  C3  UNL     1      17.591  11.846 -12.319  1.00  0.00    -0.012 C 
HETATM   28  C4  UNL     1      17.165  11.089 -11.094  1.00  0.00     0.010 C 
BRANCH  27  29
HETATM   29  C2  UNL     1      16.400  12.711 -12.684  1.00  0.00     0.000 C 
HETATM   30  C1  UNL     1      15.125  11.899 -12.782  1.00  0.00     0.005 C 
ENDBRANCH  27  29
ENDBRANCH   1  27
BRANCH   2  31
HETATM   31  O1  UNL     1      19.653  14.771 -12.978  1.00  0.00    -0.395 OA
ATOM     32  H1  UNL     1      19.340  15.668 -12.985  1.00  0.00     0.210 HD
ENDBRANCH   2  31
TORSDOF 7
ENDMDL
MODEL 2
REMARK VINA RESULT: -8.562660189      2.533      4.564
REMARK  7 active torsions:
REMARK  status: ('A' for Active; 'I' for Inactive)
REMARK    1  A    between atoms: C2_2  and  C3_3 
REMARK    2  A    between atoms: C3_3  and  C5_5 
REMARK    3  A    between atoms: C6_6  and  O1_7 
REMARK    4  A    between atoms: C14_16  and  C15_17 
REMARK    5  A    between atoms: C15_17  and  C16_18 
REMARK    6  A    between atoms: C18_20  and  O2_21 
REMARK    7  A    between atoms: C19_23  and  O3_24 
ROOT
HETATM    1  C5  UNL     1      22.374  14.594 -12.721  1.00  0.00     0.023 C 
HETATM    2  C6  UNL     1      22.094  16.038 -13.075  1.00  0.00     0.123 C 
HETATM    3  C7  UNL     1      21.562  16.528 -11.716  1.00  0.00     0.041 C 
HETATM    4  C8  UNL     1      20.566  15.461 -11.407  1.00  0.00    -0.037 C 
HETATM    5  C9  UNL     1      19.239  15.971 -11.904  1.00  0.00     0.015 C 
HETATM    6  C10 UNL     1      20.406  15.162  -9.941  1.00  0.00     0.010 C 
HETATM    7  C11 UNL     1      19.291  14.136  -9.795  1.00  0.00     0.006 C 
HETATM    8  C12 UNL     1      19.340  13.152 -10.918  1.00  0.00    -0.009 C 
HETATM    9  C13 UNL     1      18.959  11.746 -10.491  1.00  0.00     0.014 C 
HETATM   10  C14 UNL     1      20.262  11.004 -10.705  1.00  0.00     0.013 C 
HETATM   11  C23 UNL     1      20.792  11.667 -11.918  1.00  0.00    -0.006 C 
HETATM   12  C24 UNL     1      19.952  11.645 -13.149  1.00  0.00     0.011 C 
HETATM   13  C25 UNL     1      20.819  13.067 -11.370  1.00  0.00    -0.001 C 
HETATM   14  C26 UNL     1      21.069  14.220 -12.176  1.00  0.00     0.005 C 
ENDROOT
BRANCH  10  15
HETATM   15  C15 UNL     1      20.250   9.586 -10.493  1.00  0.00    -0.010 C 
BRANCH  15  16
HETATM   16  C16 UNL     1      20.396   8.967  -9.200  1.00  0.00    -0.035 A 
HETATM   17  C17 UNL     1      19.427   9.077  -8.213  1.00  0.00     0.050 A 
HETATM   18  C18 UNL     1      19.552   8.510  -6.963  1.00  0.00     0.101 A 
HETATM   19  C19 UNL     1      20.675   7.797  -6.646  1.00  0.00     0.123 A 
HETATM   20  C21 UNL     1      21.658   7.665  -7.598  1.00  0.00     0.070 A 
HETATM   21 CL1  UNL     1      23.099   6.763  -7.227  1.00  0.00    -0.081 Cl
HETATM   22  C22 UNL     1      21.506   8.237  -8.827  1.00  0.00     0.038 A 
BRANCH  18  23
HETATM   23  O2  UNL     1      18.543   8.653  -6.003  1.00  0.00    -0.358 OA
ATOM     24  H2  UNL     1      18.634   9.271  -5.287  1.00  0.00     0.217 HD
ENDBRANCH  18  23
BRANCH  19  25
HETATM   25  O3  UNL     1      20.828   7.204  -5.369  1.00  0.00    -0.351 OA
HETATM   26  C20 UNL     1      20.322   5.900  -5.202  1.00  0.00     0.210 C 
ENDBRANCH  19  25
ENDBRANCH  15  16
ENDBRANCH  10  15
BRANCH   1  27
HETATM   27  C3  UNL     1      23.625  14.496 -12.034  1.00  0.00    -0.012 C 
HETATM   28  C4  UNL     1      24.209  13.149 -11.720  1.00  0.00     0.010 C 
BRANCH  27  29
HETATM   29  C2  UNL     1      24.705  15.226 -12.808  1.00  0.00     0.000 C 
HETATM   30  C1  UNL     1      25.199  14.411 -13.987  1.00  0.00     0.005 C 
ENDBRANCH  27  29
ENDBRANCH   1  27
BRANCH   2  31
HETATM   31  O1  UNL     1      21.004  16.147 -13.943  1.00  0.00    -0.395 OA
ATOM     32  H1  UNL     1      20.580  16.993 -13.860  1.00  0.00     0.210 HD
ENDBRANCH   2  31
TORSDOF 7
ENDMDL
MODEL 3
REMARK VINA RESULT: -8.509832046      2.647      5.045
REMARK  7 active torsions:
REMARK  status: ('A' for Active; 'I' for Inactive)
REMARK    1  A    between atoms: C2_2  and  C3_3 
REMARK    2  A    between atoms: C3_3  and  C5_5 
REMARK    3  A    between atoms: C6_6  and  O1_7 
REMARK    4  A    between atoms: C14_16  and  C15_17 
REMARK    5  A    between atoms: C15_17  and  C16_18 
REMARK    6  A    between atoms: C18_20  and  O2_21 
REMARK    7  A    between atoms: C19_23  and  O3_24 
ROOT
HETATM    1  C5  UNL     1      24.975  11.763 -14.615  1.00  0.00     0.023 C 
HETATM    2  C6  UNL     1      25.227  13.099 -15.279  1.00  0.00     0.123 C 
HETATM    3  C7  UNL     1      25.224  14.001 -14.032  1.00  0.00     0.041 C 
HETATM    4  C8  UNL     1      23.972  13.543 -13.361  1.00  0.00    -0.037 C 
HETATM    5  C9  UNL     1      22.886  14.481 -13.817  1.00  0.00     0.015 C 
HETATM    6  C10 UNL     1      24.010  13.605 -11.858  1.00  0.00     0.010 C 
HETATM    7  C11 UNL     1      22.635  13.205 -11.342  1.00  0.00     0.006 C 
HETATM    8  C12 UNL     1      22.058  12.118 -12.187  1.00  0.00    -0.009 C 
HETATM    9  C13 UNL     1      21.246  11.114 -11.389  1.00  0.00     0.014 C 
HETATM   10  C14 UNL     1      22.072   9.857 -11.558  1.00  0.00     0.013 C 
HETATM   11  C23 UNL     1      22.562  10.001 -12.947  1.00  0.00    -0.006 C 
HETATM   12  C24 UNL     1      21.550  10.130 -14.035  1.00  0.00     0.011 C 
HETATM   13  C25 UNL     1      23.255  11.323 -12.766  1.00  0.00    -0.001 C 
HETATM   14  C26 UNL     1      23.771  12.093 -13.853  1.00  0.00     0.005 C 
ENDROOT
BRANCH  10  15
HETATM   15  C15 UNL     1      21.542   8.645 -11.005  1.00  0.00    -0.010 C 
BRANCH  15  16
HETATM   16  C16 UNL     1      21.426   8.392  -9.591  1.00  0.00    -0.035 A 
HETATM   17  C17 UNL     1      22.232   7.472  -8.935  1.00  0.00     0.050 A 
HETATM   18  C18 UNL     1      22.127   7.200  -7.587  1.00  0.00     0.101 A 
HETATM   19  C19 UNL     1      21.192   7.850  -6.830  1.00  0.00     0.123 A 
HETATM   20  C21 UNL     1      20.374   8.769  -7.445  1.00  0.00     0.070 A 
HETATM   21 CL1  UNL     1      19.175   9.613  -6.509  1.00  0.00    -0.081 Cl
HETATM   22  C22 UNL     1      20.502   9.018  -8.780  1.00  0.00     0.038 A 
BRANCH  18  23
HETATM   23  O2  UNL     1      22.966   6.261  -6.975  1.00  0.00    -0.358 OA
ATOM     24  H2  UNL     1      23.908   6.383  -6.962  1.00  0.00     0.217 HD
ENDBRANCH  18  23
BRANCH  19  25
HETATM   25  O3  UNL     1      21.064   7.588  -5.445  1.00  0.00    -0.351 OA
HETATM   26  C20 UNL     1      20.205   6.537  -5.067  1.00  0.00     0.210 C 
ENDBRANCH  19  25
ENDBRANCH  15  16
ENDBRANCH  10  15
BRANCH   1  27
HETATM   27  C3  UNL     1      26.197  11.256 -14.068  1.00  0.00    -0.012 C 
HETATM   28  C4  UNL     1      26.285   9.825 -13.621  1.00  0.00     0.010 C 
BRANCH  27  29
HETATM   29  C2  UNL     1      27.327  11.429 -15.064  1.00  0.00     0.000 C 
HETATM   30  C1  UNL     1      28.196  10.190 -15.149  1.00  0.00     0.005 C 
ENDBRANCH  27  29
ENDBRANCH   1  27
BRANCH   2  31
HETATM   31  O1  UNL     1      24.118  13.516 -16.020  1.00  0.00    -0.395 OA
ATOM     32  H1  UNL     1      24.016  12.997 -16.810  1.00  0.00     0.210 HD
ENDBRANCH   2  31
TORSDOF 7
ENDMDL
MODEL 4
REMARK VINA RESULT: -8.433860247      1.596      2.165
REMARK  7 active torsions:
REMARK  status: ('A' for Active; 'I' for Inactive)
REMARK    1  A    between atoms: C2_2  and  C3_3 
REMARK    2  A    between atoms: C3_3  and  C5_5 
REMARK    3  A    between atoms: C6_6  and  O1_7 
REMARK    4  A    between atoms: C14_16  and  C15_17 
REMARK    5  A    between atoms: C15_17  and  C16_18 
REMARK    6  A    between atoms: C18_20  and  O2_21 
REMARK    7  A    between atoms: C19_23  and  O3_24 
ROOT
HETATM    1  C5  UNL     1      20.642  14.284 -11.685  1.00  0.00     0.023 C 
HETATM    2  C6  UNL     1      20.529  15.480 -12.604  1.00  0.00     0.123 C 
HETATM    3  C7  UNL     1      19.679  14.855 -13.724  1.00  0.00     0.041 C 
HETATM    4  C8  UNL     1      20.432  13.590 -13.970  1.00  0.00    -0.037 C 
HETATM    5  C9  UNL     1      21.379  13.882 -15.104  1.00  0.00     0.015 C 
HETATM    6  C10 UNL     1      19.576  12.427 -14.395  1.00  0.00     0.010 C 
HETATM    7  C11 UNL     1      20.502  11.258 -14.701  1.00  0.00     0.006 C 
HETATM    8  C12 UNL     1      21.646  11.236 -13.742  1.00  0.00    -0.009 C 
HETATM    9  C13 UNL     1      22.079   9.829 -13.368  1.00  0.00     0.014 C 
HETATM   10  C14 UNL     1      21.745   9.795 -11.892  1.00  0.00     0.013 C 
HETATM   11  C23 UNL     1      22.066  11.179 -11.477  1.00  0.00    -0.006 C 
HETATM   12  C24 UNL     1      23.455  11.671 -11.702  1.00  0.00     0.011 C 
HETATM   13  C25 UNL     1      21.139  11.881 -12.429  1.00  0.00    -0.001 C 
HETATM   14  C26 UNL     1      21.150  13.295 -12.636  1.00  0.00     0.005 C 
ENDROOT
BRANCH  10  15
HETATM   15  C15 UNL     1      22.121   8.619 -11.163  1.00  0.00    -0.010 C 
BRANCH  15  16
HETATM   16  C16 UNL     1      21.831   8.414  -9.766  1.00  0.00    -0.035 A 
HETATM   17  C17 UNL     1      22.509   7.477  -8.999  1.00  0.00     0.050 A 
HETATM   18  C18 UNL     1      22.237   7.250  -7.667  1.00  0.00     0.101 A 
HETATM   19  C19 UNL     1      21.255   7.965  -7.039  1.00  0.00     0.123 A 
HETATM   20  C21 UNL     1      20.560   8.903  -7.766  1.00  0.00     0.070 A 
HETATM   21 CL1  UNL     1      19.305   9.831  -6.997  1.00  0.00    -0.081 Cl
HETATM   22  C22 UNL     1      20.852   9.107  -9.083  1.00  0.00     0.038 A 
BRANCH  18  23
HETATM   23  O2  UNL     1      22.951   6.292  -6.939  1.00  0.00    -0.358 OA
ATOM     24  H2  UNL     1      23.473   5.631  -7.380  1.00  0.00     0.217 HD
ENDBRANCH  18  23
BRANCH  19  25
HETATM   25  O3  UNL     1      20.955   7.751  -5.672  1.00  0.00    -0.351 OA
HETATM   26  C20 UNL     1      20.019   6.741  -5.370  1.00  0.00     0.210 C 
ENDBRANCH  19  25
ENDBRANCH  15  16
ENDBRANCH  10  15
BRANCH   1  27
HETATM   27  C3  UNL     1      19.449  14.157 -10.905  1.00  0.00    -0.012 C 
HETATM   28  C4  UNL     1      19.082  12.832 -10.302  1.00  0.00     0.010 C 
BRANCH  27  29
HETATM   29  C2  UNL     1      19.480  15.128  -9.741  1.00  0.00     0.000 C 
HETATM   30  C1  UNL     1      20.863  15.710  -9.531  1.00  0.00     0.005 C 
ENDBRANCH  27  29
ENDBRANCH   1  27
BRANCH   2  31
HETATM   31  O1  UNL     1      21.754  15.774 -13.210  1.00  0.00    -0.395 OA
ATOM     32  H1  UNL     1      22.148  14.996 -13.588  1.00  0.00     0.210 HD
ENDBRANCH   2  31
TORSDOF 7
ENDMDL
MODEL 5
REMARK VINA RESULT: -8.425610261      2.479      4.463
REMARK  7 active torsions:
REMARK  status: ('A' for Active; 'I' for Inactive)
REMARK    1  A    between atoms: C2_2  and  C3_3 
REMARK    2  A    between atoms: C3_3  and  C5_5 
REMARK    3  A    between atoms: C6_6  and  O1_7 
REMARK    4  A    between atoms: C14_16  and  C15_17 
REMARK    5  A    between atoms: C15_17  and  C16_18 
REMARK    6  A    between atoms: C18_20  and  O2_21 
REMARK    7  A    between atoms: C19_23  and  O3_24 
ROOT
HETATM    1  C5  UNL     1      22.401  14.414 -12.679  1.00  0.00     0.023 C 
HETATM    2  C6  UNL     1      22.335  15.874 -13.069  1.00  0.00     0.123 C 
HETATM    3  C7  UNL     1      21.946  16.478 -11.708  1.00  0.00     0.041 C 
HETATM    4  C8  UNL     1      20.810  15.590 -11.325  1.00  0.00    -0.037 C 
HETATM    5  C9  UNL     1      19.559  16.289 -11.787  1.00  0.00     0.015 C 
HETATM    6  C10 UNL     1      20.669  15.359  -9.845  1.00  0.00     0.010 C 
HETATM    7  C11 UNL     1      19.414  14.525  -9.623  1.00  0.00     0.006 C 
HETATM    8  C12 UNL     1      19.261  13.517 -10.714  1.00  0.00    -0.009 C 
HETATM    9  C13 UNL     1      18.683  12.200 -10.226  1.00  0.00     0.014 C 
HETATM   10  C14 UNL     1      19.843  11.256 -10.466  1.00  0.00     0.013 C 
HETATM   11  C23 UNL     1      20.418  11.796 -11.719  1.00  0.00    -0.006 C 
HETATM   12  C24 UNL     1      19.532  11.874 -12.916  1.00  0.00     0.011 C 
HETATM   13  C25 UNL     1      20.687  13.187 -11.219  1.00  0.00    -0.001 C 
HETATM   14  C26 UNL     1      21.079  14.265 -12.072  1.00  0.00     0.005 C 
ENDROOT
BRANCH  10  15
HETATM   15  C15 UNL     1      19.620   9.864 -10.208  1.00  0.00    -0.010 C 
BRANCH  15  16
HETATM   16  C16 UNL     1      19.981   9.209  -8.976  1.00  0.00    -0.035 A 
HETATM   17  C17 UNL     1      21.280   8.799  -8.709  1.00  0.00     0.050 A 
HETATM   18  C18 UNL     1      21.647   8.154  -7.547  1.00  0.00     0.101 A 
HETATM   19  C19 UNL     1      20.708   7.888  -6.589  1.00  0.00     0.123 A 
HETATM   20  C21 UNL     1      19.409   8.278  -6.817  1.00  0.00     0.070 A 
HETATM   21 CL1  UNL     1      18.192   7.955  -5.617  1.00  0.00    -0.081 Cl
HETATM   22  C22 UNL     1      19.077   8.916  -7.976  1.00  0.00     0.038 A 
BRANCH  18  23
HETATM   23  O2  UNL     1      22.972   7.762  -7.329  1.00  0.00    -0.358 OA
ATOM     24  H2  UNL     1      23.676   8.401  -7.319  1.00  0.00     0.217 HD
ENDBRANCH  18  23
BRANCH  19  25
HETATM   25  O3  UNL     1      21.058   7.227  -5.387  1.00  0.00    -0.351 OA
HETATM   26  C20 UNL     1      20.856   5.833  -5.338  1.00  0.00     0.210 C 
ENDBRANCH  19  25
ENDBRANCH  15  16
ENDBRANCH  10  15
BRANCH   1  27
HETATM   27  C3  UNL     1      23.650  14.139 -12.037  1.00  0.00    -0.012 C 
HETATM   28  C4  UNL     1      24.044  12.723 -11.731  1.00  0.00     0.010 C 
BRANCH  27  29
HETATM   29  C2  UNL     1      24.795  14.699 -12.860  1.00  0.00     0.000 C 
HETATM   30  C1  UNL     1      25.187  13.764 -13.987  1.00  0.00     0.005 C 
ENDBRANCH  27  29
ENDBRANCH   1  27
BRANCH   2  31
HETATM   31  O1  UNL     1      21.240  16.131 -13.897  1.00  0.00    -0.395 OA
ATOM     32  H1  UNL     1      20.542  15.503 -13.752  1.00  0.00     0.210 HD
ENDBRANCH   2  31
TORSDOF 7
ENDMDL
