MODEL 1
REMARK VINA RESULT: -7.054220423      0.000      0.000
REMARK  5 active torsions:
REMARK  status: ('A' for Active; 'I' for Inactive)
REMARK    1  A    between atoms: O1_2  and  C2_3 
REMARK    2  A    between atoms: C14_16  and  C15_17 
REMARK    3  A    between atoms: C15_17  and  C16_18 
REMARK    4  A    between atoms: C22_24  and  C23_25 
REMARK    5  A    between atoms: C24_28  and  O4_30 
ROOT
HETATM    1  C2  UNL     1      19.418  14.882 -12.217  1.00  0.00     0.155 C 
HETATM    2  C3  UNL     1      18.260  14.771 -13.186  1.00  0.00     0.035 C 
HETATM    3  C4  UNL     1      18.739  13.645 -14.099  1.00  0.00     0.004 C 
HETATM    4  C5  UNL     1      18.715  12.438 -13.285  1.00  0.00     0.018 C 
HETATM    5  C6  UNL     1      19.842  12.356 -12.197  1.00  0.00     0.029 C 
HETATM    6  C7  UNL     1      19.280  11.270 -11.324  1.00  0.00    -0.009 C 
HETATM    7  C8  UNL     1      19.765  10.422 -10.462  1.00  0.00    -0.068 C 
HETATM    8  C9  UNL     1      18.807   9.465  -9.787  1.00  0.00     0.044 C 
HETATM    9  C10 UNL     1      21.126  10.255 -10.037  1.00  0.00     0.111 C 
HETATM   10 CL1  UNL     1      21.414   8.520  -9.641  1.00  0.00    -0.120 Cl
HETATM   11  C11 UNL     1      22.200  10.689 -10.951  1.00  0.00     0.035 C 
HETATM   12  C12 UNL     1      21.689  10.640 -12.290  1.00  0.00     0.036 C 
HETATM   13  C13 UNL     1      22.747  10.364 -13.294  1.00  0.00    -0.078 C 
HETATM   14  C14 UNL     1      24.015  10.088 -13.181  1.00  0.00    -0.020 C 
HETATM   15  C20 UNL     1      22.037  10.479 -14.593  1.00  0.00     0.036 C 
HETATM   16  C21 UNL     1      20.721  11.125 -14.209  1.00  0.00     0.027 C 
HETATM   17  C22 UNL     1      21.028  11.885 -12.887  1.00  0.00     0.070 C 
HETATM   18  C24 UNL     1      19.712  13.623 -11.470  1.00  0.00     0.092 C 
HETATM   19  C25 UNL     1      20.616  14.056 -10.397  1.00  0.00     0.050 C 
ENDROOT
BRANCH  17  20
HETATM   20  C23 UNL     1      22.138  12.767 -13.232  1.00  0.00     0.183 C 
HETATM   21  O2  UNL     1      22.336  13.271 -14.397  1.00  0.00    -0.647 OA
HETATM   22  O3  UNL     1      23.133  13.187 -12.358  1.00  0.00    -0.647 OA
ENDBRANCH  17  20
BRANCH  18  23
HETATM   23  O4  UNL     1      18.444  13.460 -10.753  1.00  0.00    -0.386 OA
ATOM     24  H4  UNL     1      18.664  12.713 -10.208  1.00  0.00     0.210 HD
ENDBRANCH  18  23
BRANCH   1  25
HETATM   25  O1  UNL     1      20.461  15.442 -12.930  1.00  0.00    -0.388 OA
HETATM   26  C1  UNL     1      20.490  16.810 -12.950  1.00  0.00     0.202 C 
ENDBRANCH   1  25
BRANCH  14  27
HETATM   27  C15 UNL     1      24.909   9.842 -14.354  1.00  0.00     0.054 C 
BRANCH  27  28
HETATM   28  C16 UNL     1      25.676  11.051 -14.725  1.00  0.00    -0.021 C 
HETATM   29  C17 UNL     1      26.991  11.141 -14.636  1.00  0.00    -0.091 C 
HETATM   30  C18 UNL     1      27.721  12.377 -15.020  1.00  0.00     0.042 C 
HETATM   31  C19 UNL     1      27.778   9.985 -14.137  1.00  0.00     0.042 C 
ENDBRANCH  27  28
ENDBRANCH  14  27
TORSDOF 5
ENDMDL
MODEL 2
REMARK VINA RESULT: -6.804422383      2.610      6.668
REMARK  5 active torsions:
REMARK  status: ('A' for Active; 'I' for Inactive)
REMARK    1  A    between atoms: O1_2  and  C2_3 
REMARK    2  A    between atoms: C14_16  and  C15_17 
REMARK    3  A    between atoms: C15_17  and  C16_18 
REMARK    4  A    between atoms: C22_24  and  C23_25 
REMARK    5  A    between atoms: C24_28  and  O4_30 
ROOT
HETATM    1  C2  UNL     1      24.323  12.036 -13.882  1.00  0.00     0.155 C 
HETATM    2  C3  UNL     1      24.227  12.288 -15.372  1.00  0.00     0.035 C 
HETATM    3  C4  UNL     1      22.721  12.462 -15.551  1.00  0.00     0.004 C 
HETATM    4  C5  UNL     1      22.388  13.720 -14.896  1.00  0.00     0.018 C 
HETATM    5  C6  UNL     1      22.436  13.679 -13.329  1.00  0.00     0.029 C 
HETATM    6  C7  UNL     1      22.467  15.151 -13.033  1.00  0.00    -0.009 C 
HETATM    7  C8  UNL     1      22.168  15.903 -12.012  1.00  0.00    -0.068 C 
HETATM    8  C9  UNL     1      22.356  17.399 -12.149  1.00  0.00     0.044 C 
HETATM    9  C10 UNL     1      21.669  15.510 -10.725  1.00  0.00     0.111 C 
HETATM   10 CL1  UNL     1      20.595  16.809 -10.084  1.00  0.00    -0.120 Cl
HETATM   11  C11 UNL     1      20.938  14.234 -10.620  1.00  0.00     0.035 C 
HETATM   12  C12 UNL     1      20.371  13.942 -11.905  1.00  0.00     0.036 C 
HETATM   13  C13 UNL     1      19.116  13.153 -11.808  1.00  0.00    -0.078 C 
HETATM   14  C14 UNL     1      18.408  12.751 -10.792  1.00  0.00    -0.020 C 
HETATM   15  C20 UNL     1      18.775  12.862 -13.224  1.00  0.00     0.036 C 
HETATM   16  C21 UNL     1      20.041  13.238 -13.966  1.00  0.00     0.027 C 
HETATM   17  C22 UNL     1      21.171  13.106 -12.906  1.00  0.00     0.070 C 
HETATM   18  C24 UNL     1      23.769  13.138 -13.040  1.00  0.00     0.092 C 
HETATM   19  C25 UNL     1      24.259  12.828 -11.691  1.00  0.00     0.050 C 
ENDROOT
BRANCH  17  20
HETATM   20  C23 UNL     1      21.053  11.734 -12.427  1.00  0.00     0.183 C 
HETATM   21  O2  UNL     1      20.653  10.742 -13.138  1.00  0.00    -0.647 OA
HETATM   22  O3  UNL     1      21.354  11.302 -11.140  1.00  0.00    -0.647 OA
ENDBRANCH  17  20
BRANCH  18  23
HETATM   23  O4  UNL     1      24.659  14.230 -13.444  1.00  0.00    -0.386 OA
ATOM     24  H4  UNL     1      24.231  14.956 -13.005  1.00  0.00     0.210 HD
ENDBRANCH  18  23
BRANCH   1  25
HETATM   25  O1  UNL     1      23.807  10.772 -13.673  1.00  0.00    -0.388 OA
HETATM   26  C1  UNL     1      24.696   9.743 -13.820  1.00  0.00     0.202 C 
ENDBRANCH   1  25
BRANCH  14  27
HETATM   27  C15 UNL     1      17.152  11.950 -10.933  1.00  0.00     0.054 C 
BRANCH  27  28
HETATM   28  C16 UNL     1      17.379  10.516 -10.651  1.00  0.00    -0.021 C 
HETATM   29  C17 UNL     1      16.408   9.657 -10.397  1.00  0.00    -0.091 C 
HETATM   30  C18 UNL     1      16.682   8.223 -10.119  1.00  0.00     0.042 C 
HETATM   31  C19 UNL     1      14.997  10.119 -10.385  1.00  0.00     0.042 C 
ENDBRANCH  27  28
ENDBRANCH  14  27
TORSDOF 5
ENDMDL
MODEL 3
REMARK VINA RESULT: -6.778822488      2.980      5.071
REMARK  5 active torsions:
REMARK  status: ('A' for Active; 'I' for Inactive)
REMARK    1  A    between atoms: O1_2  and  C2_3 
REMARK    2  A    between atoms: C14_16  and  C15_17 
REMARK    3  A    between atoms: C15_17  and  C16_18 
REMARK    4  A    between atoms: C22_24  and  C23_25 
REMARK    5  A    between atoms: C24_28  and  O4_30 
ROOT
HETATM    1  C2  UNL     1      21.076  15.110 -13.752  1.00  0.00     0.155 C 
HETATM    2  C3  UNL     1      21.468  14.583 -15.117  1.00  0.00     0.035 C 
HETATM    3  C4  UNL     1      21.640  13.095 -14.827  1.00  0.00     0.004 C 
HETATM    4  C5  UNL     1      20.301  12.588 -14.555  1.00  0.00     0.018 C 
HETATM    5  C6  UNL     1      19.697  13.029 -13.176  1.00  0.00     0.029 C 
HETATM    6  C7  UNL     1      18.249  12.710 -13.416  1.00  0.00    -0.009 C 
HETATM    7  C8  UNL     1      17.212  12.469 -12.665  1.00  0.00    -0.068 C 
HETATM    8  C9  UNL     1      15.890  12.183 -13.346  1.00  0.00     0.044 C 
HETATM    9  C10 UNL     1      17.130  12.435 -11.233  1.00  0.00     0.111 C 
HETATM   10 CL1  UNL     1      15.887  11.226 -10.738  1.00  0.00    -0.120 Cl
HETATM   11  C11 UNL     1      18.359  12.147 -10.471  1.00  0.00     0.035 C 
HETATM   12  C12 UNL     1      19.237  11.390 -11.315  1.00  0.00     0.036 C 
HETATM   13  C13 UNL     1      20.121  10.477 -10.546  1.00  0.00    -0.078 C 
HETATM   14  C14 UNL     1      20.192  10.185  -9.279  1.00  0.00    -0.020 C 
HETATM   15  C20 UNL     1      21.012   9.897 -11.582  1.00  0.00     0.036 C 
HETATM   16  C21 UNL     1      20.758  10.780 -12.787  1.00  0.00     0.027 C 
HETATM   17  C22 UNL     1      20.257  12.125 -12.189  1.00  0.00     0.070 C 
HETATM   18  C24 UNL     1      19.841  14.489 -13.190  1.00  0.00     0.092 C 
HETATM   19  C25 UNL     1      19.491  15.363 -12.063  1.00  0.00     0.050 C 
ENDROOT
BRANCH  17  20
HETATM   20  C23 UNL     1      21.317  12.525 -11.271  1.00  0.00     0.183 C 
HETATM   21  O2  UNL     1      21.157  13.310 -10.267  1.00  0.00    -0.647 OA
HETATM   22  O3  UNL     1      22.644  12.118 -11.347  1.00  0.00    -0.647 OA
ENDBRANCH  17  20
BRANCH  18  23
HETATM   23  O4  UNL     1      18.871  14.903 -14.208  1.00  0.00    -0.386 OA
ATOM     24  H4  UNL     1      18.322  14.127 -14.231  1.00  0.00     0.210 HD
ENDBRANCH  18  23
BRANCH   1  25
HETATM   25  O1  UNL     1      22.216  15.044 -12.975  1.00  0.00    -0.388 OA
HETATM   26  C1  UNL     1      23.049  16.126 -13.062  1.00  0.00     0.202 C 
ENDBRANCH   1  25
BRANCH  14  27
HETATM   27  C15 UNL     1      21.182   9.216  -8.715  1.00  0.00     0.054 C 
BRANCH  27  28
HETATM   28  C16 UNL     1      20.779   8.734  -7.376  1.00  0.00    -0.021 C 
HETATM   29  C17 UNL     1      21.341   7.704  -6.769  1.00  0.00    -0.091 C 
HETATM   30  C18 UNL     1      20.903   7.253  -5.422  1.00  0.00     0.042 C 
HETATM   31  C19 UNL     1      22.441   6.962  -7.437  1.00  0.00     0.042 C 
ENDBRANCH  27  28
ENDBRANCH  14  27
TORSDOF 5
ENDMDL
MODEL 4
REMARK VINA RESULT: -6.757125440      2.432      6.156
REMARK  5 active torsions:
REMARK  status: ('A' for Active; 'I' for Inactive)
REMARK    1  A    between atoms: O1_2  and  C2_3 
REMARK    2  A    between atoms: C14_16  and  C15_17 
REMARK    3  A    between atoms: C15_17  and  C16_18 
REMARK    4  A    between atoms: C22_24  and  C23_25 
REMARK    5  A    between atoms: C24_28  and  O4_30 
ROOT
HETATM    1  C2  UNL     1      23.462  16.423 -13.272  1.00  0.00     0.155 C 
HETATM    2  C3  UNL     1      24.607  16.292 -12.289  1.00  0.00     0.035 C 
HETATM    3  C4  UNL     1      24.053  15.251 -11.320  1.00  0.00     0.004 C 
HETATM    4  C5  UNL     1      24.003  14.002 -12.067  1.00  0.00     0.018 C 
HETATM    5  C6  UNL     1      22.878  13.931 -13.157  1.00  0.00     0.029 C 
HETATM    6  C7  UNL     1      23.374  12.765 -13.964  1.00  0.00    -0.009 C 
HETATM    7  C8  UNL     1      22.840  11.903 -14.782  1.00  0.00    -0.068 C 
HETATM    8  C9  UNL     1      23.739  10.852 -15.397  1.00  0.00     0.044 C 
HETATM    9  C10 UNL     1      21.474  11.800 -15.209  1.00  0.00     0.111 C 
HETATM   10 CL1  UNL     1      21.077  10.067 -15.511  1.00  0.00    -0.120 Cl
HETATM   11  C11 UNL     1      20.426  12.350 -14.329  1.00  0.00     0.035 C 
HETATM   12  C12 UNL     1      20.926  12.343 -12.985  1.00  0.00     0.036 C 
HETATM   13  C13 UNL     1      19.847  12.191 -11.976  1.00  0.00    -0.078 C 
HETATM   14  C14 UNL     1      18.565  11.990 -12.084  1.00  0.00    -0.020 C 
HETATM   15  C20 UNL     1      20.557  12.332 -10.680  1.00  0.00     0.036 C 
HETATM   16  C21 UNL     1      21.914  12.872 -11.088  1.00  0.00     0.027 C 
HETATM   17  C22 UNL     1      21.661  13.575 -12.452  1.00  0.00     0.070 C 
HETATM   18  C24 UNL     1      23.092  15.146 -13.951  1.00  0.00     0.092 C 
HETATM   19  C25 UNL     1      22.223  15.575 -15.054  1.00  0.00     0.050 C 
ENDROOT
BRANCH  17  20
HETATM   20  C23 UNL     1      20.609  14.543 -12.165  1.00  0.00     0.183 C 
HETATM   21  O2  UNL     1      20.436  15.122 -11.031  1.00  0.00    -0.647 OA
HETATM   22  O3  UNL     1      19.647  14.978 -13.070  1.00  0.00    -0.647 OA
ENDBRANCH  17  20
BRANCH  18  23
HETATM   23  O4  UNL     1      24.350  14.863 -14.648  1.00  0.00    -0.386 OA
ATOM     24  H4  UNL     1      24.956  14.927 -13.919  1.00  0.00     0.210 HD
ENDBRANCH  18  23
BRANCH   1  25
HETATM   25  O1  UNL     1      22.454  17.086 -12.600  1.00  0.00    -0.388 OA
HETATM   26  C1  UNL     1      22.373  18.430 -12.842  1.00  0.00     0.202 C 
ENDBRANCH   1  25
BRANCH  14  27
HETATM   27  C15 UNL     1      17.652  11.866 -10.907  1.00  0.00     0.054 C 
BRANCH  27  28
HETATM   28  C16 UNL     1      16.926  10.577 -10.905  1.00  0.00    -0.021 C 
HETATM   29  C17 UNL     1      17.301   9.526 -10.198  1.00  0.00    -0.091 C 
HETATM   30  C18 UNL     1      16.542   8.249 -10.226  1.00  0.00     0.042 C 
HETATM   31  C19 UNL     1      18.515   9.604  -9.346  1.00  0.00     0.042 C 
ENDBRANCH  27  28
ENDBRANCH  14  27
TORSDOF 5
ENDMDL
MODEL 5
REMARK VINA RESULT: -6.695997425      2.338      5.972
REMARK  5 active torsions:
REMARK  status: ('A' for Active; 'I' for Inactive)
REMARK    1  A    between atoms: O1_2  and  C2_3 
REMARK    2  A    between atoms: C14_16  and  C15_17 
REMARK    3  A    between atoms: C15_17  and  C16_18 
REMARK    4  A    between atoms: C22_24  and  C23_25 
REMARK    5  A    between atoms: C24_28  and  O4_30 
ROOT
HETATM    1  C2  UNL     1      24.412  12.263 -14.249  1.00  0.00     0.155 C 
HETATM    2  C3  UNL     1      23.934  11.975 -15.656  1.00  0.00     0.035 C 
HETATM    3  C4  UNL     1      22.530  11.436 -15.392  1.00  0.00     0.004 C 
HETATM    4  C5  UNL     1      21.753  12.571 -14.915  1.00  0.00     0.018 C 
HETATM    5  C6  UNL     1      22.102  13.043 -13.460  1.00  0.00     0.029 C 
HETATM    6  C7  UNL     1      21.466  14.404 -13.470  1.00  0.00    -0.009 C 
HETATM    7  C8  UNL     1      21.031  15.235 -12.566  1.00  0.00    -0.068 C 
HETATM    8  C9  UNL     1      20.438  16.548 -13.032  1.00  0.00     0.044 C 
HETATM    9  C10 UNL     1      21.034  15.090 -11.138  1.00  0.00     0.111 C 
HETATM   10 CL1  UNL     1      19.601  15.944 -10.453  1.00  0.00    -0.120 Cl
HETATM   11  C11 UNL     1      21.050  13.727 -10.576  1.00  0.00     0.035 C 
HETATM   12  C12 UNL     1      20.473  12.841 -11.545  1.00  0.00     0.036 C 
HETATM   13  C13 UNL     1      19.804  11.671 -10.921  1.00  0.00    -0.078 C 
HETATM   14  C14 UNL     1      19.582  11.345  -9.680  1.00  0.00    -0.020 C 
HETATM   15  C20 UNL     1      19.395  10.840 -12.082  1.00  0.00     0.036 C 
HETATM   16  C21 UNL     1      20.156  11.463 -13.235  1.00  0.00     0.027 C 
HETATM   17  C22 UNL     1      21.379  12.154 -12.569  1.00  0.00     0.070 C 
HETATM   18  C24 UNL     1      23.557  13.231 -13.499  1.00  0.00     0.092 C 
HETATM   19  C25 UNL     1      24.374  13.591 -12.334  1.00  0.00     0.050 C 
ENDROOT
BRANCH  17  20
HETATM   20  C23 UNL     1      22.035  11.083 -11.828  1.00  0.00     0.183 C 
HETATM   21  O2  UNL     1      22.616  11.229 -10.691  1.00  0.00    -0.647 OA
HETATM   22  O3  UNL     1      22.127   9.758 -12.239  1.00  0.00    -0.647 OA
ENDBRANCH  17  20
BRANCH  18  23
HETATM   23  O4  UNL     1      23.710  14.411 -14.355  1.00  0.00    -0.386 OA
ATOM     24  H4  UNL     1      24.527  14.753 -14.010  1.00  0.00     0.210 HD
ENDBRANCH  18  23
BRANCH   1  25
HETATM   25  O1  UNL     1      24.626  11.033 -13.658  1.00  0.00    -0.388 OA
HETATM   26  C1  UNL     1      25.820  10.437 -13.959  1.00  0.00     0.202 C 
ENDBRANCH   1  25
BRANCH  14  27
HETATM   27  C15 UNL     1      18.874  10.092  -9.274  1.00  0.00     0.054 C 
BRANCH  27  28
HETATM   28  C16 UNL     1      19.396   9.553  -7.999  1.00  0.00    -0.021 C 
HETATM   29  C17 UNL     1      20.437   8.744  -7.917  1.00  0.00    -0.091 C 
HETATM   30  C18 UNL     1      20.927   8.226  -6.613  1.00  0.00     0.042 C 
HETATM   31  C19 UNL     1      21.150   8.330  -9.152  1.00  0.00     0.042 C 
ENDBRANCH  27  28
ENDBRANCH  14  27
TORSDOF 5
ENDMDL
