MODEL 1
REMARK VINA RESULT: -8.553474899      0.000      0.000
REMARK  5 active torsions:
REMARK  status: ('A' for Active; 'I' for Inactive)
REMARK    1  A    between atoms: C2_2  and  C4_4 
REMARK    2  A    between atoms: C6_6  and  C7_7 
REMARK    3  A    between atoms: N1_10  and  C10_11 
REMARK    4  A    between atoms: C10_11  and  C11_12 
REMARK    5  A    between atoms: C20_28  and  C21_29 
ROOT
HETATM    1  C7  UNL     1      19.106  12.312 -10.492  1.00  0.00     0.022 C 
HETATM    2  C8  UNL     1      17.923  12.681 -11.303  1.00  0.00     0.039 C 
HETATM    3  C9  UNL     1      17.405  11.455 -12.031  1.00  0.00     0.273 C 
HETATM    4  N1  UNL     1      16.891  10.532 -11.082  1.00  0.00     0.089 N 
HETATM    5  C17 UNL     1      17.851  10.198 -10.088  1.00  0.00     0.273 C 
HETATM    6  C18 UNL     1      19.220  10.794 -10.396  1.00  0.00     0.039 C 
ENDROOT
BRANCH   4   7
HETATM    7  C10 UNL     1      15.625  10.803 -10.519  1.00  0.00     0.282 C 
BRANCH   7   8
HETATM    8  C11 UNL     1      14.538   9.856 -10.948  1.00  0.00     0.055 C 
HETATM    9  C12 UNL     1      15.035   8.468 -11.096  1.00  0.00     0.031 C 
HETATM   10  C13 UNL     1      14.930   7.598  -9.888  1.00  0.00     0.122 C 
HETATM   11  N2  UNL     1      14.039   8.060  -8.871  1.00  0.00    -0.375 N 
HETATM   12  C14 UNL     1      13.133   9.138  -9.056  1.00  0.00     0.125 A 
ATOM     13  H2  UNL     1      14.055   7.592  -7.965  1.00  0.00     0.161 HD
HETATM   14  N3  UNL     1      12.005   9.514  -8.408  1.00  0.00    -0.284 N 
HETATM   15  C16 UNL     1      13.368  10.024 -10.061  1.00  0.00     0.033 A 
HETATM   16  N4  UNL     1      11.551  10.605  -8.998  1.00  0.00    -0.288 N 
ATOM     17  H3  UNL     1      11.582   9.040  -7.609  1.00  0.00     0.188 HD
HETATM   18  C15 UNL     1      12.345  10.959 -10.013  1.00  0.00     0.128 A 
ATOM     19  H4  UNL     1      10.709  11.108  -8.717  1.00  0.00     0.188 HD
HETATM   20 CL1  UNL     1      12.182  12.315 -11.104  1.00  0.00    -0.062 Cl
ENDBRANCH   7   8
ENDBRANCH   4   7
BRANCH   1  21
HETATM   21  C6  UNL     1      20.388  12.847 -10.963  1.00  0.00    -0.053 A 
HETATM   22  C5  UNL     1      20.739  14.131 -10.635  1.00  0.00     0.015 A 
HETATM   23  C4  UNL     1      21.961  14.607 -11.107  1.00  0.00    -0.054 A 
HETATM   24  C25 UNL     1      22.768  13.787 -11.879  1.00  0.00     0.015 A 
HETATM   25  C20 UNL     1      22.423  12.499 -12.212  1.00  0.00    -0.050 A 
HETATM   26  C19 UNL     1      21.216  12.038 -11.741  1.00  0.00     0.015 A 
BRANCH  23  27
HETATM   27  C2  UNL     1      22.436  15.970 -10.814  1.00  0.00     0.010 C 
HETATM   28  C1  UNL     1      21.517  17.072 -11.190  1.00  0.00     0.015 C 
HETATM   29  C3  UNL     1      23.720  16.141 -11.647  1.00  0.00     0.015 C 
ENDBRANCH  23  27
BRANCH  25  30
HETATM   30  C21 UNL     1      23.258  11.597 -13.042  1.00  0.00    -0.024 C 
HETATM   31  C22 UNL     1      23.007  10.135 -12.745  1.00  0.00     0.019 C 
HETATM   32  C23 UNL     1      24.726  11.867 -12.915  1.00  0.00     0.019 C 
HETATM   33  C24 UNL     1      22.865  11.806 -14.507  1.00  0.00     0.019 C 
ENDBRANCH  25  30
ENDBRANCH   1  21
TORSDOF 5
ENDMDL
MODEL 2
REMARK VINA RESULT: -8.549734409      4.785      9.346
REMARK  5 active torsions:
REMARK  status: ('A' for Active; 'I' for Inactive)
REMARK    1  A    between atoms: C2_2  and  C4_4 
REMARK    2  A    between atoms: C6_6  and  C7_7 
REMARK    3  A    between atoms: N1_10  and  C10_11 
REMARK    4  A    between atoms: C10_11  and  C11_12 
REMARK    5  A    between atoms: C20_28  and  C21_29 
ROOT
HETATM    1  C7  UNL     1      19.534  13.406 -11.103  1.00  0.00     0.022 C 
HETATM    2  C8  UNL     1      19.134  14.628 -10.369  1.00  0.00     0.039 C 
HETATM    3  C9  UNL     1      20.279  15.086  -9.484  1.00  0.00     0.273 C 
HETATM    4  N1  UNL     1      21.356  15.519 -10.301  1.00  0.00     0.089 N 
HETATM    5  C17 UNL     1      21.761  14.517 -11.223  1.00  0.00     0.273 C 
HETATM    6  C18 UNL     1      21.040  13.195 -10.983  1.00  0.00     0.039 C 
ENDROOT
BRANCH   4   7
HETATM    7  C10 UNL     1      21.249  16.785 -10.914  1.00  0.00     0.282 C 
BRANCH   7   8
HETATM    8  C11 UNL     1      21.514  16.785 -12.395  1.00  0.00     0.055 C 
HETATM    9  C12 UNL     1      20.273  16.978 -13.182  1.00  0.00     0.031 C 
HETATM   10  C13 UNL     1      19.924  18.388 -13.527  1.00  0.00     0.122 C 
HETATM   11  N2  UNL     1      20.987  19.334 -13.401  1.00  0.00    -0.375 N 
HETATM   12  C14 UNL     1      22.342  18.965 -13.190  1.00  0.00     0.125 A 
ATOM     13  H2  UNL     1      20.761  20.327 -13.467  1.00  0.00     0.161 HD
HETATM   14  N3  UNL     1      23.515  19.616 -13.381  1.00  0.00    -0.284 N 
HETATM   15  C16 UNL     1      22.612  17.727 -12.693  1.00  0.00     0.033 A 
HETATM   16  N4  UNL     1      24.487  18.801 -13.014  1.00  0.00    -0.288 N 
ATOM     17  H3  UNL     1      23.626  20.563 -13.743  1.00  0.00     0.188 HD
HETATM   18  C15 UNL     1      23.992  17.635 -12.586  1.00  0.00     0.128 A 
ATOM     19  H4  UNL     1      25.481  19.030 -13.052  1.00  0.00     0.188 HD
HETATM   20 CL1  UNL     1      24.854  16.232 -12.001  1.00  0.00    -0.062 Cl
ENDBRANCH   7   8
ENDBRANCH   4   7
BRANCH   1  21
HETATM   21  C6  UNL     1      18.857  12.171 -10.693  1.00  0.00    -0.053 A 
HETATM   22  C5  UNL     1      19.521  11.278  -9.893  1.00  0.00     0.015 A 
HETATM   23  C4  UNL     1      18.849  10.112  -9.530  1.00  0.00    -0.054 A 
HETATM   24  C25 UNL     1      17.557   9.894  -9.980  1.00  0.00     0.015 A 
HETATM   25  C20 UNL     1      16.885  10.785 -10.783  1.00  0.00    -0.050 A 
HETATM   26  C19 UNL     1      17.556  11.932 -11.135  1.00  0.00     0.015 A 
BRANCH  23  27
HETATM   27  C2  UNL     1      19.468   9.086  -8.675  1.00  0.00     0.010 C 
HETATM   28  C1  UNL     1      19.493   9.382  -7.221  1.00  0.00     0.015 C 
HETATM   29  C3  UNL     1      20.930   8.990  -9.147  1.00  0.00     0.015 C 
ENDBRANCH  23  27
BRANCH  25  30
HETATM   30  C21 UNL     1      15.506  10.580 -11.288  1.00  0.00    -0.024 C 
HETATM   31  C22 UNL     1      14.452  10.919 -10.257  1.00  0.00     0.019 C 
HETATM   32  C23 UNL     1      15.259   9.189 -11.787  1.00  0.00     0.019 C 
HETATM   33  C24 UNL     1      15.284  11.546 -12.455  1.00  0.00     0.019 C 
ENDBRANCH  25  30
ENDBRANCH   1  21
TORSDOF 5
ENDMDL
MODEL 3
REMARK VINA RESULT: -8.509591501      2.137      4.193
REMARK  5 active torsions:
REMARK  status: ('A' for Active; 'I' for Inactive)
REMARK    1  A    between atoms: C2_2  and  C4_4 
REMARK    2  A    between atoms: C6_6  and  C7_7 
REMARK    3  A    between atoms: N1_10  and  C10_11 
REMARK    4  A    between atoms: C10_11  and  C11_12 
REMARK    5  A    between atoms: C20_28  and  C21_29 
ROOT
HETATM    1  C7  UNL     1      17.904  10.619  -9.911  1.00  0.00     0.022 C 
HETATM    2  C8  UNL     1      17.143  11.701 -10.576  1.00  0.00     0.039 C 
HETATM    3  C9  UNL     1      16.208  11.102 -11.610  1.00  0.00     0.273 C 
HETATM    4  N1  UNL     1      15.208  10.342 -10.949  1.00  0.00     0.089 N 
HETATM    5  C17 UNL     1      15.767   9.351 -10.097  1.00  0.00     0.273 C 
HETATM    6  C18 UNL     1      17.283   9.266 -10.241  1.00  0.00     0.039 C 
ENDROOT
BRANCH   4   7
HETATM    7  C10 UNL     1      14.156  11.041 -10.321  1.00  0.00     0.282 C 
BRANCH   7   8
HETATM    8  C11 UNL     1      12.801  10.810 -10.934  1.00  0.00     0.055 C 
HETATM    9  C12 UNL     1      12.037   9.764 -10.215  1.00  0.00     0.031 C 
HETATM   10  C13 UNL     1      11.149  10.236  -9.111  1.00  0.00     0.122 C 
HETATM   11  N2  UNL     1      10.845  11.632  -9.120  1.00  0.00    -0.375 N 
HETATM   12  C14 UNL     1      11.155  12.493 -10.205  1.00  0.00     0.125 A 
ATOM     13  H2  UNL     1      10.381  12.031  -8.304  1.00  0.00     0.161 HD
HETATM   14  N3  UNL     1      10.682  13.704 -10.585  1.00  0.00    -0.284 N 
HETATM   15  C16 UNL     1      12.111  12.108 -11.093  1.00  0.00     0.033 A 
HETATM   16  N4  UNL     1      11.327  14.060 -11.681  1.00  0.00    -0.288 N 
ATOM     17  H3  UNL     1       9.958  14.245 -10.109  1.00  0.00     0.188 HD
HETATM   18  C15 UNL     1      12.211  13.121 -12.035  1.00  0.00     0.128 A 
ATOM     19  H4  UNL     1      11.173  14.931 -12.188  1.00  0.00     0.188 HD
HETATM   20 CL1  UNL     1      13.301  13.108 -13.400  1.00  0.00    -0.062 Cl
ENDBRANCH   7   8
ENDBRANCH   4   7
BRANCH   1  21
HETATM   21  C6  UNL     1      19.335  10.564 -10.228  1.00  0.00    -0.053 A 
HETATM   22  C5  UNL     1      20.036   9.416  -9.964  1.00  0.00     0.015 A 
HETATM   23  C4  UNL     1      21.395   9.404 -10.271  1.00  0.00    -0.054 A 
HETATM   24  C25 UNL     1      21.987  10.528 -10.822  1.00  0.00     0.015 A 
HETATM   25  C20 UNL     1      21.291  11.684 -11.089  1.00  0.00    -0.050 A 
HETATM   26  C19 UNL     1      19.951  11.686 -10.783  1.00  0.00     0.015 A 
BRANCH  23  27
HETATM   27  C2  UNL     1      22.241   8.223 -10.029  1.00  0.00     0.010 C 
HETATM   28  C1  UNL     1      22.090   7.107 -10.995  1.00  0.00     0.015 C 
HETATM   29  C3  UNL     1      21.815   7.693  -8.648  1.00  0.00     0.015 C 
ENDBRANCH  23  27
BRANCH  25  30
HETATM   30  C21 UNL     1      21.894  12.908 -11.671  1.00  0.00    -0.024 C 
HETATM   31  C22 UNL     1      23.405  12.853 -11.704  1.00  0.00     0.019 C 
HETATM   32  C23 UNL     1      21.475  14.163 -10.970  1.00  0.00     0.019 C 
HETATM   33  C24 UNL     1      21.441  13.008 -13.130  1.00  0.00     0.019 C 
ENDBRANCH  25  30
ENDBRANCH   1  21
TORSDOF 5
ENDMDL
MODEL 4
REMARK VINA RESULT: -8.354924392      4.698      9.622
REMARK  5 active torsions:
REMARK  status: ('A' for Active; 'I' for Inactive)
REMARK    1  A    between atoms: C2_2  and  C4_4 
REMARK    2  A    between atoms: C6_6  and  C7_7 
REMARK    3  A    between atoms: N1_10  and  C10_11 
REMARK    4  A    between atoms: C10_11  and  C11_12 
REMARK    5  A    between atoms: C20_28  and  C21_29 
ROOT
HETATM    1  C7  UNL     1      19.218  13.347 -11.005  1.00  0.00     0.022 C 
HETATM    2  C8  UNL     1      20.699  13.372 -11.032  1.00  0.00     0.039 C 
HETATM    3  C9  UNL     1      21.178  13.464 -12.469  1.00  0.00     0.273 C 
HETATM    4  N1  UNL     1      20.810  14.727 -13.003  1.00  0.00     0.089 N 
HETATM    5  C17 UNL     1      19.413  14.967 -12.889  1.00  0.00     0.273 C 
HETATM    6  C18 UNL     1      18.665  13.743 -12.371  1.00  0.00     0.039 C 
ENDROOT
BRANCH   4   7
HETATM    7  C10 UNL     1      21.568  15.853 -12.617  1.00  0.00     0.282 C 
BRANCH   7   8
HETATM    8  C11 UNL     1      22.394  16.456 -13.721  1.00  0.00     0.055 C 
HETATM    9  C12 UNL     1      21.738  17.641 -14.321  1.00  0.00     0.031 C 
HETATM   10  C13 UNL     1      22.085  18.963 -13.719  1.00  0.00     0.122 C 
HETATM   11  N2  UNL     1      23.264  18.981 -12.913  1.00  0.00    -0.375 N 
HETATM   12  C14 UNL     1      24.187  17.904 -12.853  1.00  0.00     0.125 A 
ATOM     13  H2  UNL     1      23.453  19.812 -12.352  1.00  0.00     0.161 HD
HETATM   14  N3  UNL     1      25.484  17.822 -12.467  1.00  0.00    -0.284 N 
HETATM   15  C16 UNL     1      23.774  16.666 -13.238  1.00  0.00     0.033 A 
HETATM   16  N4  UNL     1      25.864  16.566 -12.611  1.00  0.00    -0.288 N 
ATOM     17  H3  UNL     1      26.061  18.591 -12.126  1.00  0.00     0.188 HD
HETATM   18  C15 UNL     1      24.859  15.818 -13.078  1.00  0.00     0.128 A 
ATOM     19  H4  UNL     1      26.797  16.214 -12.394  1.00  0.00     0.188 HD
HETATM   20 CL1  UNL     1      24.849  14.109 -13.442  1.00  0.00    -0.062 Cl
ENDBRANCH   7   8
ENDBRANCH   4   7
BRANCH   1  21
HETATM   21  C6  UNL     1      18.613  12.071 -10.610  1.00  0.00    -0.053 A 
HETATM   22  C5  UNL     1      19.327  11.209  -9.819  1.00  0.00     0.015 A 
HETATM   23  C4  UNL     1      18.722  10.002  -9.470  1.00  0.00    -0.054 A 
HETATM   24  C25 UNL     1      17.446   9.715  -9.924  1.00  0.00     0.015 A 
HETATM   25  C20 UNL     1      16.724  10.574 -10.719  1.00  0.00    -0.050 A 
HETATM   26  C19 UNL     1      17.328  11.762 -11.057  1.00  0.00     0.015 A 
BRANCH  23  27
HETATM   27  C2  UNL     1      19.398   9.005  -8.624  1.00  0.00     0.010 C 
HETATM   28  C1  UNL     1      19.563   9.370  -7.195  1.00  0.00     0.015 C 
HETATM   29  C3  UNL     1      20.809   8.853  -9.222  1.00  0.00     0.015 C 
ENDBRANCH  23  27
BRANCH  25  30
HETATM   30  C21 UNL     1      15.360  10.295 -11.229  1.00  0.00    -0.024 C 
HETATM   31  C22 UNL     1      14.286  10.570 -10.199  1.00  0.00     0.019 C 
HETATM   32  C23 UNL     1      15.192   8.895 -11.734  1.00  0.00     0.019 C 
HETATM   33  C24 UNL     1      15.087  11.252 -12.392  1.00  0.00     0.019 C 
ENDBRANCH  25  30
ENDBRANCH   1  21
TORSDOF 5
ENDMDL
MODEL 5
REMARK VINA RESULT: -8.326842591      1.589      3.594
REMARK  5 active torsions:
REMARK  status: ('A' for Active; 'I' for Inactive)
REMARK    1  A    between atoms: C2_2  and  C4_4 
REMARK    2  A    between atoms: C6_6  and  C7_7 
REMARK    3  A    between atoms: N1_10  and  C10_11 
REMARK    4  A    between atoms: C10_11  and  C11_12 
REMARK    5  A    between atoms: C20_28  and  C21_29 
ROOT
HETATM    1  C7  UNL     1      19.675  13.124 -10.187  1.00  0.00     0.022 C 
HETATM    2  C8  UNL     1      18.301  13.180 -10.739  1.00  0.00     0.039 C 
HETATM    3  C9  UNL     1      18.106  12.047 -11.730  1.00  0.00     0.273 C 
HETATM    4  N1  UNL     1      18.142  10.809 -11.035  1.00  0.00     0.089 N 
HETATM    5  C17 UNL     1      19.334  10.657 -10.278  1.00  0.00     0.273 C 
HETATM    6  C18 UNL     1      20.323  11.788 -10.538  1.00  0.00     0.039 C 
ENDROOT
BRANCH   4   7
HETATM    7  C10 UNL     1      16.999  10.435 -10.297  1.00  0.00     0.282 C 
BRANCH   7   8
HETATM    8  C11 UNL     1      16.007   9.604 -11.063  1.00  0.00     0.055 C 
HETATM    9  C12 UNL     1      16.049   8.178 -10.662  1.00  0.00     0.031 C 
HETATM   10  C13 UNL     1      15.120   7.773  -9.565  1.00  0.00     0.122 C 
HETATM   11  N2  UNL     1      14.053   8.684  -9.295  1.00  0.00    -0.375 N 
HETATM   12  C14 UNL     1      13.732   9.784 -10.133  1.00  0.00     0.125 A 
ATOM     13  H2  UNL     1      13.492   8.536  -8.456  1.00  0.00     0.161 HD
HETATM   14  N3  UNL     1      12.615  10.537 -10.278  1.00  0.00    -0.284 N 
HETATM   15  C16 UNL     1      14.678  10.246 -10.996  1.00  0.00     0.033 A 
HETATM   16  N4  UNL     1      12.862  11.442 -11.208  1.00  0.00    -0.288 N 
ATOM     17  H3  UNL     1      11.742  10.425  -9.763  1.00  0.00     0.188 HD
HETATM   18  C15 UNL     1      14.106  11.309 -11.679  1.00  0.00     0.128 A 
ATOM     19  H4  UNL     1      12.195  12.146 -11.524  1.00  0.00     0.188 HD
HETATM   20 CL1  UNL     1      14.913  12.249 -12.912  1.00  0.00    -0.062 Cl
ENDBRANCH   7   8
ENDBRANCH   4   7
BRANCH   1  21
HETATM   21  C6  UNL     1      20.572  14.203 -10.612  1.00  0.00    -0.053 A 
HETATM   22  C5  UNL     1      21.891  13.920 -10.856  1.00  0.00     0.015 A 
HETATM   23  C4  UNL     1      22.715  14.972 -11.251  1.00  0.00    -0.054 A 
HETATM   24  C25 UNL     1      22.190  16.247 -11.381  1.00  0.00     0.015 A 
HETATM   25  C20 UNL     1      20.869  16.539 -11.137  1.00  0.00    -0.050 A 
HETATM   26  C19 UNL     1      20.063  15.495 -10.749  1.00  0.00     0.015 A 
BRANCH  23  27
HETATM   27  C2  UNL     1      24.146  14.779 -11.539  1.00  0.00     0.010 C 
HETATM   28  C1  UNL     1      24.769  15.784 -12.437  1.00  0.00     0.015 C 
HETATM   29  C3  UNL     1      24.238  13.415 -12.247  1.00  0.00     0.015 C 
ENDBRANCH  23  27
BRANCH  25  30
HETATM   30  C21 UNL     1      20.275  17.893 -11.259  1.00  0.00    -0.024 C 
HETATM   31  C22 UNL     1      20.265  18.644  -9.946  1.00  0.00     0.019 C 
HETATM   32  C23 UNL     1      18.884  17.881 -11.815  1.00  0.00     0.019 C 
HETATM   33  C24 UNL     1      21.155  18.710 -12.208  1.00  0.00     0.019 C 
ENDBRANCH  25  30
ENDBRANCH   1  21
TORSDOF 5
ENDMDL
