MODEL 1
REMARK VINA RESULT: -7.017011347      0.000      0.000
REMARK  6 active torsions:
REMARK  status: ('A' for Active; 'I' for Inactive)
REMARK    1  A    between atoms: C2_2  and  C5_5 
REMARK    2  A    between atoms: C11_11  and  C12_12 
REMARK    3  A    between atoms: C17_19  and  C18_20 
REMARK    4  A    between atoms: C20_23  and  O1_24 
REMARK    5  A    between atoms: C20_23  and  C21_26 
REMARK    6  A    between atoms: C21_26  and  C22_27 
ROOT
HETATM    1  C5  UNL     1      22.252  12.901 -12.615  1.00  0.00     0.029 C 
HETATM    2  C6  UNL     1      23.232  12.035 -11.716  1.00  0.00     0.009 C 
HETATM    3  C7  UNL     1      22.118  11.523 -10.822  1.00  0.00     0.014 C 
HETATM    4  C8  UNL     1      21.151  11.000 -11.897  1.00  0.00    -0.001 C 
HETATM    5  C9  UNL     1      21.583   9.558 -12.160  1.00  0.00     0.014 C 
HETATM    6  C10 UNL     1      21.842   8.761 -10.903  1.00  0.00     0.011 C 
HETATM    7  C11 UNL     1      20.681   8.908  -9.957  1.00  0.00     0.036 C 
HETATM    8  C16 UNL     1      20.145  10.272  -9.859  1.00  0.00     0.020 C 
HETATM    9  C17 UNL     1      19.829  10.927 -11.239  1.00  0.00     0.021 C 
HETATM   10  C20 UNL     1      21.403  11.755 -13.142  1.00  0.00     0.080 C 
ENDROOT
BRANCH   9  11
HETATM   11  C18 UNL     1      19.259  12.211 -10.765  1.00  0.00    -0.014 C 
HETATM   12  C19 UNL     1      17.956  12.385 -10.770  1.00  0.00     0.052 C 
HETATM   13 BR1  UNL     1      16.659  11.110 -11.336  1.00  0.00    -0.064 Br
ENDBRANCH   9  11
BRANCH  10  14
HETATM   14  O1  UNL     1      22.281  11.058 -13.995  1.00  0.00    -0.388 OA
ATOM     15  H1  UNL     1      21.955  11.260 -14.864  1.00  0.00     0.210 HD
ENDBRANCH  10  14
BRANCH  10  16
HETATM   16  C21 UNL     1      20.342  12.278 -13.975  1.00  0.00     0.152 C 
BRANCH  16  17
HETATM   17  C22 UNL     1      20.331  12.097 -15.422  1.00  0.00     0.175 C 
HETATM   18  O2  UNL     1      20.249  13.201 -16.084  1.00  0.00    -0.648 OA
HETATM   19  O3  UNL     1      20.396  10.979 -16.161  1.00  0.00    -0.648 OA
ENDBRANCH  16  17
ENDBRANCH  10  16
BRANCH   1  20
HETATM   20  C2  UNL     1      23.048  13.764 -13.419  1.00  0.00    -0.045 C 
HETATM   21  C1  UNL     1      22.388  15.013 -13.916  1.00  0.00     0.015 C 
HETATM   22  C3  UNL     1      24.201  14.261 -12.510  1.00  0.00     0.015 C 
HETATM   23  C4  UNL     1      23.779  13.182 -14.609  1.00  0.00     0.015 C 
ENDBRANCH   1  20
BRANCH   7  24
HETATM   24  C12 UNL     1      21.019   8.419  -8.597  1.00  0.00     0.013 A 
HETATM   25  C13 UNL     1      20.486   8.874  -7.383  1.00  0.00     0.026 A 
HETATM   26  C14 UNL     1      21.053   8.174  -6.345  1.00  0.00     0.019 A 
HETATM   27  C15 UNL     1      21.928   7.295  -6.912  1.00  0.00     0.088 A 
HETATM   28  N1  UNL     1      21.892   7.456  -8.242  1.00  0.00    -0.369 N 
ATOM     29  H1  UNL     1      22.455   6.919  -8.901  1.00  0.00     0.165 HD
ENDBRANCH   7  24
TORSDOF 6
ENDMDL
MODEL 2
REMARK VINA RESULT: -6.858838249      2.125      2.724
REMARK  6 active torsions:
REMARK  status: ('A' for Active; 'I' for Inactive)
REMARK    1  A    between atoms: C2_2  and  C5_5 
REMARK    2  A    between atoms: C11_11  and  C12_12 
REMARK    3  A    between atoms: C17_19  and  C18_20 
REMARK    4  A    between atoms: C20_23  and  O1_24 
REMARK    5  A    between atoms: C20_23  and  C21_26 
REMARK    6  A    between atoms: C21_26  and  C22_27 
ROOT
HETATM    1  C5  UNL     1      19.224  14.229 -11.724  1.00  0.00     0.029 C 
HETATM    2  C6  UNL     1      20.269  13.818 -10.602  1.00  0.00     0.009 C 
HETATM    3  C7  UNL     1      19.439  12.641 -10.122  1.00  0.00     0.014 C 
HETATM    4  C8  UNL     1      19.204  11.933 -11.467  1.00  0.00    -0.001 C 
HETATM    5  C9  UNL     1      20.401  10.998 -11.643  1.00  0.00     0.014 C 
HETATM    6  C10 UNL     1      20.743  10.206 -10.404  1.00  0.00     0.011 C 
HETATM    7  C11 UNL     1      19.504   9.546  -9.861  1.00  0.00     0.036 C 
HETATM    8  C16 UNL     1      18.305  10.396  -9.877  1.00  0.00     0.020 C 
HETATM    9  C17 UNL     1      18.025  11.066 -11.257  1.00  0.00     0.021 C 
HETATM   10  C20 UNL     1      19.293  12.948 -12.538  1.00  0.00     0.080 C 
ENDROOT
BRANCH   9  11
HETATM   11  C18 UNL     1      16.753  11.755 -10.930  1.00  0.00    -0.014 C 
HETATM   12  C19 UNL     1      15.612  11.117 -11.073  1.00  0.00     0.052 C 
HETATM   13 BR1  UNL     1      15.403   9.321 -11.674  1.00  0.00    -0.064 Br
ENDBRANCH   9  11
BRANCH  10  14
HETATM   14  O1  UNL     1      20.582  12.984 -13.103  1.00  0.00    -0.388 OA
ATOM     15  H1  UNL     1      20.539  12.337 -13.798  1.00  0.00     0.210 HD
ENDBRANCH  10  14
BRANCH  10  16
HETATM   16  C21 UNL     1      18.355  13.016 -13.637  1.00  0.00     0.152 C 
BRANCH  16  17
HETATM   17  C22 UNL     1      18.792  13.107 -15.025  1.00  0.00     0.175 C 
HETATM   18  O2  UNL     1      18.371  14.162 -15.636  1.00  0.00    -0.648 OA
HETATM   19  O3  UNL     1      19.555  12.279 -15.754  1.00  0.00    -0.648 OA
ENDBRANCH  16  17
ENDBRANCH  10  16
BRANCH   1  20
HETATM   20  C2  UNL     1      19.585  15.521 -12.202  1.00  0.00    -0.045 C 
HETATM   21  C1  UNL     1      18.508  16.309 -12.879  1.00  0.00     0.015 C 
HETATM   22  C3  UNL     1      19.959  16.356 -10.951  1.00  0.00     0.015 C 
HETATM   23  C4  UNL     1      20.810  15.655 -13.080  1.00  0.00     0.015 C 
ENDBRANCH   1  20
BRANCH   7  24
HETATM   24  C12 UNL     1      19.716   9.031  -8.487  1.00  0.00     0.013 A 
HETATM   25  C13 UNL     1      20.946   8.832  -7.844  1.00  0.00     0.026 A 
HETATM   26  C14 UNL     1      20.726   8.341  -6.579  1.00  0.00     0.019 A 
HETATM   27  C15 UNL     1      19.372   8.236  -6.441  1.00  0.00     0.088 A 
HETATM   28  N1  UNL     1      18.796   8.649  -7.579  1.00  0.00    -0.369 N 
ATOM     29  H1  UNL     1      17.789   8.670  -7.738  1.00  0.00     0.165 HD
ENDBRANCH   7  24
TORSDOF 6
ENDMDL
MODEL 3
REMARK VINA RESULT: -6.791884178      3.089      4.647
REMARK  6 active torsions:
REMARK  status: ('A' for Active; 'I' for Inactive)
REMARK    1  A    between atoms: C2_2  and  C5_5 
REMARK    2  A    between atoms: C11_11  and  C12_12 
REMARK    3  A    between atoms: C17_19  and  C18_20 
REMARK    4  A    between atoms: C20_23  and  O1_24 
REMARK    5  A    between atoms: C20_23  and  C21_26 
REMARK    6  A    between atoms: C21_26  and  C22_27 
ROOT
HETATM    1  C5  UNL     1      21.357  13.016 -13.150  1.00  0.00     0.029 C 
HETATM    2  C6  UNL     1      19.902  12.656 -13.672  1.00  0.00     0.009 C 
HETATM    3  C7  UNL     1      19.678  11.591 -12.614  1.00  0.00     0.014 C 
HETATM    4  C8  UNL     1      20.031  12.407 -11.358  1.00  0.00    -0.001 C 
HETATM    5  C9  UNL     1      18.725  13.079 -10.936  1.00  0.00     0.014 C 
HETATM    6  C10 UNL     1      17.532  12.154 -10.944  1.00  0.00     0.011 C 
HETATM    7  C11 UNL     1      17.860  10.891 -10.194  1.00  0.00     0.036 C 
HETATM    8  C16 UNL     1      19.202  10.355 -10.462  1.00  0.00     0.020 C 
HETATM    9  C17 UNL     1      20.343  11.408 -10.313  1.00  0.00     0.021 C 
HETATM   10  C20 UNL     1      20.958  13.485 -11.761  1.00  0.00     0.080 C 
ENDROOT
BRANCH   9  11
HETATM   11  C18 UNL     1      21.509  10.529 -10.572  1.00  0.00    -0.014 C 
HETATM   12  C19 UNL     1      21.829   9.599  -9.698  1.00  0.00     0.052 C 
HETATM   13 BR1  UNL     1      20.915   9.236  -8.067  1.00  0.00    -0.064 Br
ENDBRANCH   9  11
BRANCH  10  14
HETATM   14  O1  UNL     1      20.268  14.688 -12.003  1.00  0.00    -0.388 OA
ATOM     15  H1  UNL     1      19.882  14.898 -11.161  1.00  0.00     0.210 HD
ENDBRANCH  10  14
BRANCH  10  16
HETATM   16  C21 UNL     1      22.141  13.830 -11.003  1.00  0.00     0.152 C 
BRANCH  16  17
HETATM   17  C22 UNL     1      22.419  15.197 -10.579  1.00  0.00     0.175 C 
HETATM   18  O2  UNL     1      23.616  15.593 -10.850  1.00  0.00    -0.648 OA
HETATM   19  O3  UNL     1      21.635  16.094  -9.963  1.00  0.00    -0.648 OA
ENDBRANCH  16  17
ENDBRANCH  10  16
BRANCH   1  20
HETATM   20  C2  UNL     1      21.985  13.827 -14.137  1.00  0.00    -0.045 C 
HETATM   21  C1  UNL     1      23.481  13.862 -14.121  1.00  0.00     0.015 C 
HETATM   22  C3  UNL     1      21.618  13.203 -15.508  1.00  0.00     0.015 C 
HETATM   23  C4  UNL     1      21.540  15.266 -14.287  1.00  0.00     0.015 C 
ENDBRANCH   1  20
BRANCH   7  24
HETATM   24  C12 UNL     1      16.854   9.830 -10.444  1.00  0.00     0.013 A 
HETATM   25  C13 UNL     1      15.846   9.839 -11.418  1.00  0.00     0.026 A 
HETATM   26  C14 UNL     1      15.117   8.677 -11.332  1.00  0.00     0.019 A 
HETATM   27  C15 UNL     1      15.669   7.956 -10.313  1.00  0.00     0.088 A 
HETATM   28  N1  UNL     1      16.692   8.655  -9.803  1.00  0.00    -0.369 N 
ATOM     29  H1  UNL     1      17.275   8.338  -9.028  1.00  0.00     0.165 HD
ENDBRANCH   7  24
TORSDOF 6
ENDMDL
MODEL 4
REMARK VINA RESULT: -6.599405851      3.397      5.393
REMARK  6 active torsions:
REMARK  status: ('A' for Active; 'I' for Inactive)
REMARK    1  A    between atoms: C2_2  and  C5_5 
REMARK    2  A    between atoms: C11_11  and  C12_12 
REMARK    3  A    between atoms: C17_19  and  C18_20 
REMARK    4  A    between atoms: C20_23  and  O1_24 
REMARK    5  A    between atoms: C20_23  and  C21_26 
REMARK    6  A    between atoms: C21_26  and  C22_27 
ROOT
HETATM    1  C5  UNL     1      20.747  14.036 -10.984  1.00  0.00     0.029 C 
HETATM    2  C6  UNL     1      21.717  14.363 -12.198  1.00  0.00     0.009 C 
HETATM    3  C7  UNL     1      22.341  12.980 -12.200  1.00  0.00     0.014 C 
HETATM    4  C8  UNL     1      21.061  12.126 -12.247  1.00  0.00    -0.001 C 
HETATM    5  C9  UNL     1      20.739  11.967 -13.732  1.00  0.00     0.014 C 
HETATM    6  C10 UNL     1      21.936  11.610 -14.581  1.00  0.00     0.011 C 
HETATM    7  C11 UNL     1      22.667  10.446 -13.968  1.00  0.00     0.036 C 
HETATM    8  C16 UNL     1      22.802  10.514 -12.506  1.00  0.00     0.020 C 
HETATM    9  C17 UNL     1      21.461  10.788 -11.760  1.00  0.00     0.021 C 
HETATM   10  C20 UNL     1      19.964  12.918 -11.653  1.00  0.00     0.080 C 
ENDROOT
BRANCH   9  11
HETATM   11  C18 UNL     1      21.950  10.716 -10.363  1.00  0.00    -0.014 C 
HETATM   12  C19 UNL     1      21.822   9.596  -9.686  1.00  0.00     0.052 C 
HETATM   13 BR1  UNL     1      21.050   7.979 -10.334  1.00  0.00    -0.064 Br
ENDBRANCH   9  11
BRANCH  10  14
HETATM   14  O1  UNL     1      19.218  13.584 -12.645  1.00  0.00    -0.388 OA
ATOM     15  H1  UNL     1      19.881  13.906 -13.244  1.00  0.00     0.210 HD
ENDBRANCH  10  14
BRANCH  10  16
HETATM   16  C21 UNL     1      19.010  12.364 -10.718  1.00  0.00     0.152 C 
BRANCH  16  17
HETATM   17  C22 UNL     1      17.893  11.532 -11.151  1.00  0.00     0.175 C 
HETATM   18  O2  UNL     1      17.880  10.358 -10.617  1.00  0.00    -0.648 OA
HETATM   19  O3  UNL     1      16.890  11.794 -12.002  1.00  0.00    -0.648 OA
ENDBRANCH  16  17
ENDBRANCH  10  16
BRANCH   1  20
HETATM   20  C2  UNL     1      20.190  15.265 -10.530  1.00  0.00    -0.045 C 
HETATM   21  C1  UNL     1      19.225  15.180  -9.389  1.00  0.00     0.015 C 
HETATM   22  C3  UNL     1      21.374  16.103  -9.986  1.00  0.00     0.015 C 
HETATM   23  C4  UNL     1      19.552  16.193 -11.541  1.00  0.00     0.015 C 
ENDBRANCH   1  20
BRANCH   7  24
HETATM   24  C12 UNL     1      24.010  10.265 -14.573  1.00  0.00     0.013 A 
HETATM   25  C13 UNL     1      25.096   9.574 -14.018  1.00  0.00     0.026 A 
HETATM   26  C14 UNL     1      26.163   9.631 -14.882  1.00  0.00     0.019 A 
HETATM   27  C15 UNL     1      25.741  10.351 -15.961  1.00  0.00     0.088 A 
HETATM   28  N1  UNL     1      24.467  10.715 -15.758  1.00  0.00    -0.369 N 
ATOM     29  H1  UNL     1      23.914  11.264 -16.416  1.00  0.00     0.165 HD
ENDBRANCH   7  24
TORSDOF 6
ENDMDL
MODEL 5
REMARK VINA RESULT: -6.391466045      3.221      5.614
REMARK  6 active torsions:
REMARK  status: ('A' for Active; 'I' for Inactive)
REMARK    1  A    between atoms: C2_2  and  C5_5 
REMARK    2  A    between atoms: C11_11  and  C12_12 
REMARK    3  A    between atoms: C17_19  and  C18_20 
REMARK    4  A    between atoms: C20_23  and  O1_24 
REMARK    5  A    between atoms: C20_23  and  C21_26 
REMARK    6  A    between atoms: C21_26  and  C22_27 
ROOT
HETATM    1  C5  UNL     1      20.273  11.313 -11.725  1.00  0.00     0.029 C 
HETATM    2  C6  UNL     1      21.579  10.861 -10.942  1.00  0.00     0.009 C 
HETATM    3  C7  UNL     1      22.331  10.496 -12.209  1.00  0.00     0.014 C 
HETATM    4  C8  UNL     1      22.138  11.800 -13.002  1.00  0.00    -0.001 C 
HETATM    5  C9  UNL     1      23.302  12.700 -12.586  1.00  0.00     0.014 C 
HETATM    6  C10 UNL     1      24.639  11.998 -12.571  1.00  0.00     0.011 C 
HETATM    7  C11 UNL     1      24.844  11.262 -13.868  1.00  0.00     0.036 C 
HETATM    8  C16 UNL     1      23.653  10.555 -14.361  1.00  0.00     0.020 C 
HETATM    9  C17 UNL     1      22.371  11.441 -14.416  1.00  0.00     0.021 C 
HETATM   10  C20 UNL     1      20.902  12.449 -12.516  1.00  0.00     0.080 C 
ENDROOT
BRANCH   9  11
HETATM   11  C18 UNL     1      21.432  10.458 -15.009  1.00  0.00    -0.014 C 
HETATM   12  C19 UNL     1      20.772  10.767 -16.104  1.00  0.00     0.052 C 
HETATM   13 BR1  UNL     1      20.902  12.409 -17.062  1.00  0.00    -0.064 Br
ENDBRANCH   9  11
BRANCH  10  14
HETATM   14  O1  UNL     1      21.184  13.419 -11.535  1.00  0.00    -0.388 OA
ATOM     15  H1  UNL     1      21.765  14.024 -11.980  1.00  0.00     0.210 HD
ENDBRANCH  10  14
BRANCH  10  16
HETATM   16  C21 UNL     1      19.916  13.029 -13.403  1.00  0.00     0.152 C 
BRANCH  16  17
HETATM   17  C22 UNL     1      19.791  14.470 -13.587  1.00  0.00     0.175 C 
HETATM   18  O2  UNL     1      20.861  15.032 -14.039  1.00  0.00    -0.648 OA
HETATM   19  O3  UNL     1      18.754  15.290 -13.365  1.00  0.00    -0.648 OA
ENDBRANCH  16  17
ENDBRANCH  10  16
BRANCH   1  20
HETATM   20  C2  UNL     1      19.226  11.463 -10.773  1.00  0.00    -0.045 C 
HETATM   21  C1  UNL     1      17.893  10.896 -11.151  1.00  0.00     0.015 C 
HETATM   22  C3  UNL     1      19.658  10.656  -9.523  1.00  0.00     0.015 C 
HETATM   23  C4  UNL     1      18.944  12.839 -10.211  1.00  0.00     0.015 C 
ENDBRANCH   1  20
BRANCH   7  24
HETATM   24  C12 UNL     1      25.975  10.306 -13.781  1.00  0.00     0.013 A 
HETATM   25  C13 UNL     1      26.329   9.333 -14.726  1.00  0.00     0.026 A 
HETATM   26  C14 UNL     1      27.434   8.646 -14.282  1.00  0.00     0.019 A 
HETATM   27  C15 UNL     1      27.760   9.190 -13.073  1.00  0.00     0.088 A 
HETATM   28  N1  UNL     1      26.886  10.167 -12.797  1.00  0.00    -0.369 N 
ATOM     29  H1  UNL     1      26.907  10.734 -11.949  1.00  0.00     0.165 HD
ENDBRANCH   7  24
TORSDOF 6
ENDMDL
