MODEL 1
REMARK VINA RESULT: -7.265692707      0.000      0.000
REMARK  5 active torsions:
REMARK  status: ('A' for Active; 'I' for Inactive)
REMARK    1  A    between atoms: C2_2  and  O1_3 
REMARK    2  A    between atoms: O1_3  and  C3_4 
REMARK    3  A    between atoms: C13_15  and  O2_16 
REMARK    4  A    between atoms: C18_22  and  C19_23 
REMARK    5  A    between atoms: C24_28  and  O3_29 
ROOT
HETATM    1  C3  UNL     1      20.606  15.667 -12.776  1.00  0.00     0.076 C 
HETATM    2  C4  UNL     1      20.137  16.836 -13.514  1.00  0.00     0.041 C 
HETATM    3  C5  UNL     1      19.414  17.795 -12.571  1.00  0.00     0.024 C 
HETATM    4  C6  UNL     1      19.731  17.314 -11.185  1.00  0.00     0.093 C 
HETATM    5 CL1  UNL     1      20.405  18.653 -10.179  1.00  0.00    -0.124 Cl
HETATM    6  C7  UNL     1      20.853  16.384 -11.437  1.00  0.00     0.004 C 
HETATM    7  C8  UNL     1      22.068  17.302 -11.693  1.00  0.00     0.020 C 
HETATM    8  C9  UNL     1      21.222  15.450 -10.397  1.00  0.00     0.014 C 
HETATM    9  C10 UNL     1      20.403  14.187 -10.272  1.00  0.00     0.007 C 
HETATM   10  C11 UNL     1      20.177  13.515 -11.600  1.00  0.00     0.004 C 
HETATM   11  C12 UNL     1      19.693  14.486 -12.670  1.00  0.00     0.054 C 
HETATM   12  C13 UNL     1      18.236  14.726 -12.656  1.00  0.00     0.126 C 
HETATM   13  C14 UNL     1      17.539  13.381 -12.814  1.00  0.00     0.037 C 
HETATM   14  C15 UNL     1      17.891  12.591 -11.638  1.00  0.00    -0.003 C 
HETATM   15  C16 UNL     1      17.223  11.271 -11.571  1.00  0.00     0.006 C 
HETATM   16  C17 UNL     1      18.076  10.584 -10.535  1.00  0.00     0.006 C 
HETATM   17  C18 UNL     1      19.298  11.468 -10.340  1.00  0.00     0.001 C 
HETATM   18  C25 UNL     1      19.392  12.246 -11.542  1.00  0.00    -0.032 C 
HETATM   19  C26 UNL     1      19.662  11.482 -12.823  1.00  0.00     0.016 C 
ENDROOT
BRANCH  17  20
HETATM   20  C19 UNL     1      20.325  10.645  -9.684  1.00  0.00     0.019 C 
HETATM   21  C20 UNL     1      21.714  10.644 -10.177  1.00  0.00     0.007 C 
HETATM   22  C21 UNL     1      22.212   9.458 -10.915  1.00  0.00     0.001 C 
HETATM   23  C22 UNL     1      21.716   8.181 -10.342  1.00  0.00     0.002 C 
HETATM   24  C23 UNL     1      20.208   8.169 -10.226  1.00  0.00     0.032 C 
HETATM   25  C24 UNL     1      19.750   9.282  -9.344  1.00  0.00     0.122 C 
BRANCH  25  26
HETATM   26  O3  UNL     1      20.013   8.877  -8.029  1.00  0.00    -0.395 OA
ATOM     27  H3  UNL     1      19.605   8.051  -7.798  1.00  0.00     0.210 HD
ENDBRANCH  25  26
ENDBRANCH  17  20
BRANCH   1  28
HETATM   28  O1  UNL     1      21.855  15.254 -13.117  1.00  0.00    -0.379 OA
BRANCH  28  29
HETATM   29  C2  UNL     1      22.188  14.655 -14.245  1.00  0.00     0.164 C 
HETATM   30  C1  UNL     1      22.857  13.325 -14.255  1.00  0.00     0.033 C 
ENDBRANCH  28  29
ENDBRANCH   1  28
BRANCH  12  31
HETATM   31  O2  UNL     1      17.758  15.329 -13.822  1.00  0.00    -0.395 OA
ATOM     32  H2  UNL     1      17.279  14.736 -14.388  1.00  0.00     0.210 HD
ENDBRANCH  12  31
TORSDOF 5
ENDMDL
MODEL 2
REMARK VINA RESULT: -6.927172594      2.662      6.917
REMARK  5 active torsions:
REMARK  status: ('A' for Active; 'I' for Inactive)
REMARK    1  A    between atoms: C2_2  and  O1_3 
REMARK    2  A    between atoms: O1_3  and  C3_4 
REMARK    3  A    between atoms: C13_15  and  O2_16 
REMARK    4  A    between atoms: C18_22  and  C19_23 
REMARK    5  A    between atoms: C24_28  and  O3_29 
ROOT
HETATM    1  C3  UNL     1      20.950  11.251 -12.126  1.00  0.00     0.076 C 
HETATM    2  C4  UNL     1      21.432   9.873 -12.129  1.00  0.00     0.041 C 
HETATM    3  C5  UNL     1      21.769   9.435 -10.705  1.00  0.00     0.024 C 
HETATM    4  C6  UNL     1      21.184  10.487  -9.809  1.00  0.00     0.093 C 
HETATM    5 CL1  UNL     1      20.115   9.743  -8.559  1.00  0.00    -0.124 Cl
HETATM    6  C7  UNL     1      20.289  11.211 -10.737  1.00  0.00     0.004 C 
HETATM    7  C8  UNL     1      19.067  10.281 -10.903  1.00  0.00     0.020 C 
HETATM    8  C9  UNL     1      19.797  12.514 -10.347  1.00  0.00     0.014 C 
HETATM    9  C10 UNL     1      20.716  13.695 -10.552  1.00  0.00     0.007 C 
HETATM   10  C11 UNL     1      21.349  13.699 -11.919  1.00  0.00     0.004 C 
HETATM   11  C12 UNL     1      21.953  12.350 -12.286  1.00  0.00     0.054 C 
HETATM   12  C13 UNL     1      23.318  12.135 -11.765  1.00  0.00     0.126 C 
HETATM   13  C14 UNL     1      24.200  13.263 -12.282  1.00  0.00     0.037 C 
HETATM   14  C15 UNL     1      23.673  14.498 -11.709  1.00  0.00    -0.003 C 
HETATM   15  C16 UNL     1      24.468  15.705 -12.031  1.00  0.00     0.006 C 
HETATM   16  C17 UNL     1      23.481  16.787 -11.673  1.00  0.00     0.006 C 
HETATM   17  C18 UNL     1      22.145  16.090 -11.468  1.00  0.00     0.001 C 
HETATM   18  C25 UNL     1      22.253  14.857 -12.194  1.00  0.00    -0.032 C 
HETATM   19  C26 UNL     1      22.408  14.967 -13.697  1.00  0.00     0.016 C 
ENDROOT
BRANCH  17  20
HETATM   20  C19 UNL     1      21.104  17.125 -11.544  1.00  0.00     0.019 C 
HETATM   21  C20 UNL     1      19.682  16.752 -11.655  1.00  0.00     0.007 C 
HETATM   22  C21 UNL     1      18.993  16.933 -12.956  1.00  0.00     0.001 C 
HETATM   23  C22 UNL     1      19.403  18.182 -13.648  1.00  0.00     0.002 C 
HETATM   24  C23 UNL     1      20.905  18.270 -13.799  1.00  0.00     0.032 C 
HETATM   25  C24 UNL     1      21.560  18.247 -12.458  1.00  0.00     0.122 C 
BRANCH  25  26
HETATM   26  O3  UNL     1      21.381  19.522 -11.909  1.00  0.00    -0.395 OA
ATOM     27  H3  UNL     1      21.585  20.227 -12.513  1.00  0.00     0.210 HD
ENDBRANCH  25  26
ENDBRANCH  17  20
BRANCH   1  28
HETATM   28  O1  UNL     1      19.888  11.474 -12.945  1.00  0.00    -0.379 OA
BRANCH  28  29
HETATM   29  C2  UNL     1      19.953  11.903 -14.191  1.00  0.00     0.164 C 
HETATM   30  C1  UNL     1      19.085  13.009 -14.682  1.00  0.00     0.033 C 
ENDBRANCH  28  29
ENDBRANCH   1  28
BRANCH  12  31
HETATM   31  O2  UNL     1      23.988  11.071 -12.375  1.00  0.00    -0.395 OA
ATOM     32  H2  UNL     1      24.581  10.612 -11.793  1.00  0.00     0.210 HD
ENDBRANCH  12  31
TORSDOF 5
ENDMDL
MODEL 3
REMARK VINA RESULT: -6.916779269      1.892      2.607
REMARK  5 active torsions:
REMARK  status: ('A' for Active; 'I' for Inactive)
REMARK    1  A    between atoms: C2_2  and  O1_3 
REMARK    2  A    between atoms: O1_3  and  C3_4 
REMARK    3  A    between atoms: C13_15  and  O2_16 
REMARK    4  A    between atoms: C18_22  and  C19_23 
REMARK    5  A    between atoms: C24_28  and  O3_29 
ROOT
HETATM    1  C3  UNL     1      22.862  14.250 -14.161  1.00  0.00     0.076 C 
HETATM    2  C4  UNL     1      22.881  15.365 -15.103  1.00  0.00     0.041 C 
HETATM    3  C5  UNL     1      23.095  16.679 -14.354  1.00  0.00     0.024 C 
HETATM    4  C6  UNL     1      23.512  16.289 -12.966  1.00  0.00     0.093 C 
HETATM    5 CL1  UNL     1      25.055  17.105 -12.507  1.00  0.00    -0.124 Cl
HETATM    6  C7  UNL     1      23.839  14.858 -13.139  1.00  0.00     0.004 C 
HETATM    7  C8  UNL     1      25.211  14.856 -13.848  1.00  0.00     0.020 C 
HETATM    8  C9  UNL     1      23.954  14.028 -11.960  1.00  0.00     0.014 C 
HETATM    9  C10 UNL     1      22.676  13.507 -11.347  1.00  0.00     0.007 C 
HETATM   10  C11 UNL     1      21.742  12.925 -12.375  1.00  0.00     0.004 C 
HETATM   11  C12 UNL     1      21.546  13.846 -13.572  1.00  0.00     0.054 C 
HETATM   12  C13 UNL     1      20.518  14.887 -13.374  1.00  0.00     0.126 C 
HETATM   13  C14 UNL     1      19.208  14.192 -13.026  1.00  0.00     0.037 C 
HETATM   14  C15 UNL     1      19.427  13.506 -11.757  1.00  0.00    -0.003 C 
HETATM   15  C16 UNL     1      18.222  12.842 -11.209  1.00  0.00     0.006 C 
HETATM   16  C17 UNL     1      18.851  11.930 -10.187  1.00  0.00     0.006 C 
HETATM   17  C18 UNL     1      20.346  11.956 -10.460  1.00  0.00     0.001 C 
HETATM   18  C25 UNL     1      20.467  12.369 -11.830  1.00  0.00    -0.032 C 
HETATM   19  C26 UNL     1      19.895  11.431 -12.873  1.00  0.00     0.016 C 
ENDROOT
BRANCH  17  20
HETATM   20  C19 UNL     1      20.927  10.784  -9.790  1.00  0.00     0.019 C 
HETATM   21  C20 UNL     1      22.100  10.097 -10.360  1.00  0.00     0.007 C 
HETATM   22  C21 UNL     1      21.911   8.775 -11.008  1.00  0.00     0.001 C 
HETATM   23  C22 UNL     1      20.933   7.921 -10.286  1.00  0.00     0.002 C 
HETATM   24  C23 UNL     1      19.615   8.633 -10.082  1.00  0.00     0.032 C 
HETATM   25  C24 UNL     1      19.818   9.879  -9.286  1.00  0.00     0.122 C 
BRANCH  25  26
HETATM   26  O3  UNL     1      19.988   9.474  -7.956  1.00  0.00    -0.395 OA
ATOM     27  H3  UNL     1      20.742   9.868  -7.533  1.00  0.00     0.210 HD
ENDBRANCH  25  26
ENDBRANCH  17  20
BRANCH   1  28
HETATM   28  O1  UNL     1      23.534  13.148 -14.584  1.00  0.00    -0.379 OA
BRANCH  28  29
HETATM   29  C2  UNL     1      23.116  12.293 -15.498  1.00  0.00     0.164 C 
HETATM   30  C1  UNL     1      23.021  10.834 -15.217  1.00  0.00     0.033 C 
ENDBRANCH  28  29
ENDBRANCH   1  28
BRANCH  12  31
HETATM   31  O2  UNL     1      20.104  15.497 -14.560  1.00  0.00    -0.395 OA
ATOM     32  H2  UNL     1      20.742  15.438 -15.261  1.00  0.00     0.210 HD
ENDBRANCH  12  31
TORSDOF 5
ENDMDL
MODEL 4
REMARK VINA RESULT: -6.750264196      3.927      6.430
REMARK  5 active torsions:
REMARK  status: ('A' for Active; 'I' for Inactive)
REMARK    1  A    between atoms: C2_2  and  O1_3 
REMARK    2  A    between atoms: O1_3  and  C3_4 
REMARK    3  A    between atoms: C13_15  and  O2_16 
REMARK    4  A    between atoms: C18_22  and  C19_23 
REMARK    5  A    between atoms: C24_28  and  O3_29 
ROOT
HETATM    1  C3  UNL     1      25.274  11.359 -15.384  1.00  0.00     0.076 C 
HETATM    2  C4  UNL     1      26.514  11.882 -15.949  1.00  0.00     0.041 C 
HETATM    3  C5  UNL     1      27.687  11.557 -15.027  1.00  0.00     0.024 C 
HETATM    4  C6  UNL     1      27.159  10.555 -14.042  1.00  0.00     0.093 C 
HETATM    5 CL1  UNL     1      28.207   9.085 -13.999  1.00  0.00    -0.124 Cl
HETATM    6  C7  UNL     1      25.893  10.139 -14.681  1.00  0.00     0.004 C 
HETATM    7  C8  UNL     1      26.327   9.196 -15.825  1.00  0.00     0.020 C 
HETATM    8  C9  UNL     1      24.914   9.435 -13.883  1.00  0.00     0.014 C 
HETATM    9  C10 UNL     1      24.017  10.262 -12.992  1.00  0.00     0.007 C 
HETATM   10  C11 UNL     1      23.433  11.450 -13.711  1.00  0.00     0.004 C 
HETATM   11  C12 UNL     1      24.485  12.246 -14.472  1.00  0.00     0.054 C 
HETATM   12  C13 UNL     1      25.214  13.230 -13.648  1.00  0.00     0.126 C 
HETATM   13  C14 UNL     1      24.191  14.171 -13.027  1.00  0.00     0.037 C 
HETATM   14  C15 UNL     1      23.357  13.357 -12.149  1.00  0.00    -0.003 C 
HETATM   15  C16 UNL     1      22.351  14.126 -11.380  1.00  0.00     0.006 C 
HETATM   16  C17 UNL     1      21.437  13.013 -10.933  1.00  0.00     0.006 C 
HETATM   17  C18 UNL     1      21.848  11.784 -11.728  1.00  0.00     0.001 C 
HETATM   18  C25 UNL     1      22.515  12.297 -12.890  1.00  0.00    -0.032 C 
HETATM   19  C26 UNL     1      21.674  13.118 -13.847  1.00  0.00     0.016 C 
ENDROOT
BRANCH  17  20
HETATM   20  C19 UNL     1      20.737  10.825 -11.643  1.00  0.00     0.019 C 
HETATM   21  C20 UNL     1      19.341  11.280 -11.778  1.00  0.00     0.007 C 
HETATM   22  C21 UNL     1      18.484  11.333 -10.568  1.00  0.00     0.001 C 
HETATM   23  C22 UNL     1      18.718  10.186  -9.654  1.00  0.00     0.002 C 
HETATM   24  C23 UNL     1      20.180  10.049  -9.293  1.00  0.00     0.032 C 
HETATM   25  C24 UNL     1      20.997   9.835 -10.523  1.00  0.00     0.122 C 
BRANCH  25  26
HETATM   26  O3  UNL     1      20.801   8.501 -10.900  1.00  0.00    -0.395 OA
ATOM     27  H3  UNL     1      21.607   8.042 -11.107  1.00  0.00     0.210 HD
ENDBRANCH  25  26
ENDBRANCH  17  20
BRANCH   1  28
HETATM   28  O1  UNL     1      24.445  10.780 -16.292  1.00  0.00    -0.379 OA
BRANCH  28  29
HETATM   29  C2  UNL     1      23.718  11.418 -17.189  1.00  0.00     0.164 C 
HETATM   30  C1  UNL     1      22.252  11.186 -17.314  1.00  0.00     0.033 C 
ENDBRANCH  28  29
ENDBRANCH   1  28
BRANCH  12  31
HETATM   31  O2  UNL     1      25.917  14.176 -14.398  1.00  0.00    -0.395 OA
ATOM     32  H2  UNL     1      25.391  14.598 -15.066  1.00  0.00     0.210 HD
ENDBRANCH  12  31
TORSDOF 5
ENDMDL
MODEL 5
REMARK VINA RESULT: -6.682443391      3.189      5.238
REMARK  5 active torsions:
REMARK  status: ('A' for Active; 'I' for Inactive)
REMARK    1  A    between atoms: C2_2  and  O1_3 
REMARK    2  A    between atoms: O1_3  and  C3_4 
REMARK    3  A    between atoms: C13_15  and  O2_16 
REMARK    4  A    between atoms: C18_22  and  C19_23 
REMARK    5  A    between atoms: C24_28  and  O3_29 
ROOT
HETATM    1  C3  UNL     1      23.653  11.813 -15.376  1.00  0.00     0.076 C 
HETATM    2  C4  UNL     1      24.430  12.693 -16.245  1.00  0.00     0.041 C 
HETATM    3  C5  UNL     1      25.760  13.042 -15.581  1.00  0.00     0.024 C 
HETATM    4  C6  UNL     1      25.892  12.099 -14.421  1.00  0.00     0.093 C 
HETATM    5 CL1  UNL     1      27.468  11.220 -14.485  1.00  0.00    -0.124 Cl
HETATM    6  C7  UNL     1      24.849  11.096 -14.726  1.00  0.00     0.004 C 
HETATM    7  C8  UNL     1      25.458  10.232 -15.852  1.00  0.00     0.020 C 
HETATM    8  C9  UNL     1      24.421  10.203 -13.672  1.00  0.00     0.014 C 
HETATM    9  C10 UNL     1      23.412  10.729 -12.680  1.00  0.00     0.007 C 
HETATM   10  C11 UNL     1      22.259  11.429 -13.350  1.00  0.00     0.004 C 
HETATM   11  C12 UNL     1      22.717  12.442 -14.391  1.00  0.00     0.054 C 
HETATM   12  C13 UNL     1      23.068  13.764 -13.837  1.00  0.00     0.126 C 
HETATM   13  C14 UNL     1      21.852  14.295 -13.088  1.00  0.00     0.037 C 
HETATM   14  C15 UNL     1      21.613  13.375 -11.981  1.00  0.00    -0.003 C 
HETATM   15  C16 UNL     1      20.513  13.785 -11.077  1.00  0.00     0.006 C 
HETATM   16  C17 UNL     1      20.264  12.491 -10.344  1.00  0.00     0.006 C 
HETATM   17  C18 UNL     1      21.034  11.421 -11.101  1.00  0.00     0.001 C 
HETATM   18  C25 UNL     1      21.211  11.953 -12.423  1.00  0.00    -0.032 C 
HETATM   19  C26 UNL     1      19.952  12.178 -13.236  1.00  0.00     0.016 C 
ENDROOT
BRANCH  17  20
HETATM   20  C19 UNL     1      20.484  10.122 -10.690  1.00  0.00     0.019 C 
HETATM   21  C20 UNL     1      19.207  10.046  -9.957  1.00  0.00     0.007 C 
HETATM   22  C21 UNL     1      19.230   9.722  -8.509  1.00  0.00     0.001 C 
HETATM   23  C22 UNL     1      20.246   8.692  -8.172  1.00  0.00     0.002 C 
HETATM   24  C23 UNL     1      21.619   9.076  -8.676  1.00  0.00     0.032 C 
HETATM   25  C24 UNL     1      21.597   9.237 -10.160  1.00  0.00     0.122 C 
BRANCH  25  26
HETATM   26  O3  UNL     1      21.586   7.944 -10.697  1.00  0.00    -0.395 OA
ATOM     27  H3  UNL     1      21.018   7.343 -10.229  1.00  0.00     0.210 HD
ENDBRANCH  25  26
ENDBRANCH  17  20
BRANCH   1  28
HETATM   28  O1  UNL     1      23.025  10.797 -16.024  1.00  0.00    -0.379 OA
BRANCH  28  29
HETATM   29  C2  UNL     1      22.151  10.932 -17.003  1.00  0.00     0.164 C 
HETATM   30  C1  UNL     1      20.693  11.069 -16.734  1.00  0.00     0.033 C 
ENDBRANCH  28  29
ENDBRANCH   1  28
BRANCH  12  31
HETATM   31  O2  UNL     1      23.153  14.770 -14.803  1.00  0.00    -0.395 OA
ATOM     32  H2  UNL     1      22.487  14.708 -15.477  1.00  0.00     0.210 HD
ENDBRANCH  12  31
TORSDOF 5
ENDMDL
