MODEL 1
REMARK VINA RESULT: -8.482638338      0.000      0.000
REMARK  4 active torsions:
REMARK  status: ('A' for Active; 'I' for Inactive)
REMARK    1  A    between atoms: C2_2  and  C3_3 
REMARK    2  A    between atoms: C7_7  and  N1_8 
REMARK    3  A    between atoms: C14_19  and  C15_20 
REMARK    4  A    between atoms: C16_21  and  C17_22 
ROOT
HETATM    1  C3  UNL     1     -16.087  -1.542  59.413  1.00  0.00     0.011 A 
HETATM    2  C4  UNL     1     -16.872  -2.649  59.706  1.00  0.00     0.033 A 
HETATM    3  C5  UNL     1     -17.288  -3.500  58.712  1.00  0.00    -0.039 A 
HETATM    4  C6  UNL     1     -16.918  -3.244  57.415  1.00  0.00    -0.003 A 
HETATM    5  C7  UNL     1     -16.124  -2.115  57.155  1.00  0.00     0.106 A 
HETATM    6  N2  UNL     1     -15.725  -1.291  58.146  1.00  0.00    -0.346 N 
ATOM      7  H2  UNL     1     -15.148  -0.478  57.932  1.00  0.00     0.167 HD
HETATM    8  C8  UNL     1     -17.185  -3.935  56.164  1.00  0.00     0.032 C 
HETATM    9  C9  UNL     1     -16.007  -4.833  55.853  1.00  0.00     0.011 C 
HETATM   10  C10 UNL     1     -16.333  -5.990  54.982  1.00  0.00     0.018 C 
HETATM   11  C11 UNL     1     -17.372  -5.696  53.914  1.00  0.00    -0.001 C 
HETATM   12  C12 UNL     1     -16.744  -4.768  52.910  1.00  0.00     0.024 C 
HETATM   13  C13 UNL     1     -17.783  -6.938  53.251  1.00  0.00    -0.006 C 
HETATM   14  C14 UNL     1     -18.909  -6.897  52.463  1.00  0.00    -0.056 C 
HETATM   15  C20 UNL     1     -19.666  -5.608  52.453  1.00  0.00     0.089 C 
HETATM   16  C21 UNL     1     -19.680  -5.059  53.877  1.00  0.00     0.020 C 
HETATM   17 CL1  UNL     1     -21.148  -4.397  54.531  1.00  0.00    -0.088 Cl
HETATM   18  C22 UNL     1     -18.562  -5.102  54.591  1.00  0.00    -0.045 C 
HETATM   19  C23 UNL     1     -18.504  -4.580  55.982  1.00  0.00     0.032 C 
HETATM   20  C24 UNL     1     -18.924  -5.634  56.915  1.00  0.00     0.088 C 
HETATM   21  C25 UNL     1     -19.184  -4.993  58.253  1.00  0.00     0.131 C 
HETATM   22  O1  UNL     1     -20.302  -4.771  58.609  1.00  0.00    -0.298 OA
HETATM   23  C26 UNL     1     -18.104  -4.607  59.189  1.00  0.00     0.117 C 
ENDROOT
BRANCH  14  24
HETATM   24  C15 UNL     1     -19.326  -8.104  51.809  1.00  0.00     0.003 C 
HETATM   25  C16 UNL     1     -18.410  -9.042  51.198  1.00  0.00    -0.022 C 
BRANCH  25  26
HETATM   26  C17 UNL     1     -17.505  -8.702  50.081  1.00  0.00    -0.000 C 
HETATM   27  C18 UNL     1     -17.678  -9.939  49.107  1.00  0.00     0.013 C 
HETATM   28  C19 UNL     1     -16.023  -8.759  50.356  1.00  0.00     0.013 C 
ENDBRANCH  25  26
ENDBRANCH  14  24
BRANCH   5  29
HETATM   29  N1  UNL     1     -15.761  -1.842  55.950  1.00  0.00    -0.385 N 
ATOM     30  H12 UNL     1     -16.477  -1.819  55.223  1.00  0.00     0.157 HD
ATOM     31  H11 UNL     1     -14.781  -1.657  55.738  1.00  0.00     0.157 HD
ENDBRANCH   5  29
BRANCH   1  32
HETATM   32  C2  UNL     1     -15.645  -0.635  60.488  1.00  0.00     0.052 C 
HETATM   33  C1  UNL     1     -15.211   0.685  59.923  1.00  0.00     0.011 C 
ENDBRANCH   1  32
TORSDOF 4
ENDMDL
MODEL 2
REMARK VINA RESULT: -8.221030156      5.109      8.260
REMARK  4 active torsions:
REMARK  status: ('A' for Active; 'I' for Inactive)
REMARK    1  A    between atoms: C2_2  and  C3_3 
REMARK    2  A    between atoms: C7_7  and  N1_8 
REMARK    3  A    between atoms: C14_19  and  C15_20 
REMARK    4  A    between atoms: C16_21  and  C17_22 
ROOT
HETATM    1  C3  UNL     1     -26.904  -2.779  52.079  1.00  0.00     0.011 A 
HETATM    2  C4  UNL     1     -26.078  -1.987  52.864  1.00  0.00     0.033 A 
HETATM    3  C5  UNL     1     -24.753  -2.304  53.036  1.00  0.00    -0.039 A 
HETATM    4  C6  UNL     1     -24.249  -3.422  52.420  1.00  0.00    -0.003 A 
HETATM    5  C7  UNL     1     -25.113  -4.201  51.634  1.00  0.00     0.106 A 
HETATM    6  N2  UNL     1     -26.412  -3.872  51.476  1.00  0.00    -0.346 N 
ATOM      7  H2  UNL     1     -27.020  -4.453  50.900  1.00  0.00     0.167 HD
HETATM    8  C8  UNL     1     -22.922  -4.017  52.400  1.00  0.00     0.032 C 
HETATM    9  C9  UNL     1     -22.208  -3.551  51.150  1.00  0.00     0.011 C 
HETATM   10  C10 UNL     1     -20.728  -3.573  51.247  1.00  0.00     0.018 C 
HETATM   11  C11 UNL     1     -20.171  -4.732  52.057  1.00  0.00    -0.001 C 
HETATM   12  C12 UNL     1     -20.412  -5.993  51.274  1.00  0.00     0.024 C 
HETATM   13  C13 UNL     1     -18.732  -4.552  52.277  1.00  0.00    -0.006 C 
HETATM   14  C14 UNL     1     -18.127  -5.350  53.219  1.00  0.00    -0.056 C 
HETATM   15  C20 UNL     1     -19.027  -6.246  54.008  1.00  0.00     0.089 C 
HETATM   16  C21 UNL     1     -20.299  -5.468  54.333  1.00  0.00     0.020 C 
HETATM   17 CL1  UNL     1     -20.984  -5.563  55.926  1.00  0.00    -0.088 Cl
HETATM   18  C22 UNL     1     -20.858  -4.729  53.382  1.00  0.00    -0.045 C 
HETATM   19  C23 UNL     1     -22.101  -3.951  53.628  1.00  0.00     0.032 C 
HETATM   20  C24 UNL     1     -21.751  -2.638  54.189  1.00  0.00     0.088 C 
HETATM   21  C25 UNL     1     -23.007  -2.018  54.740  1.00  0.00     0.131 C 
HETATM   22  O1  UNL     1     -23.221  -2.030  55.915  1.00  0.00    -0.298 OA
HETATM   23  C26 UNL     1     -24.031  -1.371  53.889  1.00  0.00     0.117 C 
ENDROOT
BRANCH  14  24
HETATM   24  C15 UNL     1     -16.720  -5.184  53.448  1.00  0.00     0.003 C 
HETATM   25  C16 UNL     1     -16.152  -4.842  54.733  1.00  0.00    -0.022 C 
BRANCH  25  26
HETATM   26  C17 UNL     1     -16.459  -3.596  55.465  1.00  0.00    -0.000 C 
HETATM   27  C18 UNL     1     -15.267  -3.503  56.504  1.00  0.00     0.013 C 
HETATM   28  C19 UNL     1     -17.648  -3.619  56.393  1.00  0.00     0.013 C 
ENDBRANCH  25  26
ENDBRANCH  14  24
BRANCH   5  29
HETATM   29  N1  UNL     1     -24.675  -5.259  51.044  1.00  0.00    -0.385 N 
ATOM     30  H12 UNL     1     -23.679  -5.472  51.108  1.00  0.00     0.157 HD
ATOM     31  H11 UNL     1     -25.316  -5.860  50.526  1.00  0.00     0.157 HD
ENDBRANCH   5  29
BRANCH   1  32
HETATM   32  C2  UNL     1     -28.325  -2.429  51.900  1.00  0.00     0.052 C 
HETATM   33  C1  UNL     1     -29.104  -3.610  51.403  1.00  0.00     0.011 C 
ENDBRANCH   1  32
TORSDOF 4
ENDMDL
MODEL 3
REMARK VINA RESULT: -8.214429495      4.671      7.347
REMARK  4 active torsions:
REMARK  status: ('A' for Active; 'I' for Inactive)
REMARK    1  A    between atoms: C2_2  and  C3_3 
REMARK    2  A    between atoms: C7_7  and  N1_8 
REMARK    3  A    between atoms: C14_19  and  C15_20 
REMARK    4  A    between atoms: C16_21  and  C17_22 
ROOT
HETATM    1  C3  UNL     1     -26.361  -2.585  53.929  1.00  0.00     0.011 A 
HETATM    2  C4  UNL     1     -25.340  -1.981  54.649  1.00  0.00     0.033 A 
HETATM    3  C5  UNL     1     -24.038  -2.396  54.508  1.00  0.00    -0.039 A 
HETATM    4  C6  UNL     1     -23.754  -3.422  53.641  1.00  0.00    -0.003 A 
HETATM    5  C7  UNL     1     -24.812  -4.010  52.930  1.00  0.00     0.106 A 
HETATM    6  N2  UNL     1     -26.085  -3.588  53.082  1.00  0.00    -0.346 N 
ATOM      7  H2  UNL     1     -26.836  -4.031  52.554  1.00  0.00     0.167 HD
HETATM    8  C8  UNL     1     -22.510  -4.078  53.271  1.00  0.00     0.032 C 
HETATM    9  C9  UNL     1     -22.001  -3.450  51.992  1.00  0.00     0.011 C 
HETATM   10  C10 UNL     1     -20.536  -3.571  51.792  1.00  0.00     0.018 C 
HETATM   11  C11 UNL     1     -19.941  -4.877  52.292  1.00  0.00    -0.001 C 
HETATM   12  C12 UNL     1     -20.430  -5.975  51.387  1.00  0.00     0.024 C 
HETATM   13  C13 UNL     1     -18.477  -4.816  52.250  1.00  0.00    -0.006 C 
HETATM   14  C14 UNL     1     -17.779  -5.792  52.922  1.00  0.00    -0.056 C 
HETATM   15  C20 UNL     1     -18.592  -6.755  53.726  1.00  0.00     0.089 C 
HETATM   16  C21 UNL     1     -19.711  -5.973  54.408  1.00  0.00     0.020 C 
HETATM   17 CL1  UNL     1     -20.096  -6.294  56.072  1.00  0.00    -0.088 Cl
HETATM   18  C22 UNL     1     -20.370  -5.057  53.710  1.00  0.00    -0.045 C 
HETATM   19  C23 UNL     1     -21.474  -4.262  54.310  1.00  0.00     0.032 C 
HETATM   20  C24 UNL     1     -20.914  -3.083  54.986  1.00  0.00     0.088 C 
HETATM   21  C25 UNL     1     -21.989  -2.494  55.860  1.00  0.00     0.131 C 
HETATM   22  O1  UNL     1     -21.983  -2.690  57.038  1.00  0.00    -0.298 OA
HETATM   23  C26 UNL     1     -23.093  -1.659  55.335  1.00  0.00     0.117 C 
ENDROOT
BRANCH  14  24
HETATM   24  C15 UNL     1     -16.345  -5.745  52.894  1.00  0.00     0.003 C 
HETATM   25  C16 UNL     1     -15.519  -5.773  54.080  1.00  0.00    -0.022 C 
BRANCH  25  26
HETATM   26  C17 UNL     1     -15.571  -4.753  55.147  1.00  0.00    -0.000 C 
HETATM   27  C18 UNL     1     -14.135  -4.865  55.804  1.00  0.00     0.013 C 
HETATM   28  C19 UNL     1     -16.454  -5.045  56.335  1.00  0.00     0.013 C 
ENDBRANCH  25  26
ENDBRANCH  14  24
BRANCH   5  29
HETATM   29  N1  UNL     1     -24.584  -4.978  52.111  1.00  0.00    -0.385 N 
ATOM     30  H12 UNL     1     -23.698  -4.984  51.604  1.00  0.00     0.157 HD
ATOM     31  H11 UNL     1     -25.278  -5.713  51.979  1.00  0.00     0.157 HD
ENDBRANCH   5  29
BRANCH   1  32
HETATM   32  C2  UNL     1     -27.755  -2.132  54.088  1.00  0.00     0.052 C 
HETATM   33  C1  UNL     1     -28.696  -3.300  54.086  1.00  0.00     0.011 C 
ENDBRANCH   1  32
TORSDOF 4
ENDMDL
MODEL 4
REMARK VINA RESULT: -7.774256896      4.761      6.969
REMARK  4 active torsions:
REMARK  status: ('A' for Active; 'I' for Inactive)
REMARK    1  A    between atoms: C2_2  and  C3_3 
REMARK    2  A    between atoms: C7_7  and  N1_8 
REMARK    3  A    between atoms: C14_19  and  C15_20 
REMARK    4  A    between atoms: C16_21  and  C17_22 
ROOT
HETATM    1  C3  UNL     1     -26.432  -2.395  54.035  1.00  0.00     0.011 A 
HETATM    2  C4  UNL     1     -25.368  -1.829  54.722  1.00  0.00     0.033 A 
HETATM    3  C5  UNL     1     -24.086  -2.287  54.540  1.00  0.00    -0.039 A 
HETATM    4  C6  UNL     1     -23.866  -3.321  53.663  1.00  0.00    -0.003 A 
HETATM    5  C7  UNL     1     -24.965  -3.870  52.985  1.00  0.00     0.106 A 
HETATM    6  N2  UNL     1     -26.217  -3.405  53.178  1.00  0.00    -0.346 N 
ATOM      7  H2  UNL     1     -27.000  -3.820  52.673  1.00  0.00     0.167 HD
HETATM    8  C8  UNL     1     -22.657  -4.018  53.253  1.00  0.00     0.032 C 
HETATM    9  C9  UNL     1     -22.168  -3.405  51.959  1.00  0.00     0.011 C 
HETATM   10  C10 UNL     1     -20.714  -3.575  51.713  1.00  0.00     0.018 C 
HETATM   11  C11 UNL     1     -20.150  -4.903  52.191  1.00  0.00    -0.001 C 
HETATM   12  C12 UNL     1     -20.704  -5.980  51.301  1.00  0.00     0.024 C 
HETATM   13  C13 UNL     1     -18.686  -4.892  52.104  1.00  0.00    -0.006 C 
HETATM   14  C14 UNL     1     -18.002  -5.893  52.752  1.00  0.00    -0.056 C 
HETATM   15  C20 UNL     1     -18.822  -6.830  53.579  1.00  0.00     0.089 C 
HETATM   16  C21 UNL     1     -19.891  -6.011  54.298  1.00  0.00     0.020 C 
HETATM   17 CL1  UNL     1     -20.234  -6.323  55.972  1.00  0.00    -0.088 Cl
HETATM   18  C22 UNL     1     -20.539  -5.071  53.622  1.00  0.00    -0.045 C 
HETATM   19  C23 UNL     1     -21.596  -4.241  54.258  1.00  0.00     0.032 C 
HETATM   20  C24 UNL     1     -20.975  -3.083  54.917  1.00  0.00     0.088 C 
HETATM   21  C25 UNL     1     -22.001  -2.460  55.827  1.00  0.00     0.131 C 
HETATM   22  O1  UNL     1     -21.964  -2.659  57.003  1.00  0.00    -0.298 OA
HETATM   23  C26 UNL     1     -23.091  -1.586  55.337  1.00  0.00     0.117 C 
ENDROOT
BRANCH  14  24
HETATM   24  C15 UNL     1     -16.568  -5.895  52.678  1.00  0.00     0.003 C 
HETATM   25  C16 UNL     1     -15.818  -6.669  51.714  1.00  0.00    -0.022 C 
BRANCH  25  26
HETATM   26  C17 UNL     1     -15.865  -8.143  51.621  1.00  0.00    -0.000 C 
HETATM   27  C18 UNL     1     -14.820  -8.450  50.472  1.00  0.00     0.013 C 
HETATM   28  C19 UNL     1     -17.117  -8.754  51.044  1.00  0.00     0.013 C 
ENDBRANCH  25  26
ENDBRANCH  14  24
BRANCH   5  29
HETATM   29  N1  UNL     1     -24.796  -4.843  52.157  1.00  0.00    -0.385 N 
ATOM     30  H12 UNL     1     -23.921  -5.367  52.199  1.00  0.00     0.157 HD
ATOM     31  H11 UNL     1     -25.523  -5.073  51.480  1.00  0.00     0.157 HD
ENDBRANCH   5  29
BRANCH   1  32
HETATM   32  C2  UNL     1     -27.804  -1.895  54.237  1.00  0.00     0.052 C 
HETATM   33  C1  UNL     1     -28.762  -3.033  54.423  1.00  0.00     0.011 C 
ENDBRANCH   1  32
TORSDOF 4
ENDMDL
MODEL 5
REMARK VINA RESULT: -7.614478425      2.756      8.133
REMARK  4 active torsions:
REMARK  status: ('A' for Active; 'I' for Inactive)
REMARK    1  A    between atoms: C2_2  and  C3_3 
REMARK    2  A    between atoms: C7_7  and  N1_8 
REMARK    3  A    between atoms: C14_19  and  C15_20 
REMARK    4  A    between atoms: C16_21  and  C17_22 
ROOT
HETATM    1  C3  UNL     1     -19.188  -7.355  51.717  1.00  0.00     0.011 A 
HETATM    2  C4  UNL     1     -17.983  -7.532  52.381  1.00  0.00     0.033 A 
HETATM    3  C5  UNL     1     -17.714  -6.857  53.547  1.00  0.00    -0.039 A 
HETATM    4  C6  UNL     1     -18.658  -5.997  54.052  1.00  0.00    -0.003 A 
HETATM    5  C7  UNL     1     -19.866  -5.842  53.355  1.00  0.00     0.106 A 
HETATM    6  N2  UNL     1     -20.111  -6.515  52.211  1.00  0.00    -0.346 N 
ATOM      7  H2  UNL     1     -20.996  -6.386  51.722  1.00  0.00     0.167 HD
HETATM    8  C8  UNL     1     -18.683  -5.155  55.238  1.00  0.00     0.032 C 
HETATM    9  C9  UNL     1     -19.414  -5.896  56.336  1.00  0.00     0.011 C 
HETATM   10  C10 UNL     1     -19.047  -5.472  57.710  1.00  0.00     0.018 C 
HETATM   11  C11 UNL     1     -18.759  -3.987  57.851  1.00  0.00    -0.001 C 
HETATM   12  C12 UNL     1     -20.060  -3.253  57.679  1.00  0.00     0.024 C 
HETATM   13  C13 UNL     1     -18.201  -3.702  59.177  1.00  0.00    -0.006 C 
HETATM   14  C14 UNL     1     -17.625  -2.469  59.375  1.00  0.00    -0.056 C 
HETATM   15  C20 UNL     1     -17.526  -1.582  58.175  1.00  0.00     0.089 C 
HETATM   16  C21 UNL     1     -17.143  -2.449  56.979  1.00  0.00     0.020 C 
HETATM   17 CL1  UNL     1     -15.938  -1.889  55.859  1.00  0.00    -0.088 Cl
HETATM   18  C22 UNL     1     -17.743  -3.622  56.819  1.00  0.00    -0.045 C 
HETATM   19  C23 UNL     1     -17.423  -4.514  55.674  1.00  0.00     0.032 C 
HETATM   20  C24 UNL     1     -16.269  -5.356  56.020  1.00  0.00     0.088 C 
HETATM   21  C25 UNL     1     -15.758  -5.989  54.753  1.00  0.00     0.131 C 
HETATM   22  O1  UNL     1     -14.786  -5.555  54.212  1.00  0.00    -0.298 OA
HETATM   23  C26 UNL     1     -16.407  -7.155  54.112  1.00  0.00     0.117 C 
ENDROOT
BRANCH  14  24
HETATM   24  C15 UNL     1     -17.072  -2.176  60.666  1.00  0.00     0.003 C 
HETATM   25  C16 UNL     1     -15.665  -1.945  60.900  1.00  0.00    -0.022 C 
BRANCH  25  26
HETATM   26  C17 UNL     1     -14.608  -2.941  60.629  1.00  0.00    -0.000 C 
HETATM   27  C18 UNL     1     -13.346  -2.312  61.351  1.00  0.00     0.013 C 
HETATM   28  C19 UNL     1     -14.106  -3.042  59.211  1.00  0.00     0.013 C 
ENDBRANCH  25  26
ENDBRANCH  14  24
BRANCH   5  29
HETATM   29  N1  UNL     1     -20.772  -5.041  53.798  1.00  0.00    -0.385 N 
ATOM     30  H12 UNL     1     -20.762  -4.073  53.475  1.00  0.00     0.157 HD
ATOM     31  H11 UNL     1     -21.475  -5.376  54.456  1.00  0.00     0.157 HD
ENDBRANCH   5  29
BRANCH   1  32
HETATM   32  C2  UNL     1     -19.466  -8.085  50.467  1.00  0.00     0.052 C 
HETATM   33  C1  UNL     1     -18.389  -9.090  50.188  1.00  0.00     0.011 C 
ENDBRANCH   1  32
TORSDOF 4
ENDMDL
