MODEL 1
REMARK VINA RESULT: -8.606464835      0.000      0.000
REMARK  7 active torsions:
REMARK  status: ('A' for Active; 'I' for Inactive)
REMARK    1  A    between atoms: C2_2  and  C5_5 
REMARK    2  A    between atoms: C5_5  and  C8_8 
REMARK    3  A    between atoms: C10_10  and  C11_11 
REMARK    4  A    between atoms: C11_11  and  C12_12 
REMARK    5  A    between atoms: C12_12  and  C13_13 
REMARK    6  A    between atoms: C17_21  and  N2_22 
REMARK    7  A    between atoms: N2_22  and  C18_24 
ROOT
HETATM    1  C8  UNL     1     -19.664  -5.308  54.711  1.00  0.00    -0.021 A 
HETATM    2  C9  UNL     1     -18.670  -6.174  54.312  1.00  0.00     0.017 A 
HETATM    3  C10 UNL     1     -18.352  -6.493  52.999  1.00  0.00    -0.056 A 
HETATM    4  C14 UNL     1     -19.081  -5.909  52.006  1.00  0.00     0.022 A 
HETATM    5  C15 UNL     1     -20.085  -5.036  52.348  1.00  0.00     0.008 A 
HETATM    6  C16 UNL     1     -20.794  -4.466  51.314  1.00  0.00     0.120 A 
HETATM    7  N1  UNL     1     -21.787  -3.604  51.576  1.00  0.00    -0.201 N 
ATOM      8  H1  UNL     1     -22.320  -3.174  50.821  1.00  0.00     0.183 HD
HETATM    9  C17 UNL     1     -22.055  -3.325  52.847  1.00  0.00     0.678 A 
HETATM   10  N3  UNL     1     -21.369  -3.878  53.863  1.00  0.00    -0.191 N 
ATOM     11  H3  UNL     1     -21.624  -3.624  54.817  1.00  0.00     0.184 HD
HETATM   12  C26 UNL     1     -20.377  -4.736  53.681  1.00  0.00     0.068 A 
ENDROOT
BRANCH   9  13
HETATM   13  N2  UNL     1     -23.013  -2.493  53.094  1.00  0.00    -0.221 N 
ATOM     14  H2  UNL     1     -22.779  -1.535  53.356  1.00  0.00     0.178 HD
BRANCH  13  15
HETATM   15  C18 UNL     1     -24.413  -2.879  53.012  1.00  0.00     0.099 C 
HETATM   16  C19 UNL     1     -24.964  -2.718  54.409  1.00  0.00     0.026 C 
HETATM   17  C20 UNL     1     -26.444  -2.593  54.468  1.00  0.00     0.002 C 
HETATM   18  C21 UNL     1     -27.057  -3.911  54.017  1.00  0.00     0.000 C 
HETATM   19  C22 UNL     1     -27.745  -3.637  52.701  1.00  0.00     0.000 C 
HETATM   20  C23 UNL     1     -26.718  -3.901  51.590  1.00  0.00     0.000 C 
HETATM   21  C24 UNL     1     -26.063  -2.664  51.114  1.00  0.00     0.002 C 
HETATM   22  C25 UNL     1     -25.076  -2.027  51.994  1.00  0.00     0.026 C 
ENDBRANCH  13  15
ENDBRANCH   9  13
BRANCH   1  23
HETATM   23  C5  UNL     1     -19.991  -4.977  56.101  1.00  0.00    -0.012 C 
HETATM   24  C6  UNL     1     -21.062  -3.914  56.237  1.00  0.00     0.021 C 
HETATM   25  C7  UNL     1     -20.253  -6.238  56.893  1.00  0.00     0.021 C 
BRANCH  23  26
HETATM   26  C2  UNL     1     -18.847  -4.334  56.897  1.00  0.00    -0.040 C 
HETATM   27  C1  UNL     1     -19.533  -3.145  57.615  1.00  0.00     0.015 C 
HETATM   28  C3  UNL     1     -17.789  -3.705  56.069  1.00  0.00     0.015 C 
HETATM   29  C4  UNL     1     -18.361  -5.206  58.028  1.00  0.00     0.015 C 
ENDBRANCH  23  26
ENDBRANCH   1  23
BRANCH   3  30
HETATM   30  C11 UNL     1     -17.281  -7.488  52.754  1.00  0.00     0.049 C 
BRANCH  30  31
HETATM   31  C12 UNL     1     -17.449  -8.335  51.561  1.00  0.00     0.117 C 
BRANCH  31  32
HETATM   32  C13 UNL     1     -16.260  -8.557  50.759  1.00  0.00     0.172 C 
HETATM   33  O1  UNL     1     -15.109  -8.400  51.173  1.00  0.00    -0.648 OA
HETATM   34  O2  UNL     1     -16.428  -8.980  49.413  1.00  0.00    -0.648 OA
ENDBRANCH  31  32
ENDBRANCH  30  31
ENDBRANCH   3  30
TORSDOF 7
ENDMDL
MODEL 2
REMARK VINA RESULT: -8.551979455      0.610      1.039
REMARK  7 active torsions:
REMARK  status: ('A' for Active; 'I' for Inactive)
REMARK    1  A    between atoms: C2_2  and  C5_5 
REMARK    2  A    between atoms: C5_5  and  C8_8 
REMARK    3  A    between atoms: C10_10  and  C11_11 
REMARK    4  A    between atoms: C11_11  and  C12_12 
REMARK    5  A    between atoms: C12_12  and  C13_13 
REMARK    6  A    between atoms: C17_21  and  N2_22 
REMARK    7  A    between atoms: N2_22  and  C18_24 
ROOT
HETATM    1  C8  UNL     1     -19.649  -5.437  54.634  1.00  0.00    -0.021 A 
HETATM    2  C9  UNL     1     -18.711  -6.361  54.227  1.00  0.00     0.017 A 
HETATM    3  C10 UNL     1     -18.429  -6.703  52.912  1.00  0.00    -0.056 A 
HETATM    4  C14 UNL     1     -19.133  -6.082  51.925  1.00  0.00     0.022 A 
HETATM    5  C15 UNL     1     -20.081  -5.151  52.275  1.00  0.00     0.008 A 
HETATM    6  C16 UNL     1     -20.768  -4.544  51.247  1.00  0.00     0.120 A 
HETATM    7  N1  UNL     1     -21.705  -3.625  51.517  1.00  0.00    -0.201 N 
ATOM      8  H1  UNL     1     -22.222  -3.167  50.766  1.00  0.00     0.183 HD
HETATM    9  C17 UNL     1     -21.942  -3.326  52.790  1.00  0.00     0.678 A 
HETATM   10  N3  UNL     1     -21.277  -3.914  53.800  1.00  0.00    -0.191 N 
ATOM     11  H3  UNL     1     -21.505  -3.641  54.756  1.00  0.00     0.184 HD
HETATM   12  C26 UNL     1     -20.339  -4.829  53.610  1.00  0.00     0.068 A 
ENDROOT
BRANCH   9  13
HETATM   13  N2  UNL     1     -22.847  -2.438  53.044  1.00  0.00    -0.221 N 
ATOM     14  H2  UNL     1     -22.589  -1.613  53.587  1.00  0.00     0.178 HD
BRANCH  13  15
HETATM   15  C18 UNL     1     -24.219  -2.578  52.582  1.00  0.00     0.099 C 
HETATM   16  C19 UNL     1     -24.766  -3.795  53.289  1.00  0.00     0.026 C 
HETATM   17  C20 UNL     1     -26.250  -3.850  53.345  1.00  0.00     0.002 C 
HETATM   18  C21 UNL     1     -26.778  -4.022  51.928  1.00  0.00     0.000 C 
HETATM   19  C22 UNL     1     -27.495  -2.739  51.579  1.00  0.00     0.000 C 
HETATM   20  C23 UNL     1     -26.464  -1.807  50.926  1.00  0.00     0.000 C 
HETATM   21  C24 UNL     1     -25.897  -0.829  51.879  1.00  0.00     0.002 C 
HETATM   22  C25 UNL     1     -24.946  -1.320  52.884  1.00  0.00     0.026 C 
ENDBRANCH  13  15
ENDBRANCH   9  13
BRANCH   1  23
HETATM   23  C5  UNL     1     -19.939  -5.083  56.026  1.00  0.00    -0.012 C 
HETATM   24  C6  UNL     1     -21.004  -4.016  56.172  1.00  0.00     0.021 C 
HETATM   25  C7  UNL     1     -20.182  -6.330  56.846  1.00  0.00     0.021 C 
BRANCH  23  26
HETATM   26  C2  UNL     1     -18.774  -4.429  56.781  1.00  0.00    -0.040 C 
HETATM   27  C1  UNL     1     -19.416  -3.166  57.409  1.00  0.00     0.015 C 
HETATM   28  C3  UNL     1     -17.689  -3.901  55.917  1.00  0.00     0.015 C 
HETATM   29  C4  UNL     1     -18.324  -5.235  57.974  1.00  0.00     0.015 C 
ENDBRANCH  23  26
ENDBRANCH   1  23
BRANCH   3  30
HETATM   30  C11 UNL     1     -17.421  -7.760  52.659  1.00  0.00     0.049 C 
BRANCH  30  31
HETATM   31  C12 UNL     1     -17.584  -8.519  51.408  1.00  0.00     0.117 C 
BRANCH  31  32
HETATM   32  C13 UNL     1     -16.397  -8.661  50.584  1.00  0.00     0.172 C 
HETATM   33  O1  UNL     1     -16.415  -9.022  49.404  1.00  0.00    -0.648 OA
HETATM   34  O2  UNL     1     -15.136  -8.367  51.167  1.00  0.00    -0.648 OA
ENDBRANCH  31  32
ENDBRANCH  30  31
ENDBRANCH   3  30
TORSDOF 7
ENDMDL
MODEL 3
REMARK VINA RESULT: -8.506506493      1.626      2.690
REMARK  7 active torsions:
REMARK  status: ('A' for Active; 'I' for Inactive)
REMARK    1  A    between atoms: C2_2  and  C5_5 
REMARK    2  A    between atoms: C5_5  and  C8_8 
REMARK    3  A    between atoms: C10_10  and  C11_11 
REMARK    4  A    between atoms: C11_11  and  C12_12 
REMARK    5  A    between atoms: C12_12  and  C13_13 
REMARK    6  A    between atoms: C17_21  and  N2_22 
REMARK    7  A    between atoms: N2_22  and  C18_24 
ROOT
HETATM    1  C8  UNL     1     -19.558  -5.453  54.632  1.00  0.00    -0.021 A 
HETATM    2  C9  UNL     1     -18.490  -6.262  54.312  1.00  0.00     0.017 A 
HETATM    3  C10 UNL     1     -18.127  -6.655  53.032  1.00  0.00    -0.056 A 
HETATM    4  C14 UNL     1     -18.884  -6.212  51.989  1.00  0.00     0.022 A 
HETATM    5  C15 UNL     1     -19.961  -5.402  52.252  1.00  0.00     0.008 A 
HETATM    6  C16 UNL     1     -20.698  -4.974  51.169  1.00  0.00     0.120 A 
HETATM    7  N1  UNL     1     -21.762  -4.179  51.353  1.00  0.00    -0.201 N 
ATOM      8  H1  UNL     1     -22.316  -3.854  50.561  1.00  0.00     0.183 HD
HETATM    9  C17 UNL     1     -22.072  -3.825  52.595  1.00  0.00     0.678 A 
HETATM   10  N3  UNL     1     -21.359  -4.239  53.658  1.00  0.00    -0.191 N 
ATOM     11  H3  UNL     1     -21.649  -3.933  54.587  1.00  0.00     0.184 HD
HETATM   12  C26 UNL     1     -20.299  -5.024  53.554  1.00  0.00     0.068 A 
ENDROOT
BRANCH   9  13
HETATM   13  N2  UNL     1     -23.099  -3.059  52.767  1.00  0.00    -0.221 N 
ATOM     14  H2  UNL     1     -23.933  -3.443  53.212  1.00  0.00     0.178 HD
BRANCH  13  15
HETATM   15  C18 UNL     1     -23.103  -1.666  52.347  1.00  0.00     0.099 C 
HETATM   16  C19 UNL     1     -24.376  -1.482  51.555  1.00  0.00     0.026 C 
HETATM   17  C20 UNL     1     -24.822  -0.070  51.439  1.00  0.00     0.002 C 
HETATM   18  C21 UNL     1     -23.799   0.691  50.607  1.00  0.00     0.000 C 
HETATM   19  C22 UNL     1     -23.126   1.668  51.541  1.00  0.00     0.000 C 
HETATM   20  C23 UNL     1     -21.901   0.958  52.134  1.00  0.00     0.000 C 
HETATM   21  C24 UNL     1     -22.165   0.389  53.473  1.00  0.00     0.002 C 
HETATM   22  C25 UNL     1     -23.008  -0.811  53.555  1.00  0.00     0.026 C 
ENDBRANCH  13  15
ENDBRANCH   9  13
BRANCH   1  23
HETATM   23  C5  UNL     1     -19.933  -5.043  55.989  1.00  0.00    -0.012 C 
HETATM   24  C6  UNL     1     -20.982  -3.951  56.026  1.00  0.00     0.021 C 
HETATM   25  C7  UNL     1     -20.258  -6.255  56.832  1.00  0.00     0.021 C 
BRANCH  23  26
HETATM   26  C2  UNL     1     -18.807  -4.386  56.798  1.00  0.00    -0.040 C 
HETATM   27  C1  UNL     1     -19.509  -3.187  57.482  1.00  0.00     0.015 C 
HETATM   28  C3  UNL     1     -17.732  -3.768  55.983  1.00  0.00     0.015 C 
HETATM   29  C4  UNL     1     -18.343  -5.239  57.953  1.00  0.00     0.015 C 
ENDBRANCH  23  26
ENDBRANCH   1  23
BRANCH   3  30
HETATM   30  C11 UNL     1     -16.974  -7.574  52.876  1.00  0.00     0.049 C 
BRANCH  30  31
HETATM   31  C12 UNL     1     -17.148  -8.666  51.903  1.00  0.00     0.117 C 
BRANCH  31  32
HETATM   32  C13 UNL     1     -16.245  -8.662  50.766  1.00  0.00     0.172 C 
HETATM   33  O1  UNL     1     -16.615  -8.718  49.591  1.00  0.00    -0.648 OA
HETATM   34  O2  UNL     1     -14.849  -8.592  51.018  1.00  0.00    -0.648 OA
ENDBRANCH  31  32
ENDBRANCH  30  31
ENDBRANCH   3  30
TORSDOF 7
ENDMDL
MODEL 4
REMARK VINA RESULT: -8.368972413      1.814      2.852
REMARK  7 active torsions:
REMARK  status: ('A' for Active; 'I' for Inactive)
REMARK    1  A    between atoms: C2_2  and  C5_5 
REMARK    2  A    between atoms: C5_5  and  C8_8 
REMARK    3  A    between atoms: C10_10  and  C11_11 
REMARK    4  A    between atoms: C11_11  and  C12_12 
REMARK    5  A    between atoms: C12_12  and  C13_13 
REMARK    6  A    between atoms: C17_21  and  N2_22 
REMARK    7  A    between atoms: N2_22  and  C18_24 
ROOT
HETATM    1  C8  UNL     1     -19.588  -5.484  54.574  1.00  0.00    -0.021 A 
HETATM    2  C9  UNL     1     -18.570  -6.360  54.269  1.00  0.00     0.017 A 
HETATM    3  C10 UNL     1     -18.217  -6.779  52.994  1.00  0.00    -0.056 A 
HETATM    4  C14 UNL     1     -18.932  -6.292  51.940  1.00  0.00     0.022 A 
HETATM    5  C15 UNL     1     -19.959  -5.414  52.188  1.00  0.00     0.008 A 
HETATM    6  C16 UNL     1     -20.654  -4.944  51.096  1.00  0.00     0.120 A 
HETATM    7  N1  UNL     1     -21.667  -4.082  51.265  1.00  0.00    -0.201 N 
ATOM      8  H1  UNL     1     -22.191  -3.726  50.466  1.00  0.00     0.183 HD
HETATM    9  C17 UNL     1     -21.969  -3.706  52.503  1.00  0.00     0.678 A 
HETATM   10  N3  UNL     1     -21.297  -4.161  53.575  1.00  0.00    -0.191 N 
ATOM     11  H3  UNL     1     -21.578  -3.834  54.500  1.00  0.00     0.184 HD
HETATM   12  C26 UNL     1     -20.287  -5.012  53.486  1.00  0.00     0.068 A 
ENDROOT
BRANCH   9  13
HETATM   13  N2  UNL     1     -22.947  -2.875  52.661  1.00  0.00    -0.221 N 
ATOM     14  H2  UNL     1     -23.888  -3.163  52.391  1.00  0.00     0.178 HD
BRANCH  13  15
HETATM   15  C18 UNL     1     -22.749  -1.543  53.210  1.00  0.00     0.099 C 
HETATM   16  C19 UNL     1     -22.509  -0.642  52.022  1.00  0.00     0.026 C 
HETATM   17  C20 UNL     1     -22.755   0.798  52.291  1.00  0.00     0.002 C 
HETATM   18  C21 UNL     1     -21.717   1.285  53.293  1.00  0.00     0.000 C 
HETATM   19  C22 UNL     1     -22.464   1.595  54.569  1.00  0.00     0.000 C 
HETATM   20  C23 UNL     1     -22.468   0.313  55.414  1.00  0.00     0.000 C 
HETATM   21  C24 UNL     1     -23.721  -0.459  55.272  1.00  0.00     0.002 C 
HETATM   22  C25 UNL     1     -23.943  -1.184  54.015  1.00  0.00     0.026 C 
ENDBRANCH  13  15
ENDBRANCH   9  13
BRANCH   1  23
HETATM   23  C5  UNL     1     -19.952  -5.047  55.925  1.00  0.00    -0.012 C 
HETATM   24  C6  UNL     1     -20.952  -3.909  55.947  1.00  0.00     0.021 C 
HETATM   25  C7  UNL     1     -20.335  -6.236  56.776  1.00  0.00     0.021 C 
BRANCH  23  26
HETATM   26  C2  UNL     1     -18.803  -4.433  56.736  1.00  0.00    -0.040 C 
HETATM   27  C1  UNL     1     -19.469  -3.230  57.450  1.00  0.00     0.015 C 
HETATM   28  C3  UNL     1     -17.721  -3.826  55.922  1.00  0.00     0.015 C 
HETATM   29  C4  UNL     1     -18.350  -5.319  57.870  1.00  0.00     0.015 C 
ENDBRANCH  23  26
ENDBRANCH   1  23
BRANCH   3  30
HETATM   30  C11 UNL     1     -17.124  -7.770  52.854  1.00  0.00     0.049 C 
BRANCH  30  31
HETATM   31  C12 UNL     1     -17.232  -8.692  51.711  1.00  0.00     0.117 C 
BRANCH  31  32
HETATM   32  C13 UNL     1     -16.124  -8.688  50.774  1.00  0.00     0.172 C 
HETATM   33  O1  UNL     1     -14.970  -8.365  51.071  1.00  0.00    -0.648 OA
HETATM   34  O2  UNL     1     -16.377  -9.078  49.432  1.00  0.00    -0.648 OA
ENDBRANCH  31  32
ENDBRANCH  30  31
ENDBRANCH   3  30
TORSDOF 7
ENDMDL
MODEL 5
REMARK VINA RESULT: -8.362897178      1.438      2.501
REMARK  7 active torsions:
REMARK  status: ('A' for Active; 'I' for Inactive)
REMARK    1  A    between atoms: C2_2  and  C5_5 
REMARK    2  A    between atoms: C5_5  and  C8_8 
REMARK    3  A    between atoms: C10_10  and  C11_11 
REMARK    4  A    between atoms: C11_11  and  C12_12 
REMARK    5  A    between atoms: C12_12  and  C13_13 
REMARK    6  A    between atoms: C17_21  and  N2_22 
REMARK    7  A    between atoms: N2_22  and  C18_24 
ROOT
HETATM    1  C8  UNL     1     -19.565  -5.432  54.637  1.00  0.00    -0.021 A 
HETATM    2  C9  UNL     1     -18.474  -6.207  54.311  1.00  0.00     0.017 A 
HETATM    3  C10 UNL     1     -18.099  -6.579  53.028  1.00  0.00    -0.056 A 
HETATM    4  C14 UNL     1     -18.868  -6.148  51.988  1.00  0.00     0.022 A 
HETATM    5  C15 UNL     1     -19.968  -5.371  52.257  1.00  0.00     0.008 A 
HETATM    6  C16 UNL     1     -20.717  -4.955  51.178  1.00  0.00     0.120 A 
HETATM    7  N1  UNL     1     -21.802  -4.193  51.368  1.00  0.00    -0.201 N 
ATOM      8  H1  UNL     1     -22.366  -3.877  50.578  1.00  0.00     0.183 HD
HETATM    9  C17 UNL     1     -22.124  -3.859  52.613  1.00  0.00     0.678 A 
HETATM   10  N3  UNL     1     -21.400  -4.261  53.673  1.00  0.00    -0.191 N 
ATOM     11  H3  UNL     1     -21.699  -3.972  54.604  1.00  0.00     0.184 HD
HETATM   12  C26 UNL     1     -20.317  -5.015  53.563  1.00  0.00     0.068 A 
ENDROOT
BRANCH   9  13
HETATM   13  N2  UNL     1     -23.171  -3.123  52.791  1.00  0.00    -0.221 N 
ATOM     14  H2  UNL     1     -23.945  -3.199  52.130  1.00  0.00     0.178 HD
BRANCH  13  15
HETATM   15  C18 UNL     1     -23.282  -2.190  53.901  1.00  0.00     0.099 C 
HETATM   16  C19 UNL     1     -22.534  -0.951  53.470  1.00  0.00     0.026 C 
HETATM   17  C20 UNL     1     -22.909   0.277  54.218  1.00  0.00     0.002 C 
HETATM   18  C21 UNL     1     -22.471   0.110  55.666  1.00  0.00     0.000 C 
HETATM   19  C22 UNL     1     -23.734   0.016  56.489  1.00  0.00     0.000 C 
HETATM   20  C23 UNL     1     -24.104  -1.471  56.582  1.00  0.00     0.000 C 
HETATM   21  C24 UNL     1     -25.128  -1.866  55.592  1.00  0.00     0.002 C 
HETATM   22  C25 UNL     1     -24.721  -1.966  54.184  1.00  0.00     0.026 C 
ENDBRANCH  13  15
ENDBRANCH   9  13
BRANCH   1  23
HETATM   23  C5  UNL     1     -19.952  -5.045  55.997  1.00  0.00    -0.012 C 
HETATM   24  C6  UNL     1     -21.017  -3.969  56.043  1.00  0.00     0.021 C 
HETATM   25  C7  UNL     1     -20.262  -6.272  56.824  1.00  0.00     0.021 C 
BRANCH  23  26
HETATM   26  C2  UNL     1     -18.839  -4.381  56.820  1.00  0.00    -0.040 C 
HETATM   27  C1  UNL     1     -19.562  -3.199  57.514  1.00  0.00     0.015 C 
HETATM   28  C3  UNL     1     -17.770  -3.738  56.017  1.00  0.00     0.015 C 
HETATM   29  C4  UNL     1     -18.369  -5.240  57.967  1.00  0.00     0.015 C 
ENDBRANCH  23  26
ENDBRANCH   1  23
BRANCH   3  30
HETATM   30  C11 UNL     1     -16.921  -7.463  52.864  1.00  0.00     0.049 C 
BRANCH  30  31
HETATM   31  C12 UNL     1     -17.087  -8.592  51.934  1.00  0.00     0.117 C 
BRANCH  31  32
HETATM   32  C13 UNL     1     -16.202  -8.611  50.783  1.00  0.00     0.172 C 
HETATM   33  O1  UNL     1     -16.592  -8.655  49.613  1.00  0.00    -0.648 OA
HETATM   34  O2  UNL     1     -14.801  -8.578  51.014  1.00  0.00    -0.648 OA
ENDBRANCH  31  32
ENDBRANCH  30  31
ENDBRANCH   3  30
TORSDOF 7
ENDMDL
