MODEL 1
REMARK VINA RESULT: -7.683476961      0.000      0.000
REMARK  6 active torsions:
REMARK  status: ('A' for Active; 'I' for Inactive)
REMARK    1  A    between atoms: C9_9  and  C10_10 
REMARK    2  A    between atoms: C15_15  and  N1_16 
REMARK       I    between atoms: N1_16  and  C16_18 
REMARK    3  A    between atoms: C16_18  and  O2_20 
REMARK    4  A    between atoms: O2_20  and  C17_21 
REMARK    5  A    between atoms: C17_21  and  C18_22 
REMARK    6  A    between atoms: C21_26  and  O3_27 
ROOT
HETATM    1  C1  UNL     1     -21.489  -6.392  62.717  1.00  0.00     0.044 C 
HETATM    2  C2  UNL     1     -20.806  -6.569  61.398  1.00  0.00    -0.079 C 
HETATM    3  C3  UNL     1     -20.684  -7.756  60.824  1.00  0.00    -0.024 C 
HETATM    4  C4  UNL     1     -20.009  -7.951  59.517  1.00  0.00     0.028 C 
HETATM    5  C5  UNL     1     -20.217  -6.791  58.588  1.00  0.00     0.010 C 
HETATM    6  C6  UNL     1     -20.593  -5.518  59.244  1.00  0.00     0.002 C 
HETATM    7  C7  UNL     1     -20.099  -4.290  58.448  1.00  0.00     0.042 C 
HETATM    8  C8  UNL     1     -18.734  -4.457  57.991  1.00  0.00    -0.051 C 
HETATM    9  C9  UNL     1     -18.286  -4.554  56.776  1.00  0.00     0.012 C 
HETATM   10  C21 UNL     1     -17.570  -4.577  58.989  1.00  0.00     0.147 C 
HETATM   11  C22 UNL     1     -17.999  -4.217  60.384  1.00  0.00     0.037 C 
HETATM   12  C23 UNL     1     -18.799  -5.300  61.007  1.00  0.00     0.017 C 
HETATM   13  C24 UNL     1     -20.232  -5.397  60.689  1.00  0.00    -0.017 C 
HETATM   14  C25 UNL     1     -20.929  -4.130  61.209  1.00  0.00     0.020 C 
ENDROOT
BRANCH   9  15
HETATM   15  C10 UNL     1     -18.932  -4.541  55.488  1.00  0.00    -0.059 C 
HETATM   16  C11 UNL     1     -20.177  -3.827  55.130  1.00  0.00     0.048 C 
HETATM   17  C12 UNL     1     -18.425  -5.290  54.491  1.00  0.00    -0.074 C 
HETATM   18  C13 UNL     1     -18.959  -5.375  53.128  1.00  0.00     0.037 C 
HETATM   19  C20 UNL     1     -17.249  -6.156  54.796  1.00  0.00     0.037 C 
HETATM   20  C14 UNL     1     -17.729  -5.368  52.194  1.00  0.00     0.029 C 
HETATM   21  C15 UNL     1     -16.898  -6.598  52.328  1.00  0.00     0.087 C 
HETATM   22  C19 UNL     1     -16.986  -7.175  53.696  1.00  0.00     0.029 C 
BRANCH  21  23
HETATM   23  N1  UNL     1     -17.214  -7.576  51.305  1.00  0.00    -0.332 N 
HETATM   24  C16 UNL     1     -16.177  -8.327  50.710  1.00  0.00     0.360 C 
HETATM   25  O1  UNL     1     -14.967  -8.145  51.071  1.00  0.00    -0.239 OA
ATOM     26  H1  UNL     1     -18.182  -7.722  51.017  1.00  0.00     0.165 HD
BRANCH  24  27
HETATM   27  O2  UNL     1     -16.444  -9.276  49.725  1.00  0.00    -0.303 OA
BRANCH  27  28
HETATM   28  C17 UNL     1     -17.754  -9.798  49.655  1.00  0.00     0.195 C 
BRANCH  28  29
HETATM   29  C18 UNL     1     -18.338  -9.451  48.290  1.00  0.00     0.141 C 
HETATM   30 CL1  UNL     1     -20.047  -9.071  48.446  1.00  0.00    -0.128 Cl
ENDBRANCH  28  29
ENDBRANCH  27  28
ENDBRANCH  24  27
ENDBRANCH  21  23
ENDBRANCH   9  15
BRANCH  10  31
HETATM   31  O3  UNL     1     -16.597  -3.647  58.604  1.00  0.00    -0.391 OA
ATOM     32  H3  UNL     1     -15.798  -4.131  58.433  1.00  0.00     0.210 HD
ENDBRANCH  10  31
TORSDOF 6
ENDMDL
MODEL 2
REMARK VINA RESULT: -7.567110677      1.579      2.755
REMARK  6 active torsions:
REMARK  status: ('A' for Active; 'I' for Inactive)
REMARK    1  A    between atoms: C9_9  and  C10_10 
REMARK    2  A    between atoms: C15_15  and  N1_16 
REMARK       I    between atoms: N1_16  and  C16_18 
REMARK    3  A    between atoms: C16_18  and  O2_20 
REMARK    4  A    between atoms: O2_20  and  C17_21 
REMARK    5  A    between atoms: C17_21  and  C18_22 
REMARK    6  A    between atoms: C21_26  and  O3_27 
ROOT
HETATM    1  C1  UNL     1     -20.255  -5.041  62.675  1.00  0.00     0.044 C 
HETATM    2  C2  UNL     1     -19.452  -4.369  61.608  1.00  0.00    -0.079 C 
HETATM    3  C3  UNL     1     -18.467  -3.531  61.892  1.00  0.00    -0.024 C 
HETATM    4  C4  UNL     1     -17.660  -2.854  60.847  1.00  0.00     0.028 C 
HETATM    5  C5  UNL     1     -17.459  -3.714  59.634  1.00  0.00     0.010 C 
HETATM    6  C6  UNL     1     -18.444  -4.807  59.466  1.00  0.00     0.002 C 
HETATM    7  C7  UNL     1     -18.670  -5.159  57.980  1.00  0.00     0.042 C 
HETATM    8  C8  UNL     1     -18.805  -3.973  57.159  1.00  0.00    -0.051 C 
HETATM    9  C9  UNL     1     -18.024  -3.536  56.218  1.00  0.00     0.012 C 
HETATM   10  C21 UNL     1     -19.982  -3.001  57.354  1.00  0.00     0.147 C 
HETATM   11  C22 UNL     1     -21.041  -3.587  58.245  1.00  0.00     0.037 C 
HETATM   12  C23 UNL     1     -20.631  -3.562  59.670  1.00  0.00     0.017 C 
HETATM   13  C24 UNL     1     -19.748  -4.626  60.174  1.00  0.00    -0.017 C 
HETATM   14  C25 UNL     1     -20.494  -5.965  60.069  1.00  0.00     0.020 C 
ENDROOT
BRANCH   9  15
HETATM   15  C10 UNL     1     -16.789  -4.028  55.662  1.00  0.00    -0.059 C 
HETATM   16  C11 UNL     1     -15.420  -3.632  56.058  1.00  0.00     0.048 C 
HETATM   17  C12 UNL     1     -16.831  -4.893  54.631  1.00  0.00    -0.074 C 
HETATM   18  C13 UNL     1     -15.668  -5.489  53.966  1.00  0.00     0.037 C 
HETATM   19  C20 UNL     1     -18.167  -5.246  54.070  1.00  0.00     0.037 C 
HETATM   20  C14 UNL     1     -16.038  -6.968  53.719  1.00  0.00     0.029 C 
HETATM   21  C15 UNL     1     -17.137  -7.128  52.725  1.00  0.00     0.087 C 
HETATM   22  C19 UNL     1     -18.056  -5.958  52.729  1.00  0.00     0.029 C 
BRANCH  21  23
HETATM   23  N1  UNL     1     -16.627  -7.412  51.398  1.00  0.00    -0.332 N 
HETATM   24  C16 UNL     1     -17.041  -8.582  50.724  1.00  0.00     0.360 C 
HETATM   25  O1  UNL     1     -17.860  -9.385  51.281  1.00  0.00    -0.239 OA
ATOM     26  H1  UNL     1     -15.972  -6.769  50.952  1.00  0.00     0.165 HD
BRANCH  24  27
HETATM   27  O2  UNL     1     -16.571  -8.887  49.448  1.00  0.00    -0.303 OA
BRANCH  27  28
HETATM   28  C17 UNL     1     -17.300  -9.828  48.688  1.00  0.00     0.195 C 
BRANCH  28  29
HETATM   29  C18 UNL     1     -18.298  -9.074  47.818  1.00  0.00     0.141 C 
HETATM   30 CL1  UNL     1     -19.893  -9.116  48.556  1.00  0.00    -0.128 Cl
ENDBRANCH  28  29
ENDBRANCH  27  28
ENDBRANCH  24  27
ENDBRANCH  21  23
ENDBRANCH   9  15
BRANCH  10  31
HETATM   31  O3  UNL     1     -20.566  -2.800  56.098  1.00  0.00    -0.391 OA
ATOM     32  H3  UNL     1     -20.964  -1.938  56.108  1.00  0.00     0.210 HD
ENDBRANCH  10  31
TORSDOF 6
ENDMDL
MODEL 3
REMARK VINA RESULT: -7.500141932      4.523      7.606
REMARK  6 active torsions:
REMARK  status: ('A' for Active; 'I' for Inactive)
REMARK    1  A    between atoms: C9_9  and  C10_10 
REMARK    2  A    between atoms: C15_15  and  N1_16 
REMARK       I    between atoms: N1_16  and  C16_18 
REMARK    3  A    between atoms: C16_18  and  O2_20 
REMARK    4  A    between atoms: O2_20  and  C17_21 
REMARK    5  A    between atoms: C17_21  and  C18_22 
REMARK    6  A    between atoms: C21_26  and  O3_27 
ROOT
HETATM    1  C1  UNL     1     -23.962   1.529  49.895  1.00  0.00     0.044 C 
HETATM    2  C2  UNL     1     -23.625   0.293  50.666  1.00  0.00    -0.079 C 
HETATM    3  C3  UNL     1     -23.220  -0.819  50.072  1.00  0.00    -0.024 C 
HETATM    4  C4  UNL     1     -22.882  -2.054  50.820  1.00  0.00     0.028 C 
HETATM    5  C5  UNL     1     -22.262  -1.762  52.155  1.00  0.00     0.010 C 
HETATM    6  C6  UNL     1     -22.535  -0.410  52.693  1.00  0.00     0.002 C 
HETATM    7  C7  UNL     1     -22.543  -0.394  54.238  1.00  0.00     0.042 C 
HETATM    8  C8  UNL     1     -23.275  -1.518  54.785  1.00  0.00    -0.051 C 
HETATM    9  C9  UNL     1     -22.834  -2.516  55.489  1.00  0.00     0.012 C 
HETATM   10  C21 UNL     1     -24.786  -1.678  54.542  1.00  0.00     0.147 C 
HETATM   11  C22 UNL     1     -25.386  -0.430  53.956  1.00  0.00     0.037 C 
HETATM   12  C23 UNL     1     -25.050  -0.285  52.518  1.00  0.00     0.017 C 
HETATM   13  C24 UNL     1     -23.743   0.279  52.147  1.00  0.00    -0.017 C 
HETATM   14  C25 UNL     1     -23.683   1.731  52.649  1.00  0.00     0.020 C 
ENDROOT
BRANCH   9  15
HETATM   15  C10 UNL     1     -21.523  -2.875  55.968  1.00  0.00    -0.059 C 
HETATM   16  C11 UNL     1     -20.818  -2.301  57.135  1.00  0.00     0.048 C 
HETATM   17  C12 UNL     1     -20.796  -3.775  55.280  1.00  0.00    -0.074 C 
HETATM   18  C13 UNL     1     -19.457  -4.250  55.641  1.00  0.00     0.037 C 
HETATM   19  C20 UNL     1     -21.366  -4.308  54.008  1.00  0.00     0.037 C 
HETATM   20  C14 UNL     1     -19.464  -5.771  55.373  1.00  0.00     0.029 C 
HETATM   21  C15 UNL     1     -19.579  -6.099  53.924  1.00  0.00     0.087 C 
HETATM   22  C19 UNL     1     -20.326  -5.050  53.180  1.00  0.00     0.029 C 
BRANCH  21  23
HETATM   23  N1  UNL     1     -18.284  -6.368  53.327  1.00  0.00    -0.332 N 
HETATM   24  C16 UNL     1     -18.163  -7.369  52.340  1.00  0.00     0.360 C 
HETATM   25  O1  UNL     1     -19.187  -8.035  51.974  1.00  0.00    -0.239 OA
ATOM     26  H1  UNL     1     -17.465  -5.835  53.620  1.00  0.00     0.165 HD
BRANCH  24  27
HETATM   27  O2  UNL     1     -16.935  -7.654  51.745  1.00  0.00    -0.303 OA
BRANCH  27  28
HETATM   28  C17 UNL     1     -16.711  -8.977  51.304  1.00  0.00     0.195 C 
BRANCH  28  29
HETATM   29  C18 UNL     1     -16.690  -8.980  49.781  1.00  0.00     0.141 C 
HETATM   30 CL1  UNL     1     -18.148  -9.742  49.159  1.00  0.00    -0.128 Cl
ENDBRANCH  28  29
ENDBRANCH  27  28
ENDBRANCH  24  27
ENDBRANCH  21  23
ENDBRANCH   9  15
BRANCH  10  31
HETATM   31  O3  UNL     1     -25.388  -1.878  55.789  1.00  0.00    -0.391 OA
ATOM     32  H3  UNL     1     -26.134  -1.293  55.839  1.00  0.00     0.210 HD
ENDBRANCH  10  31
TORSDOF 6
ENDMDL
MODEL 4
REMARK VINA RESULT: -7.473953025      5.813      7.932
REMARK  6 active torsions:
REMARK  status: ('A' for Active; 'I' for Inactive)
REMARK    1  A    between atoms: C9_9  and  C10_10 
REMARK    2  A    between atoms: C15_15  and  N1_16 
REMARK       I    between atoms: N1_16  and  C16_18 
REMARK    3  A    between atoms: C16_18  and  O2_20 
REMARK    4  A    between atoms: O2_20  and  C17_21 
REMARK    5  A    between atoms: C17_21  and  C18_22 
REMARK    6  A    between atoms: C21_26  and  O3_27 
ROOT
HETATM    1  C1  UNL     1     -30.341  -4.051  53.490  1.00  0.00     0.044 C 
HETATM    2  C2  UNL     1     -29.131  -3.305  53.957  1.00  0.00    -0.079 C 
HETATM    3  C3  UNL     1     -29.127  -2.605  55.080  1.00  0.00    -0.024 C 
HETATM    4  C4  UNL     1     -27.938  -1.859  55.559  1.00  0.00     0.028 C 
HETATM    5  C5  UNL     1     -26.652  -2.552  55.214  1.00  0.00     0.010 C 
HETATM    6  C6  UNL     1     -26.738  -3.520  54.097  1.00  0.00     0.002 C 
HETATM    7  C7  UNL     1     -25.404  -3.635  53.328  1.00  0.00     0.042 C 
HETATM    8  C8  UNL     1     -24.813  -2.337  53.075  1.00  0.00    -0.051 C 
HETATM    9  C9  UNL     1     -23.704  -1.840  53.535  1.00  0.00     0.012 C 
HETATM   10  C21 UNL     1     -25.516  -1.304  52.177  1.00  0.00     0.147 C 
HETATM   11  C22 UNL     1     -26.662  -1.917  51.423  1.00  0.00     0.037 C 
HETATM   12  C23 UNL     1     -27.840  -2.131  52.299  1.00  0.00     0.017 C 
HETATM   13  C24 UNL     1     -27.882  -3.328  53.153  1.00  0.00    -0.017 C 
HETATM   14  C25 UNL     1     -27.914  -4.569  52.247  1.00  0.00     0.020 C 
ENDROOT
BRANCH   9  15
HETATM   15  C10 UNL     1     -22.695  -2.353  54.425  1.00  0.00    -0.059 C 
HETATM   16  C11 UNL     1     -22.478  -1.964  55.836  1.00  0.00     0.048 C 
HETATM   17  C12 UNL     1     -21.790  -3.234  53.957  1.00  0.00    -0.074 C 
HETATM   18  C13 UNL     1     -20.714  -3.852  54.736  1.00  0.00     0.037 C 
HETATM   19  C20 UNL     1     -21.842  -3.582  52.507  1.00  0.00     0.037 C 
HETATM   20  C14 UNL     1     -20.670  -5.331  54.293  1.00  0.00     0.029 C 
HETATM   21  C15 UNL     1     -20.226  -5.496  52.880  1.00  0.00     0.087 C 
HETATM   22  C19 UNL     1     -20.590  -4.317  52.049  1.00  0.00     0.029 C 
BRANCH  21  23
HETATM   23  N1  UNL     1     -18.812  -5.806  52.792  1.00  0.00    -0.332 N 
HETATM   24  C16 UNL     1     -18.400  -7.046  52.258  1.00  0.00     0.360 C 
HETATM   25  O1  UNL     1     -19.267  -7.890  51.854  1.00  0.00    -0.239 OA
ATOM     26  H1  UNL     1     -18.119  -5.131  53.114  1.00  0.00     0.165 HD
BRANCH  24  27
HETATM   27  O2  UNL     1     -17.050  -7.378  52.158  1.00  0.00    -0.303 OA
BRANCH  27  28
HETATM   28  C17 UNL     1     -16.726  -8.702  51.791  1.00  0.00     0.195 C 
BRANCH  28  29
HETATM   29  C18 UNL     1     -16.132  -8.682  50.388  1.00  0.00     0.141 C 
HETATM   30 CL1  UNL     1     -17.241  -9.440  49.253  1.00  0.00    -0.128 Cl
ENDBRANCH  28  29
ENDBRANCH  27  28
ENDBRANCH  24  27
ENDBRANCH  21  23
ENDBRANCH   9  15
BRANCH  10  31
HETATM   31  O3  UNL     1     -24.580  -0.876  51.228  1.00  0.00    -0.391 OA
ATOM     32  H3  UNL     1     -24.820  -1.271  50.399  1.00  0.00     0.210 HD
ENDBRANCH  10  31
TORSDOF 6
ENDMDL
MODEL 5
REMARK VINA RESULT: -7.470174428      3.551      5.285
REMARK  6 active torsions:
REMARK  status: ('A' for Active; 'I' for Inactive)
REMARK    1  A    between atoms: C9_9  and  C10_10 
REMARK    2  A    between atoms: C15_15  and  N1_16 
REMARK       I    between atoms: N1_16  and  C16_18 
REMARK    3  A    between atoms: C16_18  and  O2_20 
REMARK    4  A    between atoms: O2_20  and  C17_21 
REMARK    5  A    between atoms: C17_21  and  C18_22 
REMARK    6  A    between atoms: C21_26  and  O3_27 
ROOT
HETATM    1  C1  UNL     1     -13.676   1.892  59.833  1.00  0.00     0.044 C 
HETATM    2  C2  UNL     1     -14.468   0.637  59.648  1.00  0.00    -0.079 C 
HETATM    3  C3  UNL     1     -15.470   0.314  60.451  1.00  0.00    -0.024 C 
HETATM    4  C4  UNL     1     -16.266  -0.926  60.284  1.00  0.00     0.028 C 
HETATM    5  C5  UNL     1     -16.433  -1.309  58.842  1.00  0.00     0.010 C 
HETATM    6  C6  UNL     1     -15.430  -0.732  57.918  1.00  0.00     0.002 C 
HETATM    7  C7  UNL     1     -15.172  -1.647  56.701  1.00  0.00     0.042 C 
HETATM    8  C8  UNL     1     -15.038  -3.036  57.090  1.00  0.00    -0.051 C 
HETATM    9  C9  UNL     1     -15.807  -4.043  56.805  1.00  0.00     0.012 C 
HETATM   10  C21 UNL     1     -13.878  -3.503  57.987  1.00  0.00     0.147 C 
HETATM   11  C22 UNL     1     -12.828  -2.437  58.132  1.00  0.00     0.037 C 
HETATM   12  C23 UNL     1     -13.265  -1.361  59.054  1.00  0.00     0.017 C 
HETATM   13  C24 UNL     1     -14.142  -0.297  58.540  1.00  0.00    -0.017 C 
HETATM   14  C25 UNL     1     -13.376   0.483  57.461  1.00  0.00     0.020 C 
ENDROOT
BRANCH   9  15
HETATM   15  C10 UNL     1     -17.025  -4.161  56.043  1.00  0.00    -0.059 C 
HETATM   16  C11 UNL     1     -18.311  -3.483  56.318  1.00  0.00     0.048 C 
HETATM   17  C12 UNL     1     -17.068  -5.012  55.001  1.00  0.00    -0.074 C 
HETATM   18  C13 UNL     1     -18.222  -5.237  54.126  1.00  0.00     0.037 C 
HETATM   19  C20 UNL     1     -15.860  -5.846  54.730  1.00  0.00     0.037 C 
HETATM   20  C14 UNL     1     -17.652  -5.332  52.694  1.00  0.00     0.029 C 
HETATM   21  C15 UNL     1     -16.810  -6.544  52.489  1.00  0.00     0.087 C 
HETATM   22  C19 UNL     1     -16.151  -6.975  53.752  1.00  0.00     0.029 C 
BRANCH  21  23
HETATM   23  N1  UNL     1     -17.558  -7.622  51.872  1.00  0.00    -0.332 N 
HETATM   24  C16 UNL     1     -16.921  -8.474  50.944  1.00  0.00     0.360 C 
HETATM   25  O1  UNL     1     -15.693  -8.296  50.650  1.00  0.00    -0.239 OA
ATOM     26  H1  UNL     1     -18.540  -7.765  52.109  1.00  0.00     0.165 HD
BRANCH  24  27
HETATM   27  O2  UNL     1     -17.609  -9.521  50.332  1.00  0.00    -0.303 OA
BRANCH  27  28
HETATM   28  C17 UNL     1     -17.614  -9.565  48.921  1.00  0.00     0.195 C 
BRANCH  28  29
HETATM   29  C18 UNL     1     -19.006  -9.980  48.457  1.00  0.00     0.141 C 
HETATM   30 CL1  UNL     1     -20.153  -8.682  48.759  1.00  0.00    -0.128 Cl
ENDBRANCH  28  29
ENDBRANCH  27  28
ENDBRANCH  24  27
ENDBRANCH  21  23
ENDBRANCH   9  15
BRANCH  10  31
HETATM   31  O3  UNL     1     -13.274  -4.593  57.351  1.00  0.00    -0.391 OA
ATOM     32  H3  UNL     1     -12.575  -4.897  57.917  1.00  0.00     0.210 HD
ENDBRANCH  10  31
TORSDOF 6
ENDMDL
