MODEL 1
REMARK VINA RESULT: -7.884618382      0.000      0.000
REMARK  5 active torsions:
REMARK  status: ('A' for Active; 'I' for Inactive)
REMARK    1  A    between atoms: C11_11  and  N1_12 
REMARK    2  A    between atoms: N1_12  and  C12_14 
REMARK    3  A    between atoms: C19_22  and  C21_24 
REMARK    4  A    between atoms: C21_24  and  O1_25 
REMARK    5  A    between atoms: C21_24  and  C22_27 
ROOT
HETATM    1  C12 UNL     1     -17.388  -3.676  60.692  1.00  0.00     0.239 C 
HETATM    2  C13 UNL     1     -18.177  -4.905  60.795  1.00  0.00     0.078 C 
HETATM    3  N2  UNL     1     -18.799  -5.899  60.885  1.00  0.00    -0.196 NA
ENDROOT
BRANCH   1   4
HETATM    4  N1  UNL     1     -17.419  -3.246  59.341  1.00  0.00    -0.405 N 
ATOM      5  H1  UNL     1     -18.046  -2.507  59.021  1.00  0.00     0.154 HD
BRANCH   4   6
HETATM    6  C11 UNL     1     -16.511  -3.918  58.447  1.00  0.00     0.086 C 
HETATM    7  C9  UNL     1     -17.235  -4.022  57.129  1.00  0.00    -0.016 C 
HETATM    8  C8  UNL     1     -18.009  -5.323  57.191  1.00  0.00     0.012 C 
HETATM    9  C10 UNL     1     -18.289  -2.915  57.016  1.00  0.00     0.018 C 
HETATM   10  C17 UNL     1     -16.348  -3.920  55.934  1.00  0.00    -0.031 C 
HETATM   11  C7  UNL     1     -18.712  -5.651  55.891  1.00  0.00     0.007 C 
HETATM   12  C6  UNL     1     -17.607  -5.806  54.857  1.00  0.00     0.002 C 
HETATM   13  C5  UNL     1     -16.988  -4.476  54.689  1.00  0.00    -0.001 C 
HETATM   14  C19 UNL     1     -18.082  -6.423  53.564  1.00  0.00    -0.007 C 
HETATM   15  C4  UNL     1     -16.092  -4.347  53.508  1.00  0.00     0.006 C 
HETATM   16  C3  UNL     1     -16.861  -4.618  52.271  1.00  0.00     0.005 C 
HETATM   17  C2  UNL     1     -18.051  -5.497  52.406  1.00  0.00    -0.007 C 
HETATM   18  C1  UNL     1     -19.359  -4.702  52.226  1.00  0.00     0.011 C 
HETATM   19  C20 UNL     1     -19.568  -6.816  53.679  1.00  0.00     0.019 C 
HETATM   20  C16 UNL     1     -15.030  -4.534  56.247  1.00  0.00     0.010 C 
HETATM   21  C18 UNL     1     -16.124  -2.428  55.647  1.00  0.00     0.016 C 
HETATM   22  C15 UNL     1     -14.305  -3.695  57.280  1.00  0.00     0.003 C 
HETATM   23  C14 UNL     1     -15.174  -3.270  58.409  1.00  0.00     0.026 C 
BRANCH  14  24
HETATM   24  C21 UNL     1     -17.356  -7.730  53.396  1.00  0.00     0.160 C 
BRANCH  24  25
HETATM   25  O1  UNL     1     -16.081  -7.743  53.999  1.00  0.00    -0.390 OA
ATOM     26  H1  UNL     1     -15.377  -7.928  53.388  1.00  0.00     0.210 HD
ENDBRANCH  24  25
BRANCH  24  27
HETATM   27  C22 UNL     1     -17.239  -8.271  52.053  1.00  0.00    -0.029 A 
HETATM   28  C23 UNL     1     -16.066  -8.173  51.318  1.00  0.00     0.013 A 
HETATM   29  C24 UNL     1     -15.973  -8.688  50.018  1.00  0.00     0.043 A 
HETATM   30  C25 UNL     1     -17.039  -9.305  49.433  1.00  0.00     0.116 A 
HETATM   31  F1  UNL     1     -16.948  -9.803  48.178  1.00  0.00    -0.206 F 
HETATM   32  C26 UNL     1     -18.205  -9.417  50.127  1.00  0.00     0.043 A 
HETATM   33  C27 UNL     1     -18.279  -8.904  51.405  1.00  0.00     0.013 A 
ENDBRANCH  24  27
ENDBRANCH  14  24
ENDBRANCH   4   6
ENDBRANCH   1   4
TORSDOF 5
ENDMDL
MODEL 2
REMARK VINA RESULT: -7.632664459      4.096      6.909
REMARK  5 active torsions:
REMARK  status: ('A' for Active; 'I' for Inactive)
REMARK    1  A    between atoms: C11_11  and  N1_12 
REMARK    2  A    between atoms: N1_12  and  C12_14 
REMARK    3  A    between atoms: C19_22  and  C21_24 
REMARK    4  A    between atoms: C21_24  and  O1_25 
REMARK    5  A    between atoms: C21_24  and  C22_27 
ROOT
HETATM    1  C12 UNL     1     -16.422  -9.041  49.890  1.00  0.00     0.239 C 
HETATM    2  C13 UNL     1     -17.702  -9.411  49.282  1.00  0.00     0.078 C 
HETATM    3  N2  UNL     1     -18.725  -9.699  48.781  1.00  0.00    -0.196 NA
ENDROOT
BRANCH   1   4
HETATM    4  N1  UNL     1     -16.676  -8.611  51.219  1.00  0.00    -0.405 N 
ATOM      5  H1  UNL     1     -16.782  -9.270  51.991  1.00  0.00     0.154 HD
BRANCH   4   6
HETATM    6  C11 UNL     1     -16.774  -7.187  51.410  1.00  0.00     0.086 C 
HETATM    7  C9  UNL     1     -17.373  -6.998  52.780  1.00  0.00    -0.016 C 
HETATM    8  C8  UNL     1     -18.874  -6.993  52.571  1.00  0.00     0.012 C 
HETATM    9  C10 UNL     1     -17.079  -8.219  53.659  1.00  0.00     0.018 C 
HETATM   10  C17 UNL     1     -16.874  -5.793  53.504  1.00  0.00    -0.031 C 
HETATM   11  C7  UNL     1     -19.643  -6.693  53.841  1.00  0.00     0.007 C 
HETATM   12  C6  UNL     1     -19.217  -5.294  54.256  1.00  0.00     0.002 C 
HETATM   13  C5  UNL     1     -17.789  -5.371  54.625  1.00  0.00    -0.001 C 
HETATM   14  C19 UNL     1     -20.091  -4.699  55.333  1.00  0.00    -0.007 C 
HETATM   15  C4  UNL     1     -17.262  -4.180  55.344  1.00  0.00     0.006 C 
HETATM   16  C3  UNL     1     -18.017  -3.988  56.603  1.00  0.00     0.005 C 
HETATM   17  C2  UNL     1     -19.405  -4.517  56.636  1.00  0.00    -0.007 C 
HETATM   18  C1  UNL     1     -19.516  -5.744  57.560  1.00  0.00     0.011 C 
HETATM   19  C20 UNL     1     -21.253  -5.658  55.663  1.00  0.00     0.019 C 
HETATM   20  C16 UNL     1     -16.600  -4.709  52.525  1.00  0.00     0.010 C 
HETATM   21  C18 UNL     1     -15.549  -6.174  54.182  1.00  0.00     0.016 C 
HETATM   22  C15 UNL     1     -15.421  -5.092  51.652  1.00  0.00     0.003 C 
HETATM   23  C14 UNL     1     -15.484  -6.494  51.160  1.00  0.00     0.026 C 
BRANCH  14  24
HETATM   24  C21 UNL     1     -20.757  -3.482  54.751  1.00  0.00     0.160 C 
BRANCH  24  25
HETATM   25  O1  UNL     1     -21.412  -2.688  55.715  1.00  0.00    -0.390 OA
ATOM     26  H1  UNL     1     -21.078  -1.800  55.763  1.00  0.00     0.210 HD
ENDBRANCH  24  25
BRANCH  24  27
HETATM   27  C22 UNL     1     -21.653  -3.676  53.624  1.00  0.00    -0.029 A 
HETATM   28  C23 UNL     1     -21.206  -3.632  52.311  1.00  0.00     0.013 A 
HETATM   29  C24 UNL     1     -22.085  -3.808  51.234  1.00  0.00     0.043 A 
HETATM   30  C25 UNL     1     -23.414  -4.029  51.444  1.00  0.00     0.116 A 
HETATM   31  F1  UNL     1     -24.262  -4.199  50.404  1.00  0.00    -0.206 F 
HETATM   32  C26 UNL     1     -23.885  -4.077  52.721  1.00  0.00     0.043 A 
HETATM   33  C27 UNL     1     -23.006  -3.902  53.770  1.00  0.00     0.013 A 
ENDBRANCH  24  27
ENDBRANCH  14  24
ENDBRANCH   4   6
ENDBRANCH   1   4
TORSDOF 5
ENDMDL
MODEL 3
REMARK VINA RESULT: -7.195681653      7.890     10.385
REMARK  5 active torsions:
REMARK  status: ('A' for Active; 'I' for Inactive)
REMARK    1  A    between atoms: C11_11  and  N1_12 
REMARK    2  A    between atoms: N1_12  and  C12_14 
REMARK    3  A    between atoms: C19_22  and  C21_24 
REMARK    4  A    between atoms: C21_24  and  O1_25 
REMARK    5  A    between atoms: C21_24  and  C22_27 
ROOT
HETATM    1  C12 UNL     1     -24.482   3.675  50.728  1.00  0.00     0.239 C 
HETATM    2  C13 UNL     1     -24.678   3.052  49.418  1.00  0.00     0.078 C 
HETATM    3  N2  UNL     1     -24.850   2.554  48.368  1.00  0.00    -0.196 NA
ENDROOT
BRANCH   1   4
HETATM    4  N1  UNL     1     -23.655   2.820  51.502  1.00  0.00    -0.405 N 
ATOM      5  H1  UNL     1     -22.638   2.903  51.501  1.00  0.00     0.154 HD
BRANCH   4   6
HETATM    6  C11 UNL     1     -24.340   1.829  52.290  1.00  0.00     0.086 C 
HETATM    7  C9  UNL     1     -23.502   0.579  52.193  1.00  0.00    -0.016 C 
HETATM    8  C8  UNL     1     -24.010  -0.158  50.971  1.00  0.00     0.012 C 
HETATM    9  C10 UNL     1     -22.045   0.941  51.887  1.00  0.00     0.018 C 
HETATM   10  C17 UNL     1     -23.506  -0.257  53.429  1.00  0.00    -0.031 C 
HETATM   11  C7  UNL     1     -23.353  -1.510  50.785  1.00  0.00     0.007 C 
HETATM   12  C6  UNL     1     -23.728  -2.320  52.016  1.00  0.00     0.002 C 
HETATM   13  C5  UNL     1     -23.070  -1.676  53.170  1.00  0.00    -0.001 C 
HETATM   14  C19 UNL     1     -23.416  -3.790  51.881  1.00  0.00    -0.007 C 
HETATM   15  C4  UNL     1     -23.064  -2.484  54.419  1.00  0.00     0.006 C 
HETATM   16  C3  UNL     1     -22.350  -3.759  54.180  1.00  0.00     0.005 C 
HETATM   17  C2  UNL     1     -22.337  -4.264  52.783  1.00  0.00    -0.007 C 
HETATM   18  C1  UNL     1     -20.932  -4.155  52.161  1.00  0.00     0.011 C 
HETATM   19  C20 UNL     1     -22.871  -4.089  50.470  1.00  0.00     0.019 C 
HETATM   20  C16 UNL     1     -24.836  -0.157  54.086  1.00  0.00     0.010 C 
HETATM   21  C18 UNL     1     -22.454   0.324  54.387  1.00  0.00     0.016 C 
HETATM   22  C15 UNL     1     -25.039   1.245  54.625  1.00  0.00     0.003 C 
HETATM   23  C14 UNL     1     -24.641   2.308  53.664  1.00  0.00     0.026 C 
BRANCH  14  24
HETATM   24  C21 UNL     1     -24.721  -4.535  51.949  1.00  0.00     0.160 C 
BRANCH  24  25
HETATM   25  O1  UNL     1     -25.006  -5.272  50.781  1.00  0.00    -0.390 OA
ATOM     26  H1  UNL     1     -25.906  -5.181  50.489  1.00  0.00     0.210 HD
ENDBRANCH  24  25
BRANCH  24  27
HETATM   27  C22 UNL     1     -25.908  -3.787  52.327  1.00  0.00    -0.029 A 
HETATM   28  C23 UNL     1     -26.361  -3.735  53.638  1.00  0.00     0.013 A 
HETATM   29  C24 UNL     1     -27.515  -3.020  53.985  1.00  0.00     0.043 A 
HETATM   30  C25 UNL     1     -28.232  -2.349  53.039  1.00  0.00     0.116 A 
HETATM   31  F1  UNL     1     -29.346  -1.658  53.373  1.00  0.00    -0.206 F 
HETATM   32  C26 UNL     1     -27.814  -2.380  51.743  1.00  0.00     0.043 A 
HETATM   33  C27 UNL     1     -26.676  -3.089  51.419  1.00  0.00     0.013 A 
ENDBRANCH  24  27
ENDBRANCH  14  24
ENDBRANCH   4   6
ENDBRANCH   1   4
TORSDOF 5
ENDMDL
MODEL 4
REMARK VINA RESULT: -7.102938204      4.523      7.173
REMARK  5 active torsions:
REMARK  status: ('A' for Active; 'I' for Inactive)
REMARK    1  A    between atoms: C11_11  and  N1_12 
REMARK    2  A    between atoms: N1_12  and  C12_14 
REMARK    3  A    between atoms: C19_22  and  C21_24 
REMARK    4  A    between atoms: C21_24  and  O1_25 
REMARK    5  A    between atoms: C21_24  and  C22_27 
ROOT
HETATM    1  C12 UNL     1     -24.830  -1.058  49.938  1.00  0.00     0.239 C 
HETATM    2  C13 UNL     1     -24.463  -0.358  48.706  1.00  0.00     0.078 C 
HETATM    3  N2  UNL     1     -24.179   0.195  47.709  1.00  0.00    -0.196 NA
ENDROOT
BRANCH   1   4
HETATM    4  N1  UNL     1     -23.636  -1.505  50.562  1.00  0.00    -0.405 N 
ATOM      5  H1  UNL     1     -22.760  -0.987  50.491  1.00  0.00     0.154 HD
BRANCH   4   6
HETATM    6  C11 UNL     1     -23.738  -2.737  51.300  1.00  0.00     0.086 C 
HETATM    7  C9  UNL     1     -22.389  -2.943  51.941  1.00  0.00    -0.016 C 
HETATM    8  C8  UNL     1     -21.570  -3.714  50.926  1.00  0.00     0.012 C 
HETATM    9  C10 UNL     1     -21.676  -1.598  52.117  1.00  0.00     0.018 C 
HETATM   10  C17 UNL     1     -22.441  -3.602  53.278  1.00  0.00    -0.031 C 
HETATM   11  C7  UNL     1     -20.208  -4.115  51.451  1.00  0.00     0.007 C 
HETATM   12  C6  UNL     1     -20.480  -5.032  52.635  1.00  0.00     0.002 C 
HETATM   13  C5  UNL     1     -21.120  -4.206  53.678  1.00  0.00    -0.001 C 
HETATM   14  C19 UNL     1     -19.254  -5.770  53.111  1.00  0.00    -0.007 C 
HETATM   15  C4  UNL     1     -21.191  -4.840  55.022  1.00  0.00     0.006 C 
HETATM   16  C3  UNL     1     -19.823  -5.144  55.500  1.00  0.00     0.005 C 
HETATM   17  C2  UNL     1     -18.786  -5.359  54.458  1.00  0.00    -0.007 C 
HETATM   18  C1  UNL     1     -17.776  -4.197  54.423  1.00  0.00     0.011 C 
HETATM   19  C20 UNL     1     -18.055  -5.455  52.195  1.00  0.00     0.019 C 
HETATM   20  C16 UNL     1     -23.567  -4.573  53.305  1.00  0.00     0.010 C 
HETATM   21  C18 UNL     1     -22.724  -2.512  54.323  1.00  0.00     0.016 C 
HETATM   22  C15 UNL     1     -24.887  -3.830  53.242  1.00  0.00     0.003 C 
HETATM   23  C14 UNL     1     -24.906  -2.750  52.219  1.00  0.00     0.026 C 
BRANCH  14  24
HETATM   24  C21 UNL     1     -19.508  -7.240  52.910  1.00  0.00     0.160 C 
BRANCH  24  25
HETATM   25  O1  UNL     1     -19.321  -8.005  54.080  1.00  0.00    -0.390 OA
ATOM     26  H1  UNL     1     -20.134  -8.230  54.518  1.00  0.00     0.210 HD
ENDBRANCH  24  25
BRANCH  24  27
HETATM   27  C22 UNL     1     -18.825  -7.900  51.810  1.00  0.00    -0.029 A 
HETATM   28  C23 UNL     1     -19.499  -8.328  50.676  1.00  0.00     0.013 A 
HETATM   29  C24 UNL     1     -18.829  -8.975  49.628  1.00  0.00     0.043 A 
HETATM   30  C25 UNL     1     -17.487  -9.205  49.694  1.00  0.00     0.116 A 
HETATM   31  F1  UNL     1     -16.840  -9.829  48.683  1.00  0.00    -0.206 F 
HETATM   32  C26 UNL     1     -16.796  -8.798  50.794  1.00  0.00     0.043 A 
HETATM   33  C27 UNL     1     -17.471  -8.162  51.816  1.00  0.00     0.013 A 
ENDBRANCH  24  27
ENDBRANCH  14  24
ENDBRANCH   4   6
ENDBRANCH   1   4
TORSDOF 5
ENDMDL
MODEL 5
REMARK VINA RESULT: -6.970269983      7.196     10.259
REMARK  5 active torsions:
REMARK  status: ('A' for Active; 'I' for Inactive)
REMARK    1  A    between atoms: C11_11  and  N1_12 
REMARK    2  A    between atoms: N1_12  and  C12_14 
REMARK    3  A    between atoms: C19_22  and  C21_24 
REMARK    4  A    between atoms: C21_24  and  O1_25 
REMARK    5  A    between atoms: C21_24  and  C22_27 
ROOT
HETATM    1  C12 UNL     1     -19.622  -5.145  52.194  1.00  0.00     0.239 C 
HETATM    2  C13 UNL     1     -19.543  -6.607  52.206  1.00  0.00     0.078 C 
HETATM    3  N2  UNL     1     -19.468  -7.779  52.206  1.00  0.00    -0.196 NA
ENDROOT
BRANCH   1   4
HETATM    4  N1  UNL     1     -20.972  -4.779  51.952  1.00  0.00    -0.405 N 
ATOM      5  H1  UNL     1     -21.555  -5.275  51.278  1.00  0.00     0.154 HD
BRANCH   4   6
HETATM    6  C11 UNL     1     -21.466  -3.665  52.718  1.00  0.00     0.086 C 
HETATM    7  C9  UNL     1     -22.566  -3.053  51.888  1.00  0.00    -0.016 C 
HETATM    8  C8  UNL     1     -21.884  -2.034  50.997  1.00  0.00     0.012 C 
HETATM    9  C10 UNL     1     -23.160  -4.102  50.942  1.00  0.00     0.018 C 
HETATM   10  C17 UNL     1     -23.688  -2.480  52.686  1.00  0.00    -0.031 C 
HETATM   11  C7  UNL     1     -22.862  -1.230  50.167  1.00  0.00     0.007 C 
HETATM   12  C6  UNL     1     -23.728  -0.481  51.168  1.00  0.00     0.002 C 
HETATM   13  C5  UNL     1     -24.513  -1.494  51.900  1.00  0.00    -0.001 C 
HETATM   14  C19 UNL     1     -24.570   0.601  50.536  1.00  0.00    -0.007 C 
HETATM   15  C4  UNL     1     -25.637  -0.952  52.710  1.00  0.00     0.006 C 
HETATM   16  C3  UNL     1     -26.585  -0.237  51.825  1.00  0.00     0.005 C 
HETATM   17  C2  UNL     1     -26.028   0.327  50.568  1.00  0.00    -0.007 C 
HETATM   18  C1  UNL     1     -26.529  -0.448  49.335  1.00  0.00     0.011 C 
HETATM   19  C20 UNL     1     -24.251   0.711  49.032  1.00  0.00     0.019 C 
HETATM   20  C16 UNL     1     -23.155  -1.924  53.957  1.00  0.00     0.010 C 
HETATM   21  C18 UNL     1     -24.647  -3.630  53.031  1.00  0.00     0.016 C 
HETATM   22  C15 UNL     1     -22.652  -3.050  54.839  1.00  0.00     0.003 C 
HETATM   23  C14 UNL     1     -21.834  -4.052  54.105  1.00  0.00     0.026 C 
BRANCH  14  24
HETATM   24  C21 UNL     1     -24.122   1.915  51.116  1.00  0.00     0.160 C 
BRANCH  24  25
HETATM   25  O1  UNL     1     -23.267   2.641  50.261  1.00  0.00    -0.390 OA
ATOM     26  H1  UNL     1     -22.803   3.344  50.701  1.00  0.00     0.210 HD
ENDBRANCH  24  25
BRANCH  24  27
HETATM   27  C22 UNL     1     -23.545   1.905  52.450  1.00  0.00    -0.029 A 
HETATM   28  C23 UNL     1     -24.285   2.234  53.576  1.00  0.00     0.013 A 
HETATM   29  C24 UNL     1     -23.711   2.232  54.854  1.00  0.00     0.043 A 
HETATM   30  C25 UNL     1     -22.400   1.904  55.031  1.00  0.00     0.116 A 
HETATM   31  F1  UNL     1     -21.845   1.902  56.265  1.00  0.00    -0.206 F 
HETATM   32  C26 UNL     1     -21.645   1.577  53.945  1.00  0.00     0.043 A 
HETATM   33  C27 UNL     1     -22.226   1.584  52.694  1.00  0.00     0.013 A 
ENDBRANCH  24  27
ENDBRANCH  14  24
ENDBRANCH   4   6
ENDBRANCH   1   4
TORSDOF 5
ENDMDL
