MODEL 1
REMARK VINA RESULT: -7.717230686      0.000      0.000
REMARK  5 active torsions:
REMARK  status: ('A' for Active; 'I' for Inactive)
REMARK    1  A    between atoms: C2_2  and  C3_3 
REMARK    2  A    between atoms: C3_3  and  C4_4 
REMARK    3  A    between atoms: C4_4  and  C6_6 
REMARK    4  A    between atoms: C13_13  and  O1_14 
REMARK    5  A    between atoms: C15_17  and  C16_18 
ROOT
HETATM    1  C6  UNL     1     -22.515  -1.617  54.183  1.00  0.00    -0.069 C 
HETATM    2  C7  UNL     1     -22.068  -2.835  54.964  1.00  0.00     0.040 C 
HETATM    3  C8  UNL     1     -21.021  -3.570  54.164  1.00  0.00    -0.001 C 
HETATM    4  C9  UNL     1     -20.738  -4.856  54.924  1.00  0.00     0.045 C 
HETATM    5  C10 UNL     1     -19.380  -5.303  54.602  1.00  0.00    -0.037 A 
HETATM    6  C11 UNL     1     -18.863  -5.494  53.341  1.00  0.00    -0.048 A 
HETATM    7  C12 UNL     1     -17.563  -5.902  53.178  1.00  0.00     0.044 A 
HETATM    8  C13 UNL     1     -16.741  -6.130  54.253  1.00  0.00     0.067 A 
HETATM    9  C14 UNL     1     -17.266  -5.937  55.493  1.00  0.00     0.052 A 
HETATM   10  C15 UNL     1     -18.584  -5.523  55.718  1.00  0.00     0.017 A 
HETATM   11  C19 UNL     1     -19.513  -5.337  52.024  1.00  0.00     0.039 C 
HETATM   12  C20 UNL     1     -21.011  -5.101  52.176  1.00  0.00     0.010 C 
HETATM   13  C21 UNL     1     -21.293  -3.732  52.727  1.00  0.00     0.003 C 
HETATM   14  C22 UNL     1     -22.676  -3.250  52.271  1.00  0.00    -0.013 C 
HETATM   15  C23 UNL     1     -23.745  -4.194  52.501  1.00  0.00     0.021 C 
HETATM   16  C24 UNL     1     -22.650  -2.972  50.777  1.00  0.00     0.018 C 
HETATM   17  C25 UNL     1     -23.528  -1.768  50.600  1.00  0.00     0.049 C 
HETATM   18  C26 UNL     1     -23.854  -1.241  52.011  1.00  0.00     0.124 C 
HETATM   19  C27 UNL     1     -25.273  -1.471  52.213  1.00  0.00     0.057 C 
HETATM   20  F1  UNL     1     -23.613   0.146  51.930  1.00  0.00    -0.238 F 
HETATM   21  C28 UNL     1     -22.784  -1.841  52.774  1.00  0.00    -0.030 C 
ENDROOT
BRANCH  10  22
HETATM   22  C16 UNL     1     -19.097  -5.360  57.069  1.00  0.00     0.107 C 
HETATM   23  N1  UNL     1     -18.883  -4.366  57.889  1.00  0.00    -0.374 N 
HETATM   24  C17 UNL     1     -19.551  -4.543  59.141  1.00  0.00     0.141 C 
ATOM     25  H1  UNL     1     -18.307  -3.555  57.662  1.00  0.00     0.161 HD
HETATM   26  C18 UNL     1     -19.986  -5.996  59.151  1.00  0.00     0.141 C 
HETATM   27  N2  UNL     1     -19.929  -6.314  57.747  1.00  0.00    -0.374 N 
ATOM     28  H2  UNL     1     -20.407  -7.097  57.302  1.00  0.00     0.161 HD
ENDBRANCH  10  22
BRANCH   8  29
HETATM   29  O1  UNL     1     -15.428  -6.541  54.078  1.00  0.00    -0.361 OA
ATOM     30  H1  UNL     1     -14.769  -6.379  54.744  1.00  0.00     0.217 HD
ENDBRANCH   8  29
BRANCH   1  31
HETATM   31  C4  UNL     1     -23.434  -0.722  54.980  1.00  0.00     0.011 C 
HETATM   32  C5  UNL     1     -23.983  -1.430  56.222  1.00  0.00     0.015 C 
BRANCH  31  33
HETATM   33  C3  UNL     1     -22.682   0.481  55.574  1.00  0.00     0.008 C 
BRANCH  33  34
HETATM   34  C2  UNL     1     -22.909   1.729  54.808  1.00  0.00    -0.004 C 
HETATM   35  C1  UNL     1     -21.626   1.978  54.000  1.00  0.00     0.005 C 
ENDBRANCH  33  34
ENDBRANCH  31  33
ENDBRANCH   1  31
TORSDOF 5
ENDMDL
MODEL 2
REMARK VINA RESULT: -7.483869229      0.623      1.199
REMARK  5 active torsions:
REMARK  status: ('A' for Active; 'I' for Inactive)
REMARK    1  A    between atoms: C2_2  and  C3_3 
REMARK    2  A    between atoms: C3_3  and  C4_4 
REMARK    3  A    between atoms: C4_4  and  C6_6 
REMARK    4  A    between atoms: C13_13  and  O1_14 
REMARK    5  A    between atoms: C15_17  and  C16_18 
ROOT
HETATM    1  C6  UNL     1     -22.487  -1.600  54.122  1.00  0.00    -0.069 C 
HETATM    2  C7  UNL     1     -22.031  -2.797  54.929  1.00  0.00     0.040 C 
HETATM    3  C8  UNL     1     -20.989  -3.549  54.139  1.00  0.00    -0.001 C 
HETATM    4  C9  UNL     1     -20.696  -4.816  54.928  1.00  0.00     0.045 C 
HETATM    5  C10 UNL     1     -19.340  -5.268  54.605  1.00  0.00    -0.037 A 
HETATM    6  C11 UNL     1     -18.834  -5.489  53.344  1.00  0.00    -0.048 A 
HETATM    7  C12 UNL     1     -17.534  -5.897  53.180  1.00  0.00     0.044 A 
HETATM    8  C13 UNL     1     -16.702  -6.097  54.253  1.00  0.00     0.067 A 
HETATM    9  C14 UNL     1     -17.216  -5.875  55.492  1.00  0.00     0.052 A 
HETATM   10  C15 UNL     1     -18.534  -5.457  55.720  1.00  0.00     0.017 A 
HETATM   11  C19 UNL     1     -19.495  -5.366  52.030  1.00  0.00     0.039 C 
HETATM   12  C20 UNL     1     -20.992  -5.130  52.190  1.00  0.00     0.010 C 
HETATM   13  C21 UNL     1     -21.273  -3.748  52.708  1.00  0.00     0.003 C 
HETATM   14  C22 UNL     1     -22.661  -3.281  52.253  1.00  0.00    -0.013 C 
HETATM   15  C23 UNL     1     -23.726  -4.221  52.516  1.00  0.00     0.021 C 
HETATM   16  C24 UNL     1     -22.649  -3.041  50.752  1.00  0.00     0.018 C 
HETATM   17  C25 UNL     1     -23.532  -1.843  50.553  1.00  0.00     0.049 C 
HETATM   18  C26 UNL     1     -23.847  -1.282  51.953  1.00  0.00     0.124 C 
HETATM   19  C27 UNL     1     -25.263  -1.509  52.173  1.00  0.00     0.057 C 
HETATM   20  F1  UNL     1     -23.610   0.103  51.835  1.00  0.00    -0.238 F 
HETATM   21  C28 UNL     1     -22.769  -1.860  52.722  1.00  0.00    -0.030 C 
ENDROOT
BRANCH  10  22
HETATM   22  C16 UNL     1     -19.035  -5.262  57.070  1.00  0.00     0.107 C 
HETATM   23  N1  UNL     1     -19.613  -6.143  57.842  1.00  0.00    -0.374 N 
HETATM   24  C17 UNL     1     -19.976  -5.595  59.112  1.00  0.00     0.141 C 
ATOM     25  H1  UNL     1     -19.785  -7.110  57.571  1.00  0.00     0.161 HD
HETATM   26  C18 UNL     1     -19.843  -4.093  58.944  1.00  0.00     0.141 C 
HETATM   27  N2  UNL     1     -18.991  -4.017  57.785  1.00  0.00    -0.374 N 
ATOM     28  H2  UNL     1     -18.441  -3.202  57.513  1.00  0.00     0.161 HD
ENDBRANCH  10  22
BRANCH   8  29
HETATM   29  O1  UNL     1     -15.389  -6.509  54.077  1.00  0.00    -0.361 OA
ATOM     30  H1  UNL     1     -14.912  -6.944  54.775  1.00  0.00     0.217 HD
ENDBRANCH   8  29
BRANCH   1  31
HETATM   31  C4  UNL     1     -23.401  -0.687  54.905  1.00  0.00     0.011 C 
HETATM   32  C5  UNL     1     -24.325  -1.473  55.841  1.00  0.00     0.015 C 
BRANCH  31  33
HETATM   33  C3  UNL     1     -22.615   0.213  55.871  1.00  0.00     0.008 C 
BRANCH  33  34
HETATM   34  C2  UNL     1     -22.815  -0.162  57.290  1.00  0.00    -0.004 C 
HETATM   35  C1  UNL     1     -21.419  -0.456  57.861  1.00  0.00     0.005 C 
ENDBRANCH  33  34
ENDBRANCH  31  33
ENDBRANCH   1  31
TORSDOF 5
ENDMDL
MODEL 3
REMARK VINA RESULT: -7.483376002      3.569      7.036
REMARK  5 active torsions:
REMARK  status: ('A' for Active; 'I' for Inactive)
REMARK    1  A    between atoms: C2_2  and  C3_3 
REMARK    2  A    between atoms: C3_3  and  C4_4 
REMARK    3  A    between atoms: C4_4  and  C6_6 
REMARK    4  A    between atoms: C13_13  and  O1_14 
REMARK    5  A    between atoms: C15_17  and  C16_18 
ROOT
HETATM    1  C6  UNL     1     -17.940  -3.753  58.007  1.00  0.00    -0.069 C 
HETATM    2  C7  UNL     1     -18.526  -3.684  56.613  1.00  0.00     0.040 C 
HETATM    3  C8  UNL     1     -17.757  -4.620  55.714  1.00  0.00    -0.001 C 
HETATM    4  C9  UNL     1     -18.286  -4.382  54.308  1.00  0.00     0.045 C 
HETATM    5  C10 UNL     1     -18.081  -5.599  53.517  1.00  0.00    -0.037 A 
HETATM    6  C11 UNL     1     -16.893  -6.276  53.358  1.00  0.00    -0.048 A 
HETATM    7  C12 UNL     1     -16.842  -7.418  52.599  1.00  0.00     0.044 A 
HETATM    8  C13 UNL     1     -17.958  -7.921  51.979  1.00  0.00     0.067 A 
HETATM    9  C14 UNL     1     -19.124  -7.240  52.145  1.00  0.00     0.052 A 
HETATM   10  C15 UNL     1     -19.236  -6.071  52.908  1.00  0.00     0.017 A 
HETATM   11  C19 UNL     1     -15.553  -5.963  53.893  1.00  0.00     0.039 C 
HETATM   12  C20 UNL     1     -15.533  -4.589  54.553  1.00  0.00     0.010 C 
HETATM   13  C21 UNL     1     -16.292  -4.597  55.849  1.00  0.00     0.003 C 
HETATM   14  C22 UNL     1     -15.746  -3.517  56.792  1.00  0.00    -0.013 C 
HETATM   15  C23 UNL     1     -15.634  -2.205  56.199  1.00  0.00     0.021 C 
HETATM   16  C24 UNL     1     -14.352  -3.908  57.258  1.00  0.00     0.018 C 
HETATM   17  C25 UNL     1     -14.288  -3.449  58.686  1.00  0.00     0.049 C 
HETATM   18  C26 UNL     1     -15.713  -3.016  59.081  1.00  0.00     0.124 C 
HETATM   19  C27 UNL     1     -15.663  -1.578  59.272  1.00  0.00     0.057 C 
HETATM   20  F1  UNL     1     -15.937  -3.644  60.324  1.00  0.00    -0.238 F 
HETATM   21  C28 UNL     1     -16.491  -3.709  58.080  1.00  0.00    -0.030 C 
ENDROOT
BRANCH  10  22
HETATM   22  C16 UNL     1     -20.506  -5.373  53.026  1.00  0.00     0.107 C 
HETATM   23  N1  UNL     1     -21.187  -4.789  52.076  1.00  0.00    -0.374 N 
HETATM   24  C17 UNL     1     -22.397  -4.201  52.561  1.00  0.00     0.141 C 
ATOM     25  H1  UNL     1     -20.890  -4.757  51.101  1.00  0.00     0.161 HD
HETATM   26  C18 UNL     1     -22.255  -4.199  54.071  1.00  0.00     0.141 C 
HETATM   27  N2  UNL     1     -21.225  -5.188  54.255  1.00  0.00    -0.374 N 
ATOM     28  H2  UNL     1     -21.034  -5.683  55.127  1.00  0.00     0.161 HD
ENDBRANCH  10  22
BRANCH   8  29
HETATM   29  O1  UNL     1     -17.897  -9.076  51.215  1.00  0.00    -0.361 OA
ATOM     30  H1  UNL     1     -18.677  -9.585  51.029  1.00  0.00     0.217 HD
ENDBRANCH   8  29
BRANCH   1  31
HETATM   31  C4  UNL     1     -18.756  -2.982  59.018  1.00  0.00     0.011 C 
HETATM   32  C5  UNL     1     -19.646  -1.930  58.349  1.00  0.00     0.015 C 
BRANCH  31  33
HETATM   33  C3  UNL     1     -19.771  -3.885  59.738  1.00  0.00     0.008 C 
BRANCH  33  34
HETATM   34  C2  UNL     1     -19.247  -5.248  59.985  1.00  0.00    -0.004 C 
HETATM   35  C1  UNL     1     -20.215  -6.217  59.288  1.00  0.00     0.005 C 
ENDBRANCH  33  34
ENDBRANCH  31  33
ENDBRANCH   1  31
TORSDOF 5
ENDMDL
MODEL 4
REMARK VINA RESULT: -7.472208261      0.780      1.053
REMARK  5 active torsions:
REMARK  status: ('A' for Active; 'I' for Inactive)
REMARK    1  A    between atoms: C2_2  and  C3_3 
REMARK    2  A    between atoms: C3_3  and  C4_4 
REMARK    3  A    between atoms: C4_4  and  C6_6 
REMARK    4  A    between atoms: C13_13  and  O1_14 
REMARK    5  A    between atoms: C15_17  and  C16_18 
ROOT
HETATM    1  C6  UNL     1     -22.457  -1.204  54.681  1.00  0.00    -0.069 C 
HETATM    2  C7  UNL     1     -22.098  -2.557  55.258  1.00  0.00     0.040 C 
HETATM    3  C8  UNL     1     -21.227  -3.293  54.271  1.00  0.00    -0.001 C 
HETATM    4  C9  UNL     1     -21.040  -4.692  54.836  1.00  0.00     0.045 C 
HETATM    5  C10 UNL     1     -19.782  -5.242  54.322  1.00  0.00    -0.037 A 
HETATM    6  C11 UNL     1     -19.409  -5.322  52.999  1.00  0.00    -0.048 A 
HETATM    7  C12 UNL     1     -18.190  -5.848  52.653  1.00  0.00     0.044 A 
HETATM    8  C13 UNL     1     -17.309  -6.307  53.600  1.00  0.00     0.067 A 
HETATM    9  C14 UNL     1     -17.692  -6.222  54.903  1.00  0.00     0.052 A 
HETATM   10  C15 UNL     1     -18.923  -5.695  55.314  1.00  0.00     0.017 A 
HETATM   11  C19 UNL     1     -20.150  -4.920  51.787  1.00  0.00     0.039 C 
HETATM   12  C20 UNL     1     -21.586  -4.539  52.123  1.00  0.00     0.010 C 
HETATM   13  C21 UNL     1     -21.645  -3.232  52.861  1.00  0.00     0.003 C 
HETATM   14  C22 UNL     1     -22.992  -2.542  52.614  1.00  0.00    -0.013 C 
HETATM   15  C23 UNL     1     -24.146  -3.381  52.840  1.00  0.00     0.021 C 
HETATM   16  C24 UNL     1     -23.066  -2.074  51.170  1.00  0.00     0.018 C 
HETATM   17  C25 UNL     1     -23.800  -0.766  51.232  1.00  0.00     0.049 C 
HETATM   18  C26 UNL     1     -23.929  -0.397  52.722  1.00  0.00     0.124 C 
HETATM   19  C27 UNL     1     -25.342  -0.490  53.043  1.00  0.00     0.057 C 
HETATM   20  F1  UNL     1     -23.525   0.953  52.784  1.00  0.00    -0.238 F 
HETATM   21  C28 UNL     1     -22.878  -1.208  53.292  1.00  0.00    -0.030 C 
ENDROOT
BRANCH  10  22
HETATM   22  C16 UNL     1     -19.288  -5.655  56.721  1.00  0.00     0.107 C 
HETATM   23  N1  UNL     1     -19.956  -6.550  57.397  1.00  0.00    -0.374 N 
HETATM   24  C17 UNL     1     -20.129  -6.176  58.766  1.00  0.00     0.141 C 
ATOM     25  H1  UNL     1     -20.314  -7.417  56.995  1.00  0.00     0.161 HD
HETATM   26  C18 UNL     1     -19.748  -4.710  58.824  1.00  0.00     0.141 C 
HETATM   27  N2  UNL     1     -18.978  -4.574  57.614  1.00  0.00    -0.374 N 
ATOM     28  H2  UNL     1     -18.313  -3.824  57.421  1.00  0.00     0.161 HD
ENDBRANCH  10  22
BRANCH   8  29
HETATM   29  O1  UNL     1     -16.078  -6.836  53.241  1.00  0.00    -0.361 OA
ATOM     30  H1  UNL     1     -15.895  -7.087  52.343  1.00  0.00     0.217 HD
ENDBRANCH   8  29
BRANCH   1  31
HETATM   31  C4  UNL     1     -23.182  -0.324  55.672  1.00  0.00     0.011 C 
HETATM   32  C5  UNL     1     -23.601  -1.102  56.924  1.00  0.00     0.015 C 
BRANCH  31  33
HETATM   33  C3  UNL     1     -22.264   0.771  56.238  1.00  0.00     0.008 C 
BRANCH  33  34
HETATM   34  C2  UNL     1     -22.556   2.108  55.671  1.00  0.00    -0.004 C 
HETATM   35  C1  UNL     1     -21.347   2.482  54.801  1.00  0.00     0.005 C 
ENDBRANCH  33  34
ENDBRANCH  31  33
ENDBRANCH   1  31
TORSDOF 5
ENDMDL
MODEL 5
REMARK VINA RESULT: -7.390585524      4.824      7.230
REMARK  5 active torsions:
REMARK  status: ('A' for Active; 'I' for Inactive)
REMARK    1  A    between atoms: C2_2  and  C3_3 
REMARK    2  A    between atoms: C3_3  and  C4_4 
REMARK    3  A    between atoms: C4_4  and  C6_6 
REMARK    4  A    between atoms: C13_13  and  O1_14 
REMARK    5  A    between atoms: C15_17  and  C16_18 
ROOT
HETATM    1  C6  UNL     1     -16.533  -4.665  56.112  1.00  0.00    -0.069 C 
HETATM    2  C7  UNL     1     -17.484  -4.085  57.138  1.00  0.00     0.040 C 
HETATM    3  C8  UNL     1     -18.382  -5.185  57.647  1.00  0.00    -0.001 C 
HETATM    4  C9  UNL     1     -19.408  -4.510  58.543  1.00  0.00     0.045 C 
HETATM    5  C10 UNL     1     -19.892  -5.486  59.523  1.00  0.00    -0.037 A 
HETATM    6  C11 UNL     1     -20.404  -6.734  59.245  1.00  0.00    -0.048 A 
HETATM    7  C12 UNL     1     -20.808  -7.560  60.263  1.00  0.00     0.044 A 
HETATM    8  C13 UNL     1     -20.718  -7.179  61.578  1.00  0.00     0.067 A 
HETATM    9  C14 UNL     1     -20.211  -5.943  61.837  1.00  0.00     0.052 A 
HETATM   10  C15 UNL     1     -19.783  -5.059  60.839  1.00  0.00     0.017 A 
HETATM   11  C19 UNL     1     -20.623  -7.392  57.941  1.00  0.00     0.039 C 
HETATM   12  C20 UNL     1     -20.392  -6.420  56.790  1.00  0.00     0.010 C 
HETATM   13  C21 UNL     1     -18.933  -6.100  56.634  1.00  0.00     0.003 C 
HETATM   14  C22 UNL     1     -18.625  -5.717  55.180  1.00  0.00    -0.013 C 
HETATM   15  C23 UNL     1     -19.497  -4.705  54.630  1.00  0.00     0.021 C 
HETATM   16  C24 UNL     1     -18.760  -6.943  54.292  1.00  0.00     0.018 C 
HETATM   17  C25 UNL     1     -17.670  -6.793  53.271  1.00  0.00     0.049 C 
HETATM   18  C26 UNL     1     -16.790  -5.613  53.726  1.00  0.00     0.124 C 
HETATM   19  C27 UNL     1     -16.991  -4.557  52.752  1.00  0.00     0.057 C 
HETATM   20  F1  UNL     1     -15.471  -6.100  53.621  1.00  0.00    -0.238 F 
HETATM   21  C28 UNL     1     -17.135  -5.546  55.128  1.00  0.00    -0.030 C 
ENDROOT
BRANCH  10  22
HETATM   22  C16 UNL     1     -19.274  -3.739  61.177  1.00  0.00     0.107 C 
HETATM   23  N1  UNL     1     -19.957  -2.637  61.333  1.00  0.00    -0.374 N 
HETATM   24  C17 UNL     1     -19.121  -1.525  61.664  1.00  0.00     0.141 C 
ATOM     25  H1  UNL     1     -20.969  -2.576  61.230  1.00  0.00     0.161 HD
HETATM   26  C18 UNL     1     -17.708  -1.996  61.378  1.00  0.00     0.141 C 
HETATM   27  N2  UNL     1     -17.887  -3.426  61.376  1.00  0.00    -0.374 N 
ATOM     28  H2  UNL     1     -17.141  -4.111  61.497  1.00  0.00     0.161 HD
ENDBRANCH  10  22
BRANCH   8  29
HETATM   29  O1  UNL     1     -21.129  -8.021  62.600  1.00  0.00    -0.361 OA
ATOM     30  H1  UNL     1     -20.928  -7.827  63.508  1.00  0.00     0.217 HD
ENDBRANCH   8  29
BRANCH   1  31
HETATM   31  C4  UNL     1     -15.479  -3.676  55.674  1.00  0.00     0.011 C 
HETATM   32  C5  UNL     1     -15.888  -2.233  55.984  1.00  0.00     0.015 C 
BRANCH  31  33
HETATM   33  C3  UNL     1     -14.175  -3.844  56.472  1.00  0.00     0.008 C 
BRANCH  33  34
HETATM   34  C2  UNL     1     -13.337  -4.956  55.966  1.00  0.00    -0.004 C 
HETATM   35  C1  UNL     1     -11.886  -4.600  56.324  1.00  0.00     0.005 C 
ENDBRANCH  33  34
ENDBRANCH  31  33
ENDBRANCH   1  31
TORSDOF 5
ENDMDL
