MODEL 1
REMARK VINA RESULT: -6.137993224      0.000      0.000
REMARK  7 active torsions:
REMARK  status: ('A' for Active; 'I' for Inactive)
REMARK    1  A    between atoms: C3_4  and  N2_5 
REMARK    2  A    between atoms: N2_5  and  C4_7 
REMARK    3  A    between atoms: C4_7  and  O1_8 
REMARK    4  A    between atoms: C4_7  and  C5_10 
REMARK    5  A    between atoms: C6_11  and  C7_12 
REMARK    6  A    between atoms: C11_16  and  N3_17 
REMARK    7  A    between atoms: C11_16  and  C12_21 
ROOT
HETATM    1  C4  UNL     1      87.407   1.263  22.822  1.00  0.00     0.119 C 
ENDROOT
BRANCH   1   2
HETATM    2  N2  UNL     1      86.610   2.359  23.065  1.00  0.00    -0.366 N 
ATOM      3  H2  UNL     1      85.616   2.219  23.251  1.00  0.00     0.161 HD
BRANCH   2   4
HETATM    4  C3  UNL     1      87.161   3.749  23.063  1.00  0.00     0.128 C 
HETATM    5  C2  UNL     1      86.858   4.461  21.804  1.00  0.00     0.298 C 
HETATM    6  N1  UNL     1      86.340   5.780  22.083  1.00  0.00     0.088 N 
HETATM    7  C1  UNL     1      86.199   6.468  20.822  1.00  0.00     0.310 C 
HETATM    8  C15 UNL     1      87.352   6.453  22.915  1.00  0.00     0.306 C 
HETATM    9  C14 UNL     1      87.165   5.907  24.321  1.00  0.00     0.117 C 
HETATM   10  C13 UNL     1      86.645   4.487  24.276  1.00  0.00     0.114 C 
HETATM   11 BR2  UNL     1      88.812   5.972  25.324  1.00  0.00    -0.070 Br
HETATM   12 BR3  UNL     1      85.877   7.033  25.217  1.00  0.00    -0.070 Br
HETATM   13 BR1  UNL     1      87.380   3.593  25.827  1.00  0.00    -0.086 Br
ENDBRANCH   2   4
ENDBRANCH   1   2
BRANCH   1  14
HETATM   14  O1  UNL     1      88.221   1.438  21.802  1.00  0.00    -0.349 OA
ATOM     15  H1  UNL     1      88.316   0.658  21.267  1.00  0.00     0.219 HD
ENDBRANCH   1  14
BRANCH   1  16
HETATM   16  C5  UNL     1      87.500   0.012  23.474  1.00  0.00     0.115 A 
HETATM   17  C6  UNL     1      87.467  -1.377  23.031  1.00  0.00     0.055 A 
HETATM   18  C11 UNL     1      86.227  -0.821  23.605  1.00  0.00     0.226 A 
BRANCH  17  19
HETATM   19  C7  UNL     1      87.722  -2.003  21.752  1.00  0.00    -0.044 C 
HETATM   20  C8  UNL     1      87.299  -3.494  21.855  1.00  0.00     0.015 C 
HETATM   21  C9  UNL     1      87.230  -1.522  20.473  1.00  0.00     0.015 C 
HETATM   22  C10 UNL     1      89.267  -2.099  21.602  1.00  0.00     0.015 C 
ENDBRANCH  17  19
BRANCH  18  23
HETATM   23  N3  UNL     1      85.078  -0.558  22.809  1.00  0.00    -0.059 N 
ATOM     24  H33 UNL     1      85.158  -1.106  21.953  1.00  0.00     0.275 HD
ATOM     25  H32 UNL     1      84.275  -0.993  23.264  1.00  0.00     0.275 HD
ATOM     26  H31 UNL     1      84.814   0.392  22.549  1.00  0.00     0.275 HD
ENDBRANCH  18  23
BRANCH  18  27
HETATM   27  C12 UNL     1      85.853  -1.150  25.037  1.00  0.00     0.211 C 
HETATM   28  O2  UNL     1      86.370  -2.103  25.611  1.00  0.00    -0.646 OA
HETATM   29  O3  UNL     1      84.909  -0.335  25.667  1.00  0.00    -0.646 OA
ENDBRANCH  18  27
ENDBRANCH   1  16
TORSDOF 7
ENDMDL
MODEL 2
REMARK VINA RESULT: -6.122540063     14.260     16.045
REMARK  7 active torsions:
REMARK  status: ('A' for Active; 'I' for Inactive)
REMARK    1  A    between atoms: C3_4  and  N2_5 
REMARK    2  A    between atoms: N2_5  and  C4_7 
REMARK    3  A    between atoms: C4_7  and  O1_8 
REMARK    4  A    between atoms: C4_7  and  C5_10 
REMARK    5  A    between atoms: C6_11  and  C7_12 
REMARK    6  A    between atoms: C11_16  and  N3_17 
REMARK    7  A    between atoms: C11_16  and  C12_21 
ROOT
HETATM    1  C4  UNL     1      81.621   2.928  10.082  1.00  0.00     0.119 C 
ENDROOT
BRANCH   1   2
HETATM    2  N2  UNL     1      82.035   1.863   9.313  1.00  0.00    -0.366 N 
ATOM      3  H2  UNL     1      81.525   0.981   9.369  1.00  0.00     0.161 HD
BRANCH   2   4
HETATM    4  C3  UNL     1      83.213   1.964   8.396  1.00  0.00     0.128 C 
HETATM    5  C2  UNL     1      84.421   1.346   8.980  1.00  0.00     0.298 C 
HETATM    6  N1  UNL     1      85.060   0.481   8.017  1.00  0.00     0.088 N 
HETATM    7  C1  UNL     1      86.300   0.023   8.598  1.00  0.00     0.310 C 
HETATM    8  C15 UNL     1      85.334   1.313   6.834  1.00  0.00     0.306 C 
HETATM    9  C14 UNL     1      84.013   1.430   6.091  1.00  0.00     0.117 C 
HETATM   10  C13 UNL     1      82.852   1.363   7.058  1.00  0.00     0.114 C 
HETATM   11 BR2  UNL     1      83.924   3.065   5.069  1.00  0.00    -0.070 Br
HETATM   12 BR3  UNL     1      83.905  -0.050   4.856  1.00  0.00    -0.070 Br
HETATM   13 BR1  UNL     1      81.457   2.473   6.306  1.00  0.00    -0.086 Br
ENDBRANCH   2   4
ENDBRANCH   1   2
BRANCH   1  14
HETATM   14  O1  UNL     1      80.363   3.253   9.870  1.00  0.00    -0.349 OA
ATOM     15  H1  UNL     1      80.258   3.886   9.169  1.00  0.00     0.219 HD
ENDBRANCH   1  14
BRANCH   1  16
HETATM   16  C5  UNL     1      82.305   3.708  11.043  1.00  0.00     0.115 A 
HETATM   17  C6  UNL     1      81.974   4.899  11.815  1.00  0.00     0.055 A 
HETATM   18  C11 UNL     1      82.812   5.083  10.616  1.00  0.00     0.226 A 
BRANCH  17  19
HETATM   19  C7  UNL     1      80.714   5.502  12.193  1.00  0.00    -0.044 C 
HETATM   20  C8  UNL     1      81.013   6.652  13.193  1.00  0.00     0.015 C 
HETATM   21  C9  UNL     1      79.718   6.010  11.266  1.00  0.00     0.015 C 
HETATM   22  C10 UNL     1      79.972   4.464  13.084  1.00  0.00     0.015 C 
ENDBRANCH  17  19
BRANCH  18  23
HETATM   23  N3  UNL     1      82.324   5.728   9.445  1.00  0.00    -0.059 N 
ATOM     24  H33 UNL     1      82.569   5.148   8.643  1.00  0.00     0.275 HD
ATOM     25  H32 UNL     1      81.305   5.660   9.451  1.00  0.00     0.275 HD
ATOM     26  H31 UNL     1      82.572   6.691   9.222  1.00  0.00     0.275 HD
ENDBRANCH  18  23
BRANCH  18  27
HETATM   27  C12 UNL     1      84.310   5.262  10.769  1.00  0.00     0.211 C 
HETATM   28  O2  UNL     1      84.759   6.084  11.561  1.00  0.00    -0.646 OA
HETATM   29  O3  UNL     1      85.145   4.463   9.984  1.00  0.00    -0.646 OA
ENDBRANCH  18  27
ENDBRANCH   1  16
TORSDOF 7
ENDMDL
MODEL 3
REMARK VINA RESULT: -6.063376586      2.160      2.437
REMARK  7 active torsions:
REMARK  status: ('A' for Active; 'I' for Inactive)
REMARK    1  A    between atoms: C3_4  and  N2_5 
REMARK    2  A    between atoms: N2_5  and  C4_7 
REMARK    3  A    between atoms: C4_7  and  O1_8 
REMARK    4  A    between atoms: C4_7  and  C5_10 
REMARK    5  A    between atoms: C6_11  and  C7_12 
REMARK    6  A    between atoms: C11_16  and  N3_17 
REMARK    7  A    between atoms: C11_16  and  C12_21 
ROOT
HETATM    1  C4  UNL     1      87.647   0.949  23.160  1.00  0.00     0.119 C 
ENDROOT
BRANCH   1   2
HETATM    2  N2  UNL     1      86.980   2.082  23.568  1.00  0.00    -0.366 N 
ATOM      3  H2  UNL     1      86.258   2.477  22.966  1.00  0.00     0.161 HD
BRANCH   2   4
HETATM    4  C3  UNL     1      87.286   2.750  24.871  1.00  0.00     0.128 C 
HETATM    5  C2  UNL     1      88.334   3.782  24.729  1.00  0.00     0.298 C 
HETATM    6  N1  UNL     1      87.932   5.003  25.386  1.00  0.00     0.088 N 
HETATM    7  C1  UNL     1      89.049   5.915  25.333  1.00  0.00     0.310 C 
HETATM    8  C15 UNL     1      87.641   4.643  26.783  1.00  0.00     0.306 C 
HETATM    9  C14 UNL     1      86.261   4.005  26.771  1.00  0.00     0.117 C 
HETATM   10  C13 UNL     1      86.009   3.308  25.453  1.00  0.00     0.114 C 
HETATM   11 BR2  UNL     1      86.051   2.755  28.226  1.00  0.00    -0.070 Br
HETATM   12 BR3  UNL     1      84.965   5.417  27.008  1.00  0.00    -0.070 Br
HETATM   13 BR1  UNL     1      84.869   1.796  25.850  1.00  0.00    -0.086 Br
ENDBRANCH   2   4
ENDBRANCH   1   2
BRANCH   1  14
HETATM   14  O1  UNL     1      88.472   1.174  22.158  1.00  0.00    -0.349 OA
ATOM     15  H1  UNL     1      88.116   0.903  21.319  1.00  0.00     0.219 HD
ENDBRANCH   1  14
BRANCH   1  16
HETATM   16  C5  UNL     1      87.600  -0.384  23.630  1.00  0.00     0.115 A 
HETATM   17  C6  UNL     1      87.411  -1.684  22.999  1.00  0.00     0.055 A 
HETATM   18  C11 UNL     1      86.242  -1.080  23.667  1.00  0.00     0.226 A 
BRANCH  17  19
HETATM   19  C7  UNL     1      87.590  -2.150  21.641  1.00  0.00    -0.044 C 
HETATM   20  C8  UNL     1      86.966  -3.567  21.533  1.00  0.00     0.015 C 
HETATM   21  C9  UNL     1      87.184  -1.427  20.449  1.00  0.00     0.015 C 
HETATM   22  C10 UNL     1      89.110  -2.435  21.465  1.00  0.00     0.015 C 
ENDBRANCH  17  19
BRANCH  18  23
HETATM   23  N3  UNL     1      85.128  -0.582  22.935  1.00  0.00    -0.059 N 
ATOM     24  H33 UNL     1      85.277   0.415  22.778  1.00  0.00     0.275 HD
ATOM     25  H32 UNL     1      85.183  -0.956  21.988  1.00  0.00     0.275 HD
ATOM     26  H31 UNL     1      84.172  -0.707  23.267  1.00  0.00     0.275 HD
ENDBRANCH  18  23
BRANCH  18  27
HETATM   27  C12 UNL     1      85.836  -1.562  25.046  1.00  0.00     0.211 C 
HETATM   28  O2  UNL     1      84.724  -2.049  25.231  1.00  0.00    -0.646 OA
HETATM   29  O3  UNL     1      86.764  -1.432  26.081  1.00  0.00    -0.646 OA
ENDBRANCH  18  27
ENDBRANCH   1  16
TORSDOF 7
ENDMDL
MODEL 4
REMARK VINA RESULT: -6.031244776      2.580      3.888
REMARK  7 active torsions:
REMARK  status: ('A' for Active; 'I' for Inactive)
REMARK    1  A    between atoms: C3_4  and  N2_5 
REMARK    2  A    between atoms: N2_5  and  C4_7 
REMARK    3  A    between atoms: C4_7  and  O1_8 
REMARK    4  A    between atoms: C4_7  and  C5_10 
REMARK    5  A    between atoms: C6_11  and  C7_12 
REMARK    6  A    between atoms: C11_16  and  N3_17 
REMARK    7  A    between atoms: C11_16  and  C12_21 
ROOT
HETATM    1  C4  UNL     1      85.423   2.186  25.212  1.00  0.00     0.119 C 
ENDROOT
BRANCH   1   2
HETATM    2  N2  UNL     1      85.627   3.520  24.942  1.00  0.00    -0.366 N 
ATOM      3  H2  UNL     1      85.393   3.881  24.017  1.00  0.00     0.161 HD
BRANCH   2   4
HETATM    4  C3  UNL     1      86.183   4.455  25.969  1.00  0.00     0.128 C 
HETATM    5  C2  UNL     1      85.831   4.039  27.342  1.00  0.00     0.298 C 
HETATM    6  N1  UNL     1      86.998   4.066  28.192  1.00  0.00     0.088 N 
HETATM    7  C1  UNL     1      86.562   3.788  29.540  1.00  0.00     0.310 C 
HETATM    8  C15 UNL     1      87.537   5.433  28.107  1.00  0.00     0.306 C 
HETATM    9  C14 UNL     1      88.296   5.503  26.792  1.00  0.00     0.117 C 
HETATM   10  C13 UNL     1      87.676   4.574  25.772  1.00  0.00     0.114 C 
HETATM   11 BR2  UNL     1      88.340   7.303  26.100  1.00  0.00    -0.070 Br
HETATM   12 BR3  UNL     1      90.114   4.953  27.139  1.00  0.00    -0.070 Br
HETATM   13 BR1  UNL     1      87.947   5.407  24.047  1.00  0.00    -0.086 Br
ENDBRANCH   2   4
ENDBRANCH   1   2
BRANCH   1  14
HETATM   14  O1  UNL     1      84.152   1.888  25.391  1.00  0.00    -0.349 OA
ATOM     15  H1  UNL     1      83.722   1.607  24.592  1.00  0.00     0.219 HD
ENDBRANCH   1  14
BRANCH   1  16
HETATM   16  C5  UNL     1      86.328   1.104  25.320  1.00  0.00     0.115 A 
HETATM   17  C6  UNL     1      87.327   0.515  24.437  1.00  0.00     0.055 A 
HETATM   18  C11 UNL     1      86.021  -0.165  24.529  1.00  0.00     0.226 A 
BRANCH  17  19
HETATM   19  C7  UNL     1      88.049   1.029  23.294  1.00  0.00    -0.044 C 
HETATM   20  C8  UNL     1      88.571  -0.180  22.472  1.00  0.00     0.015 C 
HETATM   21  C9  UNL     1      87.524   1.985  22.334  1.00  0.00     0.015 C 
HETATM   22  C10 UNL     1      89.362   1.659  23.842  1.00  0.00     0.015 C 
ENDBRANCH  17  19
BRANCH  18  23
HETATM   23  N3  UNL     1      85.092  -0.166  23.451  1.00  0.00    -0.059 N 
ATOM     24  H33 UNL     1      84.439  -0.935  23.601  1.00  0.00     0.275 HD
ATOM     25  H32 UNL     1      84.488   0.649  23.557  1.00  0.00     0.275 HD
ATOM     26  H31 UNL     1      85.401  -0.203  22.480  1.00  0.00     0.275 HD
ENDBRANCH  18  23
BRANCH  18  27
HETATM   27  C12 UNL     1      85.882  -1.407  25.388  1.00  0.00     0.211 C 
HETATM   28  O2  UNL     1      86.850  -1.851  25.998  1.00  0.00    -0.646 OA
HETATM   29  O3  UNL     1      84.627  -2.015  25.456  1.00  0.00    -0.646 OA
ENDBRANCH  18  27
ENDBRANCH   1  16
TORSDOF 7
ENDMDL
MODEL 5
REMARK VINA RESULT: -6.012857555      2.409      3.795
REMARK  7 active torsions:
REMARK  status: ('A' for Active; 'I' for Inactive)
REMARK    1  A    between atoms: C3_4  and  N2_5 
REMARK    2  A    between atoms: N2_5  and  C4_7 
REMARK    3  A    between atoms: C4_7  and  O1_8 
REMARK    4  A    between atoms: C4_7  and  C5_10 
REMARK    5  A    between atoms: C6_11  and  C7_12 
REMARK    6  A    between atoms: C11_16  and  N3_17 
REMARK    7  A    between atoms: C11_16  and  C12_21 
ROOT
HETATM    1  C4  UNL     1      86.683  -0.460  23.949  1.00  0.00     0.119 C 
ENDROOT
BRANCH   1   2
HETATM    2  N2  UNL     1      87.142   0.522  24.797  1.00  0.00    -0.366 N 
ATOM      3  H2  UNL     1      87.871   0.294  25.473  1.00  0.00     0.161 HD
BRANCH   2   4
HETATM    4  C3  UNL     1      86.601   1.916  24.753  1.00  0.00     0.128 C 
HETATM    5  C2  UNL     1      85.308   2.028  25.458  1.00  0.00     0.298 C 
HETATM    6  N1  UNL     1      85.313   3.169  26.343  1.00  0.00     0.088 N 
HETATM    7  C1  UNL     1      83.983   3.302  26.890  1.00  0.00     0.310 C 
HETATM    8  C15 UNL     1      85.635   4.337  25.508  1.00  0.00     0.306 C 
HETATM    9  C14 UNL     1      87.139   4.295  25.293  1.00  0.00     0.117 C 
HETATM   10  C13 UNL     1      87.638   2.867  25.304  1.00  0.00     0.114 C 
HETATM   11 BR2  UNL     1      87.637   5.151  23.637  1.00  0.00    -0.070 Br
HETATM   12 BR3  UNL     1      87.962   5.273  26.740  1.00  0.00    -0.070 Br
HETATM   13 BR1  UNL     1      89.147   2.811  24.094  1.00  0.00    -0.086 Br
ENDBRANCH   2   4
ENDBRANCH   1   2
BRANCH   1  14
HETATM   14  O1  UNL     1      86.334  -1.561  24.582  1.00  0.00    -0.349 OA
ATOM     15  H1  UNL     1      86.585  -2.350  24.116  1.00  0.00     0.219 HD
ENDBRANCH   1  14
BRANCH   1  16
HETATM   16  C5  UNL     1      86.523  -0.483  22.544  1.00  0.00     0.115 A 
HETATM   17  C6  UNL     1      86.961  -1.376  21.479  1.00  0.00     0.055 A 
HETATM   18  C11 UNL     1      87.734  -0.136  21.681  1.00  0.00     0.226 A 
BRANCH  17  19
HETATM   19  C7  UNL     1      87.378  -2.761  21.472  1.00  0.00    -0.044 C 
HETATM   20  C8  UNL     1      87.951  -3.083  20.065  1.00  0.00     0.015 C 
HETATM   21  C9  UNL     1      88.281  -3.368  22.434  1.00  0.00     0.015 C 
HETATM   22  C10 UNL     1      86.079  -3.618  21.512  1.00  0.00     0.015 C 
ENDBRANCH  17  19
BRANCH  18  23
HETATM   23  N3  UNL     1      89.054  -0.146  22.210  1.00  0.00    -0.059 N 
ATOM     24  H33 UNL     1      89.105   0.566  22.938  1.00  0.00     0.275 HD
ATOM     25  H32 UNL     1      89.170  -1.006  22.747  1.00  0.00     0.275 HD
ATOM     26  H31 UNL     1      89.872  -0.039  21.610  1.00  0.00     0.275 HD
ENDBRANCH  18  23
BRANCH  18  27
HETATM   27  C12 UNL     1      87.511   1.044  20.755  1.00  0.00     0.211 C 
HETATM   28  O2  UNL     1      87.541   2.191  21.193  1.00  0.00    -0.646 OA
HETATM   29  O3  UNL     1      87.276   0.778  19.405  1.00  0.00    -0.646 OA
ENDBRANCH  18  27
ENDBRANCH   1  16
TORSDOF 7
ENDMDL
