MODEL 1
REMARK VINA RESULT: -6.565973702      0.000      0.000
REMARK  8 active torsions:
REMARK  status: ('A' for Active; 'I' for Inactive)
REMARK    1  A    between atoms: N1_12  and  C10_13 
REMARK    2  A    between atoms: C10_13  and  O1_14 
REMARK    3  A    between atoms: C10_13  and  C11_16 
REMARK    4  A    between atoms: C11_16  and  C12_18 
REMARK    5  A    between atoms: C12_18  and  N2_19 
REMARK    6  A    between atoms: N2_19  and  O2_20 
REMARK       I    between atoms: N2_19  and  C13_22 
REMARK    7  A    between atoms: C14_25  and  C15_26 
REMARK    8  A    between atoms: C15_26  and  O4_27 
ROOT
HETATM    1  C1  UNL     1      80.803   2.964  11.805  1.00  0.00     0.016 C 
HETATM    2  C2  UNL     1      80.953   4.438  11.744  1.00  0.00    -0.031 C 
HETATM    3  C3  UNL     1      80.441   5.062  13.014  1.00  0.00     0.016 C 
HETATM    4  C4  UNL     1      82.426   4.883  11.650  1.00  0.00     0.021 C 
HETATM    5  C5  UNL     1      82.318   6.329  11.269  1.00  0.00     0.041 C 
HETATM    6  C6  UNL     1      81.022   6.472  10.496  1.00  0.00     0.086 C 
HETATM    7 BR1  UNL     1      81.319   7.182   8.723  1.00  0.00    -0.072 Br
HETATM    8 BR2  UNL     1      79.847   7.747  11.384  1.00  0.00    -0.072 Br
HETATM    9  C7  UNL     1      80.438   5.100  10.502  1.00  0.00     0.007 C 
HETATM   10  C8  UNL     1      78.936   5.095  10.406  1.00  0.00     0.020 C 
HETATM   11  C9  UNL     1      80.966   4.321   9.314  1.00  0.00     0.137 C 
HETATM   12  N1  UNL     1      82.192   3.618   9.593  1.00  0.00    -0.353 N 
HETATM   13  C14 UNL     1      83.108   4.081  10.616  1.00  0.00     0.115 C 
ENDROOT
BRANCH  12  14
HETATM   14  C10 UNL     1      82.522   2.483   8.827  1.00  0.00     0.157 C 
BRANCH  14  15
HETATM   15  O1  UNL     1      82.051   1.326   9.221  1.00  0.00    -0.345 OA
ATOM     16  H1  UNL     1      82.395   0.545   8.804  1.00  0.00     0.219 HD
ENDBRANCH  14  15
BRANCH  14  17
HETATM   17  C11 UNL     1      83.323   2.369   7.639  1.00  0.00     0.079 C 
HETATM   18 BR3  UNL     1      82.716   2.492   5.839  1.00  0.00    -0.045 Br
BRANCH  17  19
HETATM   19  C12 UNL     1      84.643   2.204   7.776  1.00  0.00     0.151 C 
BRANCH  19  20
HETATM   20  N2  UNL     1      85.328   0.999   7.875  1.00  0.00    -0.185 N 
HETATM   21  C13 UNL     1      85.854   0.586   9.158  1.00  0.00     0.358 C 
HETATM   22  N3  UNL     1      86.557  -0.642   9.286  1.00  0.00    -0.038 NA
HETATM   23  O3  UNL     1      85.687   1.306  10.147  1.00  0.00    -0.248 OA
BRANCH  20  24
HETATM   24  O2  UNL     1      85.523   0.198   6.819  1.00  0.00    -0.279 OA
ATOM     25  H2  UNL     1      86.025  -0.607   6.879  1.00  0.00     0.245 HD
ENDBRANCH  20  24
ENDBRANCH  19  20
ENDBRANCH  17  19
ENDBRANCH  14  17
ENDBRANCH  12  14
BRANCH  13  26
HETATM   26  C15 UNL     1      84.317   4.797  10.107  1.00  0.00     0.189 C 
BRANCH  26  27
HETATM   27  O4  UNL     1      85.521   4.135  10.472  1.00  0.00    -0.399 OA
ATOM     28  H4  UNL     1      86.289   4.578  10.130  1.00  0.00     0.209 HD
ENDBRANCH  26  27
ENDBRANCH  13  26
TORSDOF 8
ENDMDL
MODEL 2
REMARK VINA RESULT: -6.142382981     13.820     15.324
REMARK  8 active torsions:
REMARK  status: ('A' for Active; 'I' for Inactive)
REMARK    1  A    between atoms: N1_12  and  C10_13 
REMARK    2  A    between atoms: C10_13  and  O1_14 
REMARK    3  A    between atoms: C10_13  and  C11_16 
REMARK    4  A    between atoms: C11_16  and  C12_18 
REMARK    5  A    between atoms: C12_18  and  N2_19 
REMARK    6  A    between atoms: N2_19  and  O2_20 
REMARK       I    between atoms: N2_19  and  C13_22 
REMARK    7  A    between atoms: C14_25  and  C15_26 
REMARK    8  A    between atoms: C15_26  and  O4_27 
ROOT
HETATM    1  C1  UNL     1      88.980   4.842  25.701  1.00  0.00     0.016 C 
HETATM    2  C2  UNL     1      88.256   6.018  25.160  1.00  0.00    -0.031 C 
HETATM    3  C3  UNL     1      89.076   7.264  25.356  1.00  0.00     0.016 C 
HETATM    4  C4  UNL     1      88.028   5.928  23.638  1.00  0.00     0.021 C 
HETATM    5  C5  UNL     1      87.022   7.010  23.383  1.00  0.00     0.041 C 
HETATM    6  C6  UNL     1      86.217   7.156  24.660  1.00  0.00     0.086 C 
HETATM    7 BR1  UNL     1      84.330   6.873  24.354  1.00  0.00    -0.072 Br
HETATM    8 BR2  UNL     1      86.373   8.971  25.348  1.00  0.00    -0.072 Br
HETATM    9  C7  UNL     1      86.828   6.166  25.593  1.00  0.00     0.007 C 
HETATM   10  C8  UNL     1      86.684   6.550  27.041  1.00  0.00     0.020 C 
HETATM   11  C9  UNL     1      86.153   4.822  25.417  1.00  0.00     0.137 C 
HETATM   12  N1  UNL     1      86.773   4.000  24.408  1.00  0.00    -0.353 N 
HETATM   13  C14 UNL     1      87.506   4.588  23.305  1.00  0.00     0.115 C 
ENDROOT
BRANCH  12  14
HETATM   14  C10 UNL     1      86.627   2.600  24.478  1.00  0.00     0.157 C 
BRANCH  14  15
HETATM   15  O1  UNL     1      85.465   2.129  24.857  1.00  0.00    -0.345 OA
ATOM     16  H1  UNL     1      85.116   1.383  24.383  1.00  0.00     0.219 HD
ENDBRANCH  14  15
BRANCH  14  17
HETATM   17  C11 UNL     1      87.574   1.556  24.199  1.00  0.00     0.079 C 
HETATM   18 BR3  UNL     1      89.406   1.776  23.731  1.00  0.00    -0.045 Br
BRANCH  17  19
HETATM   19  C12 UNL     1      87.173   0.286  24.315  1.00  0.00     0.151 C 
BRANCH  19  20
HETATM   20  N2  UNL     1      86.888  -0.597  23.279  1.00  0.00    -0.185 N 
HETATM   21  C13 UNL     1      85.511  -0.814  22.891  1.00  0.00     0.358 C 
HETATM   22  N3  UNL     1      85.194  -1.712  21.836  1.00  0.00    -0.038 NA
HETATM   23  O3  UNL     1      84.608  -0.214  23.482  1.00  0.00    -0.248 OA
BRANCH  20  24
HETATM   24  O2  UNL     1      87.848  -1.261  22.622  1.00  0.00    -0.279 OA
ATOM     25  H2  UNL     1      87.654  -1.857  21.908  1.00  0.00     0.245 HD
ENDBRANCH  20  24
ENDBRANCH  19  20
ENDBRANCH  17  19
ENDBRANCH  14  17
ENDBRANCH  12  14
BRANCH  13  26
HETATM   26  C15 UNL     1      86.776   4.617  22.002  1.00  0.00     0.189 C 
BRANCH  26  27
HETATM   27  O4  UNL     1      87.143   3.532  21.162  1.00  0.00    -0.399 OA
ATOM     28  H4  UNL     1      86.397   3.176  20.693  1.00  0.00     0.209 HD
ENDBRANCH  26  27
ENDBRANCH  13  26
TORSDOF 8
ENDMDL
MODEL 3
REMARK VINA RESULT: -6.088569401     13.541     14.972
REMARK  8 active torsions:
REMARK  status: ('A' for Active; 'I' for Inactive)
REMARK    1  A    between atoms: N1_12  and  C10_13 
REMARK    2  A    between atoms: C10_13  and  O1_14 
REMARK    3  A    between atoms: C10_13  and  C11_16 
REMARK    4  A    between atoms: C11_16  and  C12_18 
REMARK    5  A    between atoms: C12_18  and  N2_19 
REMARK    6  A    between atoms: N2_19  and  O2_20 
REMARK       I    between atoms: N2_19  and  C13_22 
REMARK    7  A    between atoms: C14_25  and  C15_26 
REMARK    8  A    between atoms: C15_26  and  O4_27 
ROOT
HETATM    1  C1  UNL     1      88.911   4.253  25.654  1.00  0.00     0.016 C 
HETATM    2  C2  UNL     1      88.258   5.514  25.226  1.00  0.00    -0.031 C 
HETATM    3  C3  UNL     1      89.141   6.688  25.549  1.00  0.00     0.016 C 
HETATM    4  C4  UNL     1      88.044   5.585  23.701  1.00  0.00     0.021 C 
HETATM    5  C5  UNL     1      87.101   6.740  23.547  1.00  0.00     0.041 C 
HETATM    6  C6  UNL     1      86.289   6.804  24.826  1.00  0.00     0.086 C 
HETATM    7 BR1  UNL     1      84.394   6.655  24.481  1.00  0.00    -0.072 Br
HETATM    8 BR2  UNL     1      86.534   8.532  25.690  1.00  0.00    -0.072 Br
HETATM    9  C7  UNL     1      86.835   5.696  25.662  1.00  0.00     0.007 C 
HETATM   10  C8  UNL     1      86.694   5.944  27.139  1.00  0.00     0.020 C 
HETATM   11  C9  UNL     1      86.091   4.414  25.350  1.00  0.00     0.137 C 
HETATM   12  N1  UNL     1      86.679   3.663  24.269  1.00  0.00    -0.353 N 
HETATM   13  C14 UNL     1      87.455   4.315  23.235  1.00  0.00     0.115 C 
ENDROOT
BRANCH  12  14
HETATM   14  C10 UNL     1      86.457   2.273  24.201  1.00  0.00     0.157 C 
BRANCH  14  15
HETATM   15  O1  UNL     1      85.377   1.801  24.773  1.00  0.00    -0.345 OA
ATOM     16  H1  UNL     1      85.385   0.890  25.044  1.00  0.00     0.219 HD
ENDBRANCH  14  15
BRANCH  14  17
HETATM   17  C11 UNL     1      87.246   1.239  23.590  1.00  0.00     0.079 C 
HETATM   18 BR3  UNL     1      89.134   1.022  23.716  1.00  0.00    -0.045 Br
BRANCH  17  19
HETATM   19  C12 UNL     1      86.618   0.288  22.890  1.00  0.00     0.151 C 
BRANCH  19  20
HETATM   20  N2  UNL     1      86.986  -0.214  21.647  1.00  0.00    -0.185 N 
HETATM   21  C13 UNL     1      87.302  -1.620  21.516  1.00  0.00     0.358 C 
HETATM   22  N3  UNL     1      87.680  -2.158  20.257  1.00  0.00    -0.038 NA
HETATM   23  O3  UNL     1      87.241  -2.355  22.507  1.00  0.00    -0.248 OA
BRANCH  20  24
HETATM   24  O2  UNL     1      87.060   0.560  20.557  1.00  0.00    -0.279 OA
ATOM     25  H2  UNL     1      87.556   0.306  19.787  1.00  0.00     0.245 HD
ENDBRANCH  20  24
ENDBRANCH  19  20
ENDBRANCH  17  19
ENDBRANCH  14  17
ENDBRANCH  12  14
BRANCH  13  26
HETATM   26  C15 UNL     1      86.743   4.510  21.936  1.00  0.00     0.189 C 
BRANCH  26  27
HETATM   27  O4  UNL     1      87.123   3.541  20.969  1.00  0.00    -0.399 OA
ATOM     28  H4  UNL     1      87.979   3.172  21.152  1.00  0.00     0.209 HD
ENDBRANCH  26  27
ENDBRANCH  13  26
TORSDOF 8
ENDMDL
MODEL 4
REMARK VINA RESULT: -6.088181334      1.823      2.231
REMARK  8 active torsions:
REMARK  status: ('A' for Active; 'I' for Inactive)
REMARK    1  A    between atoms: N1_12  and  C10_13 
REMARK    2  A    between atoms: C10_13  and  O1_14 
REMARK    3  A    between atoms: C10_13  and  C11_16 
REMARK    4  A    between atoms: C11_16  and  C12_18 
REMARK    5  A    between atoms: C12_18  and  N2_19 
REMARK    6  A    between atoms: N2_19  and  O2_20 
REMARK       I    between atoms: N2_19  and  C13_22 
REMARK    7  A    between atoms: C14_25  and  C15_26 
REMARK    8  A    between atoms: C15_26  and  O4_27 
ROOT
HETATM    1  C1  UNL     1      79.731   3.884  12.180  1.00  0.00     0.016 C 
HETATM    2  C2  UNL     1      80.327   5.221  12.419  1.00  0.00    -0.031 C 
HETATM    3  C3  UNL     1      80.189   5.596  13.870  1.00  0.00     0.016 C 
HETATM    4  C4  UNL     1      81.844   5.253  12.145  1.00  0.00     0.021 C 
HETATM    5  C5  UNL     1      82.151   6.721  12.121  1.00  0.00     0.041 C 
HETATM    6  C6  UNL     1      80.884   7.415  11.662  1.00  0.00     0.086 C 
HETATM    7 BR1  UNL     1      81.178   8.466  10.067  1.00  0.00    -0.072 Br
HETATM    8 BR2  UNL     1      80.280   8.676  13.019  1.00  0.00    -0.072 Br
HETATM    9  C7  UNL     1      79.904   6.307  11.476  1.00  0.00     0.007 C 
HETATM   10  C8  UNL     1      78.476   6.738  11.672  1.00  0.00     0.020 C 
HETATM   11  C9  UNL     1      80.018   5.762  10.068  1.00  0.00     0.137 C 
HETATM   12  N1  UNL     1      80.987   4.702   9.943  1.00  0.00    -0.353 N 
HETATM   13  C14 UNL     1      82.114   4.604  10.847  1.00  0.00     0.115 C 
ENDROOT
BRANCH  12  14
HETATM   14  C10 UNL     1      80.851   3.769   8.896  1.00  0.00     0.157 C 
BRANCH  14  15
HETATM   15  O1  UNL     1      80.453   2.560   9.206  1.00  0.00    -0.345 OA
ATOM     16  H1  UNL     1      80.785   1.839   8.683  1.00  0.00     0.219 HD
ENDBRANCH  14  15
BRANCH  14  17
HETATM   17  C11 UNL     1      81.090   3.919   7.486  1.00  0.00     0.079 C 
HETATM   18 BR3  UNL     1      80.714   5.454   6.425  1.00  0.00    -0.045 Br
BRANCH  17  19
HETATM   19  C12 UNL     1      81.676   2.913   6.830  1.00  0.00     0.151 C 
BRANCH  19  20
HETATM   20  N2  UNL     1      83.042   2.681   6.704  1.00  0.00    -0.185 N 
HETATM   21  C13 UNL     1      83.696   1.779   7.627  1.00  0.00     0.358 C 
HETATM   22  N3  UNL     1      85.090   1.526   7.519  1.00  0.00    -0.038 NA
HETATM   23  O3  UNL     1      83.036   1.226   8.512  1.00  0.00    -0.248 OA
BRANCH  20  24
HETATM   24  O2  UNL     1      83.781   3.267   5.753  1.00  0.00    -0.279 OA
ATOM     25  H2  UNL     1      84.607   2.903   5.457  1.00  0.00     0.245 HD
ENDBRANCH  20  24
ENDBRANCH  19  20
ENDBRANCH  17  19
ENDBRANCH  14  17
ENDBRANCH  12  14
BRANCH  13  26
HETATM   26  C15 UNL     1      83.419   5.070  10.287  1.00  0.00     0.189 C 
BRANCH  26  27
HETATM   27  O4  UNL     1      84.145   4.012   9.676  1.00  0.00    -0.399 OA
ATOM     28  H4  UNL     1      83.648   3.591   8.984  1.00  0.00     0.209 HD
ENDBRANCH  26  27
ENDBRANCH  13  26
TORSDOF 8
ENDMDL
MODEL 5
REMARK VINA RESULT: -6.063567034      1.724      2.303
REMARK  8 active torsions:
REMARK  status: ('A' for Active; 'I' for Inactive)
REMARK    1  A    between atoms: N1_12  and  C10_13 
REMARK    2  A    between atoms: C10_13  and  O1_14 
REMARK    3  A    between atoms: C10_13  and  C11_16 
REMARK    4  A    between atoms: C11_16  and  C12_18 
REMARK    5  A    between atoms: C12_18  and  N2_19 
REMARK    6  A    between atoms: N2_19  and  O2_20 
REMARK       I    between atoms: N2_19  and  C13_22 
REMARK    7  A    between atoms: C14_25  and  C15_26 
REMARK    8  A    between atoms: C15_26  and  O4_27 
ROOT
HETATM    1  C1  UNL     1      80.855   2.932  11.783  1.00  0.00     0.016 C 
HETATM    2  C2  UNL     1      80.987   4.407  11.698  1.00  0.00    -0.031 C 
HETATM    3  C3  UNL     1      80.494   5.043  12.969  1.00  0.00     0.016 C 
HETATM    4  C4  UNL     1      82.452   4.867  11.567  1.00  0.00     0.021 C 
HETATM    5  C5  UNL     1      82.319   6.306  11.167  1.00  0.00     0.041 C 
HETATM    6  C6  UNL     1      81.006   6.423  10.419  1.00  0.00     0.086 C 
HETATM    7 BR1  UNL     1      81.257   7.110   8.631  1.00  0.00    -0.072 Br
HETATM    8 BR2  UNL     1      79.836   7.697  11.313  1.00  0.00    -0.072 Br
HETATM    9  C7  UNL     1      80.438   5.045  10.457  1.00  0.00     0.007 C 
HETATM   10  C8  UNL     1      78.935   5.021  10.393  1.00  0.00     0.020 C 
HETATM   11  C9  UNL     1      80.950   4.254   9.270  1.00  0.00     0.137 C 
HETATM   12  N1  UNL     1      82.190   3.569   9.533  1.00  0.00    -0.353 N 
HETATM   13  C14 UNL     1      83.122   4.057  10.529  1.00  0.00     0.115 C 
ENDROOT
BRANCH  12  14
HETATM   14  C10 UNL     1      82.516   2.426   8.776  1.00  0.00     0.157 C 
BRANCH  14  15
HETATM   15  O1  UNL     1      81.540   1.619   8.444  1.00  0.00    -0.345 OA
ATOM     16  H1  UNL     1      81.718   0.685   8.454  1.00  0.00     0.219 HD
ENDBRANCH  14  15
BRANCH  14  17
HETATM   17  C11 UNL     1      83.790   1.972   8.290  1.00  0.00     0.079 C 
HETATM   18 BR3  UNL     1      85.177   1.163   9.312  1.00  0.00    -0.045 Br
BRANCH  17  19
HETATM   19  C12 UNL     1      84.042   2.070   6.980  1.00  0.00     0.151 C 
BRANCH  19  20
HETATM   20  N2  UNL     1      83.992   1.046   6.041  1.00  0.00    -0.185 N 
HETATM   21  C13 UNL     1      82.831   0.924   5.187  1.00  0.00     0.358 C 
HETATM   22  N3  UNL     1      82.756  -0.114   4.219  1.00  0.00    -0.038 NA
HETATM   23  O3  UNL     1      81.902   1.729   5.300  1.00  0.00    -0.248 OA
BRANCH  20  24
HETATM   24  O2  UNL     1      84.986   0.160   5.897  1.00  0.00    -0.279 OA
ATOM     25  H2  UNL     1      85.900   0.420   5.891  1.00  0.00     0.245 HD
ENDBRANCH  20  24
ENDBRANCH  19  20
ENDBRANCH  17  19
ENDBRANCH  14  17
ENDBRANCH  12  14
BRANCH  13  26
HETATM   26  C15 UNL     1      84.312   4.779   9.986  1.00  0.00     0.189 C 
BRANCH  26  27
HETATM   27  O4  UNL     1      85.499   4.461  10.698  1.00  0.00    -0.399 OA
ATOM     28  H4  UNL     1      85.959   3.724  10.313  1.00  0.00     0.209 HD
ENDBRANCH  26  27
ENDBRANCH  13  26
TORSDOF 8
ENDMDL
