MODEL 1
REMARK VINA RESULT: -8.114774289      0.000      0.000
REMARK  5 active torsions:
REMARK  status: ('A' for Active; 'I' for Inactive)
REMARK       I    between atoms: C1_2  and  N1_3 
REMARK    1  A    between atoms: C1_2  and  C8_14 
REMARK    2  A    between atoms: N1_3  and  S1_5 
REMARK    3  A    between atoms: S1_5  and  C2_8 
REMARK    4  A    between atoms: C12_24  and  C13_25 
REMARK    5  A    between atoms: C13_25  and  O4_26 
ROOT
HETATM    1  C8  UNL     1      88.089   0.984  20.495  1.00  0.00     0.287 C 
HETATM    2  N2  UNL     1      87.715   2.235  21.135  1.00  0.00    -0.032 N 
ATOM      3  H21 UNL     1      86.822   2.579  20.783  1.00  0.00     0.281 HD
ATOM      4  H22 UNL     1      88.315   3.001  20.828  1.00  0.00     0.281 HD
HETATM    5  C9  UNL     1      87.704   2.123  22.573  1.00  0.00     0.252 C 
HETATM    6 BR1  UNL     1      89.480   1.862  23.269  1.00  0.00    -0.040 Br
HETATM    7 BR2  UNL     1      87.026   3.794  23.277  1.00  0.00    -0.040 Br
HETATM    8  C10 UNL     1      86.796   1.023  23.057  1.00  0.00     0.117 C 
HETATM    9 BR3  UNL     1      86.851   0.966  24.990  1.00  0.00    -0.087 Br
HETATM   10  C11 UNL     1      87.292  -0.281  22.481  1.00  0.00     0.029 C 
HETATM   11  C12 UNL     1      87.187  -0.137  20.954  1.00  0.00     0.051 C 
ENDROOT
BRANCH   1  12
HETATM   12  C1  UNL     1      87.868   1.201  19.046  1.00  0.00     0.262 C 
HETATM   13  O1  UNL     1      87.487   0.253  18.290  1.00  0.00    -0.270 OA
HETATM   14  N1  UNL     1      88.066   2.476  18.431  1.00  0.00    -0.252 N 
ATOM     15  H1  UNL     1      88.379   3.261  19.004  1.00  0.00     0.181 HD
BRANCH  14  16
HETATM   16  S1  UNL     1      87.790   2.718  16.762  1.00  0.00     0.237 S 
HETATM   17  O2  UNL     1      87.277   4.116  16.565  1.00  0.00    -0.205 OA
HETATM   18  O3  UNL     1      86.683   1.794  16.257  1.00  0.00    -0.205 OA
BRANCH  16  19
HETATM   19  C2  UNL     1      89.260   2.398  15.789  1.00  0.00     0.129 C 
HETATM   20  C3  UNL     1      90.446   2.492  16.683  1.00  0.00     0.022 C 
HETATM   21  C4  UNL     1      91.425   3.532  16.144  1.00  0.00     0.001 C 
HETATM   22  C5  UNL     1      91.819   2.986  14.766  1.00  0.00     0.000 C 
HETATM   23  C6  UNL     1      90.645   3.251  13.865  1.00  0.00     0.001 C 
HETATM   24  C7  UNL     1      89.330   3.259  14.573  1.00  0.00     0.022 C 
ENDBRANCH  16  19
ENDBRANCH  14  16
ENDBRANCH   1  12
BRANCH  11  25
HETATM   25  C13 UNL     1      87.555  -1.450  20.366  1.00  0.00     0.171 C 
BRANCH  25  26
HETATM   26  O4  UNL     1      86.429  -2.305  20.472  1.00  0.00    -0.400 OA
ATOM     27  H4  UNL     1      85.868  -2.142  19.722  1.00  0.00     0.209 HD
ENDBRANCH  25  26
ENDBRANCH  11  25
TORSDOF 5
ENDMDL
MODEL 2
REMARK VINA RESULT: -8.028484872     10.417     11.549
REMARK  5 active torsions:
REMARK  status: ('A' for Active; 'I' for Inactive)
REMARK       I    between atoms: C1_2  and  N1_3 
REMARK    1  A    between atoms: C1_2  and  C8_14 
REMARK    2  A    between atoms: N1_3  and  S1_5 
REMARK    3  A    between atoms: S1_5  and  C2_8 
REMARK    4  A    between atoms: C12_24  and  C13_25 
REMARK    5  A    between atoms: C13_25  and  O4_26 
ROOT
HETATM    1  C8  UNL     1      81.460   4.883  10.422  1.00  0.00     0.287 C 
HETATM    2  N2  UNL     1      80.146   4.637  10.993  1.00  0.00    -0.032 N 
ATOM      3  H21 UNL     1      80.106   3.728  11.454  1.00  0.00     0.281 HD
ATOM      4  H22 UNL     1      79.449   4.479  10.265  1.00  0.00     0.281 HD
HETATM    5  C9  UNL     1      79.739   5.695  11.885  1.00  0.00     0.252 C 
HETATM    6 BR1  UNL     1      79.431   7.338  10.930  1.00  0.00    -0.040 Br
HETATM    7 BR2  UNL     1      78.066   5.155  12.698  1.00  0.00    -0.040 Br
HETATM    8  C10 UNL     1      80.731   5.925  12.995  1.00  0.00     0.117 C 
HETATM    9 BR3  UNL     1      80.085   7.353  14.130  1.00  0.00    -0.087 Br
HETATM   10  C11 UNL     1      82.050   6.309  12.371  1.00  0.00     0.029 C 
HETATM   11  C12 UNL     1      82.479   5.108  11.514  1.00  0.00     0.051 C 
ENDROOT
BRANCH   1  12
HETATM   12  C1  UNL     1      81.814   3.640   9.697  1.00  0.00     0.262 C 
HETATM   13  O1  UNL     1      81.297   2.524  10.016  1.00  0.00    -0.270 OA
HETATM   14  N1  UNL     1      82.743   3.634   8.611  1.00  0.00    -0.252 N 
ATOM     15  H1  UNL     1      83.186   4.510   8.330  1.00  0.00     0.181 HD
BRANCH  14  16
HETATM   16  S1  UNL     1      83.129   2.196   7.771  1.00  0.00     0.237 S 
HETATM   17  O2  UNL     1      83.574   2.563   6.385  1.00  0.00    -0.205 OA
HETATM   18  O3  UNL     1      81.888   1.324   7.592  1.00  0.00    -0.205 OA
BRANCH  16  19
HETATM   19  C2  UNL     1      84.363   1.228   8.638  1.00  0.00     0.129 C 
HETATM   20  C3  UNL     1      84.828   2.005   9.818  1.00  0.00     0.022 C 
HETATM   21  C4  UNL     1      86.341   2.192   9.756  1.00  0.00     0.001 C 
HETATM   22  C5  UNL     1      86.890   0.760   9.792  1.00  0.00     0.000 C 
HETATM   23  C6  UNL     1      86.648   0.190   8.422  1.00  0.00     0.001 C 
HETATM   24  C7  UNL     1      85.452   0.761   7.733  1.00  0.00     0.022 C 
ENDBRANCH  16  19
ENDBRANCH  14  16
ENDBRANCH   1  12
BRANCH  11  25
HETATM   25  C13 UNL     1      83.833   5.410  10.984  1.00  0.00     0.171 C 
BRANCH  25  26
HETATM   26  O4  UNL     1      84.389   6.446  11.778  1.00  0.00    -0.400 OA
ATOM     27  H4  UNL     1      85.286   6.581  11.494  1.00  0.00     0.209 HD
ENDBRANCH  25  26
ENDBRANCH  11  25
TORSDOF 5
ENDMDL
MODEL 3
REMARK VINA RESULT: -7.896281395      9.813     11.744
REMARK  5 active torsions:
REMARK  status: ('A' for Active; 'I' for Inactive)
REMARK       I    between atoms: C1_2  and  N1_3 
REMARK    1  A    between atoms: C1_2  and  C8_14 
REMARK    2  A    between atoms: N1_3  and  S1_5 
REMARK    3  A    between atoms: S1_5  and  C2_8 
REMARK    4  A    between atoms: C12_24  and  C13_25 
REMARK    5  A    between atoms: C13_25  and  O4_26 
ROOT
HETATM    1  C8  UNL     1      81.691   4.543  10.411  1.00  0.00     0.287 C 
HETATM    2  N2  UNL     1      82.718   5.200  11.203  1.00  0.00    -0.032 N 
ATOM      3  H21 UNL     1      83.579   5.318  10.669  1.00  0.00     0.281 HD
ATOM      4  H22 UNL     1      83.068   4.587  11.939  1.00  0.00     0.281 HD
HETATM    5  C9  UNL     1      82.261   6.457  11.743  1.00  0.00     0.252 C 
HETATM    6 BR1  UNL     1      80.884   6.194  13.062  1.00  0.00    -0.040 Br
HETATM    7 BR2  UNL     1      83.772   7.295  12.617  1.00  0.00    -0.040 Br
HETATM    8  C10 UNL     1      81.774   7.399  10.673  1.00  0.00     0.117 C 
HETATM    9 BR3  UNL     1      81.194   9.048  11.504  1.00  0.00    -0.087 Br
HETATM   10  C11 UNL     1      80.620   6.740   9.958  1.00  0.00     0.029 C 
HETATM   11  C12 UNL     1      81.190   5.462   9.323  1.00  0.00     0.051 C 
ENDROOT
BRANCH   1  12
HETATM   12  C1  UNL     1      82.363   3.385   9.776  1.00  0.00     0.262 C 
HETATM   13  O1  UNL     1      82.116   2.196  10.149  1.00  0.00    -0.270 OA
HETATM   14  N1  UNL     1      83.311   3.546   8.719  1.00  0.00    -0.252 N 
ATOM     15  H1  UNL     1      83.542   4.486   8.396  1.00  0.00     0.181 HD
BRANCH  14  16
HETATM   16  S1  UNL     1      84.067   2.201   7.983  1.00  0.00     0.237 S 
HETATM   17  O2  UNL     1      84.143   2.452   6.504  1.00  0.00    -0.205 OA
HETATM   18  O3  UNL     1      83.215   0.944   8.147  1.00  0.00    -0.205 OA
BRANCH  16  19
HETATM   19  C2  UNL     1      85.679   1.870   8.691  1.00  0.00     0.129 C 
HETATM   20  C3  UNL     1      86.157   0.557   8.182  1.00  0.00     0.022 C 
HETATM   21  C4  UNL     1      86.465  -0.375   9.351  1.00  0.00     0.001 C 
HETATM   22  C5  UNL     1      87.576   0.352  10.119  1.00  0.00     0.000 C 
HETATM   23  C6  UNL     1      86.901   1.473  10.858  1.00  0.00     0.001 C 
HETATM   24  C7  UNL     1      85.679   1.997  10.177  1.00  0.00     0.022 C 
ENDBRANCH  16  19
ENDBRANCH  14  16
ENDBRANCH   1  12
BRANCH  11  25
HETATM   25  C13 UNL     1      80.104   4.856   8.512  1.00  0.00     0.171 C 
BRANCH  25  26
HETATM   26  O4  UNL     1      79.012   4.589   9.377  1.00  0.00    -0.400 OA
ATOM     27  H4  UNL     1      78.245   4.436   8.838  1.00  0.00     0.209 HD
ENDBRANCH  25  26
ENDBRANCH  11  25
TORSDOF 5
ENDMDL
MODEL 4
REMARK VINA RESULT: -7.821736010     10.472     12.083
REMARK  5 active torsions:
REMARK  status: ('A' for Active; 'I' for Inactive)
REMARK       I    between atoms: C1_2  and  N1_3 
REMARK    1  A    between atoms: C1_2  and  C8_14 
REMARK    2  A    between atoms: N1_3  and  S1_5 
REMARK    3  A    between atoms: S1_5  and  C2_8 
REMARK    4  A    between atoms: C12_24  and  C13_25 
REMARK    5  A    between atoms: C13_25  and  O4_26 
ROOT
HETATM    1  C8  UNL     1      81.067   4.677  10.346  1.00  0.00     0.287 C 
HETATM    2  N2  UNL     1      82.210   5.216  11.067  1.00  0.00    -0.032 N 
ATOM      3  H21 UNL     1      83.020   5.317  10.456  1.00  0.00     0.281 HD
ATOM      4  H22 UNL     1      82.588   4.535  11.724  1.00  0.00     0.281 HD
HETATM    5  C9  UNL     1      81.893   6.460  11.727  1.00  0.00     0.252 C 
HETATM    6 BR1  UNL     1      80.638   6.192  13.161  1.00  0.00    -0.040 Br
HETATM    7 BR2  UNL     1      83.536   7.143  12.490  1.00  0.00    -0.040 Br
HETATM    8  C10 UNL     1      81.368   7.499  10.772  1.00  0.00     0.117 C 
HETATM    9 BR3  UNL     1      80.985   9.121  11.756  1.00  0.00    -0.087 Br
HETATM   10  C11 UNL     1      80.107   6.961  10.140  1.00  0.00     0.029 C 
HETATM   11  C12 UNL     1      80.525   5.696   9.373  1.00  0.00     0.051 C 
ENDROOT
BRANCH   1  12
HETATM   12  C1  UNL     1      81.595   3.526   9.577  1.00  0.00     0.262 C 
HETATM   13  O1  UNL     1      81.117   2.359   9.729  1.00  0.00    -0.270 OA
HETATM   14  N1  UNL     1      82.655   3.670   8.629  1.00  0.00    -0.252 N 
ATOM     15  H1  UNL     1      83.071   4.590   8.483  1.00  0.00     0.181 HD
BRANCH  14  16
HETATM   16  S1  UNL     1      83.243   2.337   7.734  1.00  0.00     0.237 S 
HETATM   17  O2  UNL     1      83.880   2.856   6.477  1.00  0.00    -0.205 OA
HETATM   18  O3  UNL     1      82.092   1.443   7.277  1.00  0.00    -0.205 OA
BRANCH  16  19
HETATM   19  C2  UNL     1      84.373   1.334   8.696  1.00  0.00     0.129 C 
HETATM   20  C3  UNL     1      84.849   2.138   9.853  1.00  0.00     0.022 C 
HETATM   21  C4  UNL     1      86.374   2.218   9.841  1.00  0.00     0.001 C 
HETATM   22  C5  UNL     1      86.819   0.755   9.969  1.00  0.00     0.000 C 
HETATM   23  C6  UNL     1      86.586   0.132   8.621  1.00  0.00     0.001 C 
HETATM   24  C7  UNL     1      85.459   0.747   7.859  1.00  0.00     0.022 C 
ENDBRANCH  16  19
ENDBRANCH  14  16
ENDBRANCH   1  12
BRANCH  11  25
HETATM   25  C13 UNL     1      79.326   5.213   8.642  1.00  0.00     0.171 C 
BRANCH  25  26
HETATM   26  O4  UNL     1      78.367   4.803   9.603  1.00  0.00    -0.400 OA
ATOM     27  H4  UNL     1      77.583   4.537   9.137  1.00  0.00     0.209 HD
ENDBRANCH  25  26
ENDBRANCH  11  25
TORSDOF 5
ENDMDL
MODEL 5
REMARK VINA RESULT: -7.700911543      1.007      1.543
REMARK  5 active torsions:
REMARK  status: ('A' for Active; 'I' for Inactive)
REMARK       I    between atoms: C1_2  and  N1_3 
REMARK    1  A    between atoms: C1_2  and  C8_14 
REMARK    2  A    between atoms: N1_3  and  S1_5 
REMARK    3  A    between atoms: S1_5  and  C2_8 
REMARK    4  A    between atoms: C12_24  and  C13_25 
REMARK    5  A    between atoms: C13_25  and  O4_26 
ROOT
HETATM    1  C8  UNL     1      87.962   1.060  21.207  1.00  0.00     0.287 C 
HETATM    2  N2  UNL     1      87.733   2.475  21.452  1.00  0.00    -0.032 N 
ATOM      3  H21 UNL     1      86.917   2.813  20.940  1.00  0.00     0.281 HD
ATOM      4  H22 UNL     1      88.450   3.049  21.007  1.00  0.00     0.281 HD
HETATM    5  C9  UNL     1      87.626   2.769  22.860  1.00  0.00     0.252 C 
HETATM    6 BR1  UNL     1      89.306   2.500  23.761  1.00  0.00    -0.040 Br
HETATM    7 BR2  UNL     1      87.152   4.639  23.026  1.00  0.00    -0.040 Br
HETATM    8  C10 UNL     1      86.547   1.963  23.535  1.00  0.00     0.117 C 
HETATM    9 BR3  UNL     1      86.487   2.440  25.410  1.00  0.00    -0.087 Br
HETATM   10  C11 UNL     1      86.887   0.501  23.378  1.00  0.00     0.029 C 
HETATM   11  C12 UNL     1      86.888   0.227  21.865  1.00  0.00     0.051 C 
ENDROOT
BRANCH   1  12
HETATM   12  C1  UNL     1      87.854   0.891  19.739  1.00  0.00     0.262 C 
HETATM   13  O1  UNL     1      87.417  -0.189  19.232  1.00  0.00    -0.270 OA
HETATM   14  N1  UNL     1      88.228   1.927  18.828  1.00  0.00    -0.252 N 
ATOM     15  H1  UNL     1      88.590   2.807  19.196  1.00  0.00     0.181 HD
BRANCH  14  16
HETATM   16  S1  UNL     1      88.082   1.726  17.136  1.00  0.00     0.237 S 
HETATM   17  O2  UNL     1      86.627   1.815  16.774  1.00  0.00    -0.205 OA
HETATM   18  O3  UNL     1      88.530   0.327  16.717  1.00  0.00    -0.205 OA
BRANCH  16  19
HETATM   19  C2  UNL     1      89.073   2.916  16.235  1.00  0.00     0.129 C 
HETATM   20  C3  UNL     1      88.424   3.169  14.920  1.00  0.00     0.022 C 
HETATM   21  C4  UNL     1      89.404   2.868  13.789  1.00  0.00     0.001 C 
HETATM   22  C5  UNL     1      90.557   3.850  14.029  1.00  0.00     0.000 C 
HETATM   23  C6  UNL     1      91.334   3.299  15.192  1.00  0.00     0.001 C 
HETATM   24  C7  UNL     1      90.505   2.510  16.153  1.00  0.00     0.022 C 
ENDBRANCH  16  19
ENDBRANCH  14  16
ENDBRANCH   1  12
BRANCH  11  25
HETATM   25  C13 UNL     1      87.100  -1.231  21.686  1.00  0.00     0.171 C 
BRANCH  25  26
HETATM   26  O4  UNL     1      85.883  -1.794  21.224  1.00  0.00    -0.400 OA
ATOM     27  H4  UNL     1      86.017  -2.729  21.114  1.00  0.00     0.209 HD
ENDBRANCH  25  26
ENDBRANCH  11  25
TORSDOF 5
ENDMDL
