MODEL 1
REMARK VINA RESULT: -5.633700570      0.000      0.000
REMARK  9 active torsions:
REMARK  status: ('A' for Active; 'I' for Inactive)
REMARK    1  A    between atoms: C4_4  and  C5_5 
REMARK    2  A    between atoms: C5_5  and  C6_6 
REMARK       I    between atoms: C6_6  and  N1_8 
REMARK    3  A    between atoms: N1_8  and  C7_10 
REMARK    4  A    between atoms: C13_17  and  N3_18 
REMARK    5  A    between atoms: N3_18  and  C15_20 
REMARK    6  A    between atoms: C15_20  and  C16_21 
REMARK    7  A    between atoms: C20_25  and  C21_26 
REMARK       I    between atoms: C21_26  and  N4_28 
REMARK    8  A    between atoms: N4_28  and  C22_30 
REMARK    9  A    between atoms: C22_30  and  C24_32 
ROOT
HETATM    1  C7  UNL     1     -24.386   9.301 -13.446  1.00  0.00     0.111 C 
HETATM    2  C8  UNL     1     -23.496   9.353 -14.665  1.00  0.00     0.013 C 
HETATM    3  C9  UNL     1     -23.783   8.021 -15.322  1.00  0.00     0.009 C 
HETATM    4  C10 UNL     1     -25.205   7.673 -14.948  1.00  0.00     0.027 C 
HETATM    5  C11 UNL     1     -25.672   8.833 -14.118  1.00  0.00     0.103 C 
HETATM    6  N2  UNL     1     -26.215   9.886 -14.873  1.00  0.00    -0.387 N 
HETATM    7  C12 UNL     1     -27.101  10.774 -14.185  1.00  0.00     0.154 C 
HETATM    8  C13 UNL     1     -27.080  12.056 -14.922  1.00  0.00     0.242 C 
HETATM    9  C19 UNL     1     -25.789  12.077 -15.631  1.00  0.00     0.078 C 
HETATM   10  C20 UNL     1     -25.380  10.590 -15.778  1.00  0.00     0.112 C 
HETATM   11  C27 UNL     1     -23.926  10.514 -15.517  1.00  0.00     0.047 C 
ENDROOT
BRANCH   1  12
HETATM   12  N1  UNL     1     -23.874   8.283 -12.558  1.00  0.00    -0.354 N 
HETATM   13  C6  UNL     1     -24.614   7.651 -11.529  1.00  0.00     0.221 C 
HETATM   14  O1  UNL     1     -25.810   7.996 -11.369  1.00  0.00    -0.273 OA
ATOM     15  H1  UNL     1     -22.902   7.998 -12.682  1.00  0.00     0.163 HD
BRANCH  13  16
HETATM   16  C5  UNL     1     -23.985   6.612 -10.675  1.00  0.00     0.130 C 
BRANCH  16  17
HETATM   17  C4  UNL     1     -24.748   6.264  -9.471  1.00  0.00    -0.016 C 
HETATM   18  C2  UNL     1     -24.315   5.637  -8.409  1.00  0.00    -0.091 C 
HETATM   19  C1  UNL     1     -25.235   5.371  -7.282  1.00  0.00     0.042 C 
HETATM   20  C3  UNL     1     -22.914   5.185  -8.307  1.00  0.00     0.042 C 
ENDBRANCH  16  17
ENDBRANCH  13  16
ENDBRANCH   1  12
BRANCH  10  21
HETATM   21  C21 UNL     1     -25.665  10.270 -17.201  1.00  0.00     0.246 C 
HETATM   22  O2  UNL     1     -24.880   9.449 -17.783  1.00  0.00    -0.271 OA
HETATM   23  N4  UNL     1     -26.716  10.787 -17.967  1.00  0.00    -0.354 N 
ATOM     24  H4  UNL     1     -27.361  11.446 -17.529  1.00  0.00     0.162 HD
BRANCH  23  25
HETATM   25  C22 UNL     1     -26.927  10.429 -19.356  1.00  0.00     0.083 C 
HETATM   26  C23 UNL     1     -28.400  10.279 -19.658  1.00  0.00     0.032 C 
BRANCH  25  27
HETATM   27  C24 UNL     1     -26.345  11.427 -20.315  1.00  0.00    -0.000 C 
HETATM   28  C25 UNL     1     -26.138  12.746 -19.610  1.00  0.00     0.011 C 
HETATM   29  C26 UNL     1     -25.018  10.939 -20.843  1.00  0.00     0.011 C 
ENDBRANCH  25  27
ENDBRANCH  23  25
ENDBRANCH  10  21
BRANCH   8  30
HETATM   30  N3  UNL     1     -27.227  13.254 -14.083  1.00  0.00     0.090 N 
HETATM   31  C14 UNL     1     -27.894  12.869 -12.851  1.00  0.00     0.310 C 
BRANCH  30  32
HETATM   32  C15 UNL     1     -27.847  14.302 -14.811  1.00  0.00     0.276 C 
BRANCH  32  33
HETATM   33  C16 UNL     1     -28.822  13.861 -15.834  1.00  0.00     0.006 C 
HETATM   34  C17 UNL     1     -30.241  13.846 -15.217  1.00  0.00     0.011 C 
HETATM   35  C18 UNL     1     -28.846  14.534 -17.149  1.00  0.00     0.011 C 
ENDBRANCH  32  33
ENDBRANCH  30  32
ENDBRANCH   8  30
TORSDOF 9
ENDMDL
MODEL 2
REMARK VINA RESULT: -5.409960185      1.669      2.613
REMARK  9 active torsions:
REMARK  status: ('A' for Active; 'I' for Inactive)
REMARK    1  A    between atoms: C4_4  and  C5_5 
REMARK    2  A    between atoms: C5_5  and  C6_6 
REMARK       I    between atoms: C6_6  and  N1_8 
REMARK    3  A    between atoms: N1_8  and  C7_10 
REMARK    4  A    between atoms: C13_17  and  N3_18 
REMARK    5  A    between atoms: N3_18  and  C15_20 
REMARK    6  A    between atoms: C15_20  and  C16_21 
REMARK    7  A    between atoms: C20_25  and  C21_26 
REMARK       I    between atoms: C21_26  and  N4_28 
REMARK    8  A    between atoms: N4_28  and  C22_30 
REMARK    9  A    between atoms: C22_30  and  C24_32 
ROOT
HETATM    1  C7  UNL     1     -25.786  10.192 -14.640  1.00  0.00     0.111 C 
HETATM    2  C8  UNL     1     -24.604  10.439 -15.546  1.00  0.00     0.013 C 
HETATM    3  C9  UNL     1     -24.803   9.391 -16.618  1.00  0.00     0.009 C 
HETATM    4  C10 UNL     1     -26.295   9.167 -16.706  1.00  0.00     0.027 C 
HETATM    5  C11 UNL     1     -26.879  10.116 -15.700  1.00  0.00     0.103 C 
HETATM    6  N2  UNL     1     -27.123  11.402 -16.211  1.00  0.00    -0.387 N 
HETATM    7  C12 UNL     1     -28.093  12.191 -15.515  1.00  0.00     0.154 C 
HETATM    8  C13 UNL     1     -27.784  13.607 -15.811  1.00  0.00     0.242 C 
HETATM    9  C19 UNL     1     -26.353  13.628 -16.161  1.00  0.00     0.078 C 
HETATM   10  C20 UNL     1     -26.030  12.193 -16.645  1.00  0.00     0.112 C 
HETATM   11  C27 UNL     1     -24.706  11.838 -16.089  1.00  0.00     0.047 C 
ENDROOT
BRANCH   1  12
HETATM   12  N1  UNL     1     -25.603   8.909 -14.002  1.00  0.00    -0.354 N 
HETATM   13  C6  UNL     1     -24.644   8.626 -12.998  1.00  0.00     0.221 C 
HETATM   14  O1  UNL     1     -23.890   9.559 -12.627  1.00  0.00    -0.273 OA
ATOM     15  H1  UNL     1     -26.212   8.146 -14.299  1.00  0.00     0.163 HD
BRANCH  13  16
HETATM   16  C5  UNL     1     -24.546   7.267 -12.409  1.00  0.00     0.130 C 
BRANCH  16  17
HETATM   17  C4  UNL     1     -24.994   7.170 -11.015  1.00  0.00    -0.016 C 
HETATM   18  C2  UNL     1     -24.441   6.485 -10.048  1.00  0.00    -0.091 C 
HETATM   19  C1  UNL     1     -25.036   6.506  -8.694  1.00  0.00     0.042 C 
HETATM   20  C3  UNL     1     -23.223   5.684 -10.279  1.00  0.00     0.042 C 
ENDBRANCH  16  17
ENDBRANCH  13  16
ENDBRANCH   1  12
BRANCH  10  21
HETATM   21  C21 UNL     1     -25.950  12.314 -18.124  1.00  0.00     0.246 C 
HETATM   22  O2  UNL     1     -26.139  13.473 -18.626  1.00  0.00    -0.271 OA
HETATM   23  N4  UNL     1     -25.687  11.274 -19.022  1.00  0.00    -0.354 N 
ATOM     24  H4  UNL     1     -25.531  10.336 -18.651  1.00  0.00     0.162 HD
BRANCH  23  25
HETATM   25  C22 UNL     1     -25.628  11.471 -20.458  1.00  0.00     0.083 C 
HETATM   26  C23 UNL     1     -24.418  10.787 -21.049  1.00  0.00     0.032 C 
BRANCH  25  27
HETATM   27  C24 UNL     1     -26.851  10.968 -21.170  1.00  0.00    -0.000 C 
HETATM   28  C25 UNL     1     -26.467   9.851 -22.110  1.00  0.00     0.011 C 
HETATM   29  C26 UNL     1     -27.862  10.447 -20.177  1.00  0.00     0.011 C 
ENDBRANCH  25  27
ENDBRANCH  23  25
ENDBRANCH  10  21
BRANCH   8  30
HETATM   30  N3  UNL     1     -28.060  14.542 -14.711  1.00  0.00     0.090 N 
HETATM   31  C14 UNL     1     -27.241  15.727 -14.903  1.00  0.00     0.310 C 
BRANCH  30  32
HETATM   32  C15 UNL     1     -27.912  13.895 -13.456  1.00  0.00     0.276 C 
BRANCH  32  33
HETATM   33  C16 UNL     1     -29.058  14.051 -12.534  1.00  0.00     0.006 C 
HETATM   34  C17 UNL     1     -30.203  13.109 -12.977  1.00  0.00     0.011 C 
HETATM   35  C18 UNL     1     -28.838  13.932 -11.077  1.00  0.00     0.011 C 
ENDBRANCH  32  33
ENDBRANCH  30  32
ENDBRANCH   8  30
TORSDOF 9
ENDMDL
MODEL 3
REMARK VINA RESULT: -4.972760373      1.482      2.006
REMARK  9 active torsions:
REMARK  status: ('A' for Active; 'I' for Inactive)
REMARK    1  A    between atoms: C4_4  and  C5_5 
REMARK    2  A    between atoms: C5_5  and  C6_6 
REMARK       I    between atoms: C6_6  and  N1_8 
REMARK    3  A    between atoms: N1_8  and  C7_10 
REMARK    4  A    between atoms: C13_17  and  N3_18 
REMARK    5  A    between atoms: N3_18  and  C15_20 
REMARK    6  A    between atoms: C15_20  and  C16_21 
REMARK    7  A    between atoms: C20_25  and  C21_26 
REMARK       I    between atoms: C21_26  and  N4_28 
REMARK    8  A    between atoms: N4_28  and  C22_30 
REMARK    9  A    between atoms: C22_30  and  C24_32 
ROOT
HETATM    1  C7  UNL     1     -25.414   9.276 -14.314  1.00  0.00     0.111 C 
HETATM    2  C8  UNL     1     -24.242   9.772 -15.125  1.00  0.00     0.013 C 
HETATM    3  C9  UNL     1     -24.318   8.899 -16.358  1.00  0.00     0.009 C 
HETATM    4  C10 UNL     1     -25.780   8.560 -16.535  1.00  0.00     0.027 C 
HETATM    5  C11 UNL     1     -26.472   9.277 -15.412  1.00  0.00     0.103 C 
HETATM    6  N2  UNL     1     -26.825  10.601 -15.719  1.00  0.00    -0.387 N 
HETATM    7  C12 UNL     1     -27.879  11.177 -14.941  1.00  0.00     0.154 C 
HETATM    8  C13 UNL     1     -27.699  12.644 -14.995  1.00  0.00     0.242 C 
HETATM    9  C19 UNL     1     -26.269  12.850 -15.285  1.00  0.00     0.078 C 
HETATM   10  C20 UNL     1     -25.802  11.547 -15.980  1.00  0.00     0.112 C 
HETATM   11  C27 UNL     1     -24.463  11.226 -15.440  1.00  0.00     0.047 C 
ENDROOT
BRANCH   1  12
HETATM   12  N1  UNL     1     -25.125   7.928 -13.884  1.00  0.00    -0.354 N 
HETATM   13  C6  UNL     1     -24.443   7.580 -12.691  1.00  0.00     0.221 C 
HETATM   14  O1  UNL     1     -24.057   8.511 -11.944  1.00  0.00    -0.273 OA
ATOM     15  H1  UNL     1     -25.436   7.165 -14.486  1.00  0.00     0.163 HD
BRANCH  13  16
HETATM   16  C5  UNL     1     -24.203   6.156 -12.346  1.00  0.00     0.130 C 
BRANCH  16  17
HETATM   17  C4  UNL     1     -23.402   5.946 -11.135  1.00  0.00    -0.016 C 
HETATM   18  C2  UNL     1     -23.838   5.765  -9.915  1.00  0.00    -0.091 C 
HETATM   19  C1  UNL     1     -22.876   5.568  -8.810  1.00  0.00     0.042 C 
HETATM   20  C3  UNL     1     -25.282   5.753  -9.615  1.00  0.00     0.042 C 
ENDBRANCH  16  17
ENDBRANCH  13  16
ENDBRANCH   1  12
BRANCH  10  21
HETATM   21  C21 UNL     1     -25.702  11.914 -17.417  1.00  0.00     0.246 C 
HETATM   22  O2  UNL     1     -25.602  13.155 -17.697  1.00  0.00    -0.271 OA
HETATM   23  N4  UNL     1     -25.709  11.024 -18.497  1.00  0.00    -0.354 N 
ATOM     24  H4  UNL     1     -25.787  10.024 -18.305  1.00  0.00     0.162 HD
BRANCH  23  25
HETATM   25  C22 UNL     1     -25.610  11.460 -19.876  1.00  0.00     0.083 C 
HETATM   26  C23 UNL     1     -24.438  10.805 -20.568  1.00  0.00     0.032 C 
BRANCH  25  27
HETATM   27  C24 UNL     1     -26.851  11.174 -20.672  1.00  0.00    -0.000 C 
HETATM   28  C25 UNL     1     -26.518  10.241 -21.812  1.00  0.00     0.011 C 
HETATM   29  C26 UNL     1     -27.899  10.527 -19.799  1.00  0.00     0.011 C 
ENDBRANCH  25  27
ENDBRANCH  23  25
ENDBRANCH  10  21
BRANCH   8  30
HETATM   30  N3  UNL     1     -28.085  13.359 -13.770  1.00  0.00     0.090 N 
HETATM   31  C14 UNL     1     -29.457  13.004 -13.448  1.00  0.00     0.310 C 
BRANCH  30  32
HETATM   32  C15 UNL     1     -27.828  14.749 -13.900  1.00  0.00     0.276 C 
BRANCH  32  33
HETATM   33  C16 UNL     1     -28.722  15.463 -14.838  1.00  0.00     0.006 C 
HETATM   34  C17 UNL     1     -29.453  16.600 -14.085  1.00  0.00     0.011 C 
HETATM   35  C18 UNL     1     -28.176  15.969 -16.115  1.00  0.00     0.011 C 
ENDBRANCH  32  33
ENDBRANCH  30  32
ENDBRANCH   8  30
TORSDOF 9
ENDMDL
MODEL 4
REMARK VINA RESULT: -4.731191935      2.747      9.311
REMARK  9 active torsions:
REMARK  status: ('A' for Active; 'I' for Inactive)
REMARK    1  A    between atoms: C4_4  and  C5_5 
REMARK    2  A    between atoms: C5_5  and  C6_6 
REMARK       I    between atoms: C6_6  and  N1_8 
REMARK    3  A    between atoms: N1_8  and  C7_10 
REMARK    4  A    between atoms: C13_17  and  N3_18 
REMARK    5  A    between atoms: N3_18  and  C15_20 
REMARK    6  A    between atoms: C15_20  and  C16_21 
REMARK    7  A    between atoms: C20_25  and  C21_26 
REMARK       I    between atoms: C21_26  and  N4_28 
REMARK    8  A    between atoms: N4_28  and  C22_30 
REMARK    9  A    between atoms: C22_30  and  C24_32 
ROOT
HETATM    1  C7  UNL     1     -24.930   7.274 -14.363  1.00  0.00     0.111 C 
HETATM    2  C8  UNL     1     -23.762   6.318 -14.329  1.00  0.00     0.013 C 
HETATM    3  C9  UNL     1     -22.583   7.252 -14.486  1.00  0.00     0.009 C 
HETATM    4  C10 UNL     1     -23.014   8.567 -13.877  1.00  0.00     0.027 C 
HETATM    5  C11 UNL     1     -24.407   8.314 -13.378  1.00  0.00     0.103 C 
HETATM    6  N2  UNL     1     -24.454   7.789 -12.076  1.00  0.00    -0.387 N 
HETATM    7  C12 UNL     1     -25.678   7.974 -11.358  1.00  0.00     0.154 C 
HETATM    8  C13 UNL     1     -25.739   6.909 -10.333  1.00  0.00     0.242 C 
HETATM    9  C19 UNL     1     -24.888   5.823 -10.850  1.00  0.00     0.078 C 
HETATM   10  C20 UNL     1     -23.899   6.509 -11.826  1.00  0.00     0.112 C 
HETATM   11  C27 UNL     1     -23.762   5.617 -12.998  1.00  0.00     0.047 C 
ENDROOT
BRANCH   1  12
HETATM   12  N1  UNL     1     -25.017   7.828 -15.694  1.00  0.00    -0.354 N 
HETATM   13  C6  UNL     1     -25.448   9.142 -16.004  1.00  0.00     0.221 C 
HETATM   14  O1  UNL     1     -25.782   9.890 -15.052  1.00  0.00    -0.273 OA
ATOM     15  H1  UNL     1     -24.747   7.227 -16.472  1.00  0.00     0.163 HD
BRANCH  13  16
HETATM   16  C5  UNL     1     -25.496   9.609 -17.412  1.00  0.00     0.130 C 
BRANCH  16  17
HETATM   17  C4  UNL     1     -25.872  11.018 -17.578  1.00  0.00    -0.016 C 
HETATM   18  C2  UNL     1     -25.977  11.687 -18.696  1.00  0.00    -0.091 C 
HETATM   19  C1  UNL     1     -26.372  13.111 -18.670  1.00  0.00     0.042 C 
HETATM   20  C3  UNL     1     -25.709  11.044 -19.998  1.00  0.00     0.042 C 
ENDBRANCH  16  17
ENDBRANCH  13  16
ENDBRANCH   1  12
BRANCH  10  21
HETATM   21  C21 UNL     1     -22.621   6.566 -11.071  1.00  0.00     0.246 C 
HETATM   22  O2  UNL     1     -21.635   7.150 -11.635  1.00  0.00    -0.271 OA
HETATM   23  N4  UNL     1     -22.393   6.038  -9.795  1.00  0.00    -0.354 N 
ATOM     24  H4  UNL     1     -23.162   5.567  -9.318  1.00  0.00     0.162 HD
BRANCH  23  25
HETATM   25  C22 UNL     1     -21.112   6.132  -9.123  1.00  0.00     0.083 C 
HETATM   26  C23 UNL     1     -20.406   7.420  -9.479  1.00  0.00     0.032 C 
BRANCH  25  27
HETATM   27  C24 UNL     1     -21.227   6.052  -7.627  1.00  0.00    -0.000 C 
HETATM   28  C25 UNL     1     -22.045   4.843  -7.245  1.00  0.00     0.011 C 
HETATM   29  C26 UNL     1     -19.859   5.937  -6.999  1.00  0.00     0.011 C 
ENDBRANCH  25  27
ENDBRANCH  23  25
ENDBRANCH  10  21
BRANCH   8  30
HETATM   30  N3  UNL     1     -27.090   6.411 -10.040  1.00  0.00     0.090 N 
HETATM   31  C14 UNL     1     -28.043   7.458 -10.367  1.00  0.00     0.310 C 
BRANCH  30  32
HETATM   32  C15 UNL     1     -27.162   5.913  -8.713  1.00  0.00     0.276 C 
BRANCH  32  33
HETATM   33  C16 UNL     1     -25.951   6.138  -7.894  1.00  0.00     0.006 C 
HETATM   34  C17 UNL     1     -26.092   7.475  -7.128  1.00  0.00     0.011 C 
HETATM   35  C18 UNL     1     -25.487   5.075  -6.979  1.00  0.00     0.011 C 
ENDBRANCH  32  33
ENDBRANCH  30  32
ENDBRANCH   8  30
TORSDOF 9
ENDMDL
MODEL 5
REMARK VINA RESULT: -4.724106672      0.754      1.028
REMARK  9 active torsions:
REMARK  status: ('A' for Active; 'I' for Inactive)
REMARK    1  A    between atoms: C4_4  and  C5_5 
REMARK    2  A    between atoms: C5_5  and  C6_6 
REMARK       I    between atoms: C6_6  and  N1_8 
REMARK    3  A    between atoms: N1_8  and  C7_10 
REMARK    4  A    between atoms: C13_17  and  N3_18 
REMARK    5  A    between atoms: N3_18  and  C15_20 
REMARK    6  A    between atoms: C15_20  and  C16_21 
REMARK    7  A    between atoms: C20_25  and  C21_26 
REMARK       I    between atoms: C21_26  and  N4_28 
REMARK    8  A    between atoms: N4_28  and  C22_30 
REMARK    9  A    between atoms: C22_30  and  C24_32 
ROOT
HETATM    1  C7  UNL     1     -24.443   8.756 -13.613  1.00  0.00     0.111 C 
HETATM    2  C8  UNL     1     -23.525   8.832 -14.810  1.00  0.00     0.013 C 
HETATM    3  C9  UNL     1     -23.897   7.580 -15.573  1.00  0.00     0.009 C 
HETATM    4  C10 UNL     1     -25.349   7.315 -15.251  1.00  0.00     0.027 C 
HETATM    5  C11 UNL     1     -25.746   8.442 -14.340  1.00  0.00     0.103 C 
HETATM    6  N2  UNL     1     -26.190   9.588 -15.019  1.00  0.00    -0.387 N 
HETATM    7  C12 UNL     1     -27.021  10.487 -14.278  1.00  0.00     0.154 C 
HETATM    8  C13 UNL     1     -26.888  11.815 -14.913  1.00  0.00     0.242 C 
HETATM    9  C19 UNL     1     -25.583  11.791 -15.598  1.00  0.00     0.078 C 
HETATM   10  C20 UNL     1     -25.285  10.292 -15.853  1.00  0.00     0.112 C 
HETATM   11  C27 UNL     1     -23.847  10.085 -15.576  1.00  0.00     0.047 C 
ENDROOT
BRANCH   1  12
HETATM   12  N1  UNL     1     -24.028   7.637 -12.799  1.00  0.00    -0.354 N 
HETATM   13  C6  UNL     1     -24.716   7.161 -11.656  1.00  0.00     0.221 C 
HETATM   14  O1  UNL     1     -25.770   7.752 -11.317  1.00  0.00    -0.273 OA
ATOM     15  H1  UNL     1     -23.172   7.152 -13.069  1.00  0.00     0.163 HD
BRANCH  13  16
HETATM   16  C5  UNL     1     -24.199   5.997 -10.894  1.00  0.00     0.130 C 
BRANCH  16  17
HETATM   17  C4  UNL     1     -23.018   6.280 -10.071  1.00  0.00    -0.016 C 
HETATM   18  C2  UNL     1     -22.646   5.668  -8.977  1.00  0.00    -0.091 C 
HETATM   19  C1  UNL     1     -21.415   6.093  -8.276  1.00  0.00     0.042 C 
HETATM   20  C3  UNL     1     -23.434   4.552  -8.420  1.00  0.00     0.042 C 
ENDBRANCH  16  17
ENDBRANCH  13  16
ENDBRANCH   1  12
BRANCH  10  21
HETATM   21  C21 UNL     1     -25.562  10.105 -17.301  1.00  0.00     0.246 C 
HETATM   22  O2  UNL     1     -24.738   9.392 -17.966  1.00  0.00    -0.271 OA
HETATM   23  N4  UNL     1     -26.645  10.640 -18.008  1.00  0.00    -0.354 N 
ATOM     24  H4  UNL     1     -27.322  11.214 -17.504  1.00  0.00     0.162 HD
BRANCH  23  25
HETATM   25  C22 UNL     1     -26.846  10.414 -19.426  1.00  0.00     0.083 C 
HETATM   26  C23 UNL     1     -28.317  10.297 -19.753  1.00  0.00     0.032 C 
BRANCH  25  27
HETATM   27  C24 UNL     1     -26.256  11.499 -20.283  1.00  0.00    -0.000 C 
HETATM   28  C25 UNL     1     -26.024  12.734 -19.447  1.00  0.00     0.011 C 
HETATM   29  C26 UNL     1     -24.941  11.048 -20.870  1.00  0.00     0.011 C 
ENDBRANCH  25  27
ENDBRANCH  23  25
ENDBRANCH  10  21
BRANCH   8  30
HETATM   30  N3  UNL     1     -26.962  12.953 -13.986  1.00  0.00     0.090 N 
HETATM   31  C14 UNL     1     -27.918  12.628 -12.940  1.00  0.00     0.310 C 
BRANCH  30  32
HETATM   32  C15 UNL     1     -27.216  14.158 -14.691  1.00  0.00     0.276 C 
BRANCH  32  33
HETATM   33  C16 UNL     1     -28.640  14.411 -15.003  1.00  0.00     0.006 C 
HETATM   34  C17 UNL     1     -29.087  15.727 -14.324  1.00  0.00     0.011 C 
HETATM   35  C18 UNL     1     -29.088  14.389 -16.411  1.00  0.00     0.011 C 
ENDBRANCH  32  33
ENDBRANCH  30  32
ENDBRANCH   8  30
TORSDOF 9
ENDMDL
