MODEL 1
REMARK VINA RESULT: -10.232914825      0.000      0.000
REMARK  9 active torsions:
REMARK  status: ('A' for Active; 'I' for Inactive)
REMARK    1  A    between atoms: C2_2  and  C3_3 
REMARK    2  A    between atoms: C3_3  and  N1_4 
REMARK    3  A    between atoms: N1_4  and  C4_5 
REMARK       I    between atoms: N1_4  and  C17_21 
REMARK    4  A    between atoms: C4_5  and  C5_6 
REMARK       I    between atoms: C5_6  and  N2_8 
REMARK    5  A    between atoms: N2_8  and  C6_10 
REMARK       I    between atoms: C17_21  and  N3_23 
REMARK    6  A    between atoms: N3_23  and  C18_25 
REMARK    7  A    between atoms: C18_25  and  C19_26 
REMARK    8  A    between atoms: C19_26  and  C20_27 
REMARK    9  A    between atoms: C20_27  and  N4_28 
ROOT
HETATM    1  N1  UNL     1     -25.379  11.093 -18.549  1.00  0.00    -0.326 N 
HETATM    2  C17 UNL     1     -25.336  10.133 -17.500  1.00  0.00     0.318 C 
HETATM    3  O2  UNL     1     -25.207   8.927 -17.811  1.00  0.00    -0.247 OA
HETATM    4  N3  UNL     1     -25.434  10.492 -16.131  1.00  0.00    -0.343 N 
ATOM      5  H3  UNL     1     -25.539  11.472 -15.870  1.00  0.00     0.164 HD
ENDROOT
BRANCH   1   6
HETATM    6  C3  UNL     1     -25.274  10.631 -19.886  1.00  0.00     0.127 C 
BRANCH   6   7
HETATM    7  C2  UNL     1     -26.372  10.782 -20.848  1.00  0.00     0.015 C 
HETATM    8  C1  UNL     1     -27.739  10.440 -20.398  1.00  0.00     0.006 C 
ENDBRANCH   6   7
ENDBRANCH   1   6
BRANCH   1   9
HETATM    9  C4  UNL     1     -25.651  12.442 -18.214  1.00  0.00     0.230 C 
BRANCH   9  10
HETATM   10  C5  UNL     1     -26.641  12.752 -17.192  1.00  0.00     0.236 C 
HETATM   11  O1  UNL     1     -27.753  12.121 -17.335  1.00  0.00    -0.272 OA
HETATM   12  N2  UNL     1     -26.543  13.619 -16.100  1.00  0.00    -0.350 N 
ATOM     13  H2  UNL     1     -25.654  14.110 -16.002  1.00  0.00     0.163 HD
BRANCH  12  14
HETATM   14  C6  UNL     1     -27.535  13.910 -15.094  1.00  0.00     0.033 C 
HETATM   15  C7  UNL     1     -27.070  15.223 -14.449  1.00  0.00     0.031 C 
HETATM   16  C8  UNL     1     -27.692  15.578 -13.176  1.00  0.00     0.007 C 
HETATM   17  C9  UNL     1     -29.042  15.066 -12.853  1.00  0.00    -0.014 C 
HETATM   18  C10 UNL     1     -30.036  15.196 -13.966  1.00  0.00     0.009 C 
HETATM   19  C14 UNL     1     -28.976  13.674 -12.268  1.00  0.00     0.009 C 
HETATM   20  C11 UNL     1     -30.054  14.019 -14.890  1.00  0.00    -0.012 C 
HETATM   21  C12 UNL     1     -30.049  12.692 -14.208  1.00  0.00     0.009 C 
HETATM   22  C16 UNL     1     -28.846  14.103 -15.781  1.00  0.00     0.035 C 
HETATM   23  C13 UNL     1     -28.830  12.622 -13.347  1.00  0.00    -0.012 C 
HETATM   24  C15 UNL     1     -27.535  12.808 -14.084  1.00  0.00     0.035 C 
ENDBRANCH  12  14
ENDBRANCH   9  10
ENDBRANCH   1   9
BRANCH   4  25
HETATM   25  C18 UNL     1     -25.383   9.451 -15.081  1.00  0.00     0.126 C 
BRANCH  25  26
HETATM   26  C19 UNL     1     -24.157   9.654 -14.276  1.00  0.00     0.050 C 
BRANCH  26  27
HETATM   27  C20 UNL     1     -24.131   8.964 -12.972  1.00  0.00     0.274 C 
BRANCH  27  28
HETATM   28  N4  UNL     1     -23.431   7.728 -12.870  1.00  0.00     0.089 N 
HETATM   29  C21 UNL     1     -23.996   6.587 -13.472  1.00  0.00     0.273 C 
HETATM   30  C22 UNL     1     -23.992   5.478 -12.447  1.00  0.00     0.043 C 
HETATM   31  C23 UNL     1     -23.908   6.239 -11.142  1.00  0.00     0.011 C 
HETATM   32  C24 UNL     1     -23.230   5.487 -10.043  1.00  0.00     0.039 C 
HETATM   33  C26 UNL     1     -25.238   6.590 -10.557  1.00  0.00     0.179 C 
HETATM   34  C27 UNL     1     -23.105   7.474 -11.505  1.00  0.00     0.284 C 
HETATM   35  C25 UNL     1     -24.205   5.646  -8.882  1.00  0.00     0.168 C 
HETATM   36  O3  UNL     1     -25.444   5.655  -9.539  1.00  0.00    -0.390 OA
ENDBRANCH  27  28
ENDBRANCH  26  27
ENDBRANCH  25  26
ENDBRANCH   4  25
TORSDOF 9
ENDMDL
MODEL 2
REMARK VINA RESULT: -10.199783795      2.128      3.680
REMARK  9 active torsions:
REMARK  status: ('A' for Active; 'I' for Inactive)
REMARK    1  A    between atoms: C2_2  and  C3_3 
REMARK    2  A    between atoms: C3_3  and  N1_4 
REMARK    3  A    between atoms: N1_4  and  C4_5 
REMARK       I    between atoms: N1_4  and  C17_21 
REMARK    4  A    between atoms: C4_5  and  C5_6 
REMARK       I    between atoms: C5_6  and  N2_8 
REMARK    5  A    between atoms: N2_8  and  C6_10 
REMARK       I    between atoms: C17_21  and  N3_23 
REMARK    6  A    between atoms: N3_23  and  C18_25 
REMARK    7  A    between atoms: C18_25  and  C19_26 
REMARK    8  A    between atoms: C19_26  and  C20_27 
REMARK    9  A    between atoms: C20_27  and  N4_28 
ROOT
HETATM    1  N1  UNL     1     -25.127   8.985 -15.189  1.00  0.00    -0.326 N 
HETATM    2  C17 UNL     1     -24.978   7.839 -14.360  1.00  0.00     0.318 C 
HETATM    3  O2  UNL     1     -25.225   6.716 -14.856  1.00  0.00    -0.247 OA
HETATM    4  N3  UNL     1     -24.565   7.925 -13.005  1.00  0.00    -0.343 N 
ATOM      5  H3  UNL     1     -24.362   8.835 -12.593  1.00  0.00     0.164 HD
ENDROOT
BRANCH   1   6
HETATM    6  C3  UNL     1     -25.546   8.792 -16.531  1.00  0.00     0.127 C 
BRANCH   6   7
HETATM    7  C2  UNL     1     -24.891   9.472 -17.653  1.00  0.00     0.015 C 
HETATM    8  C1  UNL     1     -25.710  10.379 -18.488  1.00  0.00     0.006 C 
ENDBRANCH   6   7
ENDBRANCH   1   6
BRANCH   1   9
HETATM    9  C4  UNL     1     -24.971  10.264 -14.602  1.00  0.00     0.230 C 
BRANCH   9  10
HETATM   10  C5  UNL     1     -25.955  11.306 -14.858  1.00  0.00     0.236 C 
HETATM   11  O1  UNL     1     -27.009  11.221 -14.126  1.00  0.00    -0.272 OA
HETATM   12  N2  UNL     1     -25.903  12.366 -15.768  1.00  0.00    -0.350 N 
ATOM     13  H2  UNL     1     -25.060  12.419 -16.340  1.00  0.00     0.163 HD
BRANCH  12  14
HETATM   14  C6  UNL     1     -26.888  13.394 -16.004  1.00  0.00     0.033 C 
HETATM   15  C7  UNL     1     -26.090  14.584 -16.557  1.00  0.00     0.031 C 
HETATM   16  C8  UNL     1     -26.772  15.876 -16.566  1.00  0.00     0.007 C 
HETATM   17  C9  UNL     1     -28.250  15.922 -16.622  1.00  0.00    -0.014 C 
HETATM   18  C10 UNL     1     -28.861  15.010 -17.641  1.00  0.00     0.009 C 
HETATM   19  C14 UNL     1     -28.856  15.775 -15.245  1.00  0.00     0.009 C 
HETATM   20  C11 UNL     1     -29.147  13.637 -17.117  1.00  0.00    -0.012 C 
HETATM   21  C12 UNL     1     -29.801  13.606 -15.777  1.00  0.00     0.009 C 
HETATM   22  C16 UNL     1     -27.846  12.888 -17.031  1.00  0.00     0.035 C 
HETATM   23  C13 UNL     1     -28.913  14.325 -14.814  1.00  0.00    -0.012 C 
HETATM   24  C15 UNL     1     -27.527  13.758 -14.704  1.00  0.00     0.035 C 
ENDBRANCH  12  14
ENDBRANCH   9  10
ENDBRANCH   1   9
BRANCH   4  25
HETATM   25  C18 UNL     1     -24.427   6.699 -12.187  1.00  0.00     0.126 C 
BRANCH  25  26
HETATM   26  C19 UNL     1     -24.884   6.998 -10.811  1.00  0.00     0.050 C 
BRANCH  26  27
HETATM   27  C20 UNL     1     -25.832   6.028 -10.231  1.00  0.00     0.274 C 
BRANCH  27  28
HETATM   28  N4  UNL     1     -25.965   5.971  -8.814  1.00  0.00     0.089 N 
HETATM   29  C21 UNL     1     -25.468   7.046  -8.052  1.00  0.00     0.273 C 
HETATM   30  C22 UNL     1     -24.609   6.470  -6.952  1.00  0.00     0.043 C 
HETATM   31  C23 UNL     1     -24.245   5.109  -7.500  1.00  0.00     0.011 C 
HETATM   32  C24 UNL     1     -24.000   4.076  -6.448  1.00  0.00     0.039 C 
HETATM   33  C26 UNL     1     -22.985   5.096  -8.304  1.00  0.00     0.179 C 
HETATM   34  C27 UNL     1     -25.453   4.729  -8.335  1.00  0.00     0.284 C 
HETATM   35  C25 UNL     1     -22.672   3.467  -6.885  1.00  0.00     0.168 C 
HETATM   36  O3  UNL     1     -22.014   4.570  -7.447  1.00  0.00    -0.390 OA
ENDBRANCH  27  28
ENDBRANCH  26  27
ENDBRANCH  25  26
ENDBRANCH   4  25
TORSDOF 9
ENDMDL
MODEL 3
REMARK VINA RESULT: -10.102282638      0.381      1.357
REMARK  9 active torsions:
REMARK  status: ('A' for Active; 'I' for Inactive)
REMARK    1  A    between atoms: C2_2  and  C3_3 
REMARK    2  A    between atoms: C3_3  and  N1_4 
REMARK    3  A    between atoms: N1_4  and  C4_5 
REMARK       I    between atoms: N1_4  and  C17_21 
REMARK    4  A    between atoms: C4_5  and  C5_6 
REMARK       I    between atoms: C5_6  and  N2_8 
REMARK    5  A    between atoms: N2_8  and  C6_10 
REMARK       I    between atoms: C17_21  and  N3_23 
REMARK    6  A    between atoms: N3_23  and  C18_25 
REMARK    7  A    between atoms: C18_25  and  C19_26 
REMARK    8  A    between atoms: C19_26  and  C20_27 
REMARK    9  A    between atoms: C20_27  and  N4_28 
ROOT
HETATM    1  N1  UNL     1     -25.376  11.194 -18.567  1.00  0.00    -0.326 N 
HETATM    2  C17 UNL     1     -25.289  10.192 -17.562  1.00  0.00     0.318 C 
HETATM    3  O2  UNL     1     -25.071   9.013 -17.923  1.00  0.00    -0.247 OA
HETATM    4  N3  UNL     1     -25.438  10.480 -16.180  1.00  0.00    -0.343 N 
ATOM      5  H3  UNL     1     -25.616  11.437 -15.878  1.00  0.00     0.164 HD
ENDROOT
BRANCH   1   6
HETATM    6  C3  UNL     1     -25.212  10.803 -19.921  1.00  0.00     0.127 C 
BRANCH   6   7
HETATM    7  C2  UNL     1     -26.325  10.830 -20.877  1.00  0.00     0.015 C 
HETATM    8  C1  UNL     1     -27.670  10.455 -20.385  1.00  0.00     0.006 C 
ENDBRANCH   6   7
ENDBRANCH   1   6
BRANCH   1   9
HETATM    9  C4  UNL     1     -25.745  12.505 -18.178  1.00  0.00     0.230 C 
BRANCH   9  10
HETATM   10  C5  UNL     1     -26.741  12.700 -17.134  1.00  0.00     0.236 C 
HETATM   11  O1  UNL     1     -27.793  11.975 -17.274  1.00  0.00    -0.272 OA
HETATM   12  N2  UNL     1     -26.701  13.547 -16.023  1.00  0.00    -0.350 N 
ATOM     13  H2  UNL     1     -25.859  14.114 -15.926  1.00  0.00     0.163 HD
BRANCH  12  14
HETATM   14  C6  UNL     1     -27.697  13.723 -14.993  1.00  0.00     0.033 C 
HETATM   15  C7  UNL     1     -27.426  12.597 -13.985  1.00  0.00     0.031 C 
HETATM   16  C8  UNL     1     -28.486  12.321 -13.019  1.00  0.00     0.007 C 
HETATM   17  C9  UNL     1     -29.436  13.392 -12.649  1.00  0.00    -0.014 C 
HETATM   18  C10 UNL     1     -28.796  14.712 -12.348  1.00  0.00     0.009 C 
HETATM   19  C14 UNL     1     -30.569  13.489 -13.645  1.00  0.00     0.009 C 
HETATM   20  C11 UNL     1     -28.628  15.583 -13.554  1.00  0.00    -0.012 C 
HETATM   21  C12 UNL     1     -29.827  15.657 -14.439  1.00  0.00     0.009 C 
HETATM   22  C16 UNL     1     -27.473  15.055 -14.358  1.00  0.00     0.035 C 
HETATM   23  C13 UNL     1     -30.162  14.268 -14.878  1.00  0.00    -0.012 C 
HETATM   24  C15 UNL     1     -29.052  13.560 -15.600  1.00  0.00     0.035 C 
ENDBRANCH  12  14
ENDBRANCH   9  10
ENDBRANCH   1   9
BRANCH   4  25
HETATM   25  C18 UNL     1     -25.339   9.397 -15.177  1.00  0.00     0.126 C 
BRANCH  25  26
HETATM   26  C19 UNL     1     -24.168   9.665 -14.311  1.00  0.00     0.050 C 
BRANCH  26  27
HETATM   27  C20 UNL     1     -24.163   8.962 -13.013  1.00  0.00     0.274 C 
BRANCH  27  28
HETATM   28  N4  UNL     1     -23.459   7.729 -12.911  1.00  0.00     0.089 N 
HETATM   29  C21 UNL     1     -24.025   6.583 -13.504  1.00  0.00     0.273 C 
HETATM   30  C22 UNL     1     -24.011   5.479 -12.474  1.00  0.00     0.043 C 
HETATM   31  C23 UNL     1     -23.919   6.246 -11.173  1.00  0.00     0.011 C 
HETATM   32  C24 UNL     1     -23.231   5.501 -10.076  1.00  0.00     0.039 C 
HETATM   33  C26 UNL     1     -25.246   6.596 -10.581  1.00  0.00     0.179 C 
HETATM   34  C27 UNL     1     -23.123   7.482 -11.547  1.00  0.00     0.284 C 
HETATM   35  C25 UNL     1     -24.199   5.662  -8.909  1.00  0.00     0.168 C 
HETATM   36  O3  UNL     1     -25.442   5.665  -9.557  1.00  0.00    -0.390 OA
ENDBRANCH  27  28
ENDBRANCH  26  27
ENDBRANCH  25  26
ENDBRANCH   4  25
TORSDOF 9
ENDMDL
MODEL 4
REMARK VINA RESULT: -10.024135863      0.572      1.607
REMARK  9 active torsions:
REMARK  status: ('A' for Active; 'I' for Inactive)
REMARK    1  A    between atoms: C2_2  and  C3_3 
REMARK    2  A    between atoms: C3_3  and  N1_4 
REMARK    3  A    between atoms: N1_4  and  C4_5 
REMARK       I    between atoms: N1_4  and  C17_21 
REMARK    4  A    between atoms: C4_5  and  C5_6 
REMARK       I    between atoms: C5_6  and  N2_8 
REMARK    5  A    between atoms: N2_8  and  C6_10 
REMARK       I    between atoms: C17_21  and  N3_23 
REMARK    6  A    between atoms: N3_23  and  C18_25 
REMARK    7  A    between atoms: C18_25  and  C19_26 
REMARK    8  A    between atoms: C19_26  and  C20_27 
REMARK    9  A    between atoms: C20_27  and  N4_28 
ROOT
HETATM    1  N1  UNL     1     -25.304  11.027 -18.457  1.00  0.00    -0.326 N 
HETATM    2  C17 UNL     1     -25.308  10.083 -17.393  1.00  0.00     0.318 C 
HETATM    3  O2  UNL     1     -25.318   8.865 -17.685  1.00  0.00    -0.247 OA
HETATM    4  N3  UNL     1     -25.304  10.470 -16.028  1.00  0.00    -0.343 N 
ATOM      5  H3  UNL     1     -25.296  11.460 -15.781  1.00  0.00     0.164 HD
ENDROOT
BRANCH   1   6
HETATM    6  C3  UNL     1     -25.310  10.537 -19.789  1.00  0.00     0.127 C 
BRANCH   6   7
HETATM    7  C2  UNL     1     -26.400  10.840 -20.722  1.00  0.00     0.015 C 
HETATM    8  C1  UNL     1     -27.772  10.440 -20.338  1.00  0.00     0.006 C 
ENDBRANCH   6   7
ENDBRANCH   1   6
BRANCH   1   9
HETATM    9  C4  UNL     1     -25.420  12.401 -18.136  1.00  0.00     0.230 C 
BRANCH   9  10
HETATM   10  C5  UNL     1     -26.542  12.869 -17.335  1.00  0.00     0.236 C 
HETATM   11  O1  UNL     1     -27.590  13.157 -18.023  1.00  0.00    -0.272 OA
HETATM   12  N2  UNL     1     -26.631  13.035 -15.951  1.00  0.00    -0.350 N 
ATOM     13  H2  UNL     1     -25.792  12.800 -15.420  1.00  0.00     0.163 HD
BRANCH  12  14
HETATM   14  C6  UNL     1     -27.756  13.495 -15.173  1.00  0.00     0.033 C 
HETATM   15  C7  UNL     1     -28.992  12.975 -15.921  1.00  0.00     0.031 C 
HETATM   16  C8  UNL     1     -30.273  13.574 -15.555  1.00  0.00     0.007 C 
HETATM   17  C9  UNL     1     -30.450  14.153 -14.205  1.00  0.00    -0.014 C 
HETATM   18  C10 UNL     1     -29.947  13.289 -13.089  1.00  0.00     0.009 C 
HETATM   19  C14 UNL     1     -29.935  15.572 -14.144  1.00  0.00     0.009 C 
HETATM   20  C11 UNL     1     -28.506  13.524 -12.757  1.00  0.00    -0.012 C 
HETATM   21  C12 UNL     1     -28.116  14.961 -12.661  1.00  0.00     0.009 C 
HETATM   22  C16 UNL     1     -27.667  12.871 -13.820  1.00  0.00     0.035 C 
HETATM   23  C13 UNL     1     -28.431  15.611 -13.969  1.00  0.00    -0.012 C 
HETATM   24  C15 UNL     1     -27.752  14.988 -15.154  1.00  0.00     0.035 C 
ENDBRANCH  12  14
ENDBRANCH   9  10
ENDBRANCH   1   9
BRANCH   4  25
HETATM   25  C18 UNL     1     -25.310   9.445 -14.961  1.00  0.00     0.126 C 
BRANCH  25  26
HETATM   26  C19 UNL     1     -23.985   9.445 -14.301  1.00  0.00     0.050 C 
BRANCH  26  27
HETATM   27  C20 UNL     1     -23.944   8.839 -12.956  1.00  0.00     0.274 C 
BRANCH  27  28
HETATM   28  N4  UNL     1     -23.285   7.587 -12.795  1.00  0.00     0.089 N 
HETATM   29  C21 UNL     1     -23.850   6.449 -13.403  1.00  0.00     0.273 C 
HETATM   30  C22 UNL     1     -23.931   5.362 -12.359  1.00  0.00     0.043 C 
HETATM   31  C23 UNL     1     -23.893   6.147 -11.067  1.00  0.00     0.011 C 
HETATM   32  C24 UNL     1     -23.294   5.400  -9.920  1.00  0.00     0.039 C 
HETATM   33  C26 UNL     1     -25.240   6.546 -10.559  1.00  0.00     0.179 C 
HETATM   34  C27 UNL     1     -23.037   7.352 -11.410  1.00  0.00     0.284 C 
HETATM   35  C25 UNL     1     -24.323   5.608  -8.814  1.00  0.00     0.168 C 
HETATM   36  O3  UNL     1     -25.525   5.638  -9.535  1.00  0.00    -0.390 OA
ENDBRANCH  27  28
ENDBRANCH  26  27
ENDBRANCH  25  26
ENDBRANCH   4  25
TORSDOF 9
ENDMDL
MODEL 5
REMARK VINA RESULT: -9.920296819      1.741      2.979
REMARK  9 active torsions:
REMARK  status: ('A' for Active; 'I' for Inactive)
REMARK    1  A    between atoms: C2_2  and  C3_3 
REMARK    2  A    between atoms: C3_3  and  N1_4 
REMARK    3  A    between atoms: N1_4  and  C4_5 
REMARK       I    between atoms: N1_4  and  C17_21 
REMARK    4  A    between atoms: C4_5  and  C5_6 
REMARK       I    between atoms: C5_6  and  N2_8 
REMARK    5  A    between atoms: N2_8  and  C6_10 
REMARK       I    between atoms: C17_21  and  N3_23 
REMARK    6  A    between atoms: N3_23  and  C18_25 
REMARK    7  A    between atoms: C18_25  and  C19_26 
REMARK    8  A    between atoms: C19_26  and  C20_27 
REMARK    9  A    between atoms: C20_27  and  N4_28 
ROOT
HETATM    1  N1  UNL     1     -25.193   9.209 -15.732  1.00  0.00    -0.326 N 
HETATM    2  C17 UNL     1     -24.560   7.975 -15.419  1.00  0.00     0.318 C 
HETATM    3  O2  UNL     1     -24.597   7.060 -16.273  1.00  0.00    -0.247 OA
HETATM    4  N3  UNL     1     -23.897   7.747 -14.185  1.00  0.00    -0.343 N 
ATOM      5  H3  UNL     1     -23.862   8.486 -13.484  1.00  0.00     0.164 HD
ENDROOT
BRANCH   1   6
HETATM    6  C3  UNL     1     -25.830   9.335 -16.993  1.00  0.00     0.127 C 
BRANCH   6   7
HETATM    7  C2  UNL     1     -25.161   9.955 -18.142  1.00  0.00     0.015 C 
HETATM    8  C1  UNL     1     -25.971  10.809 -19.039  1.00  0.00     0.006 C 
ENDBRANCH   6   7
ENDBRANCH   1   6
BRANCH   1   9
HETATM    9  C4  UNL     1     -25.264  10.202 -14.725  1.00  0.00     0.230 C 
BRANCH   9  10
HETATM   10  C5  UNL     1     -26.158  11.340 -14.887  1.00  0.00     0.236 C 
HETATM   11  O1  UNL     1     -27.075  11.416 -13.989  1.00  0.00    -0.272 OA
HETATM   12  N2  UNL     1     -26.146  12.340 -15.863  1.00  0.00    -0.350 N 
ATOM     13  H2  UNL     1     -25.412  12.266 -16.567  1.00  0.00     0.163 HD
BRANCH  12  14
HETATM   14  C6  UNL     1     -27.039  13.466 -16.005  1.00  0.00     0.033 C 
HETATM   15  C7  UNL     1     -26.159  14.601 -16.546  1.00  0.00     0.031 C 
HETATM   16  C8  UNL     1     -26.715  15.950 -16.465  1.00  0.00     0.007 C 
HETATM   17  C9  UNL     1     -28.182  16.135 -16.443  1.00  0.00    -0.014 C 
HETATM   18  C10 UNL     1     -28.924  15.333 -17.467  1.00  0.00     0.009 C 
HETATM   19  C14 UNL     1     -28.735  15.980 -15.045  1.00  0.00     0.009 C 
HETATM   20  C11 UNL     1     -29.314  13.970 -16.989  1.00  0.00    -0.012 C 
HETATM   21  C12 UNL     1     -29.905  13.936 -15.620  1.00  0.00     0.009 C 
HETATM   22  C16 UNL     1     -28.088  13.099 -17.002  1.00  0.00     0.035 C 
HETATM   23  C13 UNL     1     -28.909  14.522 -14.674  1.00  0.00    -0.012 C 
HETATM   24  C15 UNL     1     -27.579  13.825 -14.659  1.00  0.00     0.035 C 
ENDBRANCH  12  14
ENDBRANCH   9  10
ENDBRANCH   1   9
BRANCH   4  25
HETATM   25  C18 UNL     1     -23.255   6.442 -13.911  1.00  0.00     0.126 C 
BRANCH  25  26
HETATM   26  C19 UNL     1     -24.185   5.622 -13.103  1.00  0.00     0.050 C 
BRANCH  26  27
HETATM   27  C20 UNL     1     -24.788   6.303 -11.941  1.00  0.00     0.274 C 
BRANCH  27  28
HETATM   28  N4  UNL     1     -23.979   6.531 -10.792  1.00  0.00     0.089 N 
HETATM   29  C21 UNL     1     -23.228   5.456 -10.277  1.00  0.00     0.273 C 
HETATM   30  C22 UNL     1     -23.491   5.383  -8.792  1.00  0.00     0.043 C 
HETATM   31  C23 UNL     1     -24.812   6.106  -8.657  1.00  0.00     0.011 C 
HETATM   32  C24 UNL     1     -25.004   6.778  -7.336  1.00  0.00     0.039 C 
HETATM   33  C26 UNL     1     -26.006   5.216  -8.775  1.00  0.00     0.179 C 
HETATM   34  C27 UNL     1     -24.764   7.139  -9.768  1.00  0.00     0.284 C 
HETATM   35  C25 UNL     1     -26.395   6.309  -6.925  1.00  0.00     0.168 C 
HETATM   36  O3  UNL     1     -26.438   5.013  -7.461  1.00  0.00    -0.390 OA
ENDBRANCH  27  28
ENDBRANCH  26  27
ENDBRANCH  25  26
ENDBRANCH   4  25
TORSDOF 9
ENDMDL
