MODEL 1
REMARK VINA RESULT: -7.692783188      0.000      0.000
REMARK  10 active torsions:
REMARK  status: ('A' for Active; 'I' for Inactive)
REMARK    1  A    between atoms: C1_2  and  C2_3 
REMARK       I    between atoms: C1_2  and  N1_10 
REMARK    2  A    between atoms: C2_3  and  C3_4 
REMARK    3  A    between atoms: C4_5  and  C5_6 
REMARK    4  A    between atoms: C5_6  and  C6_7 
REMARK    5  A    between atoms: C6_7  and  O2_8 
REMARK    6  A    between atoms: N1_10  and  C7_12 
REMARK    7  A    between atoms: C7_12  and  C8_13 
REMARK    8  A    between atoms: C7_12  and  C12_18 
REMARK    9  A    between atoms: C8_13  and  C9_15 
REMARK       I    between atoms: N2_24  and  C18_25 
REMARK   10  A    between atoms: C18_25  and  C19_27 
ROOT
HETATM    1  C12 UNL     1     -25.002   5.088  -8.481  1.00  0.00     0.121 C 
HETATM    2  C13 UNL     1     -26.368   5.215  -7.834  1.00  0.00     0.013 C 
HETATM    3  C14 UNL     1     -27.380   4.901  -8.928  1.00  0.00     0.009 C 
HETATM    4  C15 UNL     1     -27.454   6.162  -9.786  1.00  0.00     0.026 C 
HETATM    5  C16 UNL     1     -26.178   6.860  -9.341  1.00  0.00     0.088 C 
HETATM    6  C17 UNL     1     -26.438   6.727  -7.824  1.00  0.00     0.032 C 
HETATM    7  N2  UNL     1     -25.105   5.963  -9.627  1.00  0.00    -0.339 N 
HETATM    8  C18 UNL     1     -24.312   5.861 -10.797  1.00  0.00     0.229 C 
HETATM    9  O4  UNL     1     -23.454   4.902 -10.914  1.00  0.00    -0.272 OA
ENDROOT
BRANCH   1  10
HETATM   10  C7  UNL     1     -23.931   5.413  -7.478  1.00  0.00     0.177 C 
BRANCH  10  11
HETATM   11  N1  UNL     1     -22.610   5.394  -8.119  1.00  0.00    -0.347 N 
HETATM   12  C1  UNL     1     -21.518   5.931  -7.392  1.00  0.00     0.221 C 
HETATM   13  O1  UNL     1     -21.724   6.395  -6.243  1.00  0.00    -0.273 OA
ATOM     14  H1  UNL     1     -22.482   5.008  -9.054  1.00  0.00     0.163 HD
BRANCH  12  15
HETATM   15  C2  UNL     1     -20.133   5.959  -7.956  1.00  0.00     0.129 C 
BRANCH  15  16
HETATM   16  C3  UNL     1     -19.273   5.019  -7.191  1.00  0.00    -0.022 C 
HETATM   17  C4  UNL     1     -19.767   3.910  -6.635  1.00  0.00    -0.028 C 
BRANCH  17  18
HETATM   18  C5  UNL     1     -18.952   2.955  -5.870  1.00  0.00     0.053 C 
BRANCH  18  19
HETATM   19  C6  UNL     1     -19.784   1.735  -5.486  1.00  0.00     0.168 C 
BRANCH  19  20
HETATM   20  O2  UNL     1     -18.985   0.604  -5.494  1.00  0.00    -0.401 OA
ATOM     21  H2  UNL     1     -19.043   0.165  -4.654  1.00  0.00     0.209 HD
ENDBRANCH  19  20
ENDBRANCH  18  19
ENDBRANCH  17  18
ENDBRANCH  15  16
ENDBRANCH  12  15
ENDBRANCH  10  11
BRANCH  10  22
HETATM   22  C8  UNL     1     -23.861   4.278  -6.503  1.00  0.00     0.155 C 
HETATM   23  O3  UNL     1     -24.723   4.327  -5.593  1.00  0.00    -0.295 OA
BRANCH  22  24
HETATM   24  C9  UNL     1     -22.947   3.150  -6.487  1.00  0.00     0.058 A 
HETATM   25  C10 UNL     1     -23.440   1.833  -5.931  1.00  0.00     0.013 A 
HETATM   26  C11 UNL     1     -23.043   1.963  -7.369  1.00  0.00     0.013 A 
ENDBRANCH  22  24
ENDBRANCH  10  22
ENDBRANCH   1  10
BRANCH   8  27
HETATM   27  C19 UNL     1     -24.289   6.706 -11.987  1.00  0.00     0.042 C 
HETATM   28  C20 UNL     1     -24.662   5.850 -13.184  1.00  0.00     0.024 C 
HETATM   29  C21 UNL     1     -24.574   6.615 -14.487  1.00  0.00    -0.013 C 
HETATM   30  C22 UNL     1     -23.130   6.999 -14.692  1.00  0.00     0.009 C 
HETATM   31  C26 UNL     1     -25.448   7.840 -14.442  1.00  0.00     0.009 C 
HETATM   32  C23 UNL     1     -22.673   7.836 -13.532  1.00  0.00    -0.013 C 
HETATM   33  C24 UNL     1     -23.525   9.098 -13.457  1.00  0.00     0.009 C 
HETATM   34  C28 UNL     1     -22.845   7.149 -12.213  1.00  0.00     0.024 C 
HETATM   35  C25 UNL     1     -24.942   8.687 -13.274  1.00  0.00    -0.013 C 
HETATM   36  C27 UNL     1     -25.208   7.880 -12.015  1.00  0.00     0.024 C 
ENDBRANCH   8  27
TORSDOF 10
ENDMDL
MODEL 2
REMARK VINA RESULT: -7.252688773      6.848     11.496
REMARK  10 active torsions:
REMARK  status: ('A' for Active; 'I' for Inactive)
REMARK    1  A    between atoms: C1_2  and  C2_3 
REMARK       I    between atoms: C1_2  and  N1_10 
REMARK    2  A    between atoms: C2_3  and  C3_4 
REMARK    3  A    between atoms: C4_5  and  C5_6 
REMARK    4  A    between atoms: C5_6  and  C6_7 
REMARK    5  A    between atoms: C6_7  and  O2_8 
REMARK    6  A    between atoms: N1_10  and  C7_12 
REMARK    7  A    between atoms: C7_12  and  C8_13 
REMARK    8  A    between atoms: C7_12  and  C12_18 
REMARK    9  A    between atoms: C8_13  and  C9_15 
REMARK       I    between atoms: N2_24  and  C18_25 
REMARK   10  A    between atoms: C18_25  and  C19_27 
ROOT
HETATM    1  C12 UNL     1     -26.848  12.400 -18.308  1.00  0.00     0.121 C 
HETATM    2  C13 UNL     1     -27.379  13.146 -19.518  1.00  0.00     0.013 C 
HETATM    3  C14 UNL     1     -27.282  14.626 -19.173  1.00  0.00     0.009 C 
HETATM    4  C15 UNL     1     -28.459  14.903 -18.241  1.00  0.00     0.026 C 
HETATM    5  C16 UNL     1     -28.814  13.482 -17.832  1.00  0.00     0.088 C 
HETATM    6  C17 UNL     1     -28.851  12.903 -19.264  1.00  0.00     0.032 C 
HETATM    7  N2  UNL     1     -27.645  12.931 -17.226  1.00  0.00    -0.339 N 
HETATM    8  C18 UNL     1     -27.260  12.932 -15.862  1.00  0.00     0.229 C 
HETATM    9  O4  UNL     1     -26.100  12.479 -15.518  1.00  0.00    -0.272 OA
ENDROOT
BRANCH   1  10
HETATM   10  C7  UNL     1     -26.935  10.919 -18.545  1.00  0.00     0.177 C 
BRANCH  10  11
HETATM   11  N1  UNL     1     -25.699  10.259 -18.104  1.00  0.00    -0.347 N 
HETATM   12  C1  UNL     1     -25.760   9.464 -16.932  1.00  0.00     0.221 C 
HETATM   13  O1  UNL     1     -26.855   9.360 -16.326  1.00  0.00    -0.273 OA
ATOM     14  H1  UNL     1     -24.828  10.368 -18.623  1.00  0.00     0.163 HD
BRANCH  12  15
HETATM   15  C2  UNL     1     -24.557   8.751 -16.400  1.00  0.00     0.129 C 
BRANCH  15  16
HETATM   16  C3  UNL     1     -24.790   8.389 -14.978  1.00  0.00    -0.022 C 
HETATM   17  C4  UNL     1     -24.395   7.214 -14.480  1.00  0.00    -0.028 C 
BRANCH  17  18
HETATM   18  C5  UNL     1     -24.607   6.816 -13.081  1.00  0.00     0.053 C 
BRANCH  18  19
HETATM   19  C6  UNL     1     -24.201   5.360 -12.875  1.00  0.00     0.168 C 
BRANCH  19  20
HETATM   20  O2  UNL     1     -25.196   4.525 -13.352  1.00  0.00    -0.401 OA
ATOM     21  H2  UNL     1     -26.030   4.770 -12.969  1.00  0.00     0.209 HD
ENDBRANCH  19  20
ENDBRANCH  18  19
ENDBRANCH  17  18
ENDBRANCH  15  16
ENDBRANCH  12  15
ENDBRANCH  10  11
BRANCH  10  22
HETATM   22  C8  UNL     1     -26.940  10.694 -20.026  1.00  0.00     0.155 C 
HETATM   23  O3  UNL     1     -27.975  10.133 -20.458  1.00  0.00    -0.295 OA
BRANCH  22  24
HETATM   24  C9  UNL     1     -25.923  11.047 -21.002  1.00  0.00     0.058 A 
HETATM   25  C10 UNL     1     -24.482  11.106 -20.547  1.00  0.00     0.013 A 
HETATM   26  C11 UNL     1     -24.928  10.108 -21.571  1.00  0.00     0.013 A 
ENDBRANCH  22  24
ENDBRANCH  10  22
ENDBRANCH   1  10
BRANCH   8  27
HETATM   27  C19 UNL     1     -27.991  13.391 -14.685  1.00  0.00     0.042 C 
HETATM   28  C20 UNL     1     -29.472  13.160 -14.925  1.00  0.00     0.024 C 
HETATM   29  C21 UNL     1     -30.327  13.693 -13.797  1.00  0.00    -0.013 C 
HETATM   30  C22 UNL     1     -30.146  15.190 -13.756  1.00  0.00     0.009 C 
HETATM   31  C26 UNL     1     -29.920  13.074 -12.486  1.00  0.00     0.009 C 
HETATM   32  C23 UNL     1     -28.695  15.506 -13.541  1.00  0.00    -0.013 C 
HETATM   33  C24 UNL     1     -28.242  14.907 -12.214  1.00  0.00     0.009 C 
HETATM   34  C28 UNL     1     -27.806  14.904 -14.584  1.00  0.00     0.024 C 
HETATM   35  C25 UNL     1     -28.449  13.437 -12.277  1.00  0.00    -0.013 C 
HETATM   36  C27 UNL     1     -27.677  12.737 -13.382  1.00  0.00     0.024 C 
ENDBRANCH   8  27
TORSDOF 10
ENDMDL
MODEL 3
REMARK VINA RESULT: -7.052269687      6.582     11.133
REMARK  10 active torsions:
REMARK  status: ('A' for Active; 'I' for Inactive)
REMARK    1  A    between atoms: C1_2  and  C2_3 
REMARK       I    between atoms: C1_2  and  N1_10 
REMARK    2  A    between atoms: C2_3  and  C3_4 
REMARK    3  A    between atoms: C4_5  and  C5_6 
REMARK    4  A    between atoms: C5_6  and  C6_7 
REMARK    5  A    between atoms: C6_7  and  O2_8 
REMARK    6  A    between atoms: N1_10  and  C7_12 
REMARK    7  A    between atoms: C7_12  and  C8_13 
REMARK    8  A    between atoms: C7_12  and  C12_18 
REMARK    9  A    between atoms: C8_13  and  C9_15 
REMARK       I    between atoms: N2_24  and  C18_25 
REMARK   10  A    between atoms: C18_25  and  C19_27 
ROOT
HETATM    1  C12 UNL     1     -26.306  12.339 -17.944  1.00  0.00     0.121 C 
HETATM    2  C13 UNL     1     -26.935  12.652 -19.289  1.00  0.00     0.013 C 
HETATM    3  C14 UNL     1     -27.277  14.135 -19.256  1.00  0.00     0.009 C 
HETATM    4  C15 UNL     1     -28.548  14.241 -18.418  1.00  0.00     0.026 C 
HETATM    5  C16 UNL     1     -28.524  12.885 -17.728  1.00  0.00     0.088 C 
HETATM    6  C17 UNL     1     -28.296  12.053 -19.009  1.00  0.00     0.032 C 
HETATM    7  N2  UNL     1     -27.294  12.821 -17.005  1.00  0.00    -0.339 N 
HETATM    8  C18 UNL     1     -27.022  13.198 -15.667  1.00  0.00     0.229 C 
HETATM    9  O4  UNL     1     -25.809  13.172 -15.221  1.00  0.00    -0.272 OA
ENDROOT
BRANCH   1  10
HETATM   10  C7  UNL     1     -25.961  10.879 -17.870  1.00  0.00     0.177 C 
BRANCH  10  11
HETATM   11  N1  UNL     1     -25.051  10.626 -16.745  1.00  0.00    -0.347 N 
HETATM   12  C1  UNL     1     -25.229   9.426 -16.012  1.00  0.00     0.221 C 
HETATM   13  O1  UNL     1     -26.147   8.639 -16.350  1.00  0.00    -0.273 OA
ATOM     14  H1  UNL     1     -24.317  11.290 -16.501  1.00  0.00     0.163 HD
BRANCH  12  15
HETATM   15  C2  UNL     1     -24.355   9.076 -14.849  1.00  0.00     0.129 C 
BRANCH  15  16
HETATM   16  C3  UNL     1     -24.871   7.842 -14.202  1.00  0.00    -0.022 C 
HETATM   17  C4  UNL     1     -24.063   6.828 -13.881  1.00  0.00    -0.028 C 
BRANCH  17  18
HETATM   18  C5  UNL     1     -24.533   5.591 -13.240  1.00  0.00     0.053 C 
BRANCH  18  19
HETATM   19  C6  UNL     1     -24.202   5.605 -11.751  1.00  0.00     0.168 C 
BRANCH  19  20
HETATM   20  O2  UNL     1     -25.373   5.601 -11.013  1.00  0.00    -0.401 OA
ATOM     21  H2  UNL     1     -25.470   6.433 -10.564  1.00  0.00     0.209 HD
ENDBRANCH  19  20
ENDBRANCH  18  19
ENDBRANCH  17  18
ENDBRANCH  15  16
ENDBRANCH  12  15
ENDBRANCH  10  11
BRANCH  10  22
HETATM   22  C8  UNL     1     -25.131  10.545 -19.072  1.00  0.00     0.155 C 
HETATM   23  O3  UNL     1     -24.323   9.603 -18.894  1.00  0.00    -0.295 OA
BRANCH  22  24
HETATM   24  C9  UNL     1     -25.152  11.159 -20.389  1.00  0.00     0.058 A 
HETATM   25  C10 UNL     1     -24.260  10.582 -21.464  1.00  0.00     0.013 A 
HETATM   26  C11 UNL     1     -25.751  10.552 -21.601  1.00  0.00     0.013 A 
ENDBRANCH  22  24
ENDBRANCH  10  22
ENDBRANCH   1  10
BRANCH   8  27
HETATM   27  C19 UNL     1     -27.933  13.649 -14.619  1.00  0.00     0.042 C 
HETATM   28  C20 UNL     1     -29.316  13.105 -14.926  1.00  0.00     0.024 C 
HETATM   29  C21 UNL     1     -30.358  13.597 -13.946  1.00  0.00    -0.013 C 
HETATM   30  C22 UNL     1     -30.462  15.094 -14.105  1.00  0.00     0.009 C 
HETATM   31  C26 UNL     1     -29.970  13.239 -12.536  1.00  0.00     0.009 C 
HETATM   32  C23 UNL     1     -29.120  15.712 -13.837  1.00  0.00    -0.013 C 
HETATM   33  C24 UNL     1     -28.693  15.385 -12.411  1.00  0.00     0.009 C 
HETATM   34  C28 UNL     1     -28.041  15.169 -14.721  1.00  0.00     0.024 C 
HETATM   35  C25 UNL     1     -28.618  13.906 -12.280  1.00  0.00    -0.013 C 
HETATM   36  C27 UNL     1     -27.628  13.238 -13.218  1.00  0.00     0.024 C 
ENDBRANCH   8  27
TORSDOF 10
ENDMDL
MODEL 4
REMARK VINA RESULT: -6.697292576      4.938      8.638
REMARK  10 active torsions:
REMARK  status: ('A' for Active; 'I' for Inactive)
REMARK    1  A    between atoms: C1_2  and  C2_3 
REMARK       I    between atoms: C1_2  and  N1_10 
REMARK    2  A    between atoms: C2_3  and  C3_4 
REMARK    3  A    between atoms: C4_5  and  C5_6 
REMARK    4  A    between atoms: C5_6  and  C6_7 
REMARK    5  A    between atoms: C6_7  and  O2_8 
REMARK    6  A    between atoms: N1_10  and  C7_12 
REMARK    7  A    between atoms: C7_12  and  C8_13 
REMARK    8  A    between atoms: C7_12  and  C12_18 
REMARK    9  A    between atoms: C8_13  and  C9_15 
REMARK       I    between atoms: N2_24  and  C18_25 
REMARK   10  A    between atoms: C18_25  and  C19_27 
ROOT
HETATM    1  C12 UNL     1     -25.498  10.237 -15.914  1.00  0.00     0.121 C 
HETATM    2  C13 UNL     1     -25.472  10.001 -17.412  1.00  0.00     0.013 C 
HETATM    3  C14 UNL     1     -25.401  11.382 -18.052  1.00  0.00     0.009 C 
HETATM    4  C15 UNL     1     -26.819  11.941 -17.968  1.00  0.00     0.026 C 
HETATM    5  C16 UNL     1     -27.409  11.010 -16.920  1.00  0.00     0.088 C 
HETATM    6  C17 UNL     1     -26.944   9.697 -17.586  1.00  0.00     0.032 C 
HETATM    7  N2  UNL     1     -26.603  11.154 -15.750  1.00  0.00    -0.339 N 
HETATM    8  C18 UNL     1     -26.765  12.039 -14.655  1.00  0.00     0.229 C 
HETATM    9  O4  UNL     1     -25.860  12.101 -13.735  1.00  0.00    -0.272 OA
ENDROOT
BRANCH   1  10
HETATM   10  C7  UNL     1     -25.600   8.922 -15.193  1.00  0.00     0.177 C 
BRANCH  10  11
HETATM   11  N1  UNL     1     -25.507   9.128 -13.742  1.00  0.00    -0.347 N 
HETATM   12  C1  UNL     1     -25.512   7.978 -12.913  1.00  0.00     0.221 C 
HETATM   13  O1  UNL     1     -25.595   6.845 -13.448  1.00  0.00    -0.273 OA
ATOM     14  H1  UNL     1     -25.441  10.064 -13.345  1.00  0.00     0.163 HD
BRANCH  12  15
HETATM   15  C2  UNL     1     -25.422   8.080 -11.424  1.00  0.00     0.129 C 
BRANCH  15  16
HETATM   16  C3  UNL     1     -24.221   7.343 -10.953  1.00  0.00    -0.022 C 
HETATM   17  C4  UNL     1     -24.308   6.369 -10.043  1.00  0.00    -0.028 C 
BRANCH  17  18
HETATM   18  C5  UNL     1     -23.145   5.615  -9.550  1.00  0.00     0.053 C 
BRANCH  18  19
HETATM   19  C6  UNL     1     -23.571   4.629  -8.468  1.00  0.00     0.168 C 
BRANCH  19  20
HETATM   20  O2  UNL     1     -24.918   4.341  -8.602  1.00  0.00    -0.401 OA
ATOM     21  H2  UNL     1     -25.255   4.747  -9.391  1.00  0.00     0.209 HD
ENDBRANCH  19  20
ENDBRANCH  18  19
ENDBRANCH  17  18
ENDBRANCH  15  16
ENDBRANCH  12  15
ENDBRANCH  10  11
BRANCH  10  22
HETATM   22  C8  UNL     1     -24.369   8.131 -15.513  1.00  0.00     0.155 C 
HETATM   23  O3  UNL     1     -24.560   7.178 -16.304  1.00  0.00    -0.295 OA
BRANCH  22  24
HETATM   24  C9  UNL     1     -23.011   8.333 -15.037  1.00  0.00     0.058 A 
HETATM   25  C10 UNL     1     -22.461   7.375 -14.005  1.00  0.00     0.013 A 
HETATM   26  C11 UNL     1     -21.854   7.469 -15.371  1.00  0.00     0.013 A 
ENDBRANCH  22  24
ENDBRANCH  10  22
ENDBRANCH   1  10
BRANCH   8  27
HETATM   27  C19 UNL     1     -27.851  12.968 -14.357  1.00  0.00     0.042 C 
HETATM   28  C20 UNL     1     -27.469  13.764 -13.123  1.00  0.00     0.024 C 
HETATM   29  C21 UNL     1     -28.575  14.693 -12.673  1.00  0.00    -0.013 C 
HETATM   30  C22 UNL     1     -29.749  13.837 -12.263  1.00  0.00     0.009 C 
HETATM   31  C26 UNL     1     -28.966  15.629 -13.785  1.00  0.00     0.009 C 
HETATM   32  C23 UNL     1     -30.178  12.996 -13.430  1.00  0.00    -0.013 C 
HETATM   33  C24 UNL     1     -30.596  13.908 -14.578  1.00  0.00     0.009 C 
HETATM   34  C28 UNL     1     -29.075  12.140 -13.969  1.00  0.00     0.024 C 
HETATM   35  C25 UNL     1     -29.427  14.749 -14.947  1.00  0.00    -0.013 C 
HETATM   36  C27 UNL     1     -28.206  13.970 -15.403  1.00  0.00     0.024 C 
ENDBRANCH   8  27
TORSDOF 10
ENDMDL
MODEL 5
REMARK VINA RESULT: -6.690829584      4.899      8.543
REMARK  10 active torsions:
REMARK  status: ('A' for Active; 'I' for Inactive)
REMARK    1  A    between atoms: C1_2  and  C2_3 
REMARK       I    between atoms: C1_2  and  N1_10 
REMARK    2  A    between atoms: C2_3  and  C3_4 
REMARK    3  A    between atoms: C4_5  and  C5_6 
REMARK    4  A    between atoms: C5_6  and  C6_7 
REMARK    5  A    between atoms: C6_7  and  O2_8 
REMARK    6  A    between atoms: N1_10  and  C7_12 
REMARK    7  A    between atoms: C7_12  and  C8_13 
REMARK    8  A    between atoms: C7_12  and  C12_18 
REMARK    9  A    between atoms: C8_13  and  C9_15 
REMARK       I    between atoms: N2_24  and  C18_25 
REMARK   10  A    between atoms: C18_25  and  C19_27 
ROOT
HETATM    1  C12 UNL     1     -25.450  10.203 -15.821  1.00  0.00     0.121 C 
HETATM    2  C13 UNL     1     -25.377   9.984 -17.321  1.00  0.00     0.013 C 
HETATM    3  C14 UNL     1     -25.314  11.372 -17.944  1.00  0.00     0.009 C 
HETATM    4  C15 UNL     1     -26.744  11.905 -17.894  1.00  0.00     0.026 C 
HETATM    5  C16 UNL     1     -27.346  10.952 -16.873  1.00  0.00     0.088 C 
HETATM    6  C17 UNL     1     -26.838   9.654 -17.539  1.00  0.00     0.032 C 
HETATM    7  N2  UNL     1     -26.576  11.098 -15.680  1.00  0.00    -0.339 N 
HETATM    8  C18 UNL     1     -26.785  11.968 -14.581  1.00  0.00     0.229 C 
HETATM    9  O4  UNL     1     -25.908  12.037 -13.635  1.00  0.00    -0.272 OA
ENDROOT
BRANCH   1  10
HETATM   10  C7  UNL     1     -25.548   8.879 -15.117  1.00  0.00     0.177 C 
BRANCH  10  11
HETATM   11  N1  UNL     1     -25.495   9.071 -13.662  1.00  0.00    -0.347 N 
HETATM   12  C1  UNL     1     -25.491   7.912 -12.846  1.00  0.00     0.221 C 
HETATM   13  O1  UNL     1     -25.532   6.783 -13.395  1.00  0.00    -0.273 OA
ATOM     14  H1  UNL     1     -25.462  10.004 -13.253  1.00  0.00     0.163 HD
BRANCH  12  15
HETATM   15  C2  UNL     1     -25.439   7.999 -11.353  1.00  0.00     0.129 C 
BRANCH  15  16
HETATM   16  C3  UNL     1     -24.230   7.288 -10.862  1.00  0.00    -0.022 C 
HETATM   17  C4  UNL     1     -24.316   6.279  -9.991  1.00  0.00    -0.028 C 
BRANCH  17  18
HETATM   18  C5  UNL     1     -23.146   5.550  -9.480  1.00  0.00     0.053 C 
BRANCH  18  19
HETATM   19  C6  UNL     1     -23.418   5.032  -8.070  1.00  0.00     0.168 C 
BRANCH  19  20
HETATM   20  O2  UNL     1     -22.914   5.924  -7.140  1.00  0.00    -0.401 OA
ATOM     21  H2  UNL     1     -23.218   5.687  -6.272  1.00  0.00     0.209 HD
ENDBRANCH  19  20
ENDBRANCH  18  19
ENDBRANCH  17  18
ENDBRANCH  15  16
ENDBRANCH  12  15
ENDBRANCH  10  11
BRANCH  10  22
HETATM   22  C8  UNL     1     -24.295   8.112 -15.413  1.00  0.00     0.155 C 
HETATM   23  O3  UNL     1     -24.448   7.173 -16.229  1.00  0.00    -0.295 OA
BRANCH  22  24
HETATM   24  C9  UNL     1     -22.956   8.324 -14.891  1.00  0.00     0.058 A 
HETATM   25  C10 UNL     1     -22.374   7.283 -13.962  1.00  0.00     0.013 A 
HETATM   26  C11 UNL     1     -21.753   7.559 -15.297  1.00  0.00     0.013 A 
ENDBRANCH  22  24
ENDBRANCH  10  22
ENDBRANCH   1  10
BRANCH   8  27
HETATM   27  C19 UNL     1     -27.896  12.874 -14.304  1.00  0.00     0.042 C 
HETATM   28  C20 UNL     1     -27.509  14.260 -14.783  1.00  0.00     0.024 C 
HETATM   29  C21 UNL     1     -28.561  15.297 -14.454  1.00  0.00    -0.013 C 
HETATM   30  C22 UNL     1     -28.651  15.392 -12.950  1.00  0.00     0.009 C 
HETATM   31  C26 UNL     1     -29.892  14.906 -15.040  1.00  0.00     0.009 C 
HETATM   32  C23 UNL     1     -29.011  14.046 -12.392  1.00  0.00    -0.013 C 
HETATM   33  C24 UNL     1     -30.363  13.616 -12.950  1.00  0.00     0.009 C 
HETATM   34  C28 UNL     1     -28.046  12.973 -12.787  1.00  0.00     0.024 C 
HETATM   35  C25 UNL     1     -30.248  13.549 -14.431  1.00  0.00    -0.013 C 
HETATM   36  C27 UNL     1     -29.209  12.566 -14.941  1.00  0.00     0.024 C 
ENDBRANCH   8  27
TORSDOF 10
ENDMDL
