MODEL 1
REMARK VINA RESULT: -7.454376405      0.000      0.000
REMARK  6 active torsions:
REMARK  status: ('A' for Active; 'I' for Inactive)
REMARK    1  A    between atoms: C3_7  and  N3_8 
REMARK    2  A    between atoms: N3_8  and  N4_10 
REMARK       I    between atoms: N4_10  and  C4_12 
REMARK       I    between atoms: C4_12  and  N5_14 
REMARK       I    between atoms: N5_14  and  C5_16 
REMARK    3  A    between atoms: C5_16  and  C6_18 
REMARK    4  A    between atoms: C6_18  and  N6_19 
REMARK    5  A    between atoms: C6_18  and  C7_23 
REMARK       I    between atoms: C7_23  and  N7_25 
REMARK    6  A    between atoms: N7_25  and  N8_27 
ROOT
HETATM    1  N4  UNL     1      20.220   5.270  -3.366  1.00  0.00    -0.237 N 
ATOM      2  H4  UNL     1      20.833   5.700  -4.058  1.00  0.00     0.192 HD
HETATM    3  C4  UNL     1      20.422   3.937  -2.999  1.00  0.00     0.341 C 
HETATM    4  O2  UNL     1      19.608   3.466  -2.121  1.00  0.00    -0.245 OA
HETATM    5  N5  UNL     1      21.433   3.104  -3.517  1.00  0.00    -0.276 N 
ATOM      6  H5  UNL     1      21.454   2.152  -3.150  1.00  0.00     0.173 HD
HETATM    7  C5  UNL     1      22.412   3.411  -4.468  1.00  0.00     0.265 C 
HETATM    8  O3  UNL     1      22.567   4.521  -5.039  1.00  0.00    -0.270 OA
ENDROOT
BRANCH   1   9
HETATM    9  N3  UNL     1      19.195   6.016  -2.801  1.00  0.00    -0.128 N 
ATOM     10  H3  UNL     1      18.252   5.891  -3.168  1.00  0.00     0.205 HD
BRANCH   9  11
HETATM   11  C3  UNL     1      19.365   6.855  -1.841  1.00  0.00     0.705 A 
HETATM   12  N2  UNL     1      20.602   7.101  -1.378  1.00  0.00    -0.139 N 
HETATM   13  C2  UNL     1      20.822   7.981  -0.366  1.00  0.00     0.344 A 
ATOM     14  H2  UNL     1      21.395   6.615  -1.796  1.00  0.00     0.189 HD
HETATM   15  N1  UNL     1      19.805   8.642   0.212  1.00  0.00    -0.255 N 
HETATM   16  O1  UNL     1      21.990   8.204   0.062  1.00  0.00    -0.246 OA
HETATM   17  C1  UNL     1      20.026   9.591   1.301  1.00  0.00     0.166 C 
HETATM   18  C8  UNL     1      18.567   8.395  -0.252  1.00  0.00     0.344 A 
HETATM   19  N9  UNL     1      18.344   7.514  -1.266  1.00  0.00    -0.139 N 
HETATM   20  O5  UNL     1      17.587   8.998   0.268  1.00  0.00    -0.246 OA
ATOM     21  H9  UNL     1      17.392   7.351  -1.593  1.00  0.00     0.189 HD
ENDBRANCH   9  11
ENDBRANCH   1   9
BRANCH   7  22
HETATM   22  C6  UNL     1      23.401   2.346  -4.883  1.00  0.00     0.367 C 
BRANCH  22  23
HETATM   23  N6  UNL     1      22.963   1.073  -4.328  1.00  0.00    -0.058 N 
ATOM     24  H63 UNL     1      23.052   1.036  -3.312  1.00  0.00     0.275 HD
ATOM     25  H62 UNL     1      21.952   0.947  -4.383  1.00  0.00     0.275 HD
ATOM     26  H61 UNL     1      23.477   0.326  -4.794  1.00  0.00     0.275 HD
ENDBRANCH  22  23
BRANCH  22  27
HETATM   27  C7  UNL     1      24.770   2.645  -4.453  1.00  0.00     0.275 C 
HETATM   28  O4  UNL     1      25.637   2.960  -5.295  1.00  0.00    -0.269 OA
HETATM   29  N7  UNL     1      25.119   2.581  -3.079  1.00  0.00    -0.274 N 
ATOM     30  H7  UNL     1      24.413   2.325  -2.389  1.00  0.00     0.189 HD
BRANCH  29  31
HETATM   31  N8  UNL     1      26.405   2.862  -2.670  1.00  0.00    -0.343 N 
ATOM     32  H82 UNL     1      26.560   3.654  -2.047  1.00  0.00     0.176 HD
ATOM     33  H81 UNL     1      27.186   2.288  -2.985  1.00  0.00     0.176 HD
ENDBRANCH  29  31
ENDBRANCH  22  27
ENDBRANCH   7  22
TORSDOF 6
ENDMDL
MODEL 2
REMARK VINA RESULT: -7.443596341      0.066      1.669
REMARK  6 active torsions:
REMARK  status: ('A' for Active; 'I' for Inactive)
REMARK    1  A    between atoms: C3_7  and  N3_8 
REMARK    2  A    between atoms: N3_8  and  N4_10 
REMARK       I    between atoms: N4_10  and  C4_12 
REMARK       I    between atoms: C4_12  and  N5_14 
REMARK       I    between atoms: N5_14  and  C5_16 
REMARK    3  A    between atoms: C5_16  and  C6_18 
REMARK    4  A    between atoms: C6_18  and  N6_19 
REMARK    5  A    between atoms: C6_18  and  C7_23 
REMARK       I    between atoms: C7_23  and  N7_25 
REMARK    6  A    between atoms: N7_25  and  N8_27 
ROOT
HETATM    1  N4  UNL     1      20.249   5.300  -3.355  1.00  0.00    -0.237 N 
ATOM      2  H4  UNL     1      20.864   5.722  -4.051  1.00  0.00     0.192 HD
HETATM    3  C4  UNL     1      20.437   3.964  -2.989  1.00  0.00     0.341 C 
HETATM    4  O2  UNL     1      19.621   3.504  -2.106  1.00  0.00    -0.245 OA
HETATM    5  N5  UNL     1      21.434   3.119  -3.511  1.00  0.00    -0.276 N 
ATOM      6  H5  UNL     1      21.445   2.166  -3.144  1.00  0.00     0.173 HD
HETATM    7  C5  UNL     1      22.412   3.413  -4.468  1.00  0.00     0.265 C 
HETATM    8  O3  UNL     1      22.577   4.521  -5.040  1.00  0.00    -0.270 OA
ENDROOT
BRANCH   1   9
HETATM    9  N3  UNL     1      19.237   6.058  -2.785  1.00  0.00    -0.128 N 
ATOM     10  H3  UNL     1      18.291   5.951  -3.152  1.00  0.00     0.205 HD
BRANCH   9  11
HETATM   11  C3  UNL     1      19.421   6.889  -1.821  1.00  0.00     0.705 A 
HETATM   12  N2  UNL     1      18.372   7.535  -1.284  1.00  0.00    -0.139 N 
HETATM   13  C2  UNL     1      18.525   8.419  -0.264  1.00  0.00     0.344 A 
ATOM     14  H2  UNL     1      17.437   7.357  -1.652  1.00  0.00     0.189 HD
HETATM   15  N1  UNL     1      19.739   8.683   0.249  1.00  0.00    -0.255 N 
HETATM   16  O1  UNL     1      17.532   9.022   0.232  1.00  0.00    -0.246 OA
HETATM   17  C1  UNL     1      19.920   9.631   1.346  1.00  0.00     0.166 C 
HETATM   18  C8  UNL     1      20.789   8.035  -0.288  1.00  0.00     0.344 A 
HETATM   19  N9  UNL     1      20.637   7.148  -1.311  1.00  0.00    -0.139 N 
HETATM   20  O5  UNL     1      21.944   8.258   0.170  1.00  0.00    -0.246 OA
ATOM     21  H9  UNL     1      21.456   6.676  -1.694  1.00  0.00     0.189 HD
ENDBRANCH   9  11
ENDBRANCH   1   9
BRANCH   7  22
HETATM   22  C6  UNL     1      23.385   2.336  -4.888  1.00  0.00     0.367 C 
BRANCH  22  23
HETATM   23  N6  UNL     1      22.949   1.074  -4.308  1.00  0.00    -0.058 N 
ATOM     24  H63 UNL     1      23.669   0.352  -4.350  1.00  0.00     0.275 HD
ATOM     25  H62 UNL     1      22.858   1.118  -3.293  1.00  0.00     0.275 HD
ATOM     26  H61 UNL     1      22.084   0.792  -4.768  1.00  0.00     0.275 HD
ENDBRANCH  22  23
BRANCH  22  27
HETATM   27  C7  UNL     1      24.765   2.631  -4.488  1.00  0.00     0.275 C 
HETATM   28  O4  UNL     1      25.622   2.910  -5.353  1.00  0.00    -0.269 OA
HETATM   29  N7  UNL     1      25.135   2.605  -3.119  1.00  0.00    -0.274 N 
ATOM     30  H7  UNL     1      24.436   2.379  -2.410  1.00  0.00     0.189 HD
BRANCH  29  31
HETATM   31  N8  UNL     1      26.430   2.882  -2.738  1.00  0.00    -0.343 N 
ATOM     32  H82 UNL     1      26.625   3.766  -2.269  1.00  0.00     0.176 HD
ATOM     33  H81 UNL     1      27.178   2.214  -2.923  1.00  0.00     0.176 HD
ENDBRANCH  29  31
ENDBRANCH  22  27
ENDBRANCH   7  22
TORSDOF 6
ENDMDL
MODEL 3
REMARK VINA RESULT: -7.441968970      2.898      3.910
REMARK  6 active torsions:
REMARK  status: ('A' for Active; 'I' for Inactive)
REMARK    1  A    between atoms: C3_7  and  N3_8 
REMARK    2  A    between atoms: N3_8  and  N4_10 
REMARK       I    between atoms: N4_10  and  C4_12 
REMARK       I    between atoms: C4_12  and  N5_14 
REMARK       I    between atoms: N5_14  and  C5_16 
REMARK    3  A    between atoms: C5_16  and  C6_18 
REMARK    4  A    between atoms: C6_18  and  N6_19 
REMARK    5  A    between atoms: C6_18  and  C7_23 
REMARK       I    between atoms: C7_23  and  N7_25 
REMARK    6  A    between atoms: N7_25  and  N8_27 
ROOT
HETATM    1  N4  UNL     1      20.240   4.964  -1.344  1.00  0.00    -0.237 N 
ATOM      2  H4  UNL     1      20.243   4.061  -1.817  1.00  0.00     0.192 HD
HETATM    3  C4  UNL     1      21.304   5.848  -1.540  1.00  0.00     0.341 C 
HETATM    4  O2  UNL     1      21.229   6.968  -0.909  1.00  0.00    -0.245 OA
HETATM    5  N5  UNL     1      22.420   5.596  -2.362  1.00  0.00    -0.276 N 
ATOM      6  H5  UNL     1      23.117   6.340  -2.404  1.00  0.00     0.173 HD
HETATM    7  C5  UNL     1      22.698   4.458  -3.127  1.00  0.00     0.265 C 
HETATM    8  O3  UNL     1      21.973   3.434  -3.221  1.00  0.00    -0.270 OA
ENDROOT
BRANCH   1   9
HETATM    9  N3  UNL     1      19.180   5.300  -0.514  1.00  0.00    -0.128 N 
ATOM     10  H3  UNL     1      19.301   5.179   0.492  1.00  0.00     0.205 HD
BRANCH   9  11
HETATM   11  C3  UNL     1      18.054   5.754  -0.938  1.00  0.00     0.705 A 
HETATM   12  N2  UNL     1      18.021   6.868  -1.689  1.00  0.00    -0.139 N 
HETATM   13  C2  UNL     1      16.852   7.378  -2.155  1.00  0.00     0.344 A 
ATOM     14  H2  UNL     1      18.896   7.341  -1.914  1.00  0.00     0.189 HD
HETATM   15  N1  UNL     1      15.677   6.785  -1.882  1.00  0.00    -0.255 N 
HETATM   16  O1  UNL     1      16.833   8.426  -2.860  1.00  0.00    -0.246 OA
HETATM   17  C1  UNL     1      14.411   7.322  -2.377  1.00  0.00     0.166 C 
HETATM   18  C8  UNL     1      15.711   5.669  -1.130  1.00  0.00     0.344 A 
HETATM   19  N9  UNL     1      16.882   5.156  -0.661  1.00  0.00    -0.139 N 
HETATM   20  O5  UNL     1      14.626   5.086  -0.854  1.00  0.00    -0.246 OA
ATOM     21  H9  UNL     1      16.870   4.309  -0.094  1.00  0.00     0.189 HD
ENDBRANCH   9  11
ENDBRANCH   1   9
BRANCH   7  22
HETATM   22  C6  UNL     1      23.973   4.402  -3.936  1.00  0.00     0.367 C 
BRANCH  22  23
HETATM   23  N6  UNL     1      24.693   5.653  -3.741  1.00  0.00    -0.058 N 
ATOM     24  H63 UNL     1      24.071   6.439  -3.550  1.00  0.00     0.275 HD
ATOM     25  H62 UNL     1      25.216   5.674  -2.865  1.00  0.00     0.275 HD
ATOM     26  H61 UNL     1      25.286   5.812  -4.555  1.00  0.00     0.275 HD
ENDBRANCH  22  23
BRANCH  22  27
HETATM   27  C7  UNL     1      23.730   4.171  -5.363  1.00  0.00     0.275 C 
HETATM   28  O4  UNL     1      24.255   3.195  -5.938  1.00  0.00    -0.269 OA
HETATM   29  N7  UNL     1      22.896   5.052  -6.099  1.00  0.00    -0.274 N 
ATOM     30  H7  UNL     1      22.465   5.851  -5.632  1.00  0.00     0.189 HD
BRANCH  29  31
HETATM   31  N8  UNL     1      22.665   4.839  -7.441  1.00  0.00    -0.343 N 
ATOM     32  H82 UNL     1      23.461   4.804  -8.077  1.00  0.00     0.176 HD
ATOM     33  H81 UNL     1      21.714   4.718  -7.790  1.00  0.00     0.176 HD
ENDBRANCH  29  31
ENDBRANCH  22  27
ENDBRANCH   7  22
TORSDOF 6
ENDMDL
MODEL 4
REMARK VINA RESULT: -7.423839557      2.897      4.033
REMARK  6 active torsions:
REMARK  status: ('A' for Active; 'I' for Inactive)
REMARK    1  A    between atoms: C3_7  and  N3_8 
REMARK    2  A    between atoms: N3_8  and  N4_10 
REMARK       I    between atoms: N4_10  and  C4_12 
REMARK       I    between atoms: C4_12  and  N5_14 
REMARK       I    between atoms: N5_14  and  C5_16 
REMARK    3  A    between atoms: C5_16  and  C6_18 
REMARK    4  A    between atoms: C6_18  and  N6_19 
REMARK    5  A    between atoms: C6_18  and  C7_23 
REMARK       I    between atoms: C7_23  and  N7_25 
REMARK    6  A    between atoms: N7_25  and  N8_27 
ROOT
HETATM    1  N4  UNL     1      20.234   4.951  -1.363  1.00  0.00    -0.237 N 
ATOM      2  H4  UNL     1      20.245   4.046  -1.834  1.00  0.00     0.192 HD
HETATM    3  C4  UNL     1      21.296   5.839  -1.553  1.00  0.00     0.341 C 
HETATM    4  O2  UNL     1      21.210   6.959  -0.924  1.00  0.00    -0.245 OA
HETATM    5  N5  UNL     1      22.418   5.590  -2.366  1.00  0.00    -0.276 N 
ATOM      6  H5  UNL     1      23.112   6.338  -2.404  1.00  0.00     0.173 HD
HETATM    7  C5  UNL     1      22.707   4.453  -3.127  1.00  0.00     0.265 C 
HETATM    8  O3  UNL     1      21.988   3.425  -3.224  1.00  0.00    -0.270 OA
ENDROOT
BRANCH   1   9
HETATM    9  N3  UNL     1      19.166   5.282  -0.541  1.00  0.00    -0.128 N 
ATOM     10  H3  UNL     1      19.264   5.124   0.462  1.00  0.00     0.205 HD
BRANCH   9  11
HETATM   11  C3  UNL     1      18.060   5.779  -0.970  1.00  0.00     0.705 A 
HETATM   12  N2  UNL     1      16.896   5.181  -0.667  1.00  0.00    -0.139 N 
HETATM   13  C2  UNL     1      15.707   5.675  -1.101  1.00  0.00     0.344 A 
ATOM     14  H2  UNL     1      16.905   4.334  -0.098  1.00  0.00     0.189 HD
HETATM   15  N1  UNL     1      15.651   6.787  -1.853  1.00  0.00    -0.255 N 
HETATM   16  O1  UNL     1      14.618   5.104  -0.811  1.00  0.00    -0.246 OA
HETATM   17  C1  UNL     1      14.379   7.331  -2.327  1.00  0.00     0.166 C 
HETATM   18  C8  UNL     1      16.817   7.387  -2.155  1.00  0.00     0.344 A 
HETATM   19  N9  UNL     1      18.010   6.892  -1.722  1.00  0.00    -0.139 N 
HETATM   20  O5  UNL     1      16.802   8.434  -2.859  1.00  0.00    -0.246 OA
ATOM     21  H9  UNL     1      18.874   7.372  -1.971  1.00  0.00     0.189 HD
ENDBRANCH   9  11
ENDBRANCH   1   9
BRANCH   7  22
HETATM   22  C6  UNL     1      23.989   4.402  -3.926  1.00  0.00     0.367 C 
BRANCH  22  23
HETATM   23  N6  UNL     1      24.700   5.658  -3.731  1.00  0.00    -0.058 N 
ATOM     24  H63 UNL     1      24.139   6.354  -3.240  1.00  0.00     0.275 HD
ATOM     25  H62 UNL     1      25.454   5.581  -3.049  1.00  0.00     0.275 HD
ATOM     26  H61 UNL     1      25.025   5.986  -4.640  1.00  0.00     0.275 HD
ENDBRANCH  22  23
BRANCH  22  27
HETATM   27  C7  UNL     1      23.758   4.163  -5.354  1.00  0.00     0.275 C 
HETATM   28  O4  UNL     1      24.296   3.189  -5.922  1.00  0.00    -0.269 OA
HETATM   29  N7  UNL     1      22.921   5.033  -6.099  1.00  0.00    -0.274 N 
ATOM     30  H7  UNL     1      22.479   5.829  -5.638  1.00  0.00     0.189 HD
BRANCH  29  31
HETATM   31  N8  UNL     1      22.700   4.813  -7.442  1.00  0.00    -0.343 N 
ATOM     32  H82 UNL     1      22.523   5.614  -8.048  1.00  0.00     0.176 HD
ATOM     33  H81 UNL     1      22.715   3.866  -7.821  1.00  0.00     0.176 HD
ENDBRANCH  29  31
ENDBRANCH  22  27
ENDBRANCH   7  22
TORSDOF 6
ENDMDL
MODEL 5
REMARK VINA RESULT: -7.361820209      2.394      3.296
REMARK  6 active torsions:
REMARK  status: ('A' for Active; 'I' for Inactive)
REMARK    1  A    between atoms: C3_7  and  N3_8 
REMARK    2  A    between atoms: N3_8  and  N4_10 
REMARK       I    between atoms: N4_10  and  C4_12 
REMARK       I    between atoms: C4_12  and  N5_14 
REMARK       I    between atoms: N5_14  and  C5_16 
REMARK    3  A    between atoms: C5_16  and  C6_18 
REMARK    4  A    between atoms: C6_18  and  N6_19 
REMARK    5  A    between atoms: C6_18  and  C7_23 
REMARK       I    between atoms: C7_23  and  N7_25 
REMARK    6  A    between atoms: N7_25  and  N8_27 
ROOT
HETATM    1  N4  UNL     1      20.185   5.085  -1.512  1.00  0.00    -0.237 N 
ATOM      2  H4  UNL     1      19.936   4.257  -2.052  1.00  0.00     0.192 HD
HETATM    3  C4  UNL     1      21.410   5.716  -1.744  1.00  0.00     0.341 C 
HETATM    4  O2  UNL     1      21.652   6.755  -1.023  1.00  0.00    -0.245 OA
HETATM    5  N5  UNL     1      22.365   5.298  -2.690  1.00  0.00    -0.276 N 
ATOM      6  H5  UNL     1      23.214   5.863  -2.743  1.00  0.00     0.173 HD
HETATM    7  C5  UNL     1      22.305   4.209  -3.566  1.00  0.00     0.265 C 
HETATM    8  O3  UNL     1      21.353   3.393  -3.666  1.00  0.00    -0.270 OA
ENDROOT
BRANCH   1   9
HETATM    9  N3  UNL     1      19.304   5.571  -0.557  1.00  0.00    -0.128 N 
ATOM     10  H3  UNL     1      19.606   5.577   0.417  1.00  0.00     0.205 HD
BRANCH   9  11
HETATM   11  C3  UNL     1      18.127   6.014  -0.828  1.00  0.00     0.705 A 
HETATM   12  N2  UNL     1      17.874   7.331  -0.750  1.00  0.00    -0.139 N 
HETATM   13  C2  UNL     1      16.644   7.838  -1.029  1.00  0.00     0.344 A 
ATOM     14  H2  UNL     1      18.623   7.966  -0.476  1.00  0.00     0.189 HD
HETATM   15  N1  UNL     1      15.630   7.036  -1.394  1.00  0.00    -0.255 N 
HETATM   16  O1  UNL     1      16.417   9.078  -0.952  1.00  0.00    -0.246 OA
HETATM   17  C1  UNL     1      14.301   7.566  -1.696  1.00  0.00     0.166 C 
HETATM   18  C8  UNL     1      15.884   5.717  -1.471  1.00  0.00     0.344 A 
HETATM   19  N9  UNL     1      17.116   5.207  -1.193  1.00  0.00    -0.139 N 
HETATM   20  O5  UNL     1      14.954   4.934  -1.812  1.00  0.00    -0.246 OA
ATOM     21  H9  UNL     1      17.272   4.202  -1.261  1.00  0.00     0.189 HD
ENDBRANCH   9  11
ENDBRANCH   1   9
BRANCH   7  22
HETATM   22  C6  UNL     1      23.463   3.943  -4.499  1.00  0.00     0.367 C 
BRANCH  22  23
HETATM   23  N6  UNL     1      23.257   2.645  -5.126  1.00  0.00    -0.058 N 
ATOM     24  H63 UNL     1      23.037   1.913  -4.451  1.00  0.00     0.275 HD
ATOM     25  H62 UNL     1      22.391   2.601  -5.664  1.00  0.00     0.275 HD
ATOM     26  H61 UNL     1      24.079   2.426  -5.688  1.00  0.00     0.275 HD
ENDBRANCH  22  23
BRANCH  22  27
HETATM   27  C7  UNL     1      24.760   3.979  -3.817  1.00  0.00     0.275 C 
HETATM   28  O4  UNL     1      25.395   5.052  -3.734  1.00  0.00    -0.269 OA
HETATM   29  N7  UNL     1      25.303   2.799  -3.247  1.00  0.00    -0.274 N 
ATOM     30  H7  UNL     1      24.786   1.921  -3.313  1.00  0.00     0.189 HD
BRANCH  29  31
HETATM   31  N8  UNL     1      26.522   2.828  -2.604  1.00  0.00    -0.343 N 
ATOM     32  H82 UNL     1      26.544   2.732  -1.589  1.00  0.00     0.176 HD
ATOM     33  H81 UNL     1      27.385   2.942  -3.136  1.00  0.00     0.176 HD
ENDBRANCH  29  31
ENDBRANCH  22  27
ENDBRANCH   7  22
TORSDOF 6
ENDMDL
