MODEL 1
REMARK VINA RESULT: -8.011878202      0.000      0.000
REMARK  6 active torsions:
REMARK  status: ('A' for Active; 'I' for Inactive)
REMARK    1  A    between atoms: N1_1  and  N2_4 
REMARK       I    between atoms: N2_4  and  C1_6 
REMARK    2  A    between atoms: C1_6  and  C2_8 
REMARK    3  A    between atoms: C2_8  and  N7_27 
REMARK    4  A    between atoms: N3_9  and  N4_11 
REMARK       I    between atoms: N4_11  and  C3_13 
REMARK    5  A    between atoms: C3_13  and  C4_15 
REMARK    6  A    between atoms: C7_24  and  C8_25 
REMARK       I    between atoms: N7_27  and  C9_29 
ROOT
HETATM    1  N4  UNL     1      21.033   4.684  -2.509  1.00  0.00    -0.263 N 
ATOM      2  H4  UNL     1      20.434   4.103  -3.096  1.00  0.00     0.190 HD
HETATM    3  C3  UNL     1      20.472   5.724  -1.738  1.00  0.00     0.287 C 
HETATM    4  O2  UNL     1      21.257   6.429  -1.015  1.00  0.00    -0.264 OA
ENDROOT
BRANCH   1   5
HETATM    5  N3  UNL     1      22.400   4.453  -2.469  1.00  0.00    -0.278 N 
HETATM    6  C2  UNL     1      23.178   4.538  -3.542  1.00  0.00     0.194 C 
ATOM      7  H3  UNL     1      22.827   4.207  -1.576  1.00  0.00     0.189 HD
BRANCH   6   8
HETATM    8  C1  UNL     1      24.559   4.271  -3.331  1.00  0.00     0.305 C 
HETATM    9  N2  UNL     1      24.891   3.047  -2.640  1.00  0.00    -0.270 N 
ATOM     10  H2  UNL     1      24.162   2.408  -2.321  1.00  0.00     0.189 HD
HETATM   11  O1  UNL     1      25.492   5.016  -3.698  1.00  0.00    -0.263 OA
BRANCH   9  12
HETATM   12  N1  UNL     1      26.231   2.769  -2.424  1.00  0.00    -0.342 N 
ATOM     13  H12 UNL     1      26.723   2.116  -3.034  1.00  0.00     0.176 HD
ATOM     14  H11 UNL     1      26.694   3.237  -1.645  1.00  0.00     0.176 HD
ENDBRANCH   9  12
ENDBRANCH   6   8
BRANCH   6  15
HETATM   15  N7  UNL     1      22.534   4.876  -4.720  1.00  0.00    -0.291 N 
HETATM   16  C9  UNL     1      22.538   4.316  -5.993  1.00  0.00     0.334 C 
HETATM   17  N8  UNL     1      21.716   4.959  -7.013  1.00  0.00    -0.040 NA
HETATM   18  O6  UNL     1      23.191   3.315  -6.316  1.00  0.00    -0.251 OA
ATOM     19  H7  UNL     1      21.936   5.698  -4.638  1.00  0.00     0.172 HD
ENDBRANCH   6  15
ENDBRANCH   1   5
BRANCH   3  20
HETATM   20  C4  UNL     1      19.047   6.044  -1.713  1.00  0.00     0.125 A 
HETATM   21  N5  UNL     1      18.535   7.138  -2.280  1.00  0.00    -0.303 N 
HETATM   22  C5  UNL     1      17.226   7.461  -2.277  1.00  0.00     0.327 A 
ATOM     23  H5  UNL     1      19.179   7.774  -2.749  1.00  0.00     0.171 HD
HETATM   24  O3  UNL     1      16.823   8.525  -2.844  1.00  0.00    -0.247 OA
HETATM   25  N6  UNL     1      16.354   6.644  -1.668  1.00  0.00    -0.275 N 
HETATM   26  C6  UNL     1      16.818   5.536  -1.085  1.00  0.00     0.265 A 
ATOM     27  H6  UNL     1      15.357   6.864  -1.652  1.00  0.00     0.173 HD
HETATM   28  O4  UNL     1      16.028   4.762  -0.513  1.00  0.00    -0.267 OA
HETATM   29  C7  UNL     1      18.165   5.194  -1.082  1.00  0.00     0.102 A 
BRANCH  29  30
HETATM   30  C8  UNL     1      18.592   3.962  -0.413  1.00  0.00     0.278 C 
HETATM   31  O5  UNL     1      18.786   2.879  -1.055  1.00  0.00    -0.301 OA
ENDBRANCH  29  30
ENDBRANCH   3  20
TORSDOF 6
ENDMDL
MODEL 2
REMARK VINA RESULT: -7.879637263      1.643      2.265
REMARK  6 active torsions:
REMARK  status: ('A' for Active; 'I' for Inactive)
REMARK    1  A    between atoms: N1_1  and  N2_4 
REMARK       I    between atoms: N2_4  and  C1_6 
REMARK    2  A    between atoms: C1_6  and  C2_8 
REMARK    3  A    between atoms: C2_8  and  N7_27 
REMARK    4  A    between atoms: N3_9  and  N4_11 
REMARK       I    between atoms: N4_11  and  C3_13 
REMARK    5  A    between atoms: C3_13  and  C4_15 
REMARK    6  A    between atoms: C7_24  and  C8_25 
REMARK       I    between atoms: N7_27  and  C9_29 
ROOT
HETATM    1  N4  UNL     1      20.891   5.276  -2.906  1.00  0.00    -0.263 N 
ATOM      2  H4  UNL     1      21.021   6.170  -3.380  1.00  0.00     0.190 HD
HETATM    3  C3  UNL     1      19.630   4.936  -2.371  1.00  0.00     0.287 C 
HETATM    4  O2  UNL     1      19.509   3.806  -1.786  1.00  0.00    -0.264 OA
ENDROOT
BRANCH   1   5
HETATM    5  N3  UNL     1      21.954   4.393  -2.788  1.00  0.00    -0.278 N 
HETATM    6  C2  UNL     1      22.772   4.109  -3.795  1.00  0.00     0.194 C 
ATOM      7  H3  UNL     1      22.114   3.941  -1.887  1.00  0.00     0.189 HD
BRANCH   6   8
HETATM    8  C1  UNL     1      23.812   3.183  -3.507  1.00  0.00     0.305 C 
HETATM    9  N2  UNL     1      24.904   3.657  -2.689  1.00  0.00    -0.270 N 
ATOM     10  H2  UNL     1      24.920   4.614  -2.337  1.00  0.00     0.189 HD
HETATM   11  O1  UNL     1      23.844   2.001  -3.911  1.00  0.00    -0.263 OA
BRANCH   9  12
HETATM   12  N1  UNL     1      25.927   2.769  -2.398  1.00  0.00    -0.342 N 
ATOM     13  H12 UNL     1      26.365   2.231  -3.145  1.00  0.00     0.176 HD
ATOM     14  H11 UNL     1      26.216   2.679  -1.424  1.00  0.00     0.176 HD
ENDBRANCH   9  12
ENDBRANCH   6   8
BRANCH   6  15
HETATM   15  N7  UNL     1      22.496   4.757  -4.987  1.00  0.00    -0.291 N 
HETATM   16  C9  UNL     1      22.103   4.301  -6.240  1.00  0.00     0.334 C 
HETATM   17  N8  UNL     1      21.902   5.299  -7.286  1.00  0.00    -0.040 NA
HETATM   18  O6  UNL     1      21.914   3.111  -6.526  1.00  0.00    -0.251 OA
ATOM     19  H7  UNL     1      22.603   5.770  -4.936  1.00  0.00     0.172 HD
ENDBRANCH   6  15
ENDBRANCH   1   5
BRANCH   3  20
HETATM   20  C4  UNL     1      18.453   5.798  -2.446  1.00  0.00     0.125 A 
HETATM   21  N5  UNL     1      17.403   5.533  -3.225  1.00  0.00    -0.303 N 
HETATM   22  C5  UNL     1      16.301   6.306  -3.315  1.00  0.00     0.327 A 
ATOM     23  H5  UNL     1      17.435   4.686  -3.792  1.00  0.00     0.171 HD
HETATM   24  O3  UNL     1      15.344   5.977  -4.084  1.00  0.00    -0.247 OA
HETATM   25  N6  UNL     1      16.229   7.426  -2.580  1.00  0.00    -0.275 N 
HETATM   26  C6  UNL     1      17.256   7.735  -1.785  1.00  0.00     0.265 A 
ATOM     27  H6  UNL     1      15.407   8.029  -2.629  1.00  0.00     0.173 HD
HETATM   28  O4  UNL     1      17.212   8.771  -1.094  1.00  0.00    -0.267 OA
HETATM   29  C7  UNL     1      18.396   6.946  -1.686  1.00  0.00     0.102 A 
BRANCH  29  30
HETATM   30  C8  UNL     1      19.481   7.361  -0.792  1.00  0.00     0.278 C 
HETATM   31  O5  UNL     1      20.556   7.881  -1.233  1.00  0.00    -0.301 OA
ENDBRANCH  29  30
ENDBRANCH   3  20
TORSDOF 6
ENDMDL
MODEL 3
REMARK VINA RESULT: -7.593700192      2.780      7.474
REMARK  6 active torsions:
REMARK  status: ('A' for Active; 'I' for Inactive)
REMARK    1  A    between atoms: N1_1  and  N2_4 
REMARK       I    between atoms: N2_4  and  C1_6 
REMARK    2  A    between atoms: C1_6  and  C2_8 
REMARK    3  A    between atoms: C2_8  and  N7_27 
REMARK    4  A    between atoms: N3_9  and  N4_11 
REMARK       I    between atoms: N4_11  and  C3_13 
REMARK    5  A    between atoms: C3_13  and  C4_15 
REMARK    6  A    between atoms: C7_24  and  C8_25 
REMARK       I    between atoms: N7_27  and  C9_29 
ROOT
HETATM    1  N4  UNL     1      21.885   5.955  -2.141  1.00  0.00    -0.263 N 
ATOM      2  H4  UNL     1      22.739   6.513  -2.154  1.00  0.00     0.190 HD
HETATM    3  C3  UNL     1      21.891   4.641  -2.657  1.00  0.00     0.287 C 
HETATM    4  O2  UNL     1      20.801   3.975  -2.622  1.00  0.00    -0.264 OA
ENDROOT
BRANCH   1   5
HETATM    5  N3  UNL     1      20.717   6.486  -1.616  1.00  0.00    -0.278 N 
HETATM    6  C2  UNL     1      20.698   7.569  -0.848  1.00  0.00     0.194 C 
ATOM      7  H3  UNL     1      19.832   6.024  -1.829  1.00  0.00     0.189 HD
BRANCH   6   8
HETATM    8  C1  UNL     1      19.416   7.985  -0.391  1.00  0.00     0.305 C 
HETATM    9  N2  UNL     1      18.358   8.039  -1.372  1.00  0.00    -0.270 N 
ATOM     10  H2  UNL     1      18.529   7.791  -2.346  1.00  0.00     0.189 HD
HETATM   11  O1  UNL     1      19.149   8.301   0.788  1.00  0.00    -0.263 OA
BRANCH   9  12
HETATM   12  N1  UNL     1      17.102   8.442  -0.946  1.00  0.00    -0.342 N 
ATOM     13  H12 UNL     1      16.566   7.854  -0.307  1.00  0.00     0.176 HD
ATOM     14  H11 UNL     1      16.746   9.333  -1.291  1.00  0.00     0.176 HD
ENDBRANCH   9  12
ENDBRANCH   6   8
BRANCH   6  15
HETATM   15  N7  UNL     1      21.932   8.145  -0.599  1.00  0.00    -0.291 N 
HETATM   16  C9  UNL     1      22.378   9.045   0.362  1.00  0.00     0.334 C 
HETATM   17  N8  UNL     1      23.783   9.438   0.314  1.00  0.00    -0.040 NA
HETATM   18  O6  UNL     1      21.665   9.533   1.249  1.00  0.00    -0.251 OA
ATOM     19  H7  UNL     1      22.660   7.849  -1.250  1.00  0.00     0.172 HD
ENDBRANCH   6  15
ENDBRANCH   1   5
BRANCH   3  20
HETATM   20  C4  UNL     1      23.069   3.995  -3.230  1.00  0.00     0.125 A 
HETATM   21  N5  UNL     1      24.197   3.795  -2.546  1.00  0.00    -0.303 N 
HETATM   22  C5  UNL     1      25.300   3.201  -3.043  1.00  0.00     0.327 A 
ATOM     23  H5  UNL     1      24.226   4.113  -1.577  1.00  0.00     0.171 HD
HETATM   24  O3  UNL     1      26.334   3.049  -2.320  1.00  0.00    -0.247 OA
HETATM   25  N6  UNL     1      25.292   2.770  -4.314  1.00  0.00    -0.275 N 
HETATM   26  C6  UNL     1      24.186   2.948  -5.041  1.00  0.00     0.265 A 
ATOM     27  H6  UNL     1      26.113   2.316  -4.716  1.00  0.00     0.173 HD
HETATM   28  O4  UNL     1      24.155   2.558  -6.223  1.00  0.00    -0.267 OA
HETATM   29  C7  UNL     1      23.044   3.560  -4.537  1.00  0.00     0.102 A 
BRANCH  29  30
HETATM   30  C8  UNL     1      21.874   3.722  -5.405  1.00  0.00     0.278 C 
HETATM   31  O5  UNL     1      21.732   4.734  -6.165  1.00  0.00    -0.301 OA
ENDBRANCH  29  30
ENDBRANCH   3  20
TORSDOF 6
ENDMDL
MODEL 4
REMARK VINA RESULT: -7.583807407      1.454      1.485
REMARK  6 active torsions:
REMARK  status: ('A' for Active; 'I' for Inactive)
REMARK    1  A    between atoms: N1_1  and  N2_4 
REMARK       I    between atoms: N2_4  and  C1_6 
REMARK    2  A    between atoms: C1_6  and  C2_8 
REMARK    3  A    between atoms: C2_8  and  N7_27 
REMARK    4  A    between atoms: N3_9  and  N4_11 
REMARK       I    between atoms: N4_11  and  C3_13 
REMARK    5  A    between atoms: C3_13  and  C4_15 
REMARK    6  A    between atoms: C7_24  and  C8_25 
REMARK       I    between atoms: N7_27  and  C9_29 
ROOT
HETATM    1  N4  UNL     1      21.098   5.073  -3.309  1.00  0.00    -0.263 N 
ATOM      2  H4  UNL     1      20.720   4.976  -4.251  1.00  0.00     0.190 HD
HETATM    3  C3  UNL     1      20.288   5.583  -2.272  1.00  0.00     0.287 C 
HETATM    4  O2  UNL     1      20.799   5.688  -1.104  1.00  0.00    -0.264 OA
ENDROOT
BRANCH   1   5
HETATM    5  N3  UNL     1      22.408   4.705  -3.045  1.00  0.00    -0.278 N 
HETATM    6  C2  UNL     1      23.343   4.640  -3.986  1.00  0.00     0.194 C 
ATOM      7  H3  UNL     1      22.666   4.473  -2.085  1.00  0.00     0.189 HD
BRANCH   6   8
HETATM    8  C1  UNL     1      24.638   4.245  -3.549  1.00  0.00     0.305 C 
HETATM    9  N2  UNL     1      24.727   3.019  -2.791  1.00  0.00    -0.270 N 
ATOM     10  H2  UNL     1      23.895   2.467  -2.582  1.00  0.00     0.189 HD
HETATM   11  O1  UNL     1      25.690   4.880  -3.775  1.00  0.00    -0.263 OA
BRANCH   9  12
HETATM   12  N1  UNL     1      25.980   2.618  -2.356  1.00  0.00    -0.342 N 
ATOM     13  H12 UNL     1      26.746   3.290  -2.310  1.00  0.00     0.176 HD
ATOM     14  H11 UNL     1      26.101   1.640  -2.091  1.00  0.00     0.176 HD
ENDBRANCH   9  12
ENDBRANCH   6   8
BRANCH   6  15
HETATM   15  N7  UNL     1      22.925   4.967  -5.265  1.00  0.00    -0.291 N 
HETATM   16  C9  UNL     1      22.819   4.233  -6.440  1.00  0.00     0.334 C 
HETATM   17  N8  UNL     1      22.327   4.929  -7.625  1.00  0.00    -0.040 NA
HETATM   18  O6  UNL     1      23.113   3.035  -6.547  1.00  0.00    -0.251 OA
ATOM     19  H7  UNL     1      22.638   5.941  -5.364  1.00  0.00     0.172 HD
ENDBRANCH   6  15
ENDBRANCH   1   5
BRANCH   3  20
HETATM   20  C4  UNL     1      18.899   5.997  -2.450  1.00  0.00     0.125 A 
HETATM   21  N5  UNL     1      18.432   7.180  -2.046  1.00  0.00    -0.303 N 
HETATM   22  C5  UNL     1      17.158   7.594  -2.197  1.00  0.00     0.327 A 
ATOM     23  H5  UNL     1      19.085   7.817  -1.591  1.00  0.00     0.171 HD
HETATM   24  O3  UNL     1      16.797   8.739  -1.783  1.00  0.00    -0.247 OA
HETATM   25  N6  UNL     1      16.274   6.779  -2.794  1.00  0.00    -0.275 N 
HETATM   26  C6  UNL     1      16.693   5.583  -3.216  1.00  0.00     0.265 A 
ATOM     27  H6  UNL     1      15.303   7.067  -2.922  1.00  0.00     0.173 HD
HETATM   28  O4  UNL     1      15.891   4.809  -3.771  1.00  0.00    -0.267 OA
HETATM   29  C7  UNL     1      18.004   5.147  -3.063  1.00  0.00     0.102 A 
BRANCH  29  30
HETATM   30  C8  UNL     1      18.380   3.817  -3.550  1.00  0.00     0.278 C 
HETATM   31  O5  UNL     1      18.808   3.628  -4.735  1.00  0.00    -0.301 OA
ENDBRANCH  29  30
ENDBRANCH   3  20
TORSDOF 6
ENDMDL
MODEL 5
REMARK VINA RESULT: -7.517069964      1.238      1.248
REMARK  6 active torsions:
REMARK  status: ('A' for Active; 'I' for Inactive)
REMARK    1  A    between atoms: N1_1  and  N2_4 
REMARK       I    between atoms: N2_4  and  C1_6 
REMARK    2  A    between atoms: C1_6  and  C2_8 
REMARK    3  A    between atoms: C2_8  and  N7_27 
REMARK    4  A    between atoms: N3_9  and  N4_11 
REMARK       I    between atoms: N4_11  and  C3_13 
REMARK    5  A    between atoms: C3_13  and  C4_15 
REMARK    6  A    between atoms: C7_24  and  C8_25 
REMARK       I    between atoms: N7_27  and  C9_29 
ROOT
HETATM    1  N4  UNL     1      20.998   5.243  -2.428  1.00  0.00    -0.263 N 
ATOM      2  H4  UNL     1      20.358   4.692  -3.000  1.00  0.00     0.190 HD
HETATM    3  C3  UNL     1      20.508   6.316  -1.652  1.00  0.00     0.287 C 
HETATM    4  O2  UNL     1      21.342   6.981  -0.948  1.00  0.00    -0.264 OA
ENDROOT
BRANCH   1   5
HETATM    5  N3  UNL     1      22.351   4.939  -2.410  1.00  0.00    -0.278 N 
HETATM    6  C2  UNL     1      23.048   4.685  -3.512  1.00  0.00     0.194 C 
ATOM      7  H3  UNL     1      22.833   4.909  -1.512  1.00  0.00     0.189 HD
BRANCH   6   8
HETATM    8  C1  UNL     1      24.426   4.391  -3.322  1.00  0.00     0.305 C 
HETATM    9  N2  UNL     1      24.745   3.139  -2.676  1.00  0.00    -0.270 N 
ATOM     10  H2  UNL     1      24.010   2.500  -2.373  1.00  0.00     0.189 HD
HETATM   11  O1  UNL     1      25.368   5.134  -3.671  1.00  0.00    -0.263 OA
BRANCH   9  12
HETATM   12  N1  UNL     1      26.083   2.835  -2.481  1.00  0.00    -0.342 N 
ATOM     13  H12 UNL     1      26.517   2.993  -1.572  1.00  0.00     0.176 HD
ATOM     14  H11 UNL     1      26.604   2.454  -3.272  1.00  0.00     0.176 HD
ENDBRANCH   9  12
ENDBRANCH   6   8
BRANCH   6  15
HETATM   15  N7  UNL     1      22.332   4.743  -4.696  1.00  0.00    -0.291 N 
HETATM   16  C9  UNL     1      22.518   4.152  -5.941  1.00  0.00     0.334 C 
HETATM   17  N8  UNL     1      21.535   4.450  -6.979  1.00  0.00    -0.040 NA
HETATM   18  O6  UNL     1      23.455   3.395  -6.225  1.00  0.00    -0.251 OA
ATOM     19  H7  UNL     1      21.504   5.336  -4.645  1.00  0.00     0.172 HD
ENDBRANCH   6  15
ENDBRANCH   1   5
BRANCH   3  20
HETATM   20  C4  UNL     1      19.103   6.712  -1.604  1.00  0.00     0.125 A 
HETATM   21  N5  UNL     1      18.691   7.883  -1.116  1.00  0.00    -0.303 N 
HETATM   22  C5  UNL     1      17.404   8.281  -1.059  1.00  0.00     0.327 A 
ATOM     23  H5  UNL     1      19.401   8.524  -0.761  1.00  0.00     0.171 HD
HETATM   24  O3  UNL     1      17.100   9.416  -0.577  1.00  0.00    -0.247 OA
HETATM   25  N6  UNL     1      16.448   7.460  -1.519  1.00  0.00    -0.275 N 
HETATM   26  C6  UNL     1      16.809   6.275  -2.017  1.00  0.00     0.265 A 
ATOM     27  H6  UNL     1      15.466   7.735  -1.489  1.00  0.00     0.173 HD
HETATM   28  O4  UNL     1      15.939   5.495  -2.450  1.00  0.00    -0.267 OA
HETATM   29  C7  UNL     1      18.134   5.856  -2.080  1.00  0.00     0.102 A 
BRANCH  29  30
HETATM   30  C8  UNL     1      18.444   4.537  -2.637  1.00  0.00     0.278 C 
HETATM   31  O5  UNL     1      18.653   4.363  -3.881  1.00  0.00    -0.301 OA
ENDBRANCH  29  30
ENDBRANCH   3  20
TORSDOF 6
ENDMDL
