MODEL 1
REMARK VINA RESULT: -4.720168664      0.000      0.000
REMARK  9 active torsions:
REMARK  status: ('A' for Active; 'I' for Inactive)
REMARK    1  A    between atoms: C2_2  and  C3_3 
REMARK    2  A    between atoms: C4_4  and  C5_5 
REMARK    3  A    between atoms: C8_9  and  C9_10 
REMARK    4  A    between atoms: C9_10  and  C10_11 
REMARK    5  A    between atoms: C10_11  and  C11_12 
REMARK    6  A    between atoms: C11_12  and  C13_14 
REMARK    7  A    between atoms: C13_14  and  C14_15 
REMARK    8  A    between atoms: C14_15  and  C15_16 
REMARK    9  A    between atoms: C16_18  and  C17_19 
ROOT
HETATM    1  C5  UNL     1      36.368  70.738 104.808  1.00  0.00    -0.006 A 
HETATM    2  C6  UNL     1      35.383  70.687 105.750  1.00  0.00     0.153 A 
HETATM    3  O1  UNL     1      35.584  71.655 106.610  1.00  0.00    -0.333 OA
HETATM    4  C7  UNL     1      36.636  72.345 106.300  1.00  0.00     0.149 A 
HETATM    5  C8  UNL     1      37.190  71.824 105.164  1.00  0.00    -0.023 A 
ENDROOT
BRANCH   1   6
HETATM    6  C4  UNL     1      36.578  69.842 103.642  1.00  0.00     0.014 C 
HETATM    7  C3  UNL     1      36.831  68.582 103.872  1.00  0.00     0.008 C 
BRANCH   7   8
HETATM    8  C2  UNL     1      37.063  67.566 102.865  1.00  0.00    -0.056 C 
HETATM    9  C1  UNL     1      38.397  66.964 102.701  1.00  0.00     0.048 C 
HETATM   10  C16 UNL     1      36.044  67.188 102.087  1.00  0.00     0.091 C 
BRANCH  10  11
HETATM   11  C17 UNL     1      36.129  66.198 101.052  1.00  0.00     0.199 C 
HETATM   12  O2  UNL     1      36.397  66.470  99.857  1.00  0.00    -0.644 OA
HETATM   13  O3  UNL     1      35.901  64.839 101.381  1.00  0.00    -0.644 OA
ENDBRANCH  10  11
ENDBRANCH   7   8
ENDBRANCH   1   6
BRANCH   5  14
HETATM   14  C9  UNL     1      38.391  72.184 104.362  1.00  0.00     0.045 C 
BRANCH  14  15
HETATM   15  C10 UNL     1      39.607  72.386 105.172  1.00  0.00     0.038 C 
BRANCH  15  16
HETATM   16  C11 UNL     1      40.609  71.301 105.294  1.00  0.00    -0.084 C 
HETATM   17  C12 UNL     1      42.013  71.818 105.502  1.00  0.00     0.043 C 
BRANCH  16  18
HETATM   18  C13 UNL     1      40.359  70.040 105.204  1.00  0.00    -0.001 C 
BRANCH  18  19
HETATM   19  C14 UNL     1      39.969  68.947 106.054  1.00  0.00    -0.012 C 
BRANCH  19  20
HETATM   20  C15 UNL     1      38.803  68.973 106.939  1.00  0.00     0.141 C 
HETATM   21 CL1  UNL     1      38.921  70.307 108.107  1.00  0.00    -0.126 Cl
ENDBRANCH  19  20
ENDBRANCH  18  19
ENDBRANCH  16  18
ENDBRANCH  15  16
ENDBRANCH  14  15
ENDBRANCH   5  14
TORSDOF 9
ENDMDL
MODEL 2
REMARK VINA RESULT: -4.699512070      3.138      6.913
REMARK  9 active torsions:
REMARK  status: ('A' for Active; 'I' for Inactive)
REMARK    1  A    between atoms: C2_2  and  C3_3 
REMARK    2  A    between atoms: C4_4  and  C5_5 
REMARK    3  A    between atoms: C8_9  and  C9_10 
REMARK    4  A    between atoms: C9_10  and  C10_11 
REMARK    5  A    between atoms: C10_11  and  C11_12 
REMARK    6  A    between atoms: C11_12  and  C13_14 
REMARK    7  A    between atoms: C13_14  and  C14_15 
REMARK    8  A    between atoms: C14_15  and  C15_16 
REMARK    9  A    between atoms: C16_18  and  C17_19 
ROOT
HETATM    1  C5  UNL     1      36.215  66.506 102.426  1.00  0.00    -0.006 A 
HETATM    2  C6  UNL     1      36.100  66.514 101.067  1.00  0.00     0.153 A 
HETATM    3  O1  UNL     1      35.280  65.554 100.717  1.00  0.00    -0.333 OA
HETATM    4  C7  UNL     1      34.843  64.911 101.753  1.00  0.00     0.149 A 
HETATM    5  C8  UNL     1      35.392  65.457 102.879  1.00  0.00    -0.023 A 
ENDROOT
BRANCH   1   6
HETATM    6  C4  UNL     1      37.041  67.389 103.288  1.00  0.00     0.014 C 
HETATM    7  C3  UNL     1      36.592  68.586 103.552  1.00  0.00     0.008 C 
BRANCH   7   8
HETATM    8  C2  UNL     1      37.258  69.581 104.369  1.00  0.00    -0.056 C 
HETATM    9  C1  UNL     1      38.145  69.174 105.472  1.00  0.00     0.048 C 
HETATM   10  C16 UNL     1      37.050  70.875 104.103  1.00  0.00     0.091 C 
BRANCH  10  11
HETATM   11  C17 UNL     1      37.640  71.963 104.828  1.00  0.00     0.199 C 
HETATM   12  O2  UNL     1      38.728  72.496 104.507  1.00  0.00    -0.644 OA
HETATM   13  O3  UNL     1      36.970  72.472 105.968  1.00  0.00    -0.644 OA
ENDBRANCH  10  11
ENDBRANCH   7   8
ENDBRANCH   1   6
BRANCH   5  14
HETATM   14  C9  UNL     1      35.271  65.135 104.327  1.00  0.00     0.045 C 
BRANCH  14  15
HETATM   15  C10 UNL     1      34.129  65.794 104.988  1.00  0.00     0.038 C 
BRANCH  15  16
HETATM   16  C11 UNL     1      34.348  66.990 105.834  1.00  0.00    -0.084 C 
HETATM   17  C12 UNL     1      35.477  66.813 106.823  1.00  0.00     0.043 C 
BRANCH  16  18
HETATM   18  C13 UNL     1      33.653  68.075 105.789  1.00  0.00    -0.001 C 
BRANCH  18  19
HETATM   19  C14 UNL     1      33.105  68.973 104.809  1.00  0.00    -0.012 C 
BRANCH  19  20
HETATM   20  C15 UNL     1      31.688  69.333 104.727  1.00  0.00     0.141 C 
HETATM   21 CL1  UNL     1      30.704  67.932 104.248  1.00  0.00    -0.126 Cl
ENDBRANCH  19  20
ENDBRANCH  18  19
ENDBRANCH  16  18
ENDBRANCH  15  16
ENDBRANCH  14  15
ENDBRANCH   5  14
TORSDOF 9
ENDMDL
MODEL 3
REMARK VINA RESULT: -4.657557421      2.901      4.899
REMARK  9 active torsions:
REMARK  status: ('A' for Active; 'I' for Inactive)
REMARK    1  A    between atoms: C2_2  and  C3_3 
REMARK    2  A    between atoms: C4_4  and  C5_5 
REMARK    3  A    between atoms: C8_9  and  C9_10 
REMARK    4  A    between atoms: C9_10  and  C10_11 
REMARK    5  A    between atoms: C10_11  and  C11_12 
REMARK    6  A    between atoms: C11_12  and  C13_14 
REMARK    7  A    between atoms: C13_14  and  C14_15 
REMARK    8  A    between atoms: C14_15  and  C15_16 
REMARK    9  A    between atoms: C16_18  and  C17_19 
ROOT
HETATM    1  C5  UNL     1      36.519  70.882 104.470  1.00  0.00    -0.006 A 
HETATM    2  C6  UNL     1      37.722  71.201 105.029  1.00  0.00     0.153 A 
HETATM    3  O1  UNL     1      37.531  72.166 105.895  1.00  0.00    -0.333 OA
HETATM    4  C7  UNL     1      36.282  72.506 105.949  1.00  0.00     0.149 A 
HETATM    5  C8  UNL     1      35.573  71.734 105.072  1.00  0.00    -0.023 A 
ENDROOT
BRANCH   1   6
HETATM    6  C4  UNL     1      36.226  69.866 103.427  1.00  0.00     0.014 C 
HETATM    7  C3  UNL     1      36.305  68.605 103.757  1.00  0.00     0.008 C 
BRANCH   7   8
HETATM    8  C2  UNL     1      36.056  67.481 102.876  1.00  0.00    -0.056 C 
HETATM    9  C1  UNL     1      34.864  66.635 103.058  1.00  0.00     0.048 C 
HETATM   10  C16 UNL     1      36.931  67.226 101.897  1.00  0.00     0.091 C 
BRANCH  10  11
HETATM   11  C17 UNL     1      36.813  66.151 100.956  1.00  0.00     0.199 C 
HETATM   12  O2  UNL     1      36.314  66.285  99.813  1.00  0.00    -0.644 OA
HETATM   13  O3  UNL     1      37.279  64.863 101.322  1.00  0.00    -0.644 OA
ENDBRANCH  10  11
ENDBRANCH   7   8
ENDBRANCH   1   6
BRANCH   5  14
HETATM   14  C9  UNL     1      34.134  71.682 104.698  1.00  0.00     0.045 C 
BRANCH  14  15
HETATM   15  C10 UNL     1      33.293  70.964 105.674  1.00  0.00     0.038 C 
BRANCH  15  16
HETATM   16  C11 UNL     1      33.195  69.486 105.626  1.00  0.00    -0.084 C 
HETATM   17  C12 UNL     1      34.068  68.804 106.653  1.00  0.00     0.043 C 
BRANCH  16  18
HETATM   18  C13 UNL     1      32.480  68.811 104.792  1.00  0.00    -0.001 C 
BRANCH  18  19
HETATM   19  C14 UNL     1      31.307  67.979 104.793  1.00  0.00    -0.012 C 
BRANCH  19  20
HETATM   20  C15 UNL     1      30.863  67.191 105.944  1.00  0.00     0.141 C 
HETATM   21 CL1  UNL     1      31.980  65.846 106.262  1.00  0.00    -0.126 Cl
ENDBRANCH  19  20
ENDBRANCH  18  19
ENDBRANCH  16  18
ENDBRANCH  15  16
ENDBRANCH  14  15
ENDBRANCH   5  14
TORSDOF 9
ENDMDL
MODEL 4
REMARK VINA RESULT: -4.545148433      2.444      4.529
REMARK  9 active torsions:
REMARK  status: ('A' for Active; 'I' for Inactive)
REMARK    1  A    between atoms: C2_2  and  C3_3 
REMARK    2  A    between atoms: C4_4  and  C5_5 
REMARK    3  A    between atoms: C8_9  and  C9_10 
REMARK    4  A    between atoms: C9_10  and  C10_11 
REMARK    5  A    between atoms: C10_11  and  C11_12 
REMARK    6  A    between atoms: C11_12  and  C13_14 
REMARK    7  A    between atoms: C13_14  and  C14_15 
REMARK    8  A    between atoms: C14_15  and  C15_16 
REMARK    9  A    between atoms: C16_18  and  C17_19 
ROOT
HETATM    1  C5  UNL     1      36.596  70.760 104.568  1.00  0.00    -0.006 A 
HETATM    2  C6  UNL     1      37.683  71.193 105.267  1.00  0.00     0.153 A 
HETATM    3  O1  UNL     1      37.292  72.123 106.104  1.00  0.00    -0.333 OA
HETATM    4  C7  UNL     1      36.017  72.333 106.006  1.00  0.00     0.149 A 
HETATM    5  C8  UNL     1      35.502  71.504 105.050  1.00  0.00    -0.023 A 
ENDROOT
BRANCH   1   6
HETATM    6  C4  UNL     1      36.535  69.732 103.497  1.00  0.00     0.014 C 
HETATM    7  C3  UNL     1      37.152  68.598 103.698  1.00  0.00     0.008 C 
BRANCH   7   8
HETATM    8  C2  UNL     1      37.203  67.486 102.771  1.00  0.00    -0.056 C 
HETATM    9  C1  UNL     1      38.427  66.677 102.635  1.00  0.00     0.048 C 
HETATM   10  C16 UNL     1      36.118  67.208 102.039  1.00  0.00     0.091 C 
BRANCH  10  11
HETATM   11  C17 UNL     1      36.027  66.142 101.085  1.00  0.00     0.199 C 
HETATM   12  O2  UNL     1      36.272  66.286  99.863  1.00  0.00    -0.644 OA
HETATM   13  O3  UNL     1      35.642  64.853 101.529  1.00  0.00    -0.644 OA
ENDBRANCH  10  11
ENDBRANCH   7   8
ENDBRANCH   1   6
BRANCH   5  14
HETATM   14  C9  UNL     1      34.131  71.310 104.505  1.00  0.00     0.045 C 
BRANCH  14  15
HETATM   15  C10 UNL     1      33.260  70.492 105.369  1.00  0.00     0.038 C 
BRANCH  15  16
HETATM   16  C11 UNL     1      32.903  69.110 104.970  1.00  0.00    -0.084 C 
HETATM   17  C12 UNL     1      31.427  68.937 104.698  1.00  0.00     0.043 C 
BRANCH  16  18
HETATM   18  C13 UNL     1      33.726  68.121 104.883  1.00  0.00    -0.001 C 
BRANCH  18  19
HETATM   19  C14 UNL     1      33.983  66.863 105.531  1.00  0.00    -0.012 C 
BRANCH  19  20
HETATM   20  C15 UNL     1      34.276  65.618 104.818  1.00  0.00     0.141 C 
HETATM   21 CL1  UNL     1      35.946  65.090 105.122  1.00  0.00    -0.126 Cl
ENDBRANCH  19  20
ENDBRANCH  18  19
ENDBRANCH  16  18
ENDBRANCH  15  16
ENDBRANCH  14  15
ENDBRANCH   5  14
TORSDOF 9
ENDMDL
MODEL 5
REMARK VINA RESULT: -4.532693360      3.213      5.007
REMARK  9 active torsions:
REMARK  status: ('A' for Active; 'I' for Inactive)
REMARK    1  A    between atoms: C2_2  and  C3_3 
REMARK    2  A    between atoms: C4_4  and  C5_5 
REMARK    3  A    between atoms: C8_9  and  C9_10 
REMARK    4  A    between atoms: C9_10  and  C10_11 
REMARK    5  A    between atoms: C10_11  and  C11_12 
REMARK    6  A    between atoms: C11_12  and  C13_14 
REMARK    7  A    between atoms: C13_14  and  C14_15 
REMARK    8  A    between atoms: C14_15  and  C15_16 
REMARK    9  A    between atoms: C16_18  and  C17_19 
ROOT
HETATM    1  C5  UNL     1      32.974  66.687 105.993  1.00  0.00    -0.006 A 
HETATM    2  C6  UNL     1      32.053  65.752 106.365  1.00  0.00     0.153 A 
HETATM    3  O1  UNL     1      31.110  66.351 107.049  1.00  0.00    -0.333 OA
HETATM    4  C7  UNL     1      31.343  67.621 107.155  1.00  0.00     0.149 A 
HETATM    5  C8  UNL     1      32.511  67.914 106.508  1.00  0.00    -0.023 A 
ENDROOT
BRANCH   1   6
HETATM    6  C4  UNL     1      34.228  66.493 105.221  1.00  0.00     0.014 C 
HETATM    7  C3  UNL     1      34.154  66.496 103.917  1.00  0.00     0.008 C 
BRANCH   7   8
HETATM    8  C2  UNL     1      35.267  66.321 103.005  1.00  0.00    -0.056 C 
HETATM    9  C1  UNL     1      36.645  66.612 103.438  1.00  0.00     0.048 C 
HETATM   10  C16 UNL     1      35.018  65.893 101.763  1.00  0.00     0.091 C 
BRANCH  10  11
HETATM   11  C17 UNL     1      36.018  65.678 100.758  1.00  0.00     0.199 C 
HETATM   12  O2  UNL     1      36.384  66.563  99.947  1.00  0.00    -0.644 OA
HETATM   13  O3  UNL     1      36.633  64.405 100.662  1.00  0.00    -0.644 OA
ENDBRANCH  10  11
ENDBRANCH   7   8
ENDBRANCH   1   6
BRANCH   5  14
HETATM   14  C9  UNL     1      33.273  69.176 106.308  1.00  0.00     0.045 C 
BRANCH  14  15
HETATM   15  C10 UNL     1      32.916  69.894 105.070  1.00  0.00     0.038 C 
BRANCH  15  16
HETATM   16  C11 UNL     1      33.944  70.673 104.339  1.00  0.00    -0.084 C 
HETATM   17  C12 UNL     1      33.747  72.166 104.459  1.00  0.00     0.043 C 
BRANCH  16  18
HETATM   18  C13 UNL     1      34.902  70.172 103.637  1.00  0.00    -0.001 C 
BRANCH  18  19
HETATM   19  C14 UNL     1      36.327  70.302 103.496  1.00  0.00    -0.012 C 
BRANCH  19  20
HETATM   20  C15 UNL     1      37.253  70.439 104.622  1.00  0.00     0.141 C 
HETATM   21 CL1  UNL     1      36.886  69.252 105.893  1.00  0.00    -0.126 Cl
ENDBRANCH  19  20
ENDBRANCH  18  19
ENDBRANCH  16  18
ENDBRANCH  15  16
ENDBRANCH  14  15
ENDBRANCH   5  14
TORSDOF 9
ENDMDL
