MODEL 1
REMARK VINA RESULT: -4.800675069      0.000      0.000
REMARK  8 active torsions:
REMARK  status: ('A' for Active; 'I' for Inactive)
REMARK    1  A    between atoms: C5_5  and  C6_6 
REMARK    2  A    between atoms: C6_6  and  C7_7 
REMARK    3  A    between atoms: C7_7  and  C8_8 
REMARK    4  A    between atoms: C8_8  and  C9_9 
REMARK    5  A    between atoms: C9_9  and  C10_10 
REMARK    6  A    between atoms: C10_10  and  O1_11 
REMARK    7  A    between atoms: O1_11  and  C11_12 
REMARK    8  A    between atoms: C11_12  and  C12_13 
ROOT
HETATM    1  C1  UNL     1      30.704  68.054 104.438  1.00  0.00     0.019 C 
HETATM    2  C2  UNL     1      32.025  68.244 105.188  1.00  0.00    -0.028 C 
HETATM    3  C3  UNL     1      31.610  68.601 106.621  1.00  0.00     0.019 C 
HETATM    4  C4  UNL     1      32.707  69.400 104.541  1.00  0.00    -0.004 C 
HETATM    5  C5  UNL     1      33.988  69.670 104.737  1.00  0.00    -0.024 C 
HETATM    6  S1  UNL     1      34.831  68.545 105.817  1.00  0.00    -0.125 SA
HETATM    7  C13 UNL     1      34.197  66.914 105.337  1.00  0.00     0.006 C 
HETATM    8  C14 UNL     1      34.654  65.912 106.400  1.00  0.00     0.027 C 
HETATM    9  C15 UNL     1      34.876  66.444 104.046  1.00  0.00     0.027 C 
HETATM   10  C16 UNL     1      32.734  66.957 105.179  1.00  0.00     0.033 C 
ENDROOT
BRANCH   5  11
HETATM   11  C6  UNL     1      34.658  70.802 104.107  1.00  0.00     0.045 C 
BRANCH  11  12
HETATM   12  C7  UNL     1      35.976  70.560 103.480  1.00  0.00     0.005 C 
BRANCH  12  13
HETATM   13  C8  UNL     1      37.188  70.978 104.205  1.00  0.00     0.002 C 
BRANCH  13  14
HETATM   14  C9  UNL     1      36.976  72.030 105.258  1.00  0.00     0.026 C 
BRANCH  14  15
HETATM   15  C10 UNL     1      37.682  71.696 106.558  1.00  0.00     0.168 C 
BRANCH  15  16
HETATM   16  O1  UNL     1      38.892  71.110 106.375  1.00  0.00    -0.381 OA
BRANCH  16  17
HETATM   17  C11 UNL     1      40.013  71.850 106.513  1.00  0.00     0.280 C 
BRANCH  17  18
HETATM   18  C12 UNL     1      41.127  71.627 105.616  1.00  0.00     0.197 C 
HETATM   19  O2  UNL     1      42.015  72.499 105.444  1.00  0.00    -0.646 OA
HETATM   20  O3  UNL     1      41.259  70.447 104.912  1.00  0.00    -0.646 OA
ENDBRANCH  17  18
ENDBRANCH  16  17
ENDBRANCH  15  16
ENDBRANCH  14  15
ENDBRANCH  13  14
ENDBRANCH  12  13
ENDBRANCH  11  12
ENDBRANCH   5  11
TORSDOF 8
ENDMDL
MODEL 2
REMARK VINA RESULT: -4.750549870      3.672      6.069
REMARK  8 active torsions:
REMARK  status: ('A' for Active; 'I' for Inactive)
REMARK    1  A    between atoms: C5_5  and  C6_6 
REMARK    2  A    between atoms: C6_6  and  C7_7 
REMARK    3  A    between atoms: C7_7  and  C8_8 
REMARK    4  A    between atoms: C8_8  and  C9_9 
REMARK    5  A    between atoms: C9_9  and  C10_10 
REMARK    6  A    between atoms: C10_10  and  O1_11 
REMARK    7  A    between atoms: O1_11  and  C11_12 
REMARK    8  A    between atoms: C11_12  and  C12_13 
ROOT
HETATM    1  C1  UNL     1      35.332  70.334 103.186  1.00  0.00     0.019 C 
HETATM    2  C2  UNL     1      34.795  69.658 104.451  1.00  0.00    -0.028 C 
HETATM    3  C3  UNL     1      35.752  70.104 105.565  1.00  0.00     0.019 C 
HETATM    4  C4  UNL     1      34.914  68.191 104.220  1.00  0.00    -0.004 C 
HETATM    5  C5  UNL     1      34.290  67.299 104.973  1.00  0.00    -0.024 C 
HETATM    6  S1  UNL     1      33.293  67.986 106.270  1.00  0.00    -0.125 SA
HETATM    7  C13 UNL     1      32.480  69.411 105.493  1.00  0.00     0.006 C 
HETATM    8  C14 UNL     1      31.822  70.228 106.608  1.00  0.00     0.027 C 
HETATM    9  C15 UNL     1      31.313  68.940 104.619  1.00  0.00     0.027 C 
HETATM   10  C16 UNL     1      33.449  70.190 104.706  1.00  0.00     0.033 C 
ENDROOT
BRANCH   5  11
HETATM   11  C6  UNL     1      34.405  65.863 104.751  1.00  0.00     0.045 C 
BRANCH  11  12
HETATM   12  C7  UNL     1      35.349  65.402 103.709  1.00  0.00     0.005 C 
BRANCH  12  13
HETATM   13  C8  UNL     1      34.806  64.752 102.505  1.00  0.00     0.002 C 
BRANCH  13  14
HETATM   14  C9  UNL     1      34.726  65.625 101.283  1.00  0.00     0.026 C 
BRANCH  14  15
HETATM   15  C10 UNL     1      35.950  66.506 101.122  1.00  0.00     0.168 C 
BRANCH  15  16
HETATM   16  O1  UNL     1      36.503  66.432  99.885  1.00  0.00    -0.381 OA
BRANCH  16  17
HETATM   17  C11 UNL     1      37.419  65.474  99.625  1.00  0.00     0.280 C 
BRANCH  17  18
HETATM   18  C12 UNL     1      38.828  65.795  99.710  1.00  0.00     0.197 C 
HETATM   19  O2  UNL     1      39.708  65.000  99.295  1.00  0.00    -0.646 OA
HETATM   20  O3  UNL     1      39.263  66.990 100.250  1.00  0.00    -0.646 OA
ENDBRANCH  17  18
ENDBRANCH  16  17
ENDBRANCH  15  16
ENDBRANCH  14  15
ENDBRANCH  13  14
ENDBRANCH  12  13
ENDBRANCH  11  12
ENDBRANCH   5  11
TORSDOF 8
ENDMDL
MODEL 3
REMARK VINA RESULT: -4.736005053      2.650      3.697
REMARK  8 active torsions:
REMARK  status: ('A' for Active; 'I' for Inactive)
REMARK    1  A    between atoms: C5_5  and  C6_6 
REMARK    2  A    between atoms: C6_6  and  C7_7 
REMARK    3  A    between atoms: C7_7  and  C8_8 
REMARK    4  A    between atoms: C8_8  and  C9_9 
REMARK    5  A    between atoms: C9_9  and  C10_10 
REMARK    6  A    between atoms: C10_10  and  O1_11 
REMARK    7  A    between atoms: O1_11  and  C11_12 
REMARK    8  A    between atoms: C11_12  and  C12_13 
ROOT
HETATM    1  C1  UNL     1      34.500  65.663 101.398  1.00  0.00     0.019 C 
HETATM    2  C2  UNL     1      35.633  65.864 102.409  1.00  0.00    -0.028 C 
HETATM    3  C3  UNL     1      35.186  65.083 103.652  1.00  0.00     0.019 C 
HETATM    4  C4  UNL     1      35.678  67.324 102.699  1.00  0.00    -0.004 C 
HETATM    5  C5  UNL     1      36.706  67.898 103.304  1.00  0.00    -0.024 C 
HETATM    6  S1  UNL     1      38.030  66.797 103.729  1.00  0.00    -0.125 SA
HETATM    7  C13 UNL     1      38.176  65.705 102.287  1.00  0.00     0.006 C 
HETATM    8  C14 UNL     1      39.099  64.549 102.679  1.00  0.00     0.027 C 
HETATM    9  C15 UNL     1      38.917  66.425 101.155  1.00  0.00     0.027 C 
HETATM   10  C16 UNL     1      36.846  65.254 101.846  1.00  0.00     0.033 C 
ENDROOT
BRANCH   5  11
HETATM   11  C6  UNL     1      36.751  69.326 103.591  1.00  0.00     0.045 C 
BRANCH  11  12
HETATM   12  C7  UNL     1      35.471  70.069 103.595  1.00  0.00     0.005 C 
BRANCH  12  13
HETATM   13  C8  UNL     1      35.281  71.139 104.588  1.00  0.00     0.002 C 
BRANCH  13  14
HETATM   14  C9  UNL     1      36.317  71.198 105.676  1.00  0.00     0.026 C 
BRANCH  14  15
HETATM   15  C10 UNL     1      37.177  72.443 105.587  1.00  0.00     0.168 C 
BRANCH  15  16
HETATM   16  O1  UNL     1      38.413  72.205 105.079  1.00  0.00    -0.381 OA
BRANCH  16  17
HETATM   17  C11 UNL     1      39.502  72.555 105.796  1.00  0.00     0.280 C 
BRANCH  17  18
HETATM   18  C12 UNL     1      40.768  71.902 105.532  1.00  0.00     0.197 C 
HETATM   19  O2  UNL     1      41.841  72.553 105.475  1.00  0.00    -0.646 OA
HETATM   20  O3  UNL     1      40.846  70.539 105.332  1.00  0.00    -0.646 OA
ENDBRANCH  17  18
ENDBRANCH  16  17
ENDBRANCH  15  16
ENDBRANCH  14  15
ENDBRANCH  13  14
ENDBRANCH  12  13
ENDBRANCH  11  12
ENDBRANCH   5  11
TORSDOF 8
ENDMDL
MODEL 4
REMARK VINA RESULT: -4.700422140      3.997      6.330
REMARK  8 active torsions:
REMARK  status: ('A' for Active; 'I' for Inactive)
REMARK    1  A    between atoms: C5_5  and  C6_6 
REMARK    2  A    between atoms: C6_6  and  C7_7 
REMARK    3  A    between atoms: C7_7  and  C8_8 
REMARK    4  A    between atoms: C8_8  and  C9_9 
REMARK    5  A    between atoms: C9_9  and  C10_10 
REMARK    6  A    between atoms: C10_10  and  O1_11 
REMARK    7  A    between atoms: O1_11  and  C11_12 
REMARK    8  A    between atoms: C11_12  and  C12_13 
ROOT
HETATM    1  C1  UNL     1      34.507  65.691 101.674  1.00  0.00     0.019 C 
HETATM    2  C2  UNL     1      35.650  65.993 102.648  1.00  0.00    -0.028 C 
HETATM    3  C3  UNL     1      35.258  65.268 103.943  1.00  0.00     0.019 C 
HETATM    4  C4  UNL     1      35.641  67.468 102.854  1.00  0.00    -0.004 C 
HETATM    5  C5  UNL     1      36.656  68.116 103.403  1.00  0.00    -0.024 C 
HETATM    6  S1  UNL     1      38.031  67.095 103.863  1.00  0.00    -0.125 SA
HETATM    7  C13 UNL     1      38.195  65.928 102.483  1.00  0.00     0.006 C 
HETATM    8  C14 UNL     1      39.171  64.834 102.920  1.00  0.00     0.027 C 
HETATM    9  C15 UNL     1      38.884  66.610 101.297  1.00  0.00     0.027 C 
HETATM   10  C16 UNL     1      36.876  65.401 102.096  1.00  0.00     0.033 C 
ENDROOT
BRANCH   5  11
HETATM   11  C6  UNL     1      36.648  69.560 103.608  1.00  0.00     0.045 C 
BRANCH  11  12
HETATM   12  C7  UNL     1      35.421  70.300 103.242  1.00  0.00     0.005 C 
BRANCH  12  13
HETATM   13  C8  UNL     1      34.700  71.034 104.296  1.00  0.00     0.002 C 
BRANCH  13  14
HETATM   14  C9  UNL     1      33.391  70.428 104.720  1.00  0.00     0.026 C 
BRANCH  14  15
HETATM   15  C10 UNL     1      33.542  69.504 105.913  1.00  0.00     0.168 C 
BRANCH  15  16
HETATM   16  O1  UNL     1      33.456  68.190 105.586  1.00  0.00    -0.381 OA
BRANCH  16  17
HETATM   17  C11 UNL     1      32.548  67.794 104.669  1.00  0.00     0.280 C 
BRANCH  17  18
HETATM   18  C12 UNL     1      31.147  67.734 105.033  1.00  0.00     0.197 C 
HETATM   19  O2  UNL     1      30.763  67.123 106.062  1.00  0.00    -0.646 OA
HETATM   20  O3  UNL     1      30.178  68.347 104.265  1.00  0.00    -0.646 OA
ENDBRANCH  17  18
ENDBRANCH  16  17
ENDBRANCH  15  16
ENDBRANCH  14  15
ENDBRANCH  13  14
ENDBRANCH  12  13
ENDBRANCH  11  12
ENDBRANCH   5  11
TORSDOF 8
ENDMDL
MODEL 5
REMARK VINA RESULT: -4.694712939      1.692      2.881
REMARK  8 active torsions:
REMARK  status: ('A' for Active; 'I' for Inactive)
REMARK    1  A    between atoms: C5_5  and  C6_6 
REMARK    2  A    between atoms: C6_6  and  C7_7 
REMARK    3  A    between atoms: C7_7  and  C8_8 
REMARK    4  A    between atoms: C8_8  and  C9_9 
REMARK    5  A    between atoms: C9_9  and  C10_10 
REMARK    6  A    between atoms: C10_10  and  O1_11 
REMARK    7  A    between atoms: O1_11  and  C11_12 
REMARK    8  A    between atoms: C11_12  and  C12_13 
ROOT
HETATM    1  C1  UNL     1      37.040  65.422 102.592  1.00  0.00     0.019 C 
HETATM    2  C2  UNL     1      35.799  66.200 103.038  1.00  0.00    -0.028 C 
HETATM    3  C3  UNL     1      34.714  65.813 102.023  1.00  0.00     0.019 C 
HETATM    4  C4  UNL     1      36.143  67.643 102.907  1.00  0.00    -0.004 C 
HETATM    5  C5  UNL     1      35.422  68.600 103.467  1.00  0.00    -0.024 C 
HETATM    6  S1  UNL     1      34.021  68.031 104.396  1.00  0.00    -0.125 SA
HETATM    7  C13 UNL     1      34.642  66.573 105.280  1.00  0.00     0.006 C 
HETATM    8  C14 UNL     1      33.433  65.854 105.884  1.00  0.00     0.027 C 
HETATM    9  C15 UNL     1      35.477  67.007 106.489  1.00  0.00     0.027 C 
HETATM   10  C16 UNL     1      35.426  65.718 104.375  1.00  0.00     0.033 C 
ENDROOT
BRANCH   5  11
HETATM   11  C6  UNL     1      35.755  70.014 103.339  1.00  0.00     0.045 C 
BRANCH  11  12
HETATM   12  C7  UNL     1      34.949  70.984 104.112  1.00  0.00     0.005 C 
BRANCH  12  13
HETATM   13  C8  UNL     1      35.553  71.613 105.299  1.00  0.00     0.002 C 
BRANCH  13  14
HETATM   14  C9  UNL     1      37.038  71.831 105.226  1.00  0.00     0.026 C 
BRANCH  14  15
HETATM   15  C10 UNL     1      37.780  71.139 106.354  1.00  0.00     0.168 C 
BRANCH  15  16
HETATM   16  O1  UNL     1      38.908  71.793 106.732  1.00  0.00    -0.381 OA
BRANCH  16  17
HETATM   17  C11 UNL     1      39.658  72.415 105.798  1.00  0.00     0.280 C 
BRANCH  17  18
HETATM   18  C12 UNL     1      40.945  71.862 105.435  1.00  0.00     0.197 C 
HETATM   19  O2  UNL     1      41.993  72.555 105.480  1.00  0.00    -0.646 OA
HETATM   20  O3  UNL     1      41.075  70.550 105.024  1.00  0.00    -0.646 OA
ENDBRANCH  17  18
ENDBRANCH  16  17
ENDBRANCH  15  16
ENDBRANCH  14  15
ENDBRANCH  13  14
ENDBRANCH  12  13
ENDBRANCH  11  12
ENDBRANCH   5  11
TORSDOF 8
ENDMDL
