MODEL 1
REMARK VINA RESULT: -5.089969677      0.000      0.000
REMARK  9 active torsions:
REMARK  status: ('A' for Active; 'I' for Inactive)
REMARK    1  A    between atoms: C2_2  and  C3_3 
REMARK    2  A    between atoms: C3_3  and  C4_4 
REMARK    3  A    between atoms: C4_4  and  C5_5 
REMARK    4  A    between atoms: C5_5  and  C6_6 
REMARK    5  A    between atoms: C6_6  and  C7_7 
REMARK    6  A    between atoms: C7_7  and  C17_21 
REMARK    7  A    between atoms: C8_8  and  C9_9 
REMARK    8  A    between atoms: C10_10  and  C11_11 
REMARK    9  A    between atoms: C17_21  and  O2_23 
ROOT
HETATM    1  C7  UNL     1      35.743  66.382 102.777  1.00  0.00     0.017 C 
HETATM    2  C8  UNL     1      36.578  67.330 102.453  1.00  0.00     0.013 C 
ENDROOT
BRANCH   2   3
HETATM    3  C9  UNL     1      36.994  68.364 103.363  1.00  0.00    -0.001 C 
HETATM    4  C10 UNL     1      36.443  69.582 103.309  1.00  0.00     0.007 C 
BRANCH   4   5
HETATM    5  C11 UNL     1      36.871  70.618 104.232  1.00  0.00     0.227 C 
HETATM    6  N1  UNL     1      37.951  70.203 105.109  1.00  0.00    -0.062 N 
HETATM    7  C12 UNL     1      38.546  71.329 105.752  1.00  0.00     0.182 C 
ATOM      8  H12 UNL     1      37.641  69.504 105.784  1.00  0.00     0.278 HD
ATOM      9  H11 UNL     1      38.644  69.642 104.613  1.00  0.00     0.278 HD
HETATM   10  C13 UNL     1      38.908  70.918 107.175  1.00  0.00     0.040 C 
HETATM   11  C14 UNL     1      37.728  72.554 105.810  1.00  0.00     0.034 C 
HETATM   12  C15 UNL     1      36.261  72.395 105.755  1.00  0.00     0.024 C 
HETATM   13  C16 UNL     1      35.773  71.122 105.148  1.00  0.00     0.116 C 
HETATM   14 CL1  UNL     1      34.263  71.405 104.262  1.00  0.00    -0.123 Cl
ENDBRANCH   4   5
ENDBRANCH   2   3
BRANCH   1  15
HETATM   15  C6  UNL     1      35.124  66.224 104.063  1.00  0.00     0.045 C 
BRANCH  15  16
HETATM   16  C5  UNL     1      33.872  66.922 104.358  1.00  0.00     0.005 C 
BRANCH  16  17
HETATM   17  C4  UNL     1      33.767  67.986 105.369  1.00  0.00     0.000 C 
BRANCH  17  18
HETATM   18  C3  UNL     1      32.413  68.364 105.819  1.00  0.00    -0.000 C 
BRANCH  18  19
HETATM   19  C2  UNL     1      31.616  69.042 104.694  1.00  0.00    -0.005 C 
HETATM   20  C1  UNL     1      30.420  68.236 104.296  1.00  0.00     0.005 C 
ENDBRANCH  18  19
ENDBRANCH  17  18
ENDBRANCH  16  17
ENDBRANCH  15  16
ENDBRANCH   1  15
BRANCH   1  21
HETATM   21  C17 UNL     1      35.445  65.381 101.712  1.00  0.00     0.288 C 
HETATM   22  O1  UNL     1      34.471  64.612 101.755  1.00  0.00    -0.260 OA
BRANCH  21  23
HETATM   23  O2  UNL     1      36.274  65.276 100.604  1.00  0.00    -0.323 OA
HETATM   24  C18 UNL     1      37.166  64.185 100.495  1.00  0.00     0.213 C 
ENDBRANCH  21  23
ENDBRANCH   1  21
TORSDOF 9
ENDMDL
MODEL 2
REMARK VINA RESULT: -4.969128134      2.418      5.019
REMARK  9 active torsions:
REMARK  status: ('A' for Active; 'I' for Inactive)
REMARK    1  A    between atoms: C2_2  and  C3_3 
REMARK    2  A    between atoms: C3_3  and  C4_4 
REMARK    3  A    between atoms: C4_4  and  C5_5 
REMARK    4  A    between atoms: C5_5  and  C6_6 
REMARK    5  A    between atoms: C6_6  and  C7_7 
REMARK    6  A    between atoms: C7_7  and  C17_21 
REMARK    7  A    between atoms: C8_8  and  C9_9 
REMARK    8  A    between atoms: C10_10  and  C11_11 
REMARK    9  A    between atoms: C17_21  and  O2_23 
ROOT
HETATM    1  C7  UNL     1      36.521  66.445 102.364  1.00  0.00     0.017 C 
HETATM    2  C8  UNL     1      35.229  66.310 102.481  1.00  0.00     0.013 C 
ENDROOT
BRANCH   2   3
HETATM    3  C9  UNL     1      34.553  66.225 103.748  1.00  0.00    -0.001 C 
HETATM    4  C10 UNL     1      33.790  67.234 104.183  1.00  0.00     0.007 C 
BRANCH   4   5
HETATM    5  C11 UNL     1      33.113  67.137 105.464  1.00  0.00     0.227 C 
HETATM    6  N1  UNL     1      32.907  65.770 105.908  1.00  0.00    -0.062 N 
HETATM    7  C12 UNL     1      32.547  65.733 107.289  1.00  0.00     0.182 C 
ATOM      8  H12 UNL     1      32.223  65.284 105.328  1.00  0.00     0.278 HD
ATOM      9  H11 UNL     1      33.718  65.185 105.714  1.00  0.00     0.278 HD
HETATM   10  C13 UNL     1      31.516  64.625 107.473  1.00  0.00     0.040 C 
HETATM   11  C14 UNL     1      32.003  66.981 107.855  1.00  0.00     0.034 C 
HETATM   12  C15 UNL     1      31.351  67.923 106.923  1.00  0.00     0.024 C 
HETATM   13  C16 UNL     1      31.743  67.786 105.489  1.00  0.00     0.116 C 
HETATM   14 CL1  UNL     1      31.758  69.376 104.703  1.00  0.00    -0.123 Cl
ENDBRANCH   4   5
ENDBRANCH   2   3
BRANCH   1  15
HETATM   15  C6  UNL     1      37.449  66.528 103.456  1.00  0.00     0.045 C 
BRANCH  15  16
HETATM   16  C5  UNL     1      37.904  67.836 103.927  1.00  0.00     0.005 C 
BRANCH  16  17
HETATM   17  C4  UNL     1      37.425  68.449 105.175  1.00  0.00     0.000 C 
BRANCH  17  18
HETATM   18  C3  UNL     1      36.536  69.621 105.059  1.00  0.00    -0.000 C 
BRANCH  18  19
HETATM   19  C2  UNL     1      36.451  70.120 103.608  1.00  0.00    -0.005 C 
HETATM   20  C1  UNL     1      35.062  70.542 103.246  1.00  0.00     0.005 C 
ENDBRANCH  18  19
ENDBRANCH  17  18
ENDBRANCH  16  17
ENDBRANCH  15  16
ENDBRANCH   1  15
BRANCH   1  21
HETATM   21  C17 UNL     1      37.045  66.542 100.970  1.00  0.00     0.288 C 
HETATM   22  O1  UNL     1      36.315  66.509  99.967  1.00  0.00    -0.260 OA
BRANCH  21  23
HETATM   23  O2  UNL     1      38.408  66.676 100.747  1.00  0.00    -0.323 OA
HETATM   24  C18 UNL     1      39.051  65.844  99.802  1.00  0.00     0.213 C 
ENDBRANCH  21  23
ENDBRANCH   1  21
TORSDOF 9
ENDMDL
MODEL 3
REMARK VINA RESULT: -4.841367987      3.398      7.185
REMARK  9 active torsions:
REMARK  status: ('A' for Active; 'I' for Inactive)
REMARK    1  A    between atoms: C2_2  and  C3_3 
REMARK    2  A    between atoms: C3_3  and  C4_4 
REMARK    3  A    between atoms: C4_4  and  C5_5 
REMARK    4  A    between atoms: C5_5  and  C6_6 
REMARK    5  A    between atoms: C6_6  and  C7_7 
REMARK    6  A    between atoms: C7_7  and  C17_21 
REMARK    7  A    between atoms: C8_8  and  C9_9 
REMARK    8  A    between atoms: C10_10  and  C11_11 
REMARK    9  A    between atoms: C17_21  and  O2_23 
ROOT
HETATM    1  C7  UNL     1      35.255  70.534 104.207  1.00  0.00     0.017 C 
HETATM    2  C8  UNL     1      34.976  69.328 103.799  1.00  0.00     0.013 C 
ENDROOT
BRANCH   2   3
HETATM    3  C9  UNL     1      35.941  68.457 103.181  1.00  0.00    -0.001 C 
HETATM    4  C10 UNL     1      35.624  67.192 102.882  1.00  0.00     0.007 C 
BRANCH   4   5
HETATM    5  C11 UNL     1      36.606  66.322 102.258  1.00  0.00     0.227 C 
HETATM    6  N1  UNL     1      37.753  67.033 101.723  1.00  0.00    -0.062 N 
HETATM    7  C12 UNL     1      38.818  66.130 101.427  1.00  0.00     0.182 C 
ATOM      8  H12 UNL     1      37.501  67.598 100.912  1.00  0.00     0.278 HD
ATOM      9  H11 UNL     1      38.056  67.782 102.346  1.00  0.00     0.278 HD
HETATM   10  C13 UNL     1      39.500  66.615 100.152  1.00  0.00     0.040 C 
HETATM   11  C14 UNL     1      38.444  64.715 101.252  1.00  0.00     0.034 C 
HETATM   12  C15 UNL     1      37.059  64.426 100.827  1.00  0.00     0.024 C 
HETATM   13  C16 UNL     1      36.061  65.500 101.107  1.00  0.00     0.116 C 
HETATM   14 CL1  UNL     1      34.486  64.786 101.502  1.00  0.00    -0.123 Cl
ENDBRANCH   4   5
ENDBRANCH   2   3
BRANCH   1  15
HETATM   15  C6  UNL     1      36.539  71.168 104.107  1.00  0.00     0.045 C 
BRANCH  15  16
HETATM   16  C5  UNL     1      37.215  71.639 105.316  1.00  0.00     0.005 C 
BRANCH  16  17
HETATM   17  C4  UNL     1      38.648  71.424 105.568  1.00  0.00     0.000 C 
BRANCH  17  18
HETATM   18  C3  UNL     1      39.560  72.555 105.310  1.00  0.00    -0.000 C 
BRANCH  18  19
HETATM   19  C2  UNL     1      40.994  72.235 105.763  1.00  0.00    -0.005 C 
HETATM   20  C1  UNL     1      41.459  70.912 105.242  1.00  0.00     0.005 C 
ENDBRANCH  18  19
ENDBRANCH  17  18
ENDBRANCH  16  17
ENDBRANCH  15  16
ENDBRANCH   1  15
BRANCH   1  21
HETATM   21  C17 UNL     1      34.135  71.284 104.846  1.00  0.00     0.288 C 
HETATM   22  O1  UNL     1      33.684  72.348 104.394  1.00  0.00    -0.260 OA
BRANCH  21  23
HETATM   23  O2  UNL     1      33.545  70.798 106.004  1.00  0.00    -0.323 OA
HETATM   24  C18 UNL     1      32.155  70.536 106.028  1.00  0.00     0.213 C 
ENDBRANCH  21  23
ENDBRANCH   1  21
TORSDOF 9
ENDMDL
MODEL 4
REMARK VINA RESULT: -4.829019726      1.472      1.832
REMARK  9 active torsions:
REMARK  status: ('A' for Active; 'I' for Inactive)
REMARK    1  A    between atoms: C2_2  and  C3_3 
REMARK    2  A    between atoms: C3_3  and  C4_4 
REMARK    3  A    between atoms: C4_4  and  C5_5 
REMARK    4  A    between atoms: C5_5  and  C6_6 
REMARK    5  A    between atoms: C6_6  and  C7_7 
REMARK    6  A    between atoms: C7_7  and  C17_21 
REMARK    7  A    between atoms: C8_8  and  C9_9 
REMARK    8  A    between atoms: C10_10  and  C11_11 
REMARK    9  A    between atoms: C17_21  and  O2_23 
ROOT
HETATM    1  C7  UNL     1      36.081  66.334 102.708  1.00  0.00     0.017 C 
HETATM    2  C8  UNL     1      36.214  67.599 102.421  1.00  0.00     0.013 C 
ENDROOT
BRANCH   2   3
HETATM    3  C9  UNL     1      36.777  68.564 103.329  1.00  0.00    -0.001 C 
HETATM    4  C10 UNL     1      36.226  69.776 103.462  1.00  0.00     0.007 C 
BRANCH   4   5
HETATM    5  C11 UNL     1      36.803  70.741 104.382  1.00  0.00     0.227 C 
HETATM    6  N1  UNL     1      37.905  70.210 105.164  1.00  0.00    -0.062 N 
HETATM    7  C12 UNL     1      38.634  71.262 105.794  1.00  0.00     0.182 C 
ATOM      8  H12 UNL     1      37.587  69.515 105.839  1.00  0.00     0.278 HD
ATOM      9  H11 UNL     1      38.512  69.613 104.602  1.00  0.00     0.278 HD
HETATM   10  C13 UNL     1      39.061  70.773 107.174  1.00  0.00     0.040 C 
HETATM   11  C14 UNL     1      37.927  72.546 105.948  1.00  0.00     0.034 C 
HETATM   12  C15 UNL     1      36.451  72.507 105.997  1.00  0.00     0.024 C 
HETATM   13  C16 UNL     1      35.818  71.299 105.390  1.00  0.00     0.116 C 
HETATM   14 CL1  UNL     1      34.277  71.733 104.627  1.00  0.00    -0.123 Cl
ENDBRANCH   4   5
ENDBRANCH   2   3
BRANCH   1  15
HETATM   15  C6  UNL     1      36.468  65.719 103.946  1.00  0.00     0.045 C 
BRANCH  15  16
HETATM   16  C5  UNL     1      35.450  65.125 104.814  1.00  0.00     0.005 C 
BRANCH  16  17
HETATM   17  C4  UNL     1      34.155  65.769 105.087  1.00  0.00     0.000 C 
BRANCH  17  18
HETATM   18  C3  UNL     1      34.011  66.487 106.368  1.00  0.00    -0.000 C 
BRANCH  18  19
HETATM   19  C2  UNL     1      34.621  67.896 106.294  1.00  0.00    -0.005 C 
HETATM   20  C1  UNL     1      35.836  68.022 107.158  1.00  0.00     0.005 C 
ENDBRANCH  18  19
ENDBRANCH  17  18
ENDBRANCH  16  17
ENDBRANCH  15  16
ENDBRANCH   1  15
BRANCH   1  21
HETATM   21  C17 UNL     1      35.499  65.477 101.635  1.00  0.00     0.288 C 
HETATM   22  O1  UNL     1      34.336  65.605 101.220  1.00  0.00    -0.260 OA
BRANCH  21  23
HETATM   23  O2  UNL     1      36.266  64.480 101.048  1.00  0.00    -0.323 OA
HETATM   24  C18 UNL     1      37.306  64.827 100.156  1.00  0.00     0.213 C 
ENDBRANCH  21  23
ENDBRANCH   1  21
TORSDOF 9
ENDMDL
MODEL 5
REMARK VINA RESULT: -4.797171560      3.282      6.156
REMARK  9 active torsions:
REMARK  status: ('A' for Active; 'I' for Inactive)
REMARK    1  A    between atoms: C2_2  and  C3_3 
REMARK    2  A    between atoms: C3_3  and  C4_4 
REMARK    3  A    between atoms: C4_4  and  C5_5 
REMARK    4  A    between atoms: C5_5  and  C6_6 
REMARK    5  A    between atoms: C6_6  and  C7_7 
REMARK    6  A    between atoms: C7_7  and  C17_21 
REMARK    7  A    between atoms: C8_8  and  C9_9 
REMARK    8  A    between atoms: C10_10  and  C11_11 
REMARK    9  A    between atoms: C17_21  and  O2_23 
ROOT
HETATM    1  C7  UNL     1      36.360  70.689 104.414  1.00  0.00     0.017 C 
HETATM    2  C8  UNL     1      37.203  69.710 104.234  1.00  0.00     0.013 C 
ENDROOT
BRANCH   2   3
HETATM    3  C9  UNL     1      36.994  68.649 103.284  1.00  0.00    -0.001 C 
HETATM    4  C10 UNL     1      37.007  67.370 103.678  1.00  0.00     0.007 C 
BRANCH   4   5
HETATM    5  C11 UNL     1      36.796  66.308 102.710  1.00  0.00     0.227 C 
HETATM    6  N1  UNL     1      37.710  66.360 101.583  1.00  0.00    -0.062 N 
HETATM    7  C12 UNL     1      37.683  65.136 100.850  1.00  0.00     0.182 C 
ATOM      8  H12 UNL     1      37.523  67.163 100.983  1.00  0.00     0.278 HD
ATOM      9  H11 UNL     1      38.656  66.603 101.877  1.00  0.00     0.278 HD
HETATM   10  C13 UNL     1      37.818  65.476  99.370  1.00  0.00     0.040 C 
HETATM   11  C14 UNL     1      36.487  64.293 101.031  1.00  0.00     0.034 C 
HETATM   12  C15 UNL     1      35.237  64.965 101.439  1.00  0.00     0.024 C 
HETATM   13  C16 UNL     1      35.405  66.289 102.107  1.00  0.00     0.116 C 
HETATM   14 CL1  UNL     1      34.154  66.515 103.344  1.00  0.00    -0.123 Cl
ENDBRANCH   4   5
ENDBRANCH   2   3
BRANCH   1  15
HETATM   15  C6  UNL     1      35.121  70.857 103.708  1.00  0.00     0.045 C 
BRANCH  15  16
HETATM   16  C5  UNL     1      33.875  70.365 104.297  1.00  0.00     0.005 C 
BRANCH  16  17
HETATM   17  C4  UNL     1      33.839  69.405 105.411  1.00  0.00     0.000 C 
BRANCH  17  18
HETATM   18  C3  UNL     1      32.540  68.783 105.730  1.00  0.00    -0.000 C 
BRANCH  18  19
HETATM   19  C2  UNL     1      31.470  69.150 104.689  1.00  0.00    -0.005 C 
HETATM   20  C1  UNL     1      30.645  67.965 104.298  1.00  0.00     0.005 C 
ENDBRANCH  18  19
ENDBRANCH  17  18
ENDBRANCH  16  17
ENDBRANCH  15  16
ENDBRANCH   1  15
BRANCH   1  21
HETATM   21  C17 UNL     1      36.753  71.713 105.425  1.00  0.00     0.288 C 
HETATM   22  O1  UNL     1      37.699  72.500 105.261  1.00  0.00    -0.260 OA
BRANCH  21  23
HETATM   23  O2  UNL     1      36.050  71.821 106.616  1.00  0.00    -0.323 OA
HETATM   24  C18 UNL     1      36.751  71.922 107.839  1.00  0.00     0.213 C 
ENDBRANCH  21  23
ENDBRANCH   1  21
TORSDOF 9
ENDMDL
