MODEL 1
REMARK VINA RESULT: -4.881748903      0.000      0.000
REMARK  8 active torsions:
REMARK  status: ('A' for Active; 'I' for Inactive)
REMARK    1  A    between atoms: C2_2  and  C3_4 
REMARK    2  A    between atoms: C3_4  and  C4_5 
REMARK    3  A    between atoms: C4_5  and  C5_6 
REMARK    4  A    between atoms: C5_6  and  O1_7 
REMARK    5  A    between atoms: O1_7  and  N2_8 
REMARK    6  A    between atoms: C6_10  and  C7_11 
REMARK    7  A    between atoms: C6_10  and  C14_18 
REMARK    8  A    between atoms: C7_11  and  C8_12 
ROOT
HETATM    1  N2  UNL     1      34.880  67.844 105.346  1.00  0.00    -0.270 N 
ATOM      2  H2  UNL     1      34.769  68.670 105.935  1.00  0.00     0.194 HD
HETATM    3  C6  UNL     1      35.069  68.134 104.144  1.00  0.00     0.049 C 
ENDROOT
BRANCH   3   4
HETATM    4  C7  UNL     1      35.121  69.532 103.663  1.00  0.00     0.065 C 
BRANCH   4   5
HETATM    5  C8  UNL     1      35.931  70.450 104.480  1.00  0.00    -0.009 C 
HETATM    6  C9  UNL     1      37.136  71.046 103.830  1.00  0.00     0.005 C 
HETATM    7  C10 UNL     1      38.102  71.416 104.968  1.00  0.00     0.000 C 
HETATM    8  C11 UNL     1      37.409  72.460 105.818  1.00  0.00     0.000 C 
HETATM    9  C12 UNL     1      36.050  72.055 106.281  1.00  0.00     0.000 C 
HETATM   10  C13 UNL     1      35.157  71.579 105.124  1.00  0.00     0.005 C 
ENDBRANCH   4   5
ENDBRANCH   3   4
BRANCH   3  11
HETATM   11  C14 UNL     1      35.256  67.092 103.128  1.00  0.00     0.029 A 
HETATM   12  C15 UNL     1      34.423  66.098 102.706  1.00  0.00     0.021 A 
HETATM   13  C16 UNL     1      34.860  65.273 101.744  1.00  0.00     0.008 A 
HETATM   14  C17 UNL     1      36.115  65.481 101.248  1.00  0.00     0.050 A 
HETATM   15  S1  UNL     1      36.655  66.826 102.138  1.00  0.00    -0.100 SA
ENDBRANCH   3  11
BRANCH   1  16
HETATM   16  O1  UNL     1      34.790  66.714 106.034  1.00  0.00    -0.280 OA
BRANCH  16  17
HETATM   17  C5  UNL     1      33.698  66.308 106.839  1.00  0.00     0.201 C 
BRANCH  17  18
HETATM   18  C4  UNL     1      32.471  66.057 105.990  1.00  0.00     0.034 C 
BRANCH  18  19
HETATM   19  C3  UNL     1      31.386  67.018 106.367  1.00  0.00     0.055 C 
BRANCH  19  20
HETATM   20  C2  UNL     1      31.362  68.163 105.416  1.00  0.00     0.015 C 
HETATM   21  C1  UNL     1      30.686  68.061 104.286  1.00  0.00     0.035 C 
HETATM   22  N1  UNL     1      32.051  69.374 105.687  1.00  0.00    -0.108 NA
ENDBRANCH  19  20
ENDBRANCH  18  19
ENDBRANCH  17  18
ENDBRANCH  16  17
ENDBRANCH   1  16
TORSDOF 8
ENDMDL
MODEL 2
REMARK VINA RESULT: -4.866309157      2.254      5.339
REMARK  8 active torsions:
REMARK  status: ('A' for Active; 'I' for Inactive)
REMARK    1  A    between atoms: C2_2  and  C3_4 
REMARK    2  A    between atoms: C3_4  and  C4_5 
REMARK    3  A    between atoms: C4_5  and  C5_6 
REMARK    4  A    between atoms: C5_6  and  O1_7 
REMARK    5  A    between atoms: O1_7  and  N2_8 
REMARK    6  A    between atoms: C6_10  and  C7_11 
REMARK    7  A    between atoms: C6_10  and  C14_18 
REMARK    8  A    between atoms: C7_11  and  C8_12 
ROOT
HETATM    1  N2  UNL     1      35.316  69.513 103.605  1.00  0.00    -0.270 N 
ATOM      2  H2  UNL     1      34.943  68.731 103.066  1.00  0.00     0.194 HD
HETATM    3  C6  UNL     1      36.515  69.349 103.921  1.00  0.00     0.049 C 
ENDROOT
BRANCH   3   4
HETATM    4  C7  UNL     1      37.279  68.142 103.539  1.00  0.00     0.065 C 
BRANCH   4   5
HETATM    5  C8  UNL     1      36.525  67.135 102.775  1.00  0.00    -0.009 C 
HETATM    6  C9  UNL     1      37.157  66.629 101.520  1.00  0.00     0.005 C 
HETATM    7  C10 UNL     1      36.007  66.127 100.630  1.00  0.00     0.000 C 
HETATM    8  C11 UNL     1      35.342  64.983 101.365  1.00  0.00     0.000 C 
HETATM    9  C12 UNL     1      34.931  65.321 102.759  1.00  0.00     0.000 C 
HETATM   10  C13 UNL     1      36.080  65.931 103.576  1.00  0.00     0.005 C 
ENDBRANCH   4   5
ENDBRANCH   3   4
BRANCH   3  11
HETATM   11  C14 UNL     1      37.245  70.358 104.697  1.00  0.00     0.029 A 
HETATM   12  C15 UNL     1      37.710  71.590 104.343  1.00  0.00     0.021 A 
HETATM   13  C16 UNL     1      38.354  72.314 105.271  1.00  0.00     0.008 A 
HETATM   14  C17 UNL     1      38.502  71.767 106.513  1.00  0.00     0.050 A 
HETATM   15  S1  UNL     1      37.739  70.257 106.357  1.00  0.00    -0.100 SA
ENDBRANCH   3  11
BRANCH   1  16
HETATM   16  O1  UNL     1      34.416  70.466 103.807  1.00  0.00    -0.280 OA
BRANCH  16  17
HETATM   17  C5  UNL     1      33.905  70.883 105.059  1.00  0.00     0.201 C 
BRANCH  17  18
HETATM   18  C4  UNL     1      32.395  70.777 105.083  1.00  0.00     0.034 C 
BRANCH  18  19
HETATM   19  C3  UNL     1      31.984  69.544 105.826  1.00  0.00     0.055 C 
BRANCH  19  20
HETATM   20  C2  UNL     1      31.777  68.418 104.874  1.00  0.00     0.015 C 
HETATM   21  C1  UNL     1      30.596  68.247 104.310  1.00  0.00     0.035 C 
HETATM   22  N1  UNL     1      32.821  67.512 104.550  1.00  0.00    -0.108 NA
ENDBRANCH  19  20
ENDBRANCH  18  19
ENDBRANCH  17  18
ENDBRANCH  16  17
ENDBRANCH   1  16
TORSDOF 8
ENDMDL
MODEL 3
REMARK VINA RESULT: -4.843530024      2.524      5.444
REMARK  8 active torsions:
REMARK  status: ('A' for Active; 'I' for Inactive)
REMARK    1  A    between atoms: C2_2  and  C3_4 
REMARK    2  A    between atoms: C3_4  and  C4_5 
REMARK    3  A    between atoms: C4_5  and  C5_6 
REMARK    4  A    between atoms: C5_6  and  O1_7 
REMARK    5  A    between atoms: O1_7  and  N2_8 
REMARK    6  A    between atoms: C6_10  and  C7_11 
REMARK    7  A    between atoms: C6_10  and  C14_18 
REMARK    8  A    between atoms: C7_11  and  C8_12 
ROOT
HETATM    1  N2  UNL     1      36.727  68.793 103.063  1.00  0.00    -0.270 N 
ATOM      2  H2  UNL     1      36.054  68.451 102.377  1.00  0.00     0.194 HD
HETATM    3  C6  UNL     1      36.360  69.858 103.606  1.00  0.00     0.049 C 
ENDROOT
BRANCH   3   4
HETATM    4  C7  UNL     1      35.083  70.523 103.268  1.00  0.00     0.065 C 
BRANCH   4   5
HETATM    5  C8  UNL     1      33.939  70.159 104.119  1.00  0.00    -0.009 C 
HETATM    6  C9  UNL     1      33.858  68.738 104.569  1.00  0.00     0.005 C 
HETATM    7  C10 UNL     1      32.374  68.464 104.868  1.00  0.00     0.000 C 
HETATM    8  C11 UNL     1      31.971  69.382 106.001  1.00  0.00     0.000 C 
HETATM    9  C12 UNL     1      32.287  70.820 105.754  1.00  0.00     0.000 C 
HETATM   10  C13 UNL     1      33.752  71.033 105.340  1.00  0.00     0.005 C 
ENDBRANCH   4   5
ENDBRANCH   3   4
BRANCH   3  11
HETATM   11  C14 UNL     1      37.183  70.518 104.626  1.00  0.00     0.029 A 
HETATM   12  C15 UNL     1      37.861  71.701 104.596  1.00  0.00     0.021 A 
HETATM   13  C16 UNL     1      38.544  72.066 105.691  1.00  0.00     0.008 A 
HETATM   14  C17 UNL     1      38.516  71.226 106.768  1.00  0.00     0.050 A 
HETATM   15  S1  UNL     1      37.536  69.947 106.226  1.00  0.00    -0.100 SA
ENDBRANCH   3  11
BRANCH   1  16
HETATM   16  O1  UNL     1      37.788  68.004 103.170  1.00  0.00    -0.280 OA
BRANCH  16  17
HETATM   17  C5  UNL     1      37.839  66.755 103.835  1.00  0.00     0.201 C 
BRANCH  17  18
HETATM   18  C4  UNL     1      36.602  65.936 103.532  1.00  0.00     0.034 C 
BRANCH  18  19
HETATM   19  C3  UNL     1      36.788  65.192 102.245  1.00  0.00     0.055 C 
BRANCH  19  20
HETATM   20  C2  UNL     1      35.876  65.738 101.202  1.00  0.00     0.015 C 
HETATM   21  C1  UNL     1      34.572  65.572 101.321  1.00  0.00     0.035 C 
HETATM   22  N1  UNL     1      36.370  66.438 100.071  1.00  0.00    -0.108 NA
ENDBRANCH  19  20
ENDBRANCH  18  19
ENDBRANCH  17  18
ENDBRANCH  16  17
ENDBRANCH   1  16
TORSDOF 8
ENDMDL
MODEL 4
REMARK VINA RESULT: -4.819497356      1.902      5.127
REMARK  8 active torsions:
REMARK  status: ('A' for Active; 'I' for Inactive)
REMARK    1  A    between atoms: C2_2  and  C3_4 
REMARK    2  A    between atoms: C3_4  and  C4_5 
REMARK    3  A    between atoms: C4_5  and  C5_6 
REMARK    4  A    between atoms: C5_6  and  O1_7 
REMARK    5  A    between atoms: O1_7  and  N2_8 
REMARK    6  A    between atoms: C6_10  and  C7_11 
REMARK    7  A    between atoms: C6_10  and  C14_18 
REMARK    8  A    between atoms: C7_11  and  C8_12 
ROOT
HETATM    1  N2  UNL     1      33.965  68.647 104.368  1.00  0.00    -0.270 N 
ATOM      2  H2  UNL     1      33.619  67.715 104.140  1.00  0.00     0.194 HD
HETATM    3  C6  UNL     1      35.205  68.673 104.531  1.00  0.00     0.049 C 
ENDROOT
BRANCH   3   4
HETATM    4  C7  UNL     1      36.048  67.465 104.399  1.00  0.00     0.065 C 
BRANCH   4   5
HETATM    5  C8  UNL     1      35.922  66.745 103.122  1.00  0.00    -0.009 C 
HETATM    6  C9  UNL     1      37.163  66.601 102.304  1.00  0.00     0.005 C 
HETATM    7  C10 UNL     1      36.701  66.413 100.849  1.00  0.00     0.000 C 
HETATM    8  C11 UNL     1      35.903  65.129 100.797  1.00  0.00     0.000 C 
HETATM    9  C12 UNL     1      34.799  65.065 101.799  1.00  0.00     0.000 C 
HETATM   10  C13 UNL     1      35.283  65.377 103.223  1.00  0.00     0.005 C 
ENDBRANCH   4   5
ENDBRANCH   3   4
BRANCH   3  11
HETATM   11  C14 UNL     1      35.906  69.918 104.862  1.00  0.00     0.029 A 
HETATM   12  C15 UNL     1      36.873  70.604 104.188  1.00  0.00     0.021 A 
HETATM   13  C16 UNL     1      37.343  71.735 104.734  1.00  0.00     0.008 A 
HETATM   14  C17 UNL     1      36.821  72.128 105.932  1.00  0.00     0.050 A 
HETATM   15  S1  UNL     1      35.686  70.909 106.269  1.00  0.00    -0.100 SA
ENDBRANCH   3  11
BRANCH   1  16
HETATM   16  O1  UNL     1      32.994  69.550 104.423  1.00  0.00    -0.280 OA
BRANCH  16  17
HETATM   17  C5  UNL     1      31.736  69.389 105.050  1.00  0.00     0.201 C 
BRANCH  17  18
HETATM   18  C4  UNL     1      31.186  68.001 104.800  1.00  0.00     0.034 C 
BRANCH  18  19
HETATM   19  C3  UNL     1      30.850  67.345 106.103  1.00  0.00     0.055 C 
BRANCH  19  20
HETATM   20  C2  UNL     1      31.670  66.115 106.283  1.00  0.00     0.015 C 
HETATM   21  C1  UNL     1      31.094  64.999 106.691  1.00  0.00     0.035 C 
HETATM   22  N1  UNL     1      33.066  66.103 106.028  1.00  0.00    -0.108 NA
ENDBRANCH  19  20
ENDBRANCH  18  19
ENDBRANCH  17  18
ENDBRANCH  16  17
ENDBRANCH   1  16
TORSDOF 8
ENDMDL
MODEL 5
REMARK VINA RESULT: -4.798272946      2.654      4.793
REMARK  8 active torsions:
REMARK  status: ('A' for Active; 'I' for Inactive)
REMARK    1  A    between atoms: C2_2  and  C3_4 
REMARK    2  A    between atoms: C3_4  and  C4_5 
REMARK    3  A    between atoms: C4_5  and  C5_6 
REMARK    4  A    between atoms: C5_6  and  O1_7 
REMARK    5  A    between atoms: O1_7  and  N2_8 
REMARK    6  A    between atoms: C6_10  and  C7_11 
REMARK    7  A    between atoms: C6_10  and  C14_18 
REMARK    8  A    between atoms: C7_11  and  C8_12 
ROOT
HETATM    1  N2  UNL     1      36.369  69.079 103.210  1.00  0.00    -0.270 N 
ATOM      2  H2  UNL     1      37.255  69.132 102.708  1.00  0.00     0.194 HD
HETATM    3  C6  UNL     1      36.129  70.114 103.871  1.00  0.00     0.049 C 
ENDROOT
BRANCH   3   4
HETATM    4  C7  UNL     1      37.052  71.269 103.899  1.00  0.00     0.065 C 
BRANCH   4   5
HETATM    5  C8  UNL     1      37.632  71.580 105.216  1.00  0.00    -0.009 C 
HETATM    6  C9  UNL     1      39.053  72.039 105.236  1.00  0.00     0.005 C 
HETATM    7  C10 UNL     1      39.595  71.703 106.635  1.00  0.00     0.000 C 
HETATM    8  C11 UNL     1      38.785  72.503 107.631  1.00  0.00     0.000 C 
HETATM    9  C12 UNL     1      37.310  72.324 107.491  1.00  0.00     0.000 C 
HETATM   10  C13 UNL     1      36.828  72.553 106.051  1.00  0.00     0.005 C 
ENDBRANCH   4   5
ENDBRANCH   3   4
BRANCH   3  11
HETATM   11  C14 UNL     1      34.903  70.246 104.664  1.00  0.00     0.029 A 
HETATM   12  C15 UNL     1      33.807  71.040 104.488  1.00  0.00     0.021 A 
HETATM   13  C16 UNL     1      32.813  70.954 105.384  1.00  0.00     0.008 A 
HETATM   14  C17 UNL     1      32.962  70.074 106.418  1.00  0.00     0.050 A 
HETATM   15  S1  UNL     1      34.488  69.388 106.114  1.00  0.00    -0.100 SA
ENDBRANCH   3  11
BRANCH   1  16
HETATM   16  O1  UNL     1      35.738  67.929 103.009  1.00  0.00    -0.280 OA
BRANCH  16  17
HETATM   17  C5  UNL     1      36.147  66.658 103.477  1.00  0.00     0.201 C 
BRANCH  17  18
HETATM   18  C4  UNL     1      35.183  65.583 103.021  1.00  0.00     0.034 C 
BRANCH  18  19
HETATM   19  C3  UNL     1      34.857  65.775 101.572  1.00  0.00     0.055 C 
BRANCH  19  20
HETATM   20  C2  UNL     1      36.046  65.458 100.733  1.00  0.00     0.015 C 
HETATM   21  C1  UNL     1      36.562  64.244 100.764  1.00  0.00     0.035 C 
HETATM   22  N1  UNL     1      36.648  66.430  99.893  1.00  0.00    -0.108 NA
ENDBRANCH  19  20
ENDBRANCH  18  19
ENDBRANCH  17  18
ENDBRANCH  16  17
ENDBRANCH   1  16
TORSDOF 8
ENDMDL
