MODEL 1
REMARK VINA RESULT: -4.743983886      0.000      0.000
REMARK  9 active torsions:
REMARK  status: ('A' for Active; 'I' for Inactive)
REMARK    1  A    between atoms: C3_3  and  C4_4 
REMARK    2  A    between atoms: C5_5  and  C6_6 
REMARK    3  A    between atoms: C6_6  and  C7_7 
REMARK    4  A    between atoms: C12_12  and  C13_13 
REMARK    5  A    between atoms: C13_13  and  C14_14 
REMARK    6  A    between atoms: C14_14  and  C15_15 
REMARK    7  A    between atoms: C15_15  and  C16_16 
REMARK    8  A    between atoms: C17_21  and  C18_22 
REMARK    9  A    between atoms: C18_22  and  O2_23 
ROOT
HETATM    1  C4  UNL     1      33.218  70.909 105.130  1.00  0.00     0.028 C 
HETATM    2  C5  UNL     1      34.176  71.319 104.350  1.00  0.00    -0.024 C 
ENDROOT
BRANCH   2   3
HETATM    3  C6  UNL     1      34.847  70.628 103.253  1.00  0.00     0.032 C 
BRANCH   3   4
HETATM    4  C7  UNL     1      36.235  70.169 103.587  1.00  0.00    -0.007 C 
HETATM    5  C8  UNL     1      36.901  71.077 104.560  1.00  0.00     0.005 C 
HETATM    6  C9  UNL     1      37.198  70.467 105.890  1.00  0.00     0.000 C 
HETATM    7  C10 UNL     1      37.865  69.145 105.850  1.00  0.00     0.000 C 
HETATM    8  C11 UNL     1      37.699  68.532 104.429  1.00  0.00     0.005 C 
HETATM    9  C12 UNL     1      36.254  68.710 104.142  1.00  0.00    -0.010 C 
BRANCH   9  10
HETATM   10  C13 UNL     1      35.541  67.854 103.212  1.00  0.00     0.005 C 
BRANCH  10  11
HETATM   11  C14 UNL     1      34.963  66.561 103.564  1.00  0.00     0.001 C 
BRANCH  11  12
HETATM   12  C15 UNL     1      35.256  65.401 102.682  1.00  0.00     0.015 C 
BRANCH  12  13
HETATM   13  C16 UNL     1      34.877  65.733 101.251  1.00  0.00     0.114 C 
HETATM   14 CL1  UNL     1      36.269  66.091 100.239  1.00  0.00    -0.130 Cl
ENDBRANCH  12  13
ENDBRANCH  11  12
ENDBRANCH  10  11
ENDBRANCH   9  10
ENDBRANCH   3   4
ENDBRANCH   2   3
BRANCH   1  15
HETATM   15  C3  UNL     1      32.535  69.640 105.136  1.00  0.00     0.063 A 
HETATM   16  C2  UNL     1      32.928  68.571 105.955  1.00  0.00     0.001 A 
HETATM   17  C1  UNL     1      34.048  68.520 106.924  1.00  0.00     0.053 C 
HETATM   18  C17 UNL     1      32.076  67.544 105.704  1.00  0.00     0.107 A 
HETATM   19  O1  UNL     1      31.226  67.952 104.800  1.00  0.00    -0.239 OA
HETATM   20  N1  UNL     1      31.495  69.176 104.469  1.00  0.00    -0.261 N 
ATOM     21  H1  UNL     1      30.968  69.713 103.780  1.00  0.00     0.195 HD
BRANCH  18  22
HETATM   22  C18 UNL     1      32.096  66.194 106.337  1.00  0.00     0.231 C 
BRANCH  22  23
HETATM   23  O2  UNL     1      30.898  65.967 107.001  1.00  0.00    -0.394 OA
ATOM     24  H2  UNL     1      31.044  65.393 107.744  1.00  0.00     0.209 HD
ENDBRANCH  22  23
ENDBRANCH  18  22
ENDBRANCH   1  15
TORSDOF 9
ENDMDL
MODEL 2
REMARK VINA RESULT: -4.704790682      4.115      6.282
REMARK  9 active torsions:
REMARK  status: ('A' for Active; 'I' for Inactive)
REMARK    1  A    between atoms: C3_3  and  C4_4 
REMARK    2  A    between atoms: C5_5  and  C6_6 
REMARK    3  A    between atoms: C6_6  and  C7_7 
REMARK    4  A    between atoms: C12_12  and  C13_13 
REMARK    5  A    between atoms: C13_13  and  C14_14 
REMARK    6  A    between atoms: C14_14  and  C15_15 
REMARK    7  A    between atoms: C15_15  and  C16_16 
REMARK    8  A    between atoms: C17_21  and  C18_22 
REMARK    9  A    between atoms: C18_22  and  O2_23 
ROOT
HETATM    1  C4  UNL     1      35.643  68.086 103.372  1.00  0.00     0.028 C 
HETATM    2  C5  UNL     1      35.244  69.299 103.626  1.00  0.00    -0.024 C 
ENDROOT
BRANCH   2   3
HETATM    3  C6  UNL     1      35.967  70.562 103.517  1.00  0.00     0.032 C 
BRANCH   3   4
HETATM    4  C7  UNL     1      35.846  71.434 104.731  1.00  0.00    -0.007 C 
HETATM    5  C8  UNL     1      34.680  71.055 105.573  1.00  0.00     0.005 C 
HETATM    6  C9  UNL     1      35.023  70.523 106.925  1.00  0.00     0.000 C 
HETATM    7  C10 UNL     1      36.000  71.328 107.697  1.00  0.00     0.000 C 
HETATM    8  C11 UNL     1      36.744  72.293 106.729  1.00  0.00     0.005 C 
HETATM    9  C12 UNL     1      37.143  71.413 105.602  1.00  0.00    -0.010 C 
BRANCH   9  10
HETATM   10  C13 UNL     1      38.275  71.718 104.747  1.00  0.00     0.005 C 
BRANCH  10  11
HETATM   11  C14 UNL     1      39.403  72.554 105.146  1.00  0.00     0.001 C 
BRANCH  11  12
HETATM   12  C15 UNL     1      40.349  72.018 106.159  1.00  0.00     0.015 C 
BRANCH  12  13
HETATM   13  C16 UNL     1      41.639  71.593 105.483  1.00  0.00     0.114 C 
HETATM   14 CL1  UNL     1      41.623  69.911 104.971  1.00  0.00    -0.130 Cl
ENDBRANCH  12  13
ENDBRANCH  11  12
ENDBRANCH  10  11
ENDBRANCH   9  10
ENDBRANCH   3   4
ENDBRANCH   2   3
BRANCH   1  15
HETATM   15  C3  UNL     1      36.928  67.635 102.902  1.00  0.00     0.063 A 
HETATM   16  C2  UNL     1      38.046  67.524 103.743  1.00  0.00     0.001 A 
HETATM   17  C1  UNL     1      38.139  67.821 105.191  1.00  0.00     0.053 C 
HETATM   18  C17 UNL     1      39.075  67.079 102.977  1.00  0.00     0.107 A 
HETATM   19  O1  UNL     1      38.624  66.929 101.761  1.00  0.00    -0.239 OA
HETATM   20  N1  UNL     1      37.370  67.254 101.718  1.00  0.00    -0.261 N 
ATOM     21  H1  UNL     1      36.797  67.220 100.875  1.00  0.00     0.195 HD
BRANCH  18  22
HETATM   22  C18 UNL     1      40.470  66.807 103.430  1.00  0.00     0.231 C 
BRANCH  22  23
HETATM   23  O2  UNL     1      41.373  67.283 102.489  1.00  0.00    -0.394 OA
ATOM     24  H2  UNL     1      41.786  68.076 102.810  1.00  0.00     0.209 HD
ENDBRANCH  22  23
ENDBRANCH  18  22
ENDBRANCH   1  15
TORSDOF 9
ENDMDL
MODEL 3
REMARK VINA RESULT: -4.656561888      4.195      6.172
REMARK  9 active torsions:
REMARK  status: ('A' for Active; 'I' for Inactive)
REMARK    1  A    between atoms: C3_3  and  C4_4 
REMARK    2  A    between atoms: C5_5  and  C6_6 
REMARK    3  A    between atoms: C6_6  and  C7_7 
REMARK    4  A    between atoms: C12_12  and  C13_13 
REMARK    5  A    between atoms: C13_13  and  C14_14 
REMARK    6  A    between atoms: C14_14  and  C15_15 
REMARK    7  A    between atoms: C15_15  and  C16_16 
REMARK    8  A    between atoms: C17_21  and  C18_22 
REMARK    9  A    between atoms: C18_22  and  O2_23 
ROOT
HETATM    1  C4  UNL     1      36.079  66.855 102.730  1.00  0.00     0.028 C 
HETATM    2  C5  UNL     1      35.491  67.875 103.285  1.00  0.00    -0.024 C 
ENDROOT
BRANCH   2   3
HETATM    3  C6  UNL     1      35.818  69.296 103.208  1.00  0.00     0.032 C 
BRANCH   3   4
HETATM    4  C7  UNL     1      36.076  69.928 104.544  1.00  0.00    -0.007 C 
HETATM    5  C8  UNL     1      37.522  70.205 104.757  1.00  0.00     0.005 C 
HETATM    6  C9  UNL     1      37.879  71.651 104.855  1.00  0.00     0.000 C 
HETATM    7  C10 UNL     1      37.040  72.454 105.775  1.00  0.00     0.000 C 
HETATM    8  C11 UNL     1      35.728  71.674 106.081  1.00  0.00     0.005 C 
HETATM    9  C12 UNL     1      35.261  71.245 104.739  1.00  0.00    -0.010 C 
BRANCH   9  10
HETATM   10  C13 UNL     1      33.864  70.968 104.459  1.00  0.00     0.005 C 
BRANCH  10  11
HETATM   11  C14 UNL     1      32.800  71.023 105.457  1.00  0.00     0.001 C 
BRANCH  11  12
HETATM   12  C15 UNL     1      32.185  69.743 105.896  1.00  0.00     0.015 C 
BRANCH  12  13
HETATM   13  C16 UNL     1      32.124  68.776 104.729  1.00  0.00     0.114 C 
HETATM   14 CL1  UNL     1      30.480  68.329 104.294  1.00  0.00    -0.130 Cl
ENDBRANCH  12  13
ENDBRANCH  11  12
ENDBRANCH  10  11
ENDBRANCH   9  10
ENDBRANCH   3   4
ENDBRANCH   2   3
BRANCH   1  15
HETATM   15  C3  UNL     1      37.235  66.833 101.870  1.00  0.00     0.063 A 
HETATM   16  C2  UNL     1      38.548  66.797 102.366  1.00  0.00     0.001 A 
HETATM   17  C1  UNL     1      38.996  66.773 103.777  1.00  0.00     0.053 C 
HETATM   18  C17 UNL     1      39.377  66.788 101.291  1.00  0.00     0.107 A 
HETATM   19  O1  UNL     1      38.631  66.816 100.219  1.00  0.00    -0.239 OA
HETATM   20  N1  UNL     1      37.381  66.842 100.559  1.00  0.00    -0.261 N 
ATOM     21  H1  UNL     1      36.606  66.867  99.895  1.00  0.00     0.195 HD
BRANCH  18  22
HETATM   22  C18 UNL     1      40.868  66.752 101.316  1.00  0.00     0.231 C 
BRANCH  22  23
HETATM   23  O2  UNL     1      41.328  65.696 100.540  1.00  0.00    -0.394 OA
ATOM     24  H2  UNL     1      42.040  65.990  99.984  1.00  0.00     0.209 HD
ENDBRANCH  22  23
ENDBRANCH  18  22
ENDBRANCH   1  15
TORSDOF 9
ENDMDL
MODEL 4
REMARK VINA RESULT: -4.611008646      4.323      6.738
REMARK  9 active torsions:
REMARK  status: ('A' for Active; 'I' for Inactive)
REMARK    1  A    between atoms: C3_3  and  C4_4 
REMARK    2  A    between atoms: C5_5  and  C6_6 
REMARK    3  A    between atoms: C6_6  and  C7_7 
REMARK    4  A    between atoms: C12_12  and  C13_13 
REMARK    5  A    between atoms: C13_13  and  C14_14 
REMARK    6  A    between atoms: C14_14  and  C15_15 
REMARK    7  A    between atoms: C15_15  and  C16_16 
REMARK    8  A    between atoms: C17_21  and  C18_22 
REMARK    9  A    between atoms: C18_22  and  O2_23 
ROOT
HETATM    1  C4  UNL     1      36.148  64.640 101.175  1.00  0.00     0.028 C 
HETATM    2  C5  UNL     1      35.002  64.927 101.721  1.00  0.00    -0.024 C 
ENDROOT
BRANCH   2   3
HETATM    3  C6  UNL     1      34.500  66.202 102.224  1.00  0.00     0.032 C 
BRANCH   3   4
HETATM    4  C7  UNL     1      34.821  66.449 103.668  1.00  0.00    -0.007 C 
HETATM    5  C8  UNL     1      34.842  65.188 104.457  1.00  0.00     0.005 C 
HETATM    6  C9  UNL     1      36.176  64.813 105.012  1.00  0.00     0.000 C 
HETATM    7  C10 UNL     1      36.900  65.896 105.717  1.00  0.00     0.000 C 
HETATM    8  C11 UNL     1      36.274  67.267 105.328  1.00  0.00     0.005 C 
HETATM    9  C12 UNL     1      36.180  67.197 103.848  1.00  0.00    -0.010 C 
BRANCH   9  10
HETATM   10  C13 UNL     1      36.165  68.386 103.018  1.00  0.00     0.005 C 
BRANCH  10  11
HETATM   11  C14 UNL     1      36.164  69.750 103.537  1.00  0.00     0.001 C 
BRANCH  11  12
HETATM   12  C15 UNL     1      34.895  70.522 103.473  1.00  0.00     0.015 C 
BRANCH  12  13
HETATM   13  C16 UNL     1      34.118  70.343 104.763  1.00  0.00     0.114 C 
HETATM   14 CL1  UNL     1      32.729  69.280 104.585  1.00  0.00    -0.130 Cl
ENDBRANCH  12  13
ENDBRANCH  11  12
ENDBRANCH  10  11
ENDBRANCH   9  10
ENDBRANCH   3   4
ENDBRANCH   2   3
BRANCH   1  15
HETATM   15  C3  UNL     1      37.266  65.510 100.906  1.00  0.00     0.063 A 
HETATM   16  C2  UNL     1      38.504  65.375 101.554  1.00  0.00     0.001 A 
HETATM   17  C1  UNL     1      38.902  64.381 102.577  1.00  0.00     0.053 C 
HETATM   18  C17 UNL     1      39.314  66.350 101.066  1.00  0.00     0.107 A 
HETATM   19  O1  UNL     1      38.626  67.029 100.188  1.00  0.00    -0.239 OA
HETATM   20  N1  UNL     1      37.430  66.538 100.096  1.00  0.00    -0.261 N 
ATOM     21  H1  UNL     1      36.707  66.900  99.474  1.00  0.00     0.195 HD
BRANCH  18  22
HETATM   22  C18 UNL     1      40.730  66.607 101.454  1.00  0.00     0.231 C 
BRANCH  22  23
HETATM   23  O2  UNL     1      41.582  65.853 100.658  1.00  0.00    -0.394 OA
ATOM     24  H2  UNL     1      42.345  65.590 101.160  1.00  0.00     0.209 HD
ENDBRANCH  22  23
ENDBRANCH  18  22
ENDBRANCH   1  15
TORSDOF 9
ENDMDL
MODEL 5
REMARK VINA RESULT: -4.597172015      3.393      5.468
REMARK  9 active torsions:
REMARK  status: ('A' for Active; 'I' for Inactive)
REMARK    1  A    between atoms: C3_3  and  C4_4 
REMARK    2  A    between atoms: C5_5  and  C6_6 
REMARK    3  A    between atoms: C6_6  and  C7_7 
REMARK    4  A    between atoms: C12_12  and  C13_13 
REMARK    5  A    between atoms: C13_13  and  C14_14 
REMARK    6  A    between atoms: C14_14  and  C15_15 
REMARK    7  A    between atoms: C15_15  and  C16_16 
REMARK    8  A    between atoms: C17_21  and  C18_22 
REMARK    9  A    between atoms: C18_22  and  O2_23 
ROOT
HETATM    1  C4  UNL     1      39.118  67.007 103.734  1.00  0.00     0.028 C 
HETATM    2  C5  UNL     1      39.361  67.889 104.660  1.00  0.00    -0.024 C 
ENDROOT
BRANCH   2   3
HETATM    3  C6  UNL     1      38.555  69.021 105.107  1.00  0.00     0.032 C 
BRANCH   3   4
HETATM    4  C7  UNL     1      39.297  69.978 105.992  1.00  0.00    -0.007 C 
HETATM    5  C8  UNL     1      40.740  70.054 105.642  1.00  0.00     0.005 C 
HETATM    6  C9  UNL     1      41.194  71.376 105.116  1.00  0.00     0.000 C 
HETATM    7  C10 UNL     1      40.774  72.555 105.909  1.00  0.00     0.000 C 
HETATM    8  C11 UNL     1      39.606  72.145 106.852  1.00  0.00     0.005 C 
HETATM    9  C12 UNL     1      38.678  71.412 105.956  1.00  0.00    -0.010 C 
BRANCH   9  10
HETATM   10  C13 UNL     1      37.257  71.307 106.232  1.00  0.00     0.005 C 
BRANCH  10  11
HETATM   11  C14 UNL     1      36.217  71.964 105.446  1.00  0.00     0.001 C 
BRANCH  11  12
HETATM   12  C15 UNL     1      34.872  71.334 105.401  1.00  0.00     0.015 C 
BRANCH  12  13
HETATM   13  C16 UNL     1      34.507  71.001 103.967  1.00  0.00     0.114 C 
HETATM   14 CL1  UNL     1      35.687  69.959 103.184  1.00  0.00    -0.130 Cl
ENDBRANCH  12  13
ENDBRANCH  11  12
ENDBRANCH  10  11
ENDBRANCH   9  10
ENDBRANCH   3   4
ENDBRANCH   2   3
BRANCH   1  15
HETATM   15  C3  UNL     1      37.967  66.891 102.874  1.00  0.00     0.063 A 
HETATM   16  C2  UNL     1      36.792  66.232 103.267  1.00  0.00     0.001 A 
HETATM   17  C1  UNL     1      36.500  65.565 104.557  1.00  0.00     0.053 C 
HETATM   18  C17 UNL     1      35.926  66.310 102.224  1.00  0.00     0.107 A 
HETATM   19  O1  UNL     1      36.524  66.966 101.265  1.00  0.00    -0.239 OA
HETATM   20  N1  UNL     1      37.716  67.305 101.647  1.00  0.00    -0.261 N 
ATOM     21  H1  UNL     1      38.377  67.825 101.070  1.00  0.00     0.195 HD
BRANCH  18  22
HETATM   22  C18 UNL     1      34.544  65.754 102.169  1.00  0.00     0.231 C 
BRANCH  22  23
HETATM   23  O2  UNL     1      34.571  64.474 101.632  1.00  0.00    -0.394 OA
ATOM     24  H2  UNL     1      33.690  64.202 101.400  1.00  0.00     0.209 HD
ENDBRANCH  22  23
ENDBRANCH  18  22
ENDBRANCH   1  15
TORSDOF 9
ENDMDL
