MODEL 1
REMARK VINA RESULT: -10.081737321      0.000      0.000
REMARK  7 active torsions:
REMARK  status: ('A' for Active; 'I' for Inactive)
REMARK    1  A    between atoms: C2_2  and  C21_37 
REMARK    2  A    between atoms: C3_3  and  C4_4 
REMARK       I    between atoms: C4_4  and  N1_6 
REMARK       I    between atoms: C5_8  and  N2_9 
REMARK       I    between atoms: C5_8  and  N4_19 
REMARK       I    between atoms: N2_9  and  C6_10 
REMARK    3  A    between atoms: C6_10  and  C7_12 
REMARK    4  A    between atoms: C7_12  and  C8_13 
REMARK    5  A    between atoms: C8_13  and  C9_14 
REMARK    6  A    between atoms: C9_14  and  N3_15 
REMARK    7  A    between atoms: N4_19  and  C10_21 
ROOT
HETATM    1  C4  UNL     1      -4.550 -12.279  -7.955  1.00  0.00     0.248 C 
HETATM    2  O1  UNL     1      -4.504 -11.291  -8.788  1.00  0.00    -0.268 OA
HETATM    3  N1  UNL     1      -3.530 -12.327  -7.019  1.00  0.00    -0.283 N 
ATOM      4  H1  UNL     1      -2.931 -13.153  -7.042  1.00  0.00     0.173 HD
HETATM    5  C5  UNL     1      -3.246 -11.419  -6.098  1.00  0.00     0.262 C 
HETATM    6  N2  UNL     1      -3.924 -10.286  -5.920  1.00  0.00    -0.335 NA
HETATM    7  C6  UNL     1      -4.626  -9.112  -5.736  1.00  0.00     0.294 C 
HETATM    8  O2  UNL     1      -4.385  -8.196  -4.880  1.00  0.00    -0.257 OA
HETATM    9  N4  UNL     1      -2.075 -11.856  -5.346  1.00  0.00    -0.329 N 
ATOM     10  H4  UNL     1      -2.156 -11.943  -4.333  1.00  0.00     0.165 HD
ENDROOT
BRANCH   9  11
HETATM   11  C10 UNL     1      -0.821 -12.167  -5.954  1.00  0.00     0.186 C 
HETATM   12  C11 UNL     1       0.239 -11.223  -5.456  1.00  0.00     0.047 C 
HETATM   13  C12 UNL     1       0.683 -11.426  -4.056  1.00  0.00     0.004 C 
HETATM   14  C13 UNL     1       1.483 -12.632  -3.756  1.00  0.00     0.000 C 
HETATM   15  C14 UNL     1       2.940 -12.560  -4.207  1.00  0.00     0.000 C 
HETATM   16  C15 UNL     1       3.361 -13.808  -4.892  1.00  0.00     0.000 C 
HETATM   17  C16 UNL     1       3.961 -13.734  -6.227  1.00  0.00     0.000 C 
HETATM   18  C17 UNL     1       3.685 -12.582  -7.102  1.00  0.00     0.000 C 
HETATM   19  C18 UNL     1       2.749 -12.851  -8.267  1.00  0.00     0.007 C 
HETATM   20  C19 UNL     1       1.407 -13.326  -7.836  1.00  0.00     0.075 C 
HETATM   21  C20 UNL     1       0.278 -12.437  -8.204  1.00  0.00     0.072 C 
HETATM   22  N5  UNL     1       0.306 -11.860  -9.353  1.00  0.00    -0.389 N 
HETATM   23  N6  UNL     1      -0.858 -12.185  -7.390  1.00  0.00    -0.359 N 
ATOM     24  H52 UNL     1       1.122 -12.041  -9.937  1.00  0.00     0.157 HD
ATOM     25  H51 UNL     1      -0.470 -11.249  -9.606  1.00  0.00     0.157 HD
ATOM     26  H6  UNL     1      -1.751 -12.006  -7.850  1.00  0.00     0.162 HD
ENDBRANCH   9  11
BRANCH   1  27
HETATM   27  C3  UNL     1      -5.658 -13.202  -8.112  1.00  0.00     0.077 C 
HETATM   28  C2  UNL     1      -6.820 -12.882  -8.636  1.00  0.00    -0.071 C 
HETATM   29  C1  UNL     1      -7.135 -11.535  -9.129  1.00  0.00     0.044 C 
BRANCH  28  30
HETATM   30  C21 UNL     1      -7.879 -13.938  -8.730  1.00  0.00    -0.028 C 
HETATM   31  C22 UNL     1      -8.457 -14.223  -7.362  1.00  0.00     0.019 C 
HETATM   32  C23 UNL     1      -7.318 -15.244  -9.253  1.00  0.00     0.019 C 
HETATM   33  C24 UNL     1      -8.955 -13.441  -9.634  1.00  0.00     0.019 C 
ENDBRANCH  28  30
ENDBRANCH   1  27
BRANCH   7  34
HETATM   34  C7  UNL     1      -5.828  -8.791  -6.597  1.00  0.00     0.121 C 
BRANCH  34  35
HETATM   35  C8  UNL     1      -7.032  -9.490  -6.104  1.00  0.00     0.038 C 
BRANCH  35  36
HETATM   36  C9  UNL     1      -7.998  -8.676  -5.316  1.00  0.00     0.230 C 
BRANCH  36  37
HETATM   37  N3  UNL     1      -9.269  -9.439  -5.327  1.00  0.00    -0.079 N 
ATOM     38  H33 UNL     1      -9.371 -10.051  -6.136  1.00  0.00     0.274 HD
ATOM     39  H32 UNL     1      -9.313 -10.169  -4.617  1.00  0.00     0.274 HD
ATOM     40  H31 UNL     1     -10.010  -8.743  -5.244  1.00  0.00     0.274 HD
ENDBRANCH  36  37
ENDBRANCH  35  36
ENDBRANCH  34  35
ENDBRANCH   7  34
TORSDOF 7
ENDMDL
MODEL 2
REMARK VINA RESULT: -9.910514296      1.128      1.458
REMARK  7 active torsions:
REMARK  status: ('A' for Active; 'I' for Inactive)
REMARK    1  A    between atoms: C2_2  and  C21_37 
REMARK    2  A    between atoms: C3_3  and  C4_4 
REMARK       I    between atoms: C4_4  and  N1_6 
REMARK       I    between atoms: C5_8  and  N2_9 
REMARK       I    between atoms: C5_8  and  N4_19 
REMARK       I    between atoms: N2_9  and  C6_10 
REMARK    3  A    between atoms: C6_10  and  C7_12 
REMARK    4  A    between atoms: C7_12  and  C8_13 
REMARK    5  A    between atoms: C8_13  and  C9_14 
REMARK    6  A    between atoms: C9_14  and  N3_15 
REMARK    7  A    between atoms: N4_19  and  C10_21 
ROOT
HETATM    1  C4  UNL     1      -4.522 -12.291  -8.033  1.00  0.00     0.248 C 
HETATM    2  O1  UNL     1      -4.464 -11.282  -8.841  1.00  0.00    -0.268 OA
HETATM    3  N1  UNL     1      -3.518 -12.360  -7.080  1.00  0.00    -0.283 N 
ATOM      4  H1  UNL     1      -2.916 -13.183  -7.113  1.00  0.00     0.173 HD
HETATM    5  C5  UNL     1      -3.253 -11.475  -6.132  1.00  0.00     0.262 C 
HETATM    6  N2  UNL     1      -3.938 -10.348  -5.938  1.00  0.00    -0.335 NA
HETATM    7  C6  UNL     1      -4.646  -9.180  -5.738  1.00  0.00     0.294 C 
HETATM    8  O2  UNL     1      -4.423  -8.285  -4.855  1.00  0.00    -0.257 OA
HETATM    9  N4  UNL     1      -2.094 -11.927  -5.370  1.00  0.00    -0.329 N 
ATOM     10  H4  UNL     1      -2.193 -12.040  -4.362  1.00  0.00     0.165 HD
ENDROOT
BRANCH   9  11
HETATM   11  C10 UNL     1      -0.829 -12.220  -5.964  1.00  0.00     0.186 C 
HETATM   12  C11 UNL     1       0.207 -11.248  -5.469  1.00  0.00     0.047 C 
HETATM   13  C12 UNL     1       0.642 -11.425  -4.062  1.00  0.00     0.004 C 
HETATM   14  C13 UNL     1       1.464 -12.610  -3.740  1.00  0.00     0.000 C 
HETATM   15  C14 UNL     1       2.923 -12.514  -4.180  1.00  0.00     0.000 C 
HETATM   16  C15 UNL     1       3.376 -13.762  -4.845  1.00  0.00     0.000 C 
HETATM   17  C16 UNL     1       3.986 -13.692  -6.176  1.00  0.00     0.000 C 
HETATM   18  C17 UNL     1       3.694 -12.558  -7.068  1.00  0.00     0.000 C 
HETATM   19  C18 UNL     1       2.774 -12.860  -8.237  1.00  0.00     0.007 C 
HETATM   20  C19 UNL     1       1.438 -13.357  -7.812  1.00  0.00     0.075 C 
HETATM   21  C20 UNL     1       0.295 -12.496  -8.201  1.00  0.00     0.072 C 
HETATM   22  N5  UNL     1       0.321 -11.933  -9.356  1.00  0.00    -0.389 N 
HETATM   23  N6  UNL     1      -0.853 -12.257  -7.400  1.00  0.00    -0.359 N 
ATOM     24  H52 UNL     1       1.146 -12.105  -9.932  1.00  0.00     0.157 HD
ATOM     25  H51 UNL     1      -0.465 -11.341  -9.624  1.00  0.00     0.157 HD
ATOM     26  H6  UNL     1      -1.745 -12.103  -7.870  1.00  0.00     0.162 HD
ENDBRANCH   9  11
BRANCH   1  27
HETATM   27  C3  UNL     1      -5.625 -13.212  -8.233  1.00  0.00     0.077 C 
HETATM   28  C2  UNL     1      -6.893 -12.881  -8.144  1.00  0.00    -0.071 C 
HETATM   29  C1  UNL     1      -7.347 -11.520  -7.828  1.00  0.00     0.044 C 
BRANCH  28  30
HETATM   30  C21 UNL     1      -7.928 -13.939  -8.368  1.00  0.00    -0.028 C 
HETATM   31  C22 UNL     1      -8.537 -14.365  -7.051  1.00  0.00     0.019 C 
HETATM   32  C23 UNL     1      -7.330 -15.180  -8.998  1.00  0.00     0.019 C 
HETATM   33  C24 UNL     1      -8.989 -13.376  -9.250  1.00  0.00     0.019 C 
ENDBRANCH  28  30
ENDBRANCH   1  27
BRANCH   7  34
HETATM   34  C7  UNL     1      -5.834  -8.841  -6.612  1.00  0.00     0.121 C 
BRANCH  34  35
HETATM   35  C8  UNL     1      -5.460  -7.868  -7.657  1.00  0.00     0.038 C 
BRANCH  35  36
HETATM   36  C9  UNL     1      -6.020  -8.102  -9.017  1.00  0.00     0.230 C 
BRANCH  36  37
HETATM   37  N3  UNL     1      -4.898  -8.631  -9.828  1.00  0.00    -0.079 N 
ATOM     38  H33 UNL     1      -4.233  -7.916 -10.119  1.00  0.00     0.274 HD
ATOM     39  H32 UNL     1      -4.240  -9.199  -9.295  1.00  0.00     0.274 HD
ATOM     40  H31 UNL     1      -5.330  -9.129 -10.607  1.00  0.00     0.274 HD
ENDBRANCH  36  37
ENDBRANCH  35  36
ENDBRANCH  34  35
ENDBRANCH   7  34
TORSDOF 7
ENDMDL
MODEL 3
REMARK VINA RESULT: -9.741904114      0.774      1.219
REMARK  7 active torsions:
REMARK  status: ('A' for Active; 'I' for Inactive)
REMARK    1  A    between atoms: C2_2  and  C21_37 
REMARK    2  A    between atoms: C3_3  and  C4_4 
REMARK       I    between atoms: C4_4  and  N1_6 
REMARK       I    between atoms: C5_8  and  N2_9 
REMARK       I    between atoms: C5_8  and  N4_19 
REMARK       I    between atoms: N2_9  and  C6_10 
REMARK    3  A    between atoms: C6_10  and  C7_12 
REMARK    4  A    between atoms: C7_12  and  C8_13 
REMARK    5  A    between atoms: C8_13  and  C9_14 
REMARK    6  A    between atoms: C9_14  and  N3_15 
REMARK    7  A    between atoms: N4_19  and  C10_21 
ROOT
HETATM    1  C4  UNL     1      -5.000 -11.269  -7.821  1.00  0.00     0.248 C 
HETATM    2  O1  UNL     1      -4.783 -10.263  -8.605  1.00  0.00    -0.268 OA
HETATM    3  N1  UNL     1      -4.012 -11.530  -6.887  1.00  0.00    -0.283 N 
ATOM      4  H1  UNL     1      -3.557 -12.442  -6.949  1.00  0.00     0.173 HD
HETATM    5  C5  UNL     1      -3.591 -10.728  -5.921  1.00  0.00     0.262 C 
HETATM    6  N2  UNL     1      -4.075  -9.508  -5.690  1.00  0.00    -0.335 NA
HETATM    7  C6  UNL     1      -4.574  -8.244  -5.450  1.00  0.00     0.294 C 
HETATM    8  O2  UNL     1      -4.195  -7.423  -4.549  1.00  0.00    -0.257 OA
HETATM    9  N4  UNL     1      -2.516 -11.388  -5.189  1.00  0.00    -0.329 N 
ATOM     10  H4  UNL     1      -2.621 -11.510  -4.182  1.00  0.00     0.165 HD
ENDROOT
BRANCH   9  11
HETATM   11  C10 UNL     1      -1.325 -11.873  -5.809  1.00  0.00     0.186 C 
HETATM   12  C11 UNL     1      -0.180 -10.941  -5.519  1.00  0.00     0.047 C 
HETATM   13  C12 UNL     1       0.339 -10.964  -4.130  1.00  0.00     0.004 C 
HETATM   14  C13 UNL     1       1.081 -12.164  -3.692  1.00  0.00     0.000 C 
HETATM   15  C14 UNL     1       2.508 -12.262  -4.227  1.00  0.00     0.000 C 
HETATM   16  C15 UNL     1       2.809 -13.625  -4.734  1.00  0.00     0.000 C 
HETATM   17  C16 UNL     1       3.326 -13.792  -6.095  1.00  0.00     0.000 C 
HETATM   18  C17 UNL     1       3.065 -12.768  -7.120  1.00  0.00     0.000 C 
HETATM   19  C18 UNL     1       2.042 -13.141  -8.178  1.00  0.00     0.007 C 
HETATM   20  C19 UNL     1       0.704 -13.452  -7.608  1.00  0.00     0.075 C 
HETATM   21  C20 UNL     1      -0.390 -12.552  -8.047  1.00  0.00     0.072 C 
HETATM   22  N5  UNL     1      -0.400 -12.156  -9.270  1.00  0.00    -0.389 N 
HETATM   23  N6  UNL     1      -1.454 -12.102  -7.221  1.00  0.00    -0.359 N 
ATOM     24  H52 UNL     1       0.365 -12.478  -9.863  1.00  0.00     0.157 HD
ATOM     25  H51 UNL     1      -1.152 -11.536  -9.572  1.00  0.00     0.157 HD
ATOM     26  H6  UNL     1      -2.362 -11.933  -7.655  1.00  0.00     0.162 HD
ENDBRANCH   9  11
BRANCH   1  27
HETATM   27  C3  UNL     1      -6.244 -11.987  -8.027  1.00  0.00     0.077 C 
HETATM   28  C2  UNL     1      -6.321 -13.244  -8.403  1.00  0.00    -0.071 C 
HETATM   29  C1  UNL     1      -5.140 -14.078  -8.661  1.00  0.00     0.044 C 
BRANCH  28  30
HETATM   30  C21 UNL     1      -7.675 -13.857  -8.583  1.00  0.00    -0.028 C 
HETATM   31  C22 UNL     1      -7.565 -15.153  -9.355  1.00  0.00     0.019 C 
HETATM   32  C23 UNL     1      -8.597 -12.951  -9.373  1.00  0.00     0.019 C 
HETATM   33  C24 UNL     1      -8.250 -14.126  -7.235  1.00  0.00     0.019 C 
ENDBRANCH  28  30
ENDBRANCH   1  27
BRANCH   7  34
HETATM   34  C7  UNL     1      -5.698  -7.688  -6.297  1.00  0.00     0.121 C 
BRANCH  34  35
HETATM   35  C8  UNL     1      -6.933  -8.477  -6.120  1.00  0.00     0.038 C 
BRANCH  35  36
HETATM   36  C9  UNL     1      -7.795  -8.116  -4.961  1.00  0.00     0.230 C 
BRANCH  36  37
HETATM   37  N3  UNL     1      -8.999  -8.973  -5.072  1.00  0.00    -0.079 N 
ATOM     38  H33 UNL     1      -9.421  -9.203  -4.173  1.00  0.00     0.274 HD
ATOM     39  H32 UNL     1      -9.807  -8.493  -5.466  1.00  0.00     0.274 HD
ATOM     40  H31 UNL     1      -8.708  -9.791  -5.608  1.00  0.00     0.274 HD
ENDBRANCH  36  37
ENDBRANCH  35  36
ENDBRANCH  34  35
ENDBRANCH   7  34
TORSDOF 7
ENDMDL
MODEL 4
REMARK VINA RESULT: -9.422608219      0.931      1.357
REMARK  7 active torsions:
REMARK  status: ('A' for Active; 'I' for Inactive)
REMARK    1  A    between atoms: C2_2  and  C21_37 
REMARK    2  A    between atoms: C3_3  and  C4_4 
REMARK       I    between atoms: C4_4  and  N1_6 
REMARK       I    between atoms: C5_8  and  N2_9 
REMARK       I    between atoms: C5_8  and  N4_19 
REMARK       I    between atoms: N2_9  and  C6_10 
REMARK    3  A    between atoms: C6_10  and  C7_12 
REMARK    4  A    between atoms: C7_12  and  C8_13 
REMARK    5  A    between atoms: C8_13  and  C9_14 
REMARK    6  A    between atoms: C9_14  and  N3_15 
REMARK    7  A    between atoms: N4_19  and  C10_21 
ROOT
HETATM    1  C4  UNL     1      -4.516 -12.311  -8.008  1.00  0.00     0.248 C 
HETATM    2  O1  UNL     1      -4.473 -11.301  -8.816  1.00  0.00    -0.268 OA
HETATM    3  N1  UNL     1      -3.501 -12.376  -7.068  1.00  0.00    -0.283 N 
ATOM      4  H1  UNL     1      -2.896 -13.196  -7.108  1.00  0.00     0.173 HD
HETATM    5  C5  UNL     1      -3.230 -11.490  -6.122  1.00  0.00     0.262 C 
HETATM    6  N2  UNL     1      -3.917 -10.367  -5.919  1.00  0.00    -0.335 NA
HETATM    7  C6  UNL     1      -4.629  -9.203  -5.709  1.00  0.00     0.294 C 
HETATM    8  O2  UNL     1      -4.400  -8.308  -4.828  1.00  0.00    -0.257 OA
HETATM    9  N4  UNL     1      -2.060 -11.938  -5.374  1.00  0.00    -0.329 N 
ATOM     10  H4  UNL     1      -2.146 -12.052  -4.364  1.00  0.00     0.165 HD
ENDROOT
BRANCH   9  11
HETATM   11  C10 UNL     1      -0.800 -12.224  -5.982  1.00  0.00     0.186 C 
HETATM   12  C11 UNL     1       0.242 -11.261  -5.481  1.00  0.00     0.047 C 
HETATM   13  C12 UNL     1       0.688 -11.459  -4.081  1.00  0.00     0.004 C 
HETATM   14  C13 UNL     1       1.510 -12.651  -3.783  1.00  0.00     0.000 C 
HETATM   15  C14 UNL     1       2.966 -12.550  -4.233  1.00  0.00     0.000 C 
HETATM   16  C15 UNL     1       3.411 -13.789  -4.921  1.00  0.00     0.000 C 
HETATM   17  C16 UNL     1       4.010 -13.701  -6.256  1.00  0.00     0.000 C 
HETATM   18  C17 UNL     1       3.713 -12.552  -7.128  1.00  0.00     0.000 C 
HETATM   19  C18 UNL     1       2.783 -12.836  -8.294  1.00  0.00     0.007 C 
HETATM   20  C19 UNL     1       1.450 -13.337  -7.865  1.00  0.00     0.075 C 
HETATM   21  C20 UNL     1       0.305 -12.469  -8.232  1.00  0.00     0.072 C 
HETATM   22  N5  UNL     1       0.322 -11.889  -9.379  1.00  0.00    -0.389 N 
HETATM   23  N6  UNL     1      -0.837 -12.240  -7.418  1.00  0.00    -0.359 N 
ATOM     24  H52 UNL     1       1.142 -12.054  -9.964  1.00  0.00     0.157 HD
ATOM     25  H51 UNL     1      -0.465 -11.292  -9.632  1.00  0.00     0.157 HD
ATOM     26  H6  UNL     1      -1.732 -12.077  -7.878  1.00  0.00     0.162 HD
ENDBRANCH   9  11
BRANCH   1  27
HETATM   27  C3  UNL     1      -5.617 -13.238  -8.197  1.00  0.00     0.077 C 
HETATM   28  C2  UNL     1      -6.881 -12.885  -8.252  1.00  0.00    -0.071 C 
HETATM   29  C1  UNL     1      -7.332 -11.493  -8.128  1.00  0.00     0.044 C 
BRANCH  28  30
HETATM   30  C21 UNL     1      -7.915 -13.951  -8.444  1.00  0.00    -0.028 C 
HETATM   31  C22 UNL     1      -9.028 -13.446  -9.334  1.00  0.00     0.019 C 
HETATM   32  C23 UNL     1      -8.551 -14.355  -7.130  1.00  0.00     0.019 C 
HETATM   33  C24 UNL     1      -7.260 -15.128  -9.081  1.00  0.00     0.019 C 
ENDBRANCH  28  30
ENDBRANCH   1  27
BRANCH   7  34
HETATM   34  C7  UNL     1      -5.828  -8.869  -6.569  1.00  0.00     0.121 C 
BRANCH  34  35
HETATM   35  C8  UNL     1      -5.436  -8.033  -7.721  1.00  0.00     0.038 C 
BRANCH  35  36
HETATM   36  C9  UNL     1      -5.728  -6.577  -7.617  1.00  0.00     0.230 C 
BRANCH  36  37
HETATM   37  N3  UNL     1      -6.536  -6.415  -6.386  1.00  0.00    -0.079 N 
ATOM     38  H33 UNL     1      -7.495  -6.746  -6.481  1.00  0.00     0.274 HD
ATOM     39  H32 UNL     1      -6.264  -7.046  -5.633  1.00  0.00     0.274 HD
ATOM     40  H31 UNL     1      -6.467  -5.428  -6.137  1.00  0.00     0.274 HD
ENDBRANCH  36  37
ENDBRANCH  35  36
ENDBRANCH  34  35
ENDBRANCH   7  34
TORSDOF 7
ENDMDL
MODEL 5
REMARK VINA RESULT: -8.933114329      1.947      4.830
REMARK  7 active torsions:
REMARK  status: ('A' for Active; 'I' for Inactive)
REMARK    1  A    between atoms: C2_2  and  C21_37 
REMARK    2  A    between atoms: C3_3  and  C4_4 
REMARK       I    between atoms: C4_4  and  N1_6 
REMARK       I    between atoms: C5_8  and  N2_9 
REMARK       I    between atoms: C5_8  and  N4_19 
REMARK       I    between atoms: N2_9  and  C6_10 
REMARK    3  A    between atoms: C6_10  and  C7_12 
REMARK    4  A    between atoms: C7_12  and  C8_13 
REMARK    5  A    between atoms: C8_13  and  C9_14 
REMARK    6  A    between atoms: C9_14  and  N3_15 
REMARK    7  A    between atoms: N4_19  and  C10_21 
ROOT
HETATM    1  C4  UNL     1      -3.571 -10.184  -6.021  1.00  0.00     0.248 C 
HETATM    2  O1  UNL     1      -4.138 -10.999  -5.192  1.00  0.00    -0.268 OA
HETATM    3  N1  UNL     1      -2.424 -10.653  -6.640  1.00  0.00    -0.283 N 
ATOM      4  H1  UNL     1      -1.567 -10.128  -6.465  1.00  0.00     0.173 HD
HETATM    5  C5  UNL     1      -2.317 -11.707  -7.433  1.00  0.00     0.262 C 
HETATM    6  N2  UNL     1      -3.331 -12.502  -7.773  1.00  0.00    -0.335 NA
HETATM    7  C6  UNL     1      -4.382 -13.326  -8.126  1.00  0.00     0.294 C 
HETATM    8  O2  UNL     1      -4.333 -14.363  -8.868  1.00  0.00    -0.257 OA
HETATM    9  N4  UNL     1      -0.925 -11.857  -7.840  1.00  0.00    -0.329 N 
ATOM     10  H4  UNL     1      -0.711 -11.873  -8.837  1.00  0.00     0.165 HD
ENDROOT
BRANCH   9  11
HETATM   11  C10 UNL     1       0.156 -11.982  -6.914  1.00  0.00     0.186 C 
HETATM   12  C11 UNL     1       0.762 -13.355  -7.017  1.00  0.00     0.047 C 
HETATM   13  C12 UNL     1       1.562 -13.622  -8.237  1.00  0.00     0.004 C 
HETATM   14  C13 UNL     1       2.863 -12.934  -8.370  1.00  0.00     0.000 C 
HETATM   15  C14 UNL     1       3.983 -13.514  -7.509  1.00  0.00     0.000 C 
HETATM   16  C15 UNL     1       4.747 -12.446  -6.816  1.00  0.00     0.000 C 
HETATM   17  C16 UNL     1       4.921 -12.507  -5.363  1.00  0.00     0.000 C 
HETATM   18  C17 UNL     1       3.963 -13.255  -4.531  1.00  0.00     0.000 C 
HETATM   19  C18 UNL     1       3.005 -12.409  -3.711  1.00  0.00     0.007 C 
HETATM   20  C19 UNL     1       2.160 -11.513  -4.546  1.00  0.00     0.075 C 
HETATM   21  C20 UNL     1       0.702 -11.770  -4.465  1.00  0.00     0.072 C 
HETATM   22  N5  UNL     1       0.200 -12.078  -3.322  1.00  0.00    -0.389 N 
HETATM   23  N6  UNL     1      -0.202 -11.680  -5.556  1.00  0.00    -0.359 N 
ATOM     24  H52 UNL     1       0.850 -12.143  -2.538  1.00  0.00     0.157 HD
ATOM     25  H51 UNL     1      -0.803 -12.255  -3.266  1.00  0.00     0.157 HD
ATOM     26  H6  UNL     1      -1.159 -11.383  -5.365  1.00  0.00     0.162 HD
ENDBRANCH   9  11
BRANCH   1  27
HETATM   27  C3  UNL     1      -4.209  -8.891  -6.189  1.00  0.00     0.077 C 
HETATM   28  C2  UNL     1      -4.980  -8.572  -7.204  1.00  0.00    -0.071 C 
HETATM   29  C1  UNL     1      -5.290  -9.500  -8.299  1.00  0.00     0.044 C 
BRANCH  28  30
HETATM   30  C21 UNL     1      -5.568  -7.196  -7.252  1.00  0.00    -0.028 C 
HETATM   31  C22 UNL     1      -6.485  -7.060  -8.448  1.00  0.00     0.019 C 
HETATM   32  C23 UNL     1      -4.496  -6.136  -7.396  1.00  0.00     0.019 C 
HETATM   33  C24 UNL     1      -6.345  -6.975  -6.000  1.00  0.00     0.019 C 
ENDBRANCH  28  30
ENDBRANCH   1  27
BRANCH   7  34
HETATM   34  C7  UNL     1      -5.782 -13.044  -7.625  1.00  0.00     0.121 C 
BRANCH  34  35
HETATM   35  C8  UNL     1      -6.793 -13.524  -8.587  1.00  0.00     0.038 C 
BRANCH  35  36
HETATM   36  C9  UNL     1      -7.281 -12.537  -9.589  1.00  0.00     0.230 C 
BRANCH  36  37
HETATM   37  N3  UNL     1      -6.528 -12.821 -10.833  1.00  0.00    -0.079 N 
ATOM     38  H33 UNL     1      -5.561 -13.100 -10.670  1.00  0.00     0.274 HD
ATOM     39  H32 UNL     1      -6.824 -13.676 -11.304  1.00  0.00     0.274 HD
ATOM     40  H31 UNL     1      -6.621 -11.984 -11.409  1.00  0.00     0.274 HD
ENDBRANCH  36  37
ENDBRANCH  35  36
ENDBRANCH  34  35
ENDBRANCH   7  34
TORSDOF 7
ENDMDL
