MODEL 1
REMARK VINA RESULT: -7.971406925      0.000      0.000
REMARK  9 active torsions:
REMARK  status: ('A' for Active; 'I' for Inactive)
REMARK    1  A    between atoms: C2_2  and  C3_3 
REMARK    2  A    between atoms: C2_2  and  C11_18 
REMARK    3  A    between atoms: C3_3  and  N1_4 
REMARK    4  A    between atoms: N1_4  and  C4_7 
REMARK    5  A    between atoms: C4_7  and  C5_8 
REMARK    6  A    between atoms: C8_11  and  N2_12 
REMARK    7  A    between atoms: C15_22  and  C17_24 
REMARK    8  A    between atoms: C21_30  and  C22_31 
REMARK    9  A    between atoms: C23_32  and  C24_33 
ROOT
HETATM    1  C11 UNL     1      -5.054 -10.943  -6.898  1.00  0.00     0.004 C 
HETATM    2  C12 UNL     1      -4.215 -10.469  -5.699  1.00  0.00     0.006 C 
HETATM    3  C13 UNL     1      -3.955  -8.974  -5.982  1.00  0.00     0.007 C 
HETATM    4  C14 UNL     1      -4.656  -8.722  -7.263  1.00  0.00     0.017 C 
HETATM    5  C15 UNL     1      -4.993  -7.337  -7.609  1.00  0.00     0.050 C 
HETATM    6  C16 UNL     1      -5.119  -6.415  -6.406  1.00  0.00     0.027 C 
HETATM    7  C18 UNL     1      -6.176  -7.196  -8.535  1.00  0.00     0.025 C 
HETATM    8  C19 UNL     1      -6.434  -8.504  -9.259  1.00  0.00     0.037 C 
HETATM    9  C20 UNL     1      -6.694  -9.595  -8.291  1.00  0.00    -0.063 C 
HETATM   10  C21 UNL     1      -7.714 -10.386  -8.470  1.00  0.00     0.068 C 
HETATM   11  C25 UNL     1      -5.801  -9.716  -7.171  1.00  0.00    -0.011 C 
HETATM   12  C26 UNL     1      -6.652  -9.452  -5.911  1.00  0.00     0.021 C 
ENDROOT
BRANCH   1  13
HETATM   13  C2  UNL     1      -4.173 -11.572  -7.875  1.00  0.00     0.012 C 
HETATM   14  C1  UNL     1      -4.722 -12.893  -8.463  1.00  0.00     0.012 C 
BRANCH  13  15
HETATM   15  C3  UNL     1      -2.889 -12.011  -7.120  1.00  0.00     0.237 C 
BRANCH  15  16
HETATM   16  N1  UNL     1      -2.066 -12.818  -8.007  1.00  0.00    -0.074 N 
ATOM     17  H12 UNL     1      -1.938 -13.757  -7.630  1.00  0.00     0.277 HD
ATOM     18  H11 UNL     1      -2.571 -13.049  -8.863  1.00  0.00     0.277 HD
BRANCH  16  19
HETATM   19  C4  UNL     1      -0.815 -12.217  -8.303  1.00  0.00     0.237 C 
BRANCH  19  20
HETATM   20  C5  UNL     1       0.387 -12.883  -7.679  1.00  0.00     0.011 C 
HETATM   21  C6  UNL     1       0.580 -12.574  -6.235  1.00  0.00     0.008 C 
HETATM   22  C7  UNL     1       1.806 -11.765  -5.920  1.00  0.00     0.033 C 
HETATM   23  C8  UNL     1       3.071 -12.273  -6.531  1.00  0.00     0.183 C 
HETATM   24  C9  UNL     1       2.872 -12.900  -7.887  1.00  0.00     0.033 C 
HETATM   25  C10 UNL     1       1.586 -12.493  -8.531  1.00  0.00     0.008 C 
BRANCH  23  26
HETATM   26  N2  UNL     1       3.778 -13.188  -5.644  1.00  0.00    -0.075 N 
ATOM     27  H23 UNL     1       3.481 -13.068  -4.676  1.00  0.00     0.274 HD
ATOM     28  H22 UNL     1       3.476 -14.151  -5.789  1.00  0.00     0.274 HD
ATOM     29  H21 UNL     1       4.791 -13.102  -5.733  1.00  0.00     0.274 HD
ENDBRANCH  23  26
ENDBRANCH  19  20
ENDBRANCH  16  19
ENDBRANCH  15  16
ENDBRANCH  13  15
ENDBRANCH   1  13
BRANCH   5  30
HETATM   30  C17 UNL     1      -3.836  -6.724  -8.377  1.00  0.00     0.181 C 
HETATM   31  O1  UNL     1      -3.270  -5.700  -7.919  1.00  0.00    -0.647 OA
HETATM   32  O2  UNL     1      -3.392  -7.268  -9.574  1.00  0.00    -0.647 OA
ENDBRANCH   5  30
BRANCH  10  33
HETATM   33  C22 UNL     1      -8.597 -10.221  -9.592  1.00  0.00    -0.067 C 
HETATM   34  C23 UNL     1      -9.324 -10.083 -10.549  1.00  0.00     0.009 C 
BRANCH  34  35
HETATM   35  C24 UNL     1     -10.166  -9.921 -11.699  1.00  0.00     0.258 C 
HETATM   36  O3  UNL     1     -10.267  -8.792 -12.240  1.00  0.00    -0.637 OA
HETATM   37  O4  UNL     1     -10.890 -10.965 -12.254  1.00  0.00    -0.637 OA
ENDBRANCH  34  35
ENDBRANCH  10  33
TORSDOF 9
ENDMDL
MODEL 2
REMARK VINA RESULT: -7.839778072      1.334      1.593
REMARK  9 active torsions:
REMARK  status: ('A' for Active; 'I' for Inactive)
REMARK    1  A    between atoms: C2_2  and  C3_3 
REMARK    2  A    between atoms: C2_2  and  C11_18 
REMARK    3  A    between atoms: C3_3  and  N1_4 
REMARK    4  A    between atoms: N1_4  and  C4_7 
REMARK    5  A    between atoms: C4_7  and  C5_8 
REMARK    6  A    between atoms: C8_11  and  N2_12 
REMARK    7  A    between atoms: C15_22  and  C17_24 
REMARK    8  A    between atoms: C21_30  and  C22_31 
REMARK    9  A    between atoms: C23_32  and  C24_33 
ROOT
HETATM    1  C11 UNL     1      -4.455 -10.946  -6.541  1.00  0.00     0.004 C 
HETATM    2  C12 UNL     1      -3.867  -9.952  -5.525  1.00  0.00     0.006 C 
HETATM    3  C13 UNL     1      -4.062  -8.570  -6.185  1.00  0.00     0.007 C 
HETATM    4  C14 UNL     1      -4.736  -8.876  -7.469  1.00  0.00     0.017 C 
HETATM    5  C15 UNL     1      -5.461  -7.796  -8.146  1.00  0.00     0.050 C 
HETATM    6  C16 UNL     1      -5.928  -6.688  -7.213  1.00  0.00     0.027 C 
HETATM    7  C18 UNL     1      -6.579  -8.263  -9.045  1.00  0.00     0.025 C 
HETATM    8  C19 UNL     1      -6.385  -9.724  -9.406  1.00  0.00     0.037 C 
HETATM    9  C20 UNL     1      -6.351 -10.564  -8.186  1.00  0.00    -0.063 C 
HETATM   10  C21 UNL     1      -7.069 -11.650  -8.131  1.00  0.00     0.068 C 
HETATM   11  C25 UNL     1      -5.526 -10.119  -7.097  1.00  0.00    -0.011 C 
HETATM   12  C26 UNL     1      -6.483  -9.825  -5.922  1.00  0.00     0.021 C 
ENDROOT
BRANCH   1  13
HETATM   13  C2  UNL     1      -3.372 -11.494  -7.349  1.00  0.00     0.012 C 
HETATM   14  C1  UNL     1      -3.709 -12.844  -8.025  1.00  0.00     0.012 C 
BRANCH  13  15
HETATM   15  C3  UNL     1      -2.210 -11.847  -6.382  1.00  0.00     0.237 C 
BRANCH  15  16
HETATM   16  N1  UNL     1      -1.389 -12.886  -6.981  1.00  0.00    -0.074 N 
ATOM     17  H12 UNL     1      -1.187 -13.625  -6.307  1.00  0.00     0.277 HD
ATOM     18  H11 UNL     1      -1.923 -13.424  -7.664  1.00  0.00     0.277 HD
BRANCH  16  19
HETATM   19  C4  UNL     1      -0.191 -12.385  -7.556  1.00  0.00     0.237 C 
BRANCH  19  20
HETATM   20  C5  UNL     1       1.086 -12.955  -6.989  1.00  0.00     0.011 C 
HETATM   21  C6  UNL     1       1.407 -12.491  -5.610  1.00  0.00     0.008 C 
HETATM   22  C7  UNL     1       2.631 -11.625  -5.504  1.00  0.00     0.033 C 
HETATM   23  C8  UNL     1       3.847 -12.167  -6.180  1.00  0.00     0.183 C 
HETATM   24  C9  UNL     1       3.539 -12.938  -7.439  1.00  0.00     0.033 C 
HETATM   25  C10 UNL     1       2.185 -12.631  -7.990  1.00  0.00     0.008 C 
BRANCH  23  26
HETATM   26  N2  UNL     1       4.666 -12.966  -5.279  1.00  0.00    -0.075 N 
ATOM     27  H23 UNL     1       4.104 -13.368  -4.528  1.00  0.00     0.274 HD
ATOM     28  H22 UNL     1       4.976 -13.828  -5.728  1.00  0.00     0.274 HD
ATOM     29  H21 UNL     1       5.456 -12.438  -4.907  1.00  0.00     0.274 HD
ENDBRANCH  23  26
ENDBRANCH  19  20
ENDBRANCH  16  19
ENDBRANCH  15  16
ENDBRANCH  13  15
ENDBRANCH   1  13
BRANCH   5  30
HETATM   30  C17 UNL     1      -4.508  -7.067  -9.075  1.00  0.00     0.181 C 
HETATM   31  O1  UNL     1      -3.435  -7.626  -9.416  1.00  0.00    -0.647 OA
HETATM   32  O2  UNL     1      -4.795  -5.797  -9.556  1.00  0.00    -0.647 OA
ENDBRANCH   5  30
BRANCH  10  33
HETATM   33  C22 UNL     1      -7.898 -12.052  -9.235  1.00  0.00    -0.067 C 
HETATM   34  C23 UNL     1      -8.580 -12.399 -10.171  1.00  0.00     0.009 C 
BRANCH  34  35
HETATM   35  C24 UNL     1      -9.369 -12.823 -11.292  1.00  0.00     0.258 C 
HETATM   36  O3  UNL     1      -9.061 -13.876 -11.905  1.00  0.00    -0.637 OA
HETATM   37  O4  UNL     1     -10.474 -12.118 -11.743  1.00  0.00    -0.637 OA
ENDBRANCH  34  35
ENDBRANCH  10  33
TORSDOF 9
ENDMDL
MODEL 3
REMARK VINA RESULT: -7.780331185      1.217      1.383
REMARK  9 active torsions:
REMARK  status: ('A' for Active; 'I' for Inactive)
REMARK    1  A    between atoms: C2_2  and  C3_3 
REMARK    2  A    between atoms: C2_2  and  C11_18 
REMARK    3  A    between atoms: C3_3  and  N1_4 
REMARK    4  A    between atoms: N1_4  and  C4_7 
REMARK    5  A    between atoms: C4_7  and  C5_8 
REMARK    6  A    between atoms: C8_11  and  N2_12 
REMARK    7  A    between atoms: C15_22  and  C17_24 
REMARK    8  A    between atoms: C21_30  and  C22_31 
REMARK    9  A    between atoms: C23_32  and  C24_33 
ROOT
HETATM    1  C11 UNL     1      -5.488 -10.495  -6.823  1.00  0.00     0.004 C 
HETATM    2  C12 UNL     1      -4.318 -10.231  -5.861  1.00  0.00     0.006 C 
HETATM    3  C13 UNL     1      -3.855  -8.799  -6.206  1.00  0.00     0.007 C 
HETATM    4  C14 UNL     1      -4.776  -8.373  -7.286  1.00  0.00     0.017 C 
HETATM    5  C15 UNL     1      -4.918  -6.938  -7.550  1.00  0.00     0.050 C 
HETATM    6  C16 UNL     1      -4.582  -6.055  -6.356  1.00  0.00     0.027 C 
HETATM    7  C18 UNL     1      -6.237  -6.544  -8.168  1.00  0.00     0.025 C 
HETATM    8  C19 UNL     1      -6.899  -7.753  -8.803  1.00  0.00     0.037 C 
HETATM    9  C20 UNL     1      -7.125  -8.815  -7.794  1.00  0.00    -0.063 C 
HETATM   10  C21 UNL     1      -8.289  -9.396  -7.721  1.00  0.00     0.068 C 
HETATM   11  C25 UNL     1      -6.034  -9.141  -6.918  1.00  0.00    -0.011 C 
HETATM   12  C26 UNL     1      -6.500  -8.775  -5.493  1.00  0.00     0.021 C 
ENDROOT
BRANCH   1  13
HETATM   13  C2  UNL     1      -4.996 -11.237  -7.978  1.00  0.00     0.012 C 
HETATM   14  C1  UNL     1      -6.075 -12.081  -8.695  1.00  0.00     0.012 C 
BRANCH  13  15
HETATM   15  C3  UNL     1      -3.992 -12.297  -7.449  1.00  0.00     0.237 C 
BRANCH  15  16
HETATM   16  N1  UNL     1      -2.910 -12.451  -8.408  1.00  0.00    -0.074 N 
ATOM     17  H12 UNL     1      -2.723 -13.437  -8.590  1.00  0.00     0.277 HD
ATOM     18  H11 UNL     1      -3.206 -12.162  -9.340  1.00  0.00     0.277 HD
BRANCH  16  19
HETATM   19  C4  UNL     1      -1.724 -11.774  -8.021  1.00  0.00     0.237 C 
BRANCH  19  20
HETATM   20  C5  UNL     1      -0.486 -12.633  -7.936  1.00  0.00     0.011 C 
HETATM   21  C6  UNL     1      -0.040 -12.934  -6.547  1.00  0.00     0.008 C 
HETATM   22  C7  UNL     1       1.275 -12.318  -6.159  1.00  0.00     0.033 C 
HETATM   23  C8  UNL     1       2.385 -12.535  -7.135  1.00  0.00     0.183 C 
HETATM   24  C9  UNL     1       1.924 -12.561  -8.570  1.00  0.00     0.033 C 
HETATM   25  C10 UNL     1       0.582 -11.931  -8.760  1.00  0.00     0.008 C 
BRANCH  23  26
HETATM   26  N2  UNL     1       3.161 -13.728  -6.825  1.00  0.00    -0.075 N 
ATOM     27  H23 UNL     1       2.741 -14.254  -6.059  1.00  0.00     0.274 HD
ATOM     28  H22 UNL     1       3.078 -14.426  -7.565  1.00  0.00     0.274 HD
ATOM     29  H21 UNL     1       4.139 -13.511  -6.632  1.00  0.00     0.274 HD
ENDBRANCH  23  26
ENDBRANCH  19  20
ENDBRANCH  16  19
ENDBRANCH  15  16
ENDBRANCH  13  15
ENDBRANCH   1  13
BRANCH   5  30
HETATM   30  C17 UNL     1      -3.879  -6.518  -8.574  1.00  0.00     0.181 C 
HETATM   31  O1  UNL     1      -3.372  -5.371  -8.499  1.00  0.00    -0.647 OA
HETATM   32  O2  UNL     1      -3.479  -7.373  -9.592  1.00  0.00    -0.647 OA
ENDBRANCH   5  30
BRANCH  10  33
HETATM   33  C22 UNL     1      -9.363  -9.027  -8.603  1.00  0.00    -0.067 C 
HETATM   34  C23 UNL     1     -10.270  -8.701  -9.333  1.00  0.00     0.009 C 
BRANCH  34  35
HETATM   35  C24 UNL     1     -11.349  -8.292 -10.185  1.00  0.00     0.258 C 
HETATM   36  O3  UNL     1     -11.937  -9.146 -10.895  1.00  0.00    -0.637 OA
HETATM   37  O4  UNL     1     -11.786  -6.978 -10.268  1.00  0.00    -0.637 OA
ENDBRANCH  34  35
ENDBRANCH  10  33
TORSDOF 9
ENDMDL
MODEL 4
REMARK VINA RESULT: -7.728532650      0.476      1.135
REMARK  9 active torsions:
REMARK  status: ('A' for Active; 'I' for Inactive)
REMARK    1  A    between atoms: C2_2  and  C3_3 
REMARK    2  A    between atoms: C2_2  and  C11_18 
REMARK    3  A    between atoms: C3_3  and  N1_4 
REMARK    4  A    between atoms: N1_4  and  C4_7 
REMARK    5  A    between atoms: C4_7  and  C5_8 
REMARK    6  A    between atoms: C8_11  and  N2_12 
REMARK    7  A    between atoms: C15_22  and  C17_24 
REMARK    8  A    between atoms: C21_30  and  C22_31 
REMARK    9  A    between atoms: C23_32  and  C24_33 
ROOT
HETATM    1  C11 UNL     1      -5.033 -10.942  -6.970  1.00  0.00     0.004 C 
HETATM    2  C12 UNL     1      -4.198 -10.423  -5.788  1.00  0.00     0.006 C 
HETATM    3  C13 UNL     1      -3.975  -8.929  -6.105  1.00  0.00     0.007 C 
HETATM    4  C14 UNL     1      -4.690  -8.721  -7.386  1.00  0.00     0.017 C 
HETATM    5  C15 UNL     1      -5.061  -7.353  -7.760  1.00  0.00     0.050 C 
HETATM    6  C16 UNL     1      -5.201  -6.407  -6.575  1.00  0.00     0.027 C 
HETATM    7  C18 UNL     1      -6.254  -7.259  -8.679  1.00  0.00     0.025 C 
HETATM    8  C19 UNL     1      -6.486  -8.588  -9.373  1.00  0.00     0.037 C 
HETATM    9  C20 UNL     1      -6.714  -9.663  -8.380  1.00  0.00    -0.063 C 
HETATM   10  C21 UNL     1      -7.716 -10.481  -8.535  1.00  0.00     0.068 C 
HETATM   11  C25 UNL     1      -5.811  -9.739  -7.264  1.00  0.00    -0.011 C 
HETATM   12  C26 UNL     1      -6.659  -9.468  -6.004  1.00  0.00     0.021 C 
ENDROOT
BRANCH   1  13
HETATM   13  C2  UNL     1      -4.144 -11.572  -7.940  1.00  0.00     0.012 C 
HETATM   14  C1  UNL     1      -4.618 -12.963  -8.422  1.00  0.00     0.012 C 
BRANCH  13  15
HETATM   15  C3  UNL     1      -2.807 -11.871  -7.210  1.00  0.00     0.237 C 
BRANCH  15  16
HETATM   16  N1  UNL     1      -1.700 -11.628  -8.122  1.00  0.00    -0.074 N 
ATOM     17  H12 UNL     1      -2.036 -11.511  -9.078  1.00  0.00     0.277 HD
ATOM     18  H11 UNL     1      -1.301 -10.701  -7.971  1.00  0.00     0.277 HD
BRANCH  16  19
HETATM   19  C4  UNL     1      -0.697 -12.630  -8.056  1.00  0.00     0.237 C 
BRANCH  19  20
HETATM   20  C5  UNL     1       0.673 -12.147  -7.646  1.00  0.00     0.011 C 
HETATM   21  C6  UNL     1       1.800 -12.875  -8.292  1.00  0.00     0.008 C 
HETATM   22  C7  UNL     1       2.637 -13.703  -7.358  1.00  0.00     0.033 C 
HETATM   23  C8  UNL     1       3.097 -12.992  -6.127  1.00  0.00     0.183 C 
HETATM   24  C9  UNL     1       2.100 -11.988  -5.607  1.00  0.00     0.033 C 
HETATM   25  C10 UNL     1       0.718 -12.220  -6.127  1.00  0.00     0.008 C 
BRANCH  23  26
HETATM   26  N2  UNL     1       4.401 -12.369  -6.309  1.00  0.00    -0.075 N 
ATOM     27  H23 UNL     1       4.756 -12.523  -7.253  1.00  0.00     0.274 HD
ATOM     28  H22 UNL     1       4.326 -11.352  -6.328  1.00  0.00     0.274 HD
ATOM     29  H21 UNL     1       5.075 -12.676  -5.607  1.00  0.00     0.274 HD
ENDBRANCH  23  26
ENDBRANCH  19  20
ENDBRANCH  16  19
ENDBRANCH  15  16
ENDBRANCH  13  15
ENDBRANCH   1  13
BRANCH   5  30
HETATM   30  C17 UNL     1      -3.925  -6.729  -8.549  1.00  0.00     0.181 C 
HETATM   31  O1  UNL     1      -3.382  -7.390  -9.469  1.00  0.00    -0.647 OA
HETATM   32  O2  UNL     1      -3.472  -5.446  -8.275  1.00  0.00    -0.647 OA
ENDBRANCH   5  30
BRANCH  10  33
HETATM   33  C22 UNL     1      -8.610 -10.361  -9.654  1.00  0.00    -0.067 C 
HETATM   34  C23 UNL     1      -9.350 -10.271 -10.607  1.00  0.00     0.009 C 
BRANCH  34  35
HETATM   35  C24 UNL     1     -10.211 -10.178 -11.750  1.00  0.00     0.258 C 
HETATM   36  O3  UNL     1     -10.550  -9.049 -12.182  1.00  0.00    -0.637 OA
HETATM   37  O4  UNL     1     -10.699 -11.293 -12.416  1.00  0.00    -0.637 OA
ENDBRANCH  34  35
ENDBRANCH  10  33
TORSDOF 9
ENDMDL
MODEL 5
REMARK VINA RESULT: -7.694504516      1.436      1.852
REMARK  9 active torsions:
REMARK  status: ('A' for Active; 'I' for Inactive)
REMARK    1  A    between atoms: C2_2  and  C3_3 
REMARK    2  A    between atoms: C2_2  and  C11_18 
REMARK    3  A    between atoms: C3_3  and  N1_4 
REMARK    4  A    between atoms: N1_4  and  C4_7 
REMARK    5  A    between atoms: C4_7  and  C5_8 
REMARK    6  A    between atoms: C8_11  and  N2_12 
REMARK    7  A    between atoms: C15_22  and  C17_24 
REMARK    8  A    between atoms: C21_30  and  C22_31 
REMARK    9  A    between atoms: C23_32  and  C24_33 
ROOT
HETATM    1  C11 UNL     1      -5.333 -10.684  -6.806  1.00  0.00     0.004 C 
HETATM    2  C12 UNL     1      -4.098 -10.501  -5.908  1.00  0.00     0.006 C 
HETATM    3  C13 UNL     1      -3.640  -9.052  -6.180  1.00  0.00     0.007 C 
HETATM    4  C14 UNL     1      -4.626  -8.540  -7.161  1.00  0.00     0.017 C 
HETATM    5  C15 UNL     1      -4.766  -7.088  -7.311  1.00  0.00     0.050 C 
HETATM    6  C16 UNL     1      -4.339  -6.298  -6.082  1.00  0.00     0.027 C 
HETATM    7  C18 UNL     1      -6.118  -6.640  -7.808  1.00  0.00     0.025 C 
HETATM    8  C19 UNL     1      -6.837  -7.793  -8.482  1.00  0.00     0.037 C 
HETATM    9  C20 UNL     1      -7.009  -8.924  -7.540  1.00  0.00    -0.063 C 
HETATM   10  C21 UNL     1      -8.173  -9.499  -7.430  1.00  0.00     0.068 C 
HETATM   11  C25 UNL     1      -5.866  -9.323  -6.766  1.00  0.00    -0.011 C 
HETATM   12  C26 UNL     1      -6.230  -9.057  -5.290  1.00  0.00     0.021 C 
ENDROOT
BRANCH   1  13
HETATM   13  C2  UNL     1      -4.929 -11.344  -8.042  1.00  0.00     0.012 C 
HETATM   14  C1  UNL     1      -6.050 -12.170  -8.714  1.00  0.00     0.012 C 
BRANCH  13  15
HETATM   15  C3  UNL     1      -3.862 -12.408  -7.667  1.00  0.00     0.237 C 
BRANCH  15  16
HETATM   16  N1  UNL     1      -2.704 -12.249  -8.531  1.00  0.00    -0.074 N 
ATOM     17  H12 UNL     1      -2.915 -12.553  -9.482  1.00  0.00     0.277 HD
ATOM     18  H11 UNL     1      -2.515 -11.263  -8.709  1.00  0.00     0.277 HD
BRANCH  16  19
HETATM   19  C4  UNL     1      -1.547 -12.906  -8.035  1.00  0.00     0.237 C 
BRANCH  19  20
HETATM   20  C5  UNL     1      -0.587 -12.033  -7.266  1.00  0.00     0.011 C 
HETATM   21  C6  UNL     1       0.839 -12.183  -7.670  1.00  0.00     0.008 C 
HETATM   22  C7  UNL     1       1.731 -12.790  -6.624  1.00  0.00     0.033 C 
HETATM   23  C8  UNL     1       1.623 -12.174  -5.268  1.00  0.00     0.183 C 
HETATM   24  C9  UNL     1       0.230 -11.703  -4.933  1.00  0.00     0.033 C 
HETATM   25  C10 UNL     1      -0.817 -12.334  -5.792  1.00  0.00     0.008 C 
BRANCH  23  26
HETATM   26  N2  UNL     1       2.586 -11.098  -5.076  1.00  0.00    -0.075 N 
ATOM     27  H23 UNL     1       2.130 -10.186  -5.096  1.00  0.00     0.274 HD
ATOM     28  H22 UNL     1       2.937 -11.083  -4.119  1.00  0.00     0.274 HD
ATOM     29  H21 UNL     1       3.352 -11.144  -5.749  1.00  0.00     0.274 HD
ENDBRANCH  23  26
ENDBRANCH  19  20
ENDBRANCH  16  19
ENDBRANCH  15  16
ENDBRANCH  13  15
ENDBRANCH   1  13
BRANCH   5  30
HETATM   30  C17 UNL     1      -3.792  -6.604  -8.370  1.00  0.00     0.181 C 
HETATM   31  O1  UNL     1      -3.204  -5.505  -8.207  1.00  0.00    -0.647 OA
HETATM   32  O2  UNL     1      -3.538  -7.347  -9.514  1.00  0.00    -0.647 OA
ENDBRANCH   5  30
BRANCH  10  33
HETATM   33  C22 UNL     1      -9.299  -9.058  -8.208  1.00  0.00    -0.067 C 
HETATM   34  C23 UNL     1     -10.243  -8.669  -8.855  1.00  0.00     0.009 C 
BRANCH  34  35
HETATM   35  C24 UNL     1     -11.359  -8.183  -9.615  1.00  0.00     0.258 C 
HETATM   36  O3  UNL     1     -11.937  -8.947 -10.427  1.00  0.00    -0.637 OA
HETATM   37  O4  UNL     1     -11.841  -6.887  -9.498  1.00  0.00    -0.637 OA
ENDBRANCH  34  35
ENDBRANCH  10  33
TORSDOF 9
ENDMDL
