MODEL 1
REMARK VINA RESULT: -7.197916191      0.000      0.000
REMARK  8 active torsions:
REMARK  status: ('A' for Active; 'I' for Inactive)
REMARK    1  A    between atoms: C4_4  and  C5_5 
REMARK    2  A    between atoms: C5_5  and  C6_6 
REMARK    3  A    between atoms: C6_6  and  C7_7 
REMARK    4  A    between atoms: C9_9  and  O1_10 
REMARK    5  A    between atoms: C11_13  and  O2_14 
REMARK    6  A    between atoms: C15_19  and  O3_20 
REMARK    7  A    between atoms: C18_24  and  C19_25 
REMARK    8  A    between atoms: C19_25  and  N1_27 
REMARK       I    between atoms: N1_27  and  C21_29 
REMARK       I    between atoms: C21_29  and  N3_33 
ROOT
HETATM    1  C7  UNL     1      -4.527  -5.874  -7.237  1.00  0.00    -0.013 C 
HETATM    2  C8  UNL     1      -3.631  -5.700  -8.472  1.00  0.00     0.018 C 
HETATM    3  C9  UNL     1      -3.616  -5.646  -6.054  1.00  0.00     0.129 C 
HETATM    4  C10 UNL     1      -4.175  -6.059  -4.746  1.00  0.00     0.064 C 
HETATM    5  C11 UNL     1      -4.953  -7.356  -4.781  1.00  0.00     0.125 C 
HETATM    6  C12 UNL     1      -4.634  -8.030  -6.101  1.00  0.00     0.024 C 
HETATM    7  C13 UNL     1      -5.200  -7.226  -7.237  1.00  0.00     0.005 C 
HETATM    8  C14 UNL     1      -4.856  -8.029  -8.474  1.00  0.00     0.038 C 
HETATM    9  C15 UNL     1      -5.806  -9.239  -8.461  1.00  0.00     0.128 C 
HETATM   10  C16 UNL     1      -5.790 -10.027  -7.219  1.00  0.00    -0.005 C 
HETATM   11  C17 UNL     1      -7.195 -10.001  -6.580  1.00  0.00     0.019 C 
HETATM   12  C18 UNL     1      -5.293 -11.408  -7.246  1.00  0.00     0.042 C 
HETATM   13  C24 UNL     1      -3.783 -11.167  -7.501  1.00  0.00     0.011 C 
HETATM   14  C25 UNL     1      -3.538 -10.234  -6.333  1.00  0.00     0.007 C 
HETATM   15  C26 UNL     1      -4.840  -9.475  -6.141  1.00  0.00     0.004 C 
ENDROOT
BRANCH  12  16
HETATM   16  C19 UNL     1      -5.823 -12.501  -8.014  1.00  0.00     0.005 C 
HETATM   17  C20 UNL     1      -4.855 -13.615  -8.336  1.00  0.00     0.064 C 
BRANCH  16  18
HETATM   18  N1  UNL     1      -7.082 -13.084  -7.721  1.00  0.00    -0.200 N 
HETATM   19  C21 UNL     1      -7.847 -13.743  -8.719  1.00  0.00     0.673 C 
HETATM   20  N2  UNL     1      -8.057 -15.013  -8.728  1.00  0.00    -0.235 N 
HETATM   21  N3  UNL     1      -8.431 -12.992  -9.784  1.00  0.00    -0.227 N 
ATOM     22  H22 UNL     1      -7.640 -15.550  -7.967  1.00  0.00     0.174 HD
ATOM     23  H21 UNL     1      -8.606 -15.486  -9.444  1.00  0.00     0.174 HD
HETATM   24  C22 UNL     1      -8.741 -11.584  -9.646  1.00  0.00     0.168 C 
HETATM   25  C23 UNL     1      -8.739 -13.617 -11.058  1.00  0.00     0.168 C 
ATOM     26  H1  UNL     1      -7.446 -13.029  -6.770  1.00  0.00     0.183 HD
ENDBRANCH  16  18
ENDBRANCH  12  16
BRANCH   9  27
HETATM   27  O3  UNL     1      -7.078  -8.619  -8.607  1.00  0.00    -0.395 OA
ATOM     28  H3  UNL     1      -7.670  -9.321  -8.361  1.00  0.00     0.210 HD
ENDBRANCH   9  27
BRANCH   5  29
HETATM   29  O2  UNL     1      -6.272  -7.041  -4.594  1.00  0.00    -0.395 OA
ATOM     30  H2  UNL     1      -6.784  -7.688  -5.065  1.00  0.00     0.210 HD
ENDBRANCH   5  29
BRANCH   1  31
HETATM   31  C6  UNL     1      -5.533  -4.757  -7.251  1.00  0.00     0.016 C 
BRANCH  31  32
HETATM   32  C5  UNL     1      -6.930  -5.182  -7.572  1.00  0.00     0.028 C 
BRANCH  32  33
HETATM   33  C4  UNL     1      -7.823  -4.619  -6.521  1.00  0.00    -0.025 C 
HETATM   34  C2  UNL     1      -8.871  -5.285  -6.049  1.00  0.00    -0.091 C 
HETATM   35  C1  UNL     1      -9.769  -4.738  -5.003  1.00  0.00     0.042 C 
HETATM   36  C3  UNL     1      -9.166  -6.640  -6.586  1.00  0.00     0.042 C 
ENDBRANCH  32  33
ENDBRANCH  31  32
ENDBRANCH   1  31
BRANCH   3  37
HETATM   37  O1  UNL     1      -3.415  -4.244  -5.993  1.00  0.00    -0.395 OA
ATOM     38  H1  UNL     1      -3.126  -3.991  -6.862  1.00  0.00     0.210 HD
ENDBRANCH   3  37
TORSDOF 8
ENDMDL
MODEL 2
REMARK VINA RESULT: -7.034306041      1.353      1.690
REMARK  8 active torsions:
REMARK  status: ('A' for Active; 'I' for Inactive)
REMARK    1  A    between atoms: C4_4  and  C5_5 
REMARK    2  A    between atoms: C5_5  and  C6_6 
REMARK    3  A    between atoms: C6_6  and  C7_7 
REMARK    4  A    between atoms: C9_9  and  O1_10 
REMARK    5  A    between atoms: C11_13  and  O2_14 
REMARK    6  A    between atoms: C15_19  and  O3_20 
REMARK    7  A    between atoms: C18_24  and  C19_25 
REMARK    8  A    between atoms: C19_25  and  N1_27 
REMARK       I    between atoms: N1_27  and  C21_29 
REMARK       I    between atoms: C21_29  and  N3_33 
ROOT
HETATM    1  C7  UNL     1      -4.450  -5.893  -7.282  1.00  0.00    -0.013 C 
HETATM    2  C8  UNL     1      -3.517  -5.748  -8.494  1.00  0.00     0.018 C 
HETATM    3  C9  UNL     1      -3.569  -5.661  -6.077  1.00  0.00     0.129 C 
HETATM    4  C10 UNL     1      -4.170  -6.047  -4.780  1.00  0.00     0.064 C 
HETATM    5  C11 UNL     1      -4.965  -7.333  -4.818  1.00  0.00     0.125 C 
HETATM    6  C12 UNL     1      -4.621  -8.030  -6.120  1.00  0.00     0.024 C 
HETATM    7  C13 UNL     1      -5.143  -7.234  -7.282  1.00  0.00     0.005 C 
HETATM    8  C14 UNL     1      -4.777  -8.060  -8.498  1.00  0.00     0.038 C 
HETATM    9  C15 UNL     1      -5.744  -9.255  -8.495  1.00  0.00     0.128 C 
HETATM   10  C16 UNL     1      -5.774 -10.026  -7.243  1.00  0.00    -0.005 C 
HETATM   11  C17 UNL     1      -7.196  -9.971  -6.644  1.00  0.00     0.019 C 
HETATM   12  C18 UNL     1      -5.297 -11.415  -7.237  1.00  0.00     0.042 C 
HETATM   13  C24 UNL     1      -3.777 -11.199  -7.452  1.00  0.00     0.011 C 
HETATM   14  C25 UNL     1      -3.551 -10.253  -6.291  1.00  0.00     0.007 C 
HETATM   15  C26 UNL     1      -4.846  -9.473  -6.146  1.00  0.00     0.004 C 
ENDROOT
BRANCH  12  16
HETATM   16  C19 UNL     1      -5.821 -12.510  -8.004  1.00  0.00     0.005 C 
HETATM   17  C20 UNL     1      -4.852 -13.628  -8.311  1.00  0.00     0.064 C 
BRANCH  16  18
HETATM   18  N1  UNL     1      -7.084 -13.090  -7.720  1.00  0.00    -0.200 N 
HETATM   19  C21 UNL     1      -7.840 -13.755  -8.721  1.00  0.00     0.673 C 
HETATM   20  N2  UNL     1      -8.051 -15.025  -8.723  1.00  0.00    -0.235 N 
HETATM   21  N3  UNL     1      -8.411 -13.012  -9.797  1.00  0.00    -0.227 N 
ATOM     22  H22 UNL     1      -7.642 -15.557  -7.954  1.00  0.00     0.174 HD
ATOM     23  H21 UNL     1      -8.593 -15.503  -9.442  1.00  0.00     0.174 HD
HETATM   24  C22 UNL     1      -8.721 -11.602  -9.674  1.00  0.00     0.168 C 
HETATM   25  C23 UNL     1      -8.706 -13.646 -11.071  1.00  0.00     0.168 C 
ATOM     26  H1  UNL     1      -7.458 -13.028  -6.773  1.00  0.00     0.183 HD
ENDBRANCH  16  18
ENDBRANCH  12  16
BRANCH   9  27
HETATM   27  O3  UNL     1      -7.002  -8.620  -8.685  1.00  0.00    -0.395 OA
ATOM     28  H3  UNL     1      -6.843  -8.093  -9.460  1.00  0.00     0.210 HD
ENDBRANCH   9  27
BRANCH   5  29
HETATM   29  O2  UNL     1      -6.284  -6.997  -4.673  1.00  0.00    -0.395 OA
ATOM     30  H2  UNL     1      -6.757  -7.402  -5.390  1.00  0.00     0.210 HD
ENDBRANCH   5  29
BRANCH   1  31
HETATM   31  C6  UNL     1      -5.438  -4.762  -7.339  1.00  0.00     0.016 C 
BRANCH  31  32
HETATM   32  C5  UNL     1      -5.754  -4.280  -8.718  1.00  0.00     0.028 C 
BRANCH  32  33
HETATM   33  C4  UNL     1      -7.125  -4.753  -9.057  1.00  0.00    -0.025 C 
HETATM   34  C2  UNL     1      -7.380  -5.471 -10.146  1.00  0.00    -0.091 C 
HETATM   35  C1  UNL     1      -8.739  -5.949 -10.496  1.00  0.00     0.042 C 
HETATM   36  C3  UNL     1      -6.259  -5.814 -11.061  1.00  0.00     0.042 C 
ENDBRANCH  32  33
ENDBRANCH  31  32
ENDBRANCH   1  31
BRANCH   3  37
HETATM   37  O1  UNL     1      -3.349  -4.262  -6.030  1.00  0.00    -0.395 OA
ATOM     38  H1  UNL     1      -2.434  -4.140  -6.256  1.00  0.00     0.210 HD
ENDBRANCH   3  37
TORSDOF 8
ENDMDL
MODEL 3
REMARK VINA RESULT: -6.842801658      2.949      5.256
REMARK  8 active torsions:
REMARK  status: ('A' for Active; 'I' for Inactive)
REMARK    1  A    between atoms: C4_4  and  C5_5 
REMARK    2  A    between atoms: C5_5  and  C6_6 
REMARK    3  A    between atoms: C6_6  and  C7_7 
REMARK    4  A    between atoms: C9_9  and  O1_10 
REMARK    5  A    between atoms: C11_13  and  O2_14 
REMARK    6  A    between atoms: C15_19  and  O3_20 
REMARK    7  A    between atoms: C18_24  and  C19_25 
REMARK    8  A    between atoms: C19_25  and  N1_27 
REMARK       I    between atoms: N1_27  and  C21_29 
REMARK       I    between atoms: C21_29  and  N3_33 
ROOT
HETATM    1  C7  UNL     1      -8.130  -7.763  -6.314  1.00  0.00    -0.013 C 
HETATM    2  C8  UNL     1      -8.535  -8.381  -4.968  1.00  0.00     0.018 C 
HETATM    3  C9  UNL     1      -9.235  -8.145  -7.272  1.00  0.00     0.129 C 
HETATM    4  C10 UNL     1      -8.925  -7.927  -8.703  1.00  0.00     0.064 C 
HETATM    5  C11 UNL     1      -7.510  -8.288  -9.098  1.00  0.00     0.125 C 
HETATM    6  C12 UNL     1      -6.924  -9.100  -7.959  1.00  0.00     0.024 C 
HETATM    7  C13 UNL     1      -6.761  -8.234  -6.743  1.00  0.00     0.005 C 
HETATM    8  C14 UNL     1      -6.129  -9.147  -5.713  1.00  0.00     0.038 C 
HETATM    9  C15 UNL     1      -4.667  -9.322  -6.155  1.00  0.00     0.128 C 
HETATM   10  C16 UNL     1      -4.487  -9.779  -7.541  1.00  0.00    -0.005 C 
HETATM   11  C17 UNL     1      -3.702  -8.712  -8.333  1.00  0.00     0.019 C 
HETATM   12  C18 UNL     1      -3.903 -11.102  -7.797  1.00  0.00     0.042 C 
HETATM   13  C24 UNL     1      -5.044 -12.024  -7.293  1.00  0.00     0.011 C 
HETATM   14  C25 UNL     1      -6.152 -11.442  -8.146  1.00  0.00     0.007 C 
HETATM   15  C26 UNL     1      -5.807  -9.972  -8.311  1.00  0.00     0.004 C 
ENDROOT
BRANCH  12  16
HETATM   16  C19 UNL     1      -2.599 -11.560  -7.404  1.00  0.00     0.005 C 
HETATM   17  C20 UNL     1      -2.332 -11.604  -5.919  1.00  0.00     0.064 C 
BRANCH  16  18
HETATM   18  N1  UNL     1      -1.995 -12.699  -7.994  1.00  0.00    -0.200 N 
HETATM   19  C21 UNL     1      -0.658 -13.070  -7.696  1.00  0.00     0.673 C 
HETATM   20  N2  UNL     1      -0.347 -14.128  -7.031  1.00  0.00    -0.235 N 
HETATM   21  N3  UNL     1       0.426 -12.254  -8.139  1.00  0.00    -0.227 N 
ATOM     22  H22 UNL     1      -1.121 -14.712  -6.714  1.00  0.00     0.174 HD
ATOM     23  H21 UNL     1       0.614 -14.395  -6.817  1.00  0.00     0.174 HD
HETATM   24  C22 UNL     1       0.306 -11.380  -9.288  1.00  0.00     0.168 C 
HETATM   25  C23 UNL     1       1.704 -12.266  -7.447  1.00  0.00     0.168 C 
ATOM     26  H1  UNL     1      -2.535 -13.267  -8.647  1.00  0.00     0.183 HD
ENDBRANCH  16  18
ENDBRANCH  12  16
BRANCH   9  27
HETATM   27  O3  UNL     1      -4.158  -8.001  -6.026  1.00  0.00    -0.395 OA
ATOM     28  H3  UNL     1      -4.230  -7.673  -6.916  1.00  0.00     0.210 HD
ENDBRANCH   9  27
BRANCH   5  29
HETATM   29  O2  UNL     1      -6.855  -7.118  -9.372  1.00  0.00    -0.395 OA
ATOM     30  H2  UNL     1      -7.279  -6.730 -10.128  1.00  0.00     0.210 HD
ENDBRANCH   5  29
BRANCH   1  31
HETATM   31  C6  UNL     1      -8.174  -6.269  -6.154  1.00  0.00     0.016 C 
BRANCH  31  32
HETATM   32  C5  UNL     1      -6.847  -5.591  -6.273  1.00  0.00     0.028 C 
BRANCH  32  33
HETATM   33  C4  UNL     1      -6.437  -5.162  -4.907  1.00  0.00    -0.025 C 
HETATM   34  C2  UNL     1      -5.223  -4.689  -4.645  1.00  0.00    -0.091 C 
HETATM   35  C1  UNL     1      -4.801  -4.258  -3.290  1.00  0.00     0.042 C 
HETATM   36  C3  UNL     1      -4.236  -4.585  -5.752  1.00  0.00     0.042 C 
ENDBRANCH  32  33
ENDBRANCH  31  32
ENDBRANCH   1  31
BRANCH   3  37
HETATM   37  O1  UNL     1     -10.325  -7.299  -6.951  1.00  0.00    -0.395 OA
ATOM     38  H1  UNL     1     -11.104  -7.827  -7.085  1.00  0.00     0.210 HD
ENDBRANCH   3  37
TORSDOF 8
ENDMDL
MODEL 4
REMARK VINA RESULT: -6.630900986      2.936      5.139
REMARK  8 active torsions:
REMARK  status: ('A' for Active; 'I' for Inactive)
REMARK    1  A    between atoms: C4_4  and  C5_5 
REMARK    2  A    between atoms: C5_5  and  C6_6 
REMARK    3  A    between atoms: C6_6  and  C7_7 
REMARK    4  A    between atoms: C9_9  and  O1_10 
REMARK    5  A    between atoms: C11_13  and  O2_14 
REMARK    6  A    between atoms: C15_19  and  O3_20 
REMARK    7  A    between atoms: C18_24  and  C19_25 
REMARK    8  A    between atoms: C19_25  and  N1_27 
REMARK       I    between atoms: N1_27  and  C21_29 
REMARK       I    between atoms: C21_29  and  N3_33 
ROOT
HETATM    1  C7  UNL     1      -7.848  -7.441  -5.981  1.00  0.00    -0.013 C 
HETATM    2  C8  UNL     1      -8.140  -8.026  -4.591  1.00  0.00     0.018 C 
HETATM    3  C9  UNL     1      -9.123  -7.639  -6.768  1.00  0.00     0.129 C 
HETATM    4  C10 UNL     1      -8.995  -7.434  -8.228  1.00  0.00     0.064 C 
HETATM    5  C11 UNL     1      -7.719  -7.984  -8.827  1.00  0.00     0.125 C 
HETATM    6  C12 UNL     1      -7.098  -8.898  -7.787  1.00  0.00     0.024 C 
HETATM    7  C13 UNL     1      -6.638  -8.092  -6.606  1.00  0.00     0.005 C 
HETATM    8  C14 UNL     1      -6.003  -9.110  -5.682  1.00  0.00     0.038 C 
HETATM    9  C15 UNL     1      -4.660  -9.481  -6.333  1.00  0.00     0.128 C 
HETATM   10  C16 UNL     1      -4.750  -9.927  -7.731  1.00  0.00    -0.005 C 
HETATM   11  C17 UNL     1      -3.942  -8.964  -8.627  1.00  0.00     0.019 C 
HETATM   12  C18 UNL     1      -4.407 -11.312  -8.073  1.00  0.00     0.042 C 
HETATM   13  C24 UNL     1      -5.584 -12.074  -7.410  1.00  0.00     0.011 C 
HETATM   14  C25 UNL     1      -6.707 -11.320  -8.090  1.00  0.00     0.007 C 
HETATM   15  C26 UNL     1      -6.181  -9.911  -8.300  1.00  0.00     0.004 C 
ENDROOT
BRANCH  12  16
HETATM   16  C19 UNL     1      -3.139 -11.960  -7.876  1.00  0.00     0.005 C 
HETATM   17  C20 UNL     1      -3.007 -13.347  -8.460  1.00  0.00     0.064 C 
BRANCH  16  18
HETATM   18  N1  UNL     1      -1.910 -11.281  -8.075  1.00  0.00    -0.200 N 
HETATM   19  C21 UNL     1      -0.676 -11.979  -8.138  1.00  0.00     0.673 C 
HETATM   20  N2  UNL     1       0.024 -12.085  -9.214  1.00  0.00    -0.235 N 
HETATM   21  N3  UNL     1      -0.151 -12.610  -6.971  1.00  0.00    -0.227 N 
ATOM     22  H22 UNL     1      -0.351 -11.635 -10.049  1.00  0.00     0.174 HD
ATOM     23  H21 UNL     1       0.910 -12.587  -9.260  1.00  0.00     0.174 HD
HETATM   24  C22 UNL     1      -0.500 -12.164  -5.638  1.00  0.00     0.168 C 
HETATM   25  C23 UNL     1       0.762 -13.736  -7.075  1.00  0.00     0.168 C 
ATOM     26  H1  UNL     1      -1.913 -10.266  -8.175  1.00  0.00     0.183 HD
ENDBRANCH  16  18
ENDBRANCH  12  16
BRANCH   9  27
HETATM   27  O3  UNL     1      -3.953  -8.249  -6.277  1.00  0.00    -0.395 OA
ATOM     28  H3  UNL     1      -3.359  -8.328  -7.015  1.00  0.00     0.210 HD
ENDBRANCH   9  27
BRANCH   5  29
HETATM   29  O2  UNL     1      -6.948  -6.913  -9.191  1.00  0.00    -0.395 OA
ATOM     30  H2  UNL     1      -6.429  -6.671  -8.433  1.00  0.00     0.210 HD
ENDBRANCH   5  29
BRANCH   1  31
HETATM   31  C6  UNL     1      -7.652  -5.960  -5.812  1.00  0.00     0.016 C 
BRANCH  31  32
HETATM   32  C5  UNL     1      -6.257  -5.485  -6.061  1.00  0.00     0.028 C 
BRANCH  32  33
HETATM   33  C4  UNL     1      -5.959  -4.423  -5.060  1.00  0.00    -0.025 C 
HETATM   34  C2  UNL     1      -5.059  -4.588  -4.096  1.00  0.00    -0.091 C 
HETATM   35  C1  UNL     1      -4.752  -3.540  -3.093  1.00  0.00     0.042 C 
HETATM   36  C3  UNL     1      -4.323  -5.877  -4.011  1.00  0.00     0.042 C 
ENDBRANCH  32  33
ENDBRANCH  31  32
ENDBRANCH   1  31
BRANCH   3  37
HETATM   37  O1  UNL     1     -10.023  -6.654  -6.289  1.00  0.00    -0.395 OA
ATOM     38  H1  UNL     1      -9.489  -6.036  -5.803  1.00  0.00     0.210 HD
ENDBRANCH   3  37
TORSDOF 8
ENDMDL
MODEL 5
REMARK VINA RESULT: -6.592203521      3.654      7.544
REMARK  8 active torsions:
REMARK  status: ('A' for Active; 'I' for Inactive)
REMARK    1  A    between atoms: C4_4  and  C5_5 
REMARK    2  A    between atoms: C5_5  and  C6_6 
REMARK    3  A    between atoms: C6_6  and  C7_7 
REMARK    4  A    between atoms: C9_9  and  O1_10 
REMARK    5  A    between atoms: C11_13  and  O2_14 
REMARK    6  A    between atoms: C15_19  and  O3_20 
REMARK    7  A    between atoms: C18_24  and  C19_25 
REMARK    8  A    between atoms: C19_25  and  N1_27 
REMARK       I    between atoms: N1_27  and  C21_29 
REMARK       I    between atoms: C21_29  and  N3_33 
ROOT
HETATM    1  C7  UNL     1      -4.929 -10.486  -7.554  1.00  0.00    -0.013 C 
HETATM    2  C8  UNL     1      -3.657  -9.940  -8.219  1.00  0.00     0.018 C 
HETATM    3  C9  UNL     1      -5.791 -10.976  -8.695  1.00  0.00     0.129 C 
HETATM    4  C10 UNL     1      -7.197 -11.267  -8.335  1.00  0.00     0.064 C 
HETATM    5  C11 UNL     1      -7.816 -10.273  -7.378  1.00  0.00     0.125 C 
HETATM    6  C12 UNL     1      -6.900  -9.065  -7.338  1.00  0.00     0.024 C 
HETATM    7  C13 UNL     1      -5.592  -9.434  -6.697  1.00  0.00     0.005 C 
HETATM    8  C14 UNL     1      -4.805  -8.141  -6.678  1.00  0.00     0.038 C 
HETATM    9  C15 UNL     1      -5.445  -7.281  -5.577  1.00  0.00     0.128 C 
HETATM   10  C16 UNL     1      -6.898  -7.088  -5.705  1.00  0.00    -0.005 C 
HETATM   11  C17 UNL     1      -7.603  -7.677  -4.465  1.00  0.00     0.019 C 
HETATM   12  C18 UNL     1      -7.428  -5.745  -5.974  1.00  0.00     0.042 C 
HETATM   13  C24 UNL     1      -6.938  -5.527  -7.429  1.00  0.00     0.011 C 
HETATM   14  C25 UNL     1      -7.545  -6.780  -8.026  1.00  0.00     0.007 C 
HETATM   15  C26 UNL     1      -7.519  -7.813  -6.913  1.00  0.00     0.004 C 
ENDROOT
BRANCH  12  16
HETATM   16  C19 UNL     1      -7.277  -4.577  -5.152  1.00  0.00     0.005 C 
HETATM   17  C20 UNL     1      -6.380  -3.493  -5.700  1.00  0.00     0.064 C 
BRANCH  16  18
HETATM   18  N1  UNL     1      -8.384  -3.954  -4.522  1.00  0.00    -0.200 N 
HETATM   19  C21 UNL     1      -9.696  -4.488  -4.624  1.00  0.00     0.673 C 
HETATM   20  N2  UNL     1     -10.328  -5.009  -3.630  1.00  0.00    -0.235 N 
HETATM   21  N3  UNL     1     -10.381  -4.465  -5.876  1.00  0.00    -0.227 N 
ATOM     22  H22 UNL     1      -9.839  -5.026  -2.736  1.00  0.00     0.174 HD
ATOM     23  H21 UNL     1     -11.270  -5.392  -3.704  1.00  0.00     0.174 HD
HETATM   24  C22 UNL     1     -10.066  -3.493  -6.902  1.00  0.00     0.168 C 
HETATM   25  C23 UNL     1     -11.431  -5.424  -6.171  1.00  0.00     0.168 C 
ATOM     26  H1  UNL     1      -8.235  -3.102  -3.982  1.00  0.00     0.183 HD
ENDBRANCH  16  18
ENDBRANCH  12  16
BRANCH   9  27
HETATM   27  O3  UNL     1      -5.175  -8.045  -4.408  1.00  0.00    -0.395 OA
ATOM     28  H3  UNL     1      -5.011  -7.368  -3.761  1.00  0.00     0.210 HD
ENDBRANCH   9  27
BRANCH   5  29
HETATM   29  O2  UNL     1      -7.982 -10.914  -6.180  1.00  0.00    -0.395 OA
ATOM     30  H2  UNL     1      -8.395 -10.298  -5.587  1.00  0.00     0.210 HD
ENDBRANCH   5  29
BRANCH   1  31
HETATM   31  C6  UNL     1      -4.532 -11.688  -6.744  1.00  0.00     0.016 C 
BRANCH  31  32
HETATM   32  C5  UNL     1      -3.190 -11.584  -6.092  1.00  0.00     0.028 C 
BRANCH  32  33
HETATM   33  C4  UNL     1      -2.266 -12.500  -6.818  1.00  0.00    -0.025 C 
HETATM   34  C2  UNL     1      -0.984 -12.619  -6.492  1.00  0.00    -0.091 C 
HETATM   35  C1  UNL     1      -0.052 -13.526  -7.205  1.00  0.00     0.042 C 
HETATM   36  C3  UNL     1      -0.449 -11.810  -5.365  1.00  0.00     0.042 C 
ENDBRANCH  32  33
ENDBRANCH  31  32
ENDBRANCH   1  31
BRANCH   3  37
HETATM   37  O1  UNL     1      -5.209 -12.199  -9.112  1.00  0.00    -0.395 OA
ATOM     38  H1  UNL     1      -5.844 -12.871  -8.892  1.00  0.00     0.210 HD
ENDBRANCH   3  37
TORSDOF 8
ENDMDL
