MODEL 1
REMARK VINA RESULT: -5.404846919      0.000      0.000
REMARK  0 active torsions:
REMARK  status: ('A' for Active; 'I' for Inactive)
ROOT
HETATM    1  C1  UNL     1     -32.103   7.360   3.337  1.00  0.00     0.036 C 
HETATM    2  C2  UNL     1     -33.259   6.444   3.255  1.00  0.00    -0.028 C 
HETATM    3  C3  UNL     1     -34.057   6.181   4.283  1.00  0.00    -0.084 C 
HETATM    4  C4  UNL     1     -34.126   6.614   5.707  1.00  0.00     0.034 C 
HETATM    5  C5  UNL     1     -34.783   5.275   6.011  1.00  0.00     0.009 C 
HETATM    6  C6  UNL     1     -35.262   5.350   4.557  1.00  0.00     0.034 C 
ENDROOT
TORSDOF 0
ENDMDL
MODEL 2
REMARK VINA RESULT: -5.192036664      1.277      1.873
REMARK  0 active torsions:
REMARK  status: ('A' for Active; 'I' for Inactive)
ROOT
HETATM    1  C1  UNL     1     -33.331   4.624   2.316  1.00  0.00     0.036 C 
HETATM    2  C2  UNL     1     -34.072   4.374   3.570  1.00  0.00    -0.028 C 
HETATM    3  C3  UNL     1     -34.345   5.321   4.459  1.00  0.00    -0.084 C 
HETATM    4  C4  UNL     1     -34.074   6.783   4.564  1.00  0.00     0.034 C 
HETATM    5  C5  UNL     1     -34.104   6.610   6.076  1.00  0.00     0.009 C 
HETATM    6  C6  UNL     1     -35.037   5.432   5.772  1.00  0.00     0.034 C 
ENDROOT
TORSDOF 0
ENDMDL
MODEL 3
REMARK VINA RESULT: -4.809318141      0.866      1.464
REMARK  0 active torsions:
REMARK  status: ('A' for Active; 'I' for Inactive)
ROOT
HETATM    1  C1  UNL     1     -32.524   7.079   2.278  1.00  0.00     0.036 C 
HETATM    2  C2  UNL     1     -33.034   7.167   3.661  1.00  0.00    -0.028 C 
HETATM    3  C3  UNL     1     -33.782   6.227   4.226  1.00  0.00    -0.084 C 
HETATM    4  C4  UNL     1     -34.333   4.912   3.793  1.00  0.00     0.034 C 
HETATM    5  C5  UNL     1     -35.473   5.143   4.776  1.00  0.00     0.009 C 
HETATM    6  C6  UNL     1     -34.443   5.987   5.538  1.00  0.00     0.034 C 
ENDROOT
TORSDOF 0
ENDMDL
MODEL 4
REMARK VINA RESULT: -4.709743685      1.174      2.901
REMARK  0 active torsions:
REMARK  status: ('A' for Active; 'I' for Inactive)
ROOT
HETATM    1  C1  UNL     1     -34.346   6.642   6.195  1.00  0.00     0.036 C 
HETATM    2  C2  UNL     1     -33.572   6.962   4.978  1.00  0.00    -0.028 C 
HETATM    3  C3  UNL     1     -33.603   6.223   3.876  1.00  0.00    -0.084 C 
HETATM    4  C4  UNL     1     -34.305   4.977   3.458  1.00  0.00     0.034 C 
HETATM    5  C5  UNL     1     -33.134   4.712   2.523  1.00  0.00     0.009 C 
HETATM    6  C6  UNL     1     -32.985   6.238   2.522  1.00  0.00     0.034 C 
ENDROOT
TORSDOF 0
ENDMDL
MODEL 5
REMARK VINA RESULT: -4.688824693      0.918      3.117
REMARK  0 active torsions:
REMARK  status: ('A' for Active; 'I' for Inactive)
ROOT
HETATM    1  C1  UNL     1     -35.025   5.569   5.827  1.00  0.00     0.036 C 
HETATM    2  C2  UNL     1     -34.635   5.077   4.490  1.00  0.00    -0.028 C 
HETATM    3  C3  UNL     1     -33.721   5.669   3.732  1.00  0.00    -0.084 C 
HETATM    4  C4  UNL     1     -32.848   6.869   3.870  1.00  0.00     0.034 C 
HETATM    5  C5  UNL     1     -32.879   6.983   2.352  1.00  0.00     0.009 C 
HETATM    6  C6  UNL     1     -33.100   5.466   2.394  1.00  0.00     0.034 C 
ENDROOT
TORSDOF 0
ENDMDL
