MODEL 1
REMARK VINA RESULT: -4.893368233      0.000      0.000
REMARK  0 active torsions:
REMARK  status: ('A' for Active; 'I' for Inactive)
ROOT
HETATM    1  C1  UNL     1     -33.565   4.794   2.562  1.00  0.00     0.014 C 
HETATM    2  C2  UNL     1     -34.250   4.895   3.696  1.00  0.00    -0.088 C 
HETATM    3  C3  UNL     1     -35.458   5.590   4.186  1.00  0.00     0.037 C 
HETATM    4  C4  UNL     1     -34.931   5.442   5.587  1.00  0.00    -0.011 C 
HETATM    5  C5  UNL     1     -34.159   6.665   6.002  1.00  0.00     0.010 C 
HETATM    6  C6  UNL     1     -34.074   4.307   5.048  1.00  0.00     0.037 C 
ENDROOT
TORSDOF 0
ENDMDL
MODEL 2
REMARK VINA RESULT: -4.603307904      0.386      2.830
REMARK  0 active torsions:
REMARK  status: ('A' for Active; 'I' for Inactive)
ROOT
HETATM    1  C1  UNL     1     -34.248   6.899   6.107  1.00  0.00     0.014 C 
HETATM    2  C2  UNL     1     -34.515   5.843   5.345  1.00  0.00    -0.088 C 
HETATM    3  C3  UNL     1     -34.037   4.453   5.196  1.00  0.00     0.037 C 
HETATM    4  C4  UNL     1     -34.585   4.453   3.796  1.00  0.00    -0.011 C 
HETATM    5  C5  UNL     1     -33.522   4.838   2.804  1.00  0.00     0.010 C 
HETATM    6  C6  UNL     1     -35.478   5.601   4.242  1.00  0.00     0.037 C 
ENDROOT
TORSDOF 0
ENDMDL
MODEL 3
REMARK VINA RESULT: -4.537528451      0.944      1.301
REMARK  0 active torsions:
REMARK  status: ('A' for Active; 'I' for Inactive)
ROOT
HETATM    1  C1  UNL     1     -33.209   4.801   2.485  1.00  0.00     0.014 C 
HETATM    2  C2  UNL     1     -33.964   5.396   3.403  1.00  0.00    -0.088 C 
HETATM    3  C3  UNL     1     -33.879   6.572   4.293  1.00  0.00     0.037 C 
HETATM    4  C4  UNL     1     -34.917   5.935   5.174  1.00  0.00    -0.011 C 
HETATM    5  C5  UNL     1     -34.272   5.151   6.284  1.00  0.00     0.010 C 
HETATM    6  C6  UNL     1     -35.308   5.105   3.960  1.00  0.00     0.037 C 
ENDROOT
TORSDOF 0
ENDMDL
MODEL 4
REMARK VINA RESULT: -4.359316484      1.035      1.199
REMARK  0 active torsions:
REMARK  status: ('A' for Active; 'I' for Inactive)
ROOT
HETATM    1  C1  UNL     1     -32.792   6.182   2.677  1.00  0.00     0.014 C 
HETATM    2  C2  UNL     1     -33.828   5.655   3.321  1.00  0.00    -0.088 C 
HETATM    3  C3  UNL     1     -35.121   6.113   3.870  1.00  0.00     0.037 C 
HETATM    4  C4  UNL     1     -35.120   4.913   4.776  1.00  0.00    -0.011 C 
HETATM    5  C5  UNL     1     -34.525   5.251   6.115  1.00  0.00     0.010 C 
HETATM    6  C6  UNL     1     -34.145   4.284   3.792  1.00  0.00     0.037 C 
ENDROOT
TORSDOF 0
ENDMDL
MODEL 5
REMARK VINA RESULT: -4.238421388      1.303      1.941
REMARK  0 active torsions:
REMARK  status: ('A' for Active; 'I' for Inactive)
ROOT
HETATM    1  C1  UNL     1     -32.742   6.675   3.049  1.00  0.00     0.014 C 
HETATM    2  C2  UNL     1     -33.657   6.574   4.008  1.00  0.00    -0.088 C 
HETATM    3  C3  UNL     1     -33.821   7.003   5.412  1.00  0.00     0.037 C 
HETATM    4  C4  UNL     1     -34.843   5.914   5.588  1.00  0.00    -0.011 C 
HETATM    5  C5  UNL     1     -34.207   4.663   6.130  1.00  0.00     0.010 C 
HETATM    6  C6  UNL     1     -34.997   5.939   4.075  1.00  0.00     0.037 C 
ENDROOT
TORSDOF 0
ENDMDL
