MODEL 1
REMARK VINA RESULT: -3.749345353      0.000      0.000
REMARK  0 active torsions:
REMARK  status: ('A' for Active; 'I' for Inactive)
ROOT
HETATM    1  C1  UNL     1     -34.047   4.407   4.789  1.00  0.00     0.009 C 
HETATM    2  C2  UNL     1     -34.195   5.670   3.991  1.00  0.00    -0.013 C 
HETATM    3  C3  UNL     1     -35.660   5.570   4.296  1.00  0.00     0.009 C 
HETATM    4  C4  UNL     1     -34.985   5.232   5.609  1.00  0.00    -0.013 C 
HETATM    5  C5  UNL     1     -34.083   6.394   5.312  1.00  0.00     0.009 C 
ENDROOT
TORSDOF 0
ENDMDL
MODEL 2
REMARK VINA RESULT: -3.743559229      0.035      1.748
REMARK  0 active torsions:
REMARK  status: ('A' for Active; 'I' for Inactive)
ROOT
HETATM    1  C1  UNL     1     -34.032   4.424   4.788  1.00  0.00     0.009 C 
HETATM    2  C2  UNL     1     -35.007   5.219   5.608  1.00  0.00    -0.013 C 
HETATM    3  C3  UNL     1     -34.101   6.390   5.364  1.00  0.00     0.009 C 
HETATM    4  C4  UNL     1     -34.182   5.697   4.019  1.00  0.00    -0.013 C 
HETATM    5  C5  UNL     1     -35.653   5.588   4.294  1.00  0.00     0.009 C 
ENDROOT
TORSDOF 0
ENDMDL
MODEL 3
REMARK VINA RESULT: -3.739241572      0.069      1.586
REMARK  0 active torsions:
REMARK  status: ('A' for Active; 'I' for Inactive)
ROOT
HETATM    1  C1  UNL     1     -34.107   6.368   5.414  1.00  0.00     0.009 C 
HETATM    2  C2  UNL     1     -34.176   5.735   4.054  1.00  0.00    -0.013 C 
HETATM    3  C3  UNL     1     -34.028   4.424   4.768  1.00  0.00     0.009 C 
HETATM    4  C4  UNL     1     -35.016   5.199   5.617  1.00  0.00    -0.013 C 
HETATM    5  C5  UNL     1     -35.656   5.583   4.315  1.00  0.00     0.009 C 
ENDROOT
TORSDOF 0
ENDMDL
MODEL 4
REMARK VINA RESULT: -3.736425128      0.062      1.750
REMARK  0 active torsions:
REMARK  status: ('A' for Active; 'I' for Inactive)
ROOT
HETATM    1  C1  UNL     1     -34.104   6.376   5.394  1.00  0.00     0.009 C 
HETATM    2  C2  UNL     1     -35.012   5.200   5.607  1.00  0.00    -0.013 C 
HETATM    3  C3  UNL     1     -35.656   5.591   4.310  1.00  0.00     0.009 C 
HETATM    4  C4  UNL     1     -34.171   5.736   4.045  1.00  0.00    -0.013 C 
HETATM    5  C5  UNL     1     -34.034   4.423   4.759  1.00  0.00     0.009 C 
ENDROOT
TORSDOF 0
ENDMDL
MODEL 5
REMARK VINA RESULT: -3.729402180      0.051      1.748
REMARK  0 active torsions:
REMARK  status: ('A' for Active; 'I' for Inactive)
ROOT
HETATM    1  C1  UNL     1     -35.656   5.590   4.274  1.00  0.00     0.009 C 
HETATM    2  C2  UNL     1     -35.041   5.208   5.590  1.00  0.00    -0.013 C 
HETATM    3  C3  UNL     1     -34.058   4.412   4.784  1.00  0.00     0.009 C 
HETATM    4  C4  UNL     1     -34.187   5.718   4.026  1.00  0.00    -0.013 C 
HETATM    5  C5  UNL     1     -34.105   6.374   5.373  1.00  0.00     0.009 C 
ENDROOT
TORSDOF 0
ENDMDL
