MODEL 1
REMARK VINA RESULT: -5.295073859      0.000      0.000
REMARK  1 active torsions:
REMARK  status: ('A' for Active; 'I' for Inactive)
REMARK    1  A    between atoms: C2_2  and  C3_3 
ROOT
HETATM    1  C3  UNL     1     -34.813   5.502   4.463  1.00  0.00     0.007 C 
HETATM    2  C4  UNL     1     -33.849   6.684   4.634  1.00  0.00     0.008 C 
HETATM    3  C5  UNL     1     -34.358   6.750   6.077  1.00  0.00     0.001 C 
HETATM    4  C6  UNL     1     -34.624   5.258   5.951  1.00  0.00     0.008 C 
ENDROOT
BRANCH   1   5
HETATM    5  C2  UNL     1     -34.302   4.445   3.581  1.00  0.00    -0.032 C 
HETATM    6  C1  UNL     1     -33.431   4.756   2.645  1.00  0.00     0.007 C 
ENDBRANCH   1   5
TORSDOF 1
ENDMDL
MODEL 2
REMARK VINA RESULT: -5.036868561      1.215      1.640
REMARK  1 active torsions:
REMARK  status: ('A' for Active; 'I' for Inactive)
REMARK    1  A    between atoms: C2_2  and  C3_3 
ROOT
HETATM    1  C3  UNL     1     -34.344   6.122   4.084  1.00  0.00     0.007 C 
HETATM    2  C4  UNL     1     -33.928   6.560   5.495  1.00  0.00     0.008 C 
HETATM    3  C5  UNL     1     -34.949   5.534   5.997  1.00  0.00     0.001 C 
HETATM    4  C6  UNL     1     -34.681   4.777   4.705  1.00  0.00     0.008 C 
ENDROOT
BRANCH   1   5
HETATM    5  C2  UNL     1     -33.238   6.112   3.118  1.00  0.00    -0.032 C 
HETATM    6  C1  UNL     1     -32.390   7.117   3.104  1.00  0.00     0.007 C 
ENDBRANCH   1   5
TORSDOF 1
ENDMDL
MODEL 3
REMARK VINA RESULT: -4.981089436      0.667      3.014
REMARK  1 active torsions:
REMARK  status: ('A' for Active; 'I' for Inactive)
REMARK    1  A    between atoms: C2_2  and  C3_3 
ROOT
HETATM    1  C3  UNL     1     -34.743   5.451   4.143  1.00  0.00     0.007 C 
HETATM    2  C4  UNL     1     -34.118   4.097   3.779  1.00  0.00     0.008 C 
HETATM    3  C5  UNL     1     -33.519   4.821   2.569  1.00  0.00     0.001 C 
HETATM    4  C6  UNL     1     -33.564   6.081   3.421  1.00  0.00     0.008 C 
ENDROOT
BRANCH   1   5
HETATM    5  C2  UNL     1     -34.807   5.703   5.588  1.00  0.00    -0.032 C 
HETATM    6  C1  UNL     1     -34.106   6.692   6.097  1.00  0.00     0.007 C 
ENDBRANCH   1   5
TORSDOF 1
ENDMDL
MODEL 4
REMARK VINA RESULT: -4.881031764      0.974      2.749
REMARK  1 active torsions:
REMARK  status: ('A' for Active; 'I' for Inactive)
REMARK    1  A    between atoms: C2_2  and  C3_3 
ROOT
HETATM    1  C3  UNL     1     -34.392   5.661   3.604  1.00  0.00     0.007 C 
HETATM    2  C4  UNL     1     -33.307   5.033   2.718  1.00  0.00     0.008 C 
HETATM    3  C5  UNL     1     -32.768   6.457   2.555  1.00  0.00     0.001 C 
HETATM    4  C6  UNL     1     -33.370   6.739   3.924  1.00  0.00     0.008 C 
ENDROOT
BRANCH   1   5
HETATM    5  C2  UNL     1     -34.793   4.816   4.736  1.00  0.00    -0.032 C 
HETATM    6  C1  UNL     1     -34.794   5.327   5.948  1.00  0.00     0.007 C 
ENDBRANCH   1   5
TORSDOF 1
ENDMDL
MODEL 5
REMARK VINA RESULT: -4.720051319      1.221      2.999
REMARK  1 active torsions:
REMARK  status: ('A' for Active; 'I' for Inactive)
REMARK    1  A    between atoms: C2_2  and  C3_3 
ROOT
HETATM    1  C3  UNL     1     -33.930   6.899   4.320  1.00  0.00     0.007 C 
HETATM    2  C4  UNL     1     -33.629   5.737   3.363  1.00  0.00     0.008 C 
HETATM    3  C5  UNL     1     -32.656   6.699   2.674  1.00  0.00     0.001 C 
HETATM    4  C6  UNL     1     -32.517   7.377   4.029  1.00  0.00     0.008 C 
ENDROOT
BRANCH   1   5
HETATM    5  C2  UNL     1     -34.180   6.475   5.704  1.00  0.00    -0.032 C 
HETATM    6  C1  UNL     1     -34.788   5.330   5.923  1.00  0.00     0.007 C 
ENDBRANCH   1   5
TORSDOF 1
ENDMDL
