MODEL 1
REMARK VINA RESULT: -3.880673677      0.000      0.000
REMARK  1 active torsions:
REMARK  status: ('A' for Active; 'I' for Inactive)
REMARK    1  A    between atoms: N1_2  and  N2_4 
ROOT
HETATM    1  N2  UNL     1      87.166 -10.693  46.239  1.00  0.00    -0.271 N 
ATOM      2  H2  UNL     1      86.343 -10.271  45.810  1.00  0.00     0.190 HD
HETATM    3  C2  UNL     1      88.293 -10.049  46.203  1.00  0.00     0.275 C 
HETATM    4  F1  UNL     1      89.382 -10.617  46.774  1.00  0.00    -0.171 F 
HETATM    5 CL1  UNL     1      88.450  -8.507  45.458  1.00  0.00    -0.031 Cl
ENDROOT
BRANCH   1   6
HETATM    6  N1  UNL     1      87.047 -11.936  46.841  1.00  0.00    -0.338 N 
HETATM    7  C1  UNL     1      85.835 -12.398  47.462  1.00  0.00     0.167 C 
ATOM      8  H1  UNL     1      87.859 -12.553  46.844  1.00  0.00     0.179 HD
ENDBRANCH   1   6
TORSDOF 1
ENDMDL
MODEL 2
REMARK VINA RESULT: -3.674433138      1.101      1.101
REMARK  1 active torsions:
REMARK  status: ('A' for Active; 'I' for Inactive)
REMARK    1  A    between atoms: N1_2  and  N2_4 
ROOT
HETATM    1  N2  UNL     1      87.673 -10.407  45.933  1.00  0.00    -0.271 N 
ATOM      2  H2  UNL     1      87.526 -10.608  44.944  1.00  0.00     0.190 HD
HETATM    3  C2  UNL     1      88.120  -9.238  46.276  1.00  0.00     0.275 C 
HETATM    4  F1  UNL     1      88.315  -8.980  47.593  1.00  0.00    -0.171 F 
HETATM    5 CL1  UNL     1      88.473  -8.010  45.125  1.00  0.00    -0.031 Cl
ENDROOT
BRANCH   1   6
HETATM    6  N1  UNL     1      87.391 -11.392  46.867  1.00  0.00    -0.338 N 
HETATM    7  C1  UNL     1      86.120 -11.508  47.531  1.00  0.00     0.167 C 
ATOM      8  H1  UNL     1      88.120 -12.067  47.094  1.00  0.00     0.179 HD
ENDBRANCH   1   6
TORSDOF 1
ENDMDL
MODEL 3
REMARK VINA RESULT: -3.659877439      1.550      1.550
REMARK  1 active torsions:
REMARK  status: ('A' for Active; 'I' for Inactive)
REMARK    1  A    between atoms: N1_2  and  N2_4 
ROOT
HETATM    1  N2  UNL     1      87.485 -10.955  46.802  1.00  0.00    -0.271 N 
ATOM      2  H2  UNL     1      88.227 -11.513  46.380  1.00  0.00     0.190 HD
HETATM    3  C2  UNL     1      87.429  -9.684  46.543  1.00  0.00     0.275 C 
HETATM    4  F1  UNL     1      86.440  -8.950  47.109  1.00  0.00    -0.171 F 
HETATM    5 CL1  UNL     1      88.563  -8.903  45.512  1.00  0.00    -0.031 Cl
ENDROOT
BRANCH   1   6
HETATM    6  N1  UNL     1      86.567 -11.578  47.634  1.00  0.00    -0.338 N 
HETATM    7  C1  UNL     1      85.946 -12.836  47.321  1.00  0.00     0.167 C 
ATOM      8  H1  UNL     1      86.321 -11.121  48.512  1.00  0.00     0.179 HD
ENDBRANCH   1   6
TORSDOF 1
ENDMDL
MODEL 4
REMARK VINA RESULT: -3.654319643      2.356      2.374
REMARK  1 active torsions:
REMARK  status: ('A' for Active; 'I' for Inactive)
REMARK    1  A    between atoms: N1_2  and  N2_4 
ROOT
HETATM    1  N2  UNL     1      86.387 -10.960  45.938  1.00  0.00    -0.271 N 
ATOM      2  H2  UNL     1      86.878 -10.772  45.064  1.00  0.00     0.190 HD
HETATM    3  C2  UNL     1      87.059 -10.950  47.049  1.00  0.00     0.275 C 
HETATM    4  F1  UNL     1      86.400 -11.202  48.206  1.00  0.00    -0.171 F 
HETATM    5 CL1  UNL     1      88.747 -10.631  47.104  1.00  0.00    -0.031 Cl
ENDROOT
BRANCH   1   6
HETATM    6  N1  UNL     1      85.026 -11.218  45.902  1.00  0.00    -0.338 N 
HETATM    7  C1  UNL     1      84.471 -12.464  45.449  1.00  0.00     0.167 C 
ATOM      8  H1  UNL     1      84.386 -10.487  46.213  1.00  0.00     0.179 HD
ENDBRANCH   1   6
TORSDOF 1
ENDMDL
MODEL 5
REMARK VINA RESULT: -3.653729672      2.854      3.549
REMARK  1 active torsions:
REMARK  status: ('A' for Active; 'I' for Inactive)
REMARK    1  A    between atoms: N1_2  and  N2_4 
ROOT
HETATM    1  N2  UNL     1      87.862 -11.165  46.880  1.00  0.00    -0.271 N 
ATOM      2  H2  UNL     1      88.309 -11.984  46.467  1.00  0.00     0.190 HD
HETATM    3  C2  UNL     1      86.710 -11.306  47.462  1.00  0.00     0.275 C 
HETATM    4  F1  UNL     1      86.122 -10.213  48.007  1.00  0.00    -0.171 F 
HETATM    5 CL1  UNL     1      85.908 -12.823  47.565  1.00  0.00    -0.031 Cl
ENDROOT
BRANCH   1   6
HETATM    6  N1  UNL     1      88.503  -9.938  46.801  1.00  0.00    -0.338 N 
HETATM    7  C1  UNL     1      88.374  -9.052  45.676  1.00  0.00     0.167 C 
ATOM      8  H1  UNL     1      89.095  -9.650  47.579  1.00  0.00     0.179 HD
ENDBRANCH   1   6
TORSDOF 1
ENDMDL
