MODEL 1
REMARK VINA RESULT: -6.909016436      0.000      0.000
REMARK  6 active torsions:
REMARK  status: ('A' for Active; 'I' for Inactive)
REMARK    1  A    between atoms: C6_9  and  N3_10 
REMARK    2  A    between atoms: N4_13  and  C9_14 
REMARK    3  A    between atoms: C9_14  and  C10_15 
REMARK    4  A    between atoms: N5_19  and  C14_20 
REMARK    5  A    between atoms: C14_20  and  C15_21 
REMARK    6  A    between atoms: C15_21  and  O1_22 
ROOT
HETATM    1  N1  UNL     1       8.966  50.942  83.362  1.00  0.00    -0.191 NA
HETATM    2  C1  UNL     1       9.709  51.393  84.123  1.00  0.00     0.099 C 
HETATM    3  C2  UNL     1      10.649  51.964  85.068  1.00  0.00     0.045 A 
HETATM    4  C3  UNL     1      11.831  52.503  84.592  1.00  0.00     0.025 A 
HETATM    5  C4  UNL     1      12.722  53.045  85.492  1.00  0.00     0.032 A 
HETATM    6  C5  UNL     1      12.441  53.049  86.844  1.00  0.00     0.044 A 
HETATM    7  N2  UNL     1      13.139  53.513  87.913  1.00  0.00    -0.342 N 
ATOM      8  H2  UNL     1      14.052  53.963  87.850  1.00  0.00     0.167 HD
HETATM    9  C6  UNL     1      12.481  53.307  89.055  1.00  0.00     0.104 A 
HETATM   10  C20 UNL     1      11.296  52.678  88.709  1.00  0.00     0.062 A 
HETATM   11  C21 UNL     1      11.269  52.518  87.342  1.00  0.00    -0.004 A 
HETATM   12  C22 UNL     1      10.387  51.979  86.428  1.00  0.00     0.036 A 
ENDROOT
BRANCH   9  13
HETATM   13  N3  UNL     1      12.868  53.649  90.403  1.00  0.00    -0.364 N 
HETATM   14  C7  UNL     1      13.526  54.913  90.646  1.00  0.00     0.154 C 
HETATM   15  C8  UNL     1      14.701  54.656  91.528  1.00  0.00     0.292 C 
HETATM   16  N4  UNL     1      14.242  54.102  92.766  1.00  0.00     0.095 N 
HETATM   17  C18 UNL     1      13.548  52.863  92.650  1.00  0.00     0.292 C 
HETATM   18  C19 UNL     1      12.612  52.767  91.488  1.00  0.00     0.154 C 
BRANCH  16  19
HETATM   19  C9  UNL     1      13.587  55.059  93.621  1.00  0.00     0.300 C 
BRANCH  19  20
HETATM   20  C10 UNL     1      13.312  54.582  94.984  1.00  0.00     0.006 C 
HETATM   21  C11 UNL     1      12.410  55.149  95.781  1.00  0.00    -0.079 C 
HETATM   22  C12 UNL     1      12.158  54.629  97.170  1.00  0.00     0.064 C 
HETATM   23  C17 UNL     1      11.586  56.326  95.393  1.00  0.00     0.064 C 
HETATM   24  C13 UNL     1      10.715  54.807  97.518  1.00  0.00     0.277 C 
HETATM   25  N5  UNL     1      10.285  56.170  97.445  1.00  0.00     0.091 N 
HETATM   26  C16 UNL     1      11.145  57.023  96.688  1.00  0.00     0.277 C 
BRANCH  25  27
HETATM   27  C14 UNL     1       9.955  56.743  98.712  1.00  0.00     0.298 C 
BRANCH  27  28
HETATM   28  C15 UNL     1      10.423  55.945  99.890  1.00  0.00     0.194 C 
BRANCH  28  29
HETATM   29  O1  UNL     1      11.299  56.736 100.640  1.00  0.00    -0.399 OA
ATOM     30  H1  UNL     1      11.779  56.172 101.235  1.00  0.00     0.209 HD
ENDBRANCH  28  29
ENDBRANCH  27  28
ENDBRANCH  25  27
ENDBRANCH  19  20
ENDBRANCH  16  19
ENDBRANCH   9  13
TORSDOF 6
ENDMDL
MODEL 2
REMARK VINA RESULT: -6.867311238      0.893      1.251
REMARK  6 active torsions:
REMARK  status: ('A' for Active; 'I' for Inactive)
REMARK    1  A    between atoms: C6_9  and  N3_10 
REMARK    2  A    between atoms: N4_13  and  C9_14 
REMARK    3  A    between atoms: C9_14  and  C10_15 
REMARK    4  A    between atoms: N5_19  and  C14_20 
REMARK    5  A    between atoms: C14_20  and  C15_21 
REMARK    6  A    between atoms: C15_21  and  O1_22 
ROOT
HETATM    1  N1  UNL     1      11.418  51.562  82.315  1.00  0.00    -0.191 NA
HETATM    2  C1  UNL     1      11.278  51.893  83.413  1.00  0.00     0.099 C 
HETATM    3  C2  UNL     1      11.088  52.307  84.789  1.00  0.00     0.045 A 
HETATM    4  C3  UNL     1       9.808  52.583  85.235  1.00  0.00     0.025 A 
HETATM    5  C4  UNL     1       9.630  52.976  86.543  1.00  0.00     0.032 A 
HETATM    6  C5  UNL     1      10.710  53.094  87.394  1.00  0.00     0.044 A 
HETATM    7  N2  UNL     1      10.800  53.455  88.700  1.00  0.00    -0.342 N 
ATOM      8  H2  UNL     1      10.001  53.712  89.280  1.00  0.00     0.167 HD
HETATM    9  C6  UNL     1      12.063  53.432  89.131  1.00  0.00     0.104 A 
HETATM   10  C20 UNL     1      12.831  53.035  88.049  1.00  0.00     0.062 A 
HETATM   11  C21 UNL     1      11.997  52.825  86.973  1.00  0.00    -0.004 A 
HETATM   12  C22 UNL     1      12.158  52.432  85.661  1.00  0.00     0.036 A 
ENDROOT
BRANCH   9  13
HETATM   13  N3  UNL     1      12.583  53.741  90.441  1.00  0.00    -0.364 N 
HETATM   14  C7  UNL     1      13.327  54.965  90.631  1.00  0.00     0.154 C 
HETATM   15  C8  UNL     1      14.558  54.637  91.408  1.00  0.00     0.292 C 
HETATM   16  N4  UNL     1      14.176  54.099  92.679  1.00  0.00     0.095 N 
HETATM   17  C18 UNL     1      13.409  52.900  92.619  1.00  0.00     0.292 C 
HETATM   18  C19 UNL     1      12.372  52.865  91.541  1.00  0.00     0.154 C 
BRANCH  16  19
HETATM   19  C9  UNL     1      13.651  55.083  93.591  1.00  0.00     0.300 C 
BRANCH  19  20
HETATM   20  C10 UNL     1      13.353  54.579  94.939  1.00  0.00     0.006 C 
HETATM   21  C11 UNL     1      12.455  55.145  95.741  1.00  0.00    -0.079 C 
HETATM   22  C12 UNL     1      12.179  54.596  97.115  1.00  0.00     0.064 C 
HETATM   23  C17 UNL     1      11.658  56.347  95.375  1.00  0.00     0.064 C 
HETATM   24  C13 UNL     1      10.737  54.794  97.454  1.00  0.00     0.277 C 
HETATM   25  N5  UNL     1      10.335  56.167  97.410  1.00  0.00     0.091 N 
HETATM   26  C16 UNL     1      11.218  57.021  96.682  1.00  0.00     0.277 C 
BRANCH  25  27
HETATM   27  C14 UNL     1      10.003  56.716  98.688  1.00  0.00     0.298 C 
BRANCH  27  28
HETATM   28  C15 UNL     1      10.490  55.906  99.850  1.00  0.00     0.194 C 
BRANCH  28  29
HETATM   29  O1  UNL     1      11.312  56.717 100.641  1.00  0.00    -0.399 OA
ATOM     30  H1  UNL     1      12.048  56.198 100.940  1.00  0.00     0.209 HD
ENDBRANCH  28  29
ENDBRANCH  27  28
ENDBRANCH  25  27
ENDBRANCH  19  20
ENDBRANCH  16  19
ENDBRANCH   9  13
TORSDOF 6
ENDMDL
MODEL 3
REMARK VINA RESULT: -6.824226199      4.700     11.637
REMARK  6 active torsions:
REMARK  status: ('A' for Active; 'I' for Inactive)
REMARK    1  A    between atoms: C6_9  and  N3_10 
REMARK    2  A    between atoms: N4_13  and  C9_14 
REMARK    3  A    between atoms: C9_14  and  C10_15 
REMARK    4  A    between atoms: N5_19  and  C14_20 
REMARK    5  A    between atoms: C14_20  and  C15_21 
REMARK    6  A    between atoms: C15_21  and  O1_22 
ROOT
HETATM    1  N1  UNL     1      13.614  54.640  95.389  1.00  0.00    -0.191 NA
HETATM    2  C1  UNL     1      13.506  54.514  94.245  1.00  0.00     0.099 C 
HETATM    3  C2  UNL     1      13.383  54.361  92.809  1.00  0.00     0.045 A 
HETATM    4  C3  UNL     1      14.346  54.924  91.991  1.00  0.00     0.025 A 
HETATM    5  C4  UNL     1      14.227  54.777  90.626  1.00  0.00     0.032 A 
HETATM    6  C5  UNL     1      13.164  54.082  90.085  1.00  0.00     0.044 A 
HETATM    7  N2  UNL     1      12.826  53.801  88.800  1.00  0.00    -0.342 N 
ATOM      8  H2  UNL     1      13.366  54.097  87.987  1.00  0.00     0.167 HD
HETATM    9  C6  UNL     1      11.698  53.089  88.733  1.00  0.00     0.104 A 
HETATM   10  C20 UNL     1      11.286  52.899  90.042  1.00  0.00     0.062 A 
HETATM   11  C21 UNL     1      12.191  53.511  90.880  1.00  0.00    -0.004 A 
HETATM   12  C22 UNL     1      12.325  53.667  92.244  1.00  0.00     0.036 A 
ENDROOT
BRANCH   9  13
HETATM   13  N3  UNL     1      11.006  52.589  87.570  1.00  0.00    -0.364 N 
HETATM   14  C7  UNL     1      11.673  52.616  86.288  1.00  0.00     0.154 C 
HETATM   15  C8  UNL     1      10.716  53.165  85.285  1.00  0.00     0.292 C 
HETATM   16  N4  UNL     1       9.571  52.308  85.217  1.00  0.00     0.095 N 
HETATM   17  C18 UNL     1       8.844  52.178  86.436  1.00  0.00     0.292 C 
HETATM   18  C19 UNL     1       9.685  52.071  87.667  1.00  0.00     0.154 C 
BRANCH  16  19
HETATM   19  C9  UNL     1       9.823  51.055  84.552  1.00  0.00     0.300 C 
BRANCH  19  20
HETATM   20  C10 UNL     1      10.183  51.171  83.131  1.00  0.00     0.006 C 
HETATM   21  C11 UNL     1      11.391  50.869  82.664  1.00  0.00    -0.079 C 
HETATM   22  C12 UNL     1      11.719  51.001  81.202  1.00  0.00     0.064 C 
HETATM   23  C17 UNL     1      12.512  50.387  83.516  1.00  0.00     0.064 C 
HETATM   24  C13 UNL     1      12.688  49.933  80.806  1.00  0.00     0.277 C 
HETATM   25  N5  UNL     1      13.902  49.973  81.562  1.00  0.00     0.091 N 
HETATM   26  C16 UNL     1      13.820  50.713  82.781  1.00  0.00     0.277 C 
BRANCH  25  27
HETATM   27  C14 UNL     1      15.051  50.344  80.796  1.00  0.00     0.298 C 
BRANCH  27  28
HETATM   28  C15 UNL     1      15.457  51.777  80.952  1.00  0.00     0.194 C 
BRANCH  28  29
HETATM   29  O1  UNL     1      16.802  51.816  81.335  1.00  0.00    -0.399 OA
ATOM     30  H1  UNL     1      17.009  52.700  81.616  1.00  0.00     0.209 HD
ENDBRANCH  28  29
ENDBRANCH  27  28
ENDBRANCH  25  27
ENDBRANCH  19  20
ENDBRANCH  16  19
ENDBRANCH   9  13
TORSDOF 6
ENDMDL
MODEL 4
REMARK VINA RESULT: -6.676363451      1.324      1.900
REMARK  6 active torsions:
REMARK  status: ('A' for Active; 'I' for Inactive)
REMARK    1  A    between atoms: C6_9  and  N3_10 
REMARK    2  A    between atoms: N4_13  and  C9_14 
REMARK    3  A    between atoms: C9_14  and  C10_15 
REMARK    4  A    between atoms: N5_19  and  C14_20 
REMARK    5  A    between atoms: C14_20  and  C15_21 
REMARK    6  A    between atoms: C15_21  and  O1_22 
ROOT
HETATM    1  N1  UNL     1      11.617  51.248  83.391  1.00  0.00    -0.191 NA
HETATM    2  C1  UNL     1      12.006  51.778  84.342  1.00  0.00     0.099 C 
HETATM    3  C2  UNL     1      12.501  52.451  85.527  1.00  0.00     0.045 A 
HETATM    4  C3  UNL     1      13.549  53.345  85.399  1.00  0.00     0.025 A 
HETATM    5  C4  UNL     1      14.018  53.983  86.527  1.00  0.00     0.032 A 
HETATM    6  C5  UNL     1      13.453  53.734  87.761  1.00  0.00     0.044 A 
HETATM    7  N2  UNL     1      13.727  54.223  88.998  1.00  0.00    -0.342 N 
ATOM      8  H2  UNL     1      14.458  54.906  89.196  1.00  0.00     0.167 HD
HETATM    9  C6  UNL     1      12.919  53.699  89.923  1.00  0.00     0.104 A 
HETATM   10  C20 UNL     1      12.079  52.827  89.251  1.00  0.00     0.062 A 
HETATM   11  C21 UNL     1      12.407  52.846  87.914  1.00  0.00    -0.004 A 
HETATM   12  C22 UNL     1      11.949  52.216  86.775  1.00  0.00     0.036 A 
ENDROOT
BRANCH   9  13
HETATM   13  N3  UNL     1      12.878  53.953  91.343  1.00  0.00    -0.364 N 
HETATM   14  C7  UNL     1      14.117  53.996  92.086  1.00  0.00     0.154 C 
HETATM   15  C8  UNL     1      13.938  53.180  93.322  1.00  0.00     0.292 C 
HETATM   16  N4  UNL     1      12.883  53.748  94.106  1.00  0.00     0.095 N 
HETATM   17  C18 UNL     1      11.611  53.787  93.464  1.00  0.00     0.292 C 
HETATM   18  C19 UNL     1      11.643  54.162  92.017  1.00  0.00     0.154 C 
BRANCH  16  19
HETATM   19  C9  UNL     1      13.245  54.979  94.760  1.00  0.00     0.300 C 
BRANCH  19  20
HETATM   20  C10 UNL     1      12.123  55.895  95.017  1.00  0.00     0.006 C 
HETATM   21  C11 UNL     1      11.445  55.904  96.161  1.00  0.00    -0.079 C 
HETATM   22  C12 UNL     1      10.303  56.859  96.385  1.00  0.00     0.064 C 
HETATM   23  C17 UNL     1      11.734  54.995  97.303  1.00  0.00     0.064 C 
HETATM   24  C13 UNL     1      10.261  57.263  97.823  1.00  0.00     0.277 C 
HETATM   25  N5  UNL     1      10.120  56.151  98.713  1.00  0.00     0.091 N 
HETATM   26  C16 UNL     1      10.450  54.886  98.138  1.00  0.00     0.277 C 
BRANCH  25  27
HETATM   27  C14 UNL     1       8.866  56.109  99.396  1.00  0.00     0.298 C 
BRANCH  27  28
HETATM   28  C15 UNL     1       8.942  55.569 100.791  1.00  0.00     0.194 C 
BRANCH  28  29
HETATM   29  O1  UNL     1      10.048  56.142 101.427  1.00  0.00    -0.399 OA
ATOM     30  H1  UNL     1      10.359  55.538 102.091  1.00  0.00     0.209 HD
ENDBRANCH  28  29
ENDBRANCH  27  28
ENDBRANCH  25  27
ENDBRANCH  19  20
ENDBRANCH  16  19
ENDBRANCH   9  13
TORSDOF 6
ENDMDL
MODEL 5
REMARK VINA RESULT: -6.591229057      4.358      6.815
REMARK  6 active torsions:
REMARK  status: ('A' for Active; 'I' for Inactive)
REMARK    1  A    between atoms: C6_9  and  N3_10 
REMARK    2  A    between atoms: N4_13  and  C9_14 
REMARK    3  A    between atoms: C9_14  and  C10_15 
REMARK    4  A    between atoms: N5_19  and  C14_20 
REMARK    5  A    between atoms: C14_20  and  C15_21 
REMARK    6  A    between atoms: C15_21  and  O1_22 
ROOT
HETATM    1  N1  UNL     1      16.228  50.460  79.534  1.00  0.00    -0.191 NA
HETATM    2  C1  UNL     1      15.731  50.800  80.521  1.00  0.00     0.099 C 
HETATM    3  C2  UNL     1      15.118  51.234  81.760  1.00  0.00     0.045 A 
HETATM    4  C3  UNL     1      15.839  52.049  82.614  1.00  0.00     0.025 A 
HETATM    5  C4  UNL     1      15.255  52.461  83.791  1.00  0.00     0.032 A 
HETATM    6  C5  UNL     1      13.972  52.066  84.114  1.00  0.00     0.044 A 
HETATM    7  N2  UNL     1      13.187  52.329  85.191  1.00  0.00    -0.342 N 
ATOM      8  H2  UNL     1      13.471  52.911  85.979  1.00  0.00     0.167 HD
HETATM    9  C6  UNL     1      11.997  51.733  85.088  1.00  0.00     0.104 A 
HETATM   10  C20 UNL     1      12.012  51.048  83.884  1.00  0.00     0.062 A 
HETATM   11  C21 UNL     1      13.232  51.253  83.280  1.00  0.00    -0.004 A 
HETATM   12  C22 UNL     1      13.832  50.850  82.105  1.00  0.00     0.036 A 
ENDROOT
BRANCH   9  13
HETATM   13  N3  UNL     1      10.884  51.761  86.006  1.00  0.00    -0.364 N 
HETATM   14  C7  UNL     1      10.446  50.527  86.619  1.00  0.00     0.154 C 
HETATM   15  C8  UNL     1       8.959  50.466  86.513  1.00  0.00     0.292 C 
HETATM   16  N4  UNL     1       8.396  51.581  87.212  1.00  0.00     0.095 N 
HETATM   17  C18 UNL     1       8.782  52.860  86.716  1.00  0.00     0.292 C 
HETATM   18  C19 UNL     1      10.218  52.979  86.317  1.00  0.00     0.154 C 
BRANCH  16  19
HETATM   19  C9  UNL     1       8.475  51.465  88.646  1.00  0.00     0.300 C 
BRANCH  19  20
HETATM   20  C10 UNL     1       8.870  52.697  89.345  1.00  0.00     0.006 C 
HETATM   21  C11 UNL     1      10.064  52.856  89.911  1.00  0.00    -0.079 C 
HETATM   22  C12 UNL     1      10.430  54.134  90.616  1.00  0.00     0.064 C 
HETATM   23  C17 UNL     1      11.128  51.815  89.907  1.00  0.00     0.064 C 
HETATM   24  C13 UNL     1      11.887  54.410  90.430  1.00  0.00     0.277 C 
HETATM   25  N5  UNL     1      12.723  53.354  90.914  1.00  0.00     0.091 N 
HETATM   26  C16 UNL     1      12.055  52.104  91.096  1.00  0.00     0.277 C 
BRANCH  25  27
HETATM   27  C14 UNL     1      13.501  53.708  92.060  1.00  0.00     0.298 C 
BRANCH  27  28
HETATM   28  C15 UNL     1      14.499  54.797  91.813  1.00  0.00     0.194 C 
BRANCH  28  29
HETATM   29  O1  UNL     1      15.305  54.423  90.733  1.00  0.00    -0.399 OA
ATOM     30  H1  UNL     1      15.931  55.118  90.570  1.00  0.00     0.209 HD
ENDBRANCH  28  29
ENDBRANCH  27  28
ENDBRANCH  25  27
ENDBRANCH  19  20
ENDBRANCH  16  19
ENDBRANCH   9  13
TORSDOF 6
ENDMDL
