MODEL 1
REMARK VINA RESULT: -6.324871976      0.000      0.000
REMARK  6 active torsions:
REMARK  status: ('A' for Active; 'I' for Inactive)
REMARK    1  A    between atoms: C2_2  and  C3_3 
REMARK    2  A    between atoms: C3_3  and  C4_4 
REMARK    3  A    between atoms: C4_4  and  C6_6 
REMARK       I    between atoms: C6_6  and  N1_8 
REMARK    4  A    between atoms: N1_8  and  C7_10 
REMARK    5  A    between atoms: C12_19  and  S1_20 
REMARK    6  A    between atoms: S1_20  and  C13_23 
ROOT
HETATM    1  C7  UNL     1      12.065  51.737  85.343  1.00  0.00     0.686 A 
HETATM    2  N2  UNL     1      11.459  52.773  85.941  1.00  0.00    -0.176 N 
ATOM      3  H2  UNL     1      11.304  53.648  85.440  1.00  0.00     0.186 HD
HETATM    4  C8  UNL     1      11.051  52.630  87.246  1.00  0.00     0.126 A 
HETATM    5  C9  UNL     1      11.264  51.452  87.912  1.00  0.00     0.028 A 
HETATM    6  C10 UNL     1      11.875  50.412  87.306  1.00  0.00     0.034 A 
HETATM    7  C11 UNL     1      12.091  49.127  87.973  1.00  0.00     0.069 C 
HETATM    8  N3  UNL     1      12.271  50.587  85.999  1.00  0.00    -0.195 N 
ATOM      9  H3  UNL     1      12.735  49.819  85.516  1.00  0.00     0.184 HD
HETATM   10  C12 UNL     1      10.790  51.394  89.354  1.00  0.00     0.156 C 
HETATM   11  C16 UNL     1       9.432  51.953  89.343  1.00  0.00    -0.010 C 
HETATM   12  C17 UNL     1       8.567  51.812  90.529  1.00  0.00     0.018 C 
HETATM   13  C18 UNL     1       8.685  51.254  88.184  1.00  0.00     0.018 C 
HETATM   14  C19 UNL     1       9.415  53.427  88.914  1.00  0.00     0.131 C 
HETATM   15  N4  UNL     1      10.396  53.690  87.902  1.00  0.00    -0.375 N 
ATOM     16  H4  UNL     1      10.623  54.654  87.656  1.00  0.00     0.161 HD
ENDROOT
BRANCH   1  17
HETATM   17  N1  UNL     1      12.433  51.914  84.119  1.00  0.00    -0.159 N 
HETATM   18  C6  UNL     1      13.582  51.325  83.557  1.00  0.00     0.239 C 
HETATM   19  O1  UNL     1      13.632  50.085  83.371  1.00  0.00    -0.272 OA
ATOM     20  H1  UNL     1      11.860  52.514  83.526  1.00  0.00     0.187 HD
BRANCH  18  21
HETATM   21  C4  UNL     1      14.712  52.243  83.205  1.00  0.00     0.078 C 
HETATM   22  C5  UNL     1      15.115  53.015  84.438  1.00  0.00     0.020 C 
BRANCH  21  23
HETATM   23  C3  UNL     1      15.878  51.332  82.811  1.00  0.00     0.040 C 
BRANCH  23  24
HETATM   24  C2  UNL     1      16.448  51.885  81.571  1.00  0.00    -0.036 C 
HETATM   25  C1  UNL     1      15.732  51.892  80.463  1.00  0.00     0.007 C 
ENDBRANCH  23  24
ENDBRANCH  21  23
ENDBRANCH  18  21
ENDBRANCH   1  17
BRANCH  10  26
HETATM   26  S1  UNL     1      12.041  52.087  90.321  1.00  0.00     0.157 S 
HETATM   27  O2  UNL     1      12.981  50.989  90.771  1.00  0.00    -0.227 OA
HETATM   28  O3  UNL     1      12.973  53.020  89.557  1.00  0.00    -0.227 OA
BRANCH  26  29
HETATM   29  C13 UNL     1      11.500  52.911  91.810  1.00  0.00     0.101 C 
HETATM   30  C14 UNL     1      11.422  51.838  92.946  1.00  0.00     0.026 C 
HETATM   31  C15 UNL     1      12.444  53.931  92.337  1.00  0.00     0.026 C 
ENDBRANCH  26  29
ENDBRANCH  10  26
TORSDOF 6
ENDMDL
MODEL 2
REMARK VINA RESULT: -6.264690588      2.535      6.973
REMARK  6 active torsions:
REMARK  status: ('A' for Active; 'I' for Inactive)
REMARK    1  A    between atoms: C2_2  and  C3_3 
REMARK    2  A    between atoms: C3_3  and  C4_4 
REMARK    3  A    between atoms: C4_4  and  C6_6 
REMARK       I    between atoms: C6_6  and  N1_8 
REMARK    4  A    between atoms: N1_8  and  C7_10 
REMARK    5  A    between atoms: C12_19  and  S1_20 
REMARK    6  A    between atoms: S1_20  and  C13_23 
ROOT
HETATM    1  C7  UNL     1      11.320  52.329  88.259  1.00  0.00     0.686 A 
HETATM    2  N2  UNL     1      10.509  51.505  87.580  1.00  0.00    -0.176 N 
ATOM      3  H2  UNL     1       9.760  51.001  88.055  1.00  0.00     0.186 HD
HETATM    4  C8  UNL     1      10.711  51.353  86.229  1.00  0.00     0.126 A 
HETATM    5  C9  UNL     1      11.721  52.032  85.601  1.00  0.00     0.028 A 
HETATM    6  C10 UNL     1      12.534  52.861  86.288  1.00  0.00     0.034 A 
HETATM    7  C11 UNL     1      13.603  53.629  85.646  1.00  0.00     0.069 C 
HETATM    8  N3  UNL     1      12.305  52.991  87.639  1.00  0.00    -0.195 N 
ATOM      9  H3  UNL     1      12.904  53.611  88.185  1.00  0.00     0.184 HD
HETATM   10  C12 UNL     1      11.874  51.789  84.108  1.00  0.00     0.156 C 
HETATM   11  C16 UNL     1      10.517  51.886  83.555  1.00  0.00    -0.010 C 
HETATM   12  C17 UNL     1      10.321  51.963  82.095  1.00  0.00     0.018 C 
HETATM   13  C18 UNL     1       9.903  53.180  84.137  1.00  0.00     0.018 C 
HETATM   14  C19 UNL     1       9.587  50.796  84.103  1.00  0.00     0.131 C 
HETATM   15  N4  UNL     1       9.870  50.508  85.479  1.00  0.00    -0.375 N 
ATOM     16  H4  UNL     1       9.460  49.685  85.919  1.00  0.00     0.161 HD
ENDROOT
BRANCH   1  17
HETATM   17  N1  UNL     1      11.096  52.442  89.525  1.00  0.00    -0.159 N 
HETATM   18  C6  UNL     1      10.951  53.677  90.184  1.00  0.00     0.239 C 
HETATM   19  O1  UNL     1       9.947  54.399  89.965  1.00  0.00    -0.272 OA
ATOM     20  H1  UNL     1      11.022  51.589  90.079  1.00  0.00     0.187 HD
BRANCH  18  21
HETATM   21  C4  UNL     1      12.037  54.071  91.138  1.00  0.00     0.078 C 
HETATM   22  C5  UNL     1      12.775  52.829  91.576  1.00  0.00     0.020 C 
BRANCH  21  23
HETATM   23  C3  UNL     1      13.004  54.940  90.329  1.00  0.00     0.040 C 
BRANCH  23  24
HETATM   24  C2  UNL     1      14.301  54.892  91.026  1.00  0.00    -0.036 C 
HETATM   25  C1  UNL     1      15.401  55.257  90.397  1.00  0.00     0.007 C 
ENDBRANCH  23  24
ENDBRANCH  21  23
ENDBRANCH  18  21
ENDBRANCH   1  17
BRANCH  10  26
HETATM   26  S1  UNL     1      12.819  50.356  83.928  1.00  0.00     0.157 S 
HETATM   27  O2  UNL     1      13.265  49.885  85.296  1.00  0.00    -0.227 OA
HETATM   28  O3  UNL     1      12.035  49.154  83.412  1.00  0.00    -0.227 OA
BRANCH  26  29
HETATM   29  C13 UNL     1      14.307  50.529  82.958  1.00  0.00     0.101 C 
HETATM   30  C14 UNL     1      13.887  50.635  81.454  1.00  0.00     0.026 C 
HETATM   31  C15 UNL     1      15.075  51.777  83.210  1.00  0.00     0.026 C 
ENDBRANCH  26  29
ENDBRANCH  10  26
TORSDOF 6
ENDMDL
MODEL 3
REMARK VINA RESULT: -6.191595561      1.555      2.231
REMARK  6 active torsions:
REMARK  status: ('A' for Active; 'I' for Inactive)
REMARK    1  A    between atoms: C2_2  and  C3_3 
REMARK    2  A    between atoms: C3_3  and  C4_4 
REMARK    3  A    between atoms: C4_4  and  C6_6 
REMARK       I    between atoms: C6_6  and  N1_8 
REMARK    4  A    between atoms: N1_8  and  C7_10 
REMARK    5  A    between atoms: C12_19  and  S1_20 
REMARK    6  A    between atoms: S1_20  and  C13_23 
ROOT
HETATM    1  C7  UNL     1      12.535  52.456  86.378  1.00  0.00     0.686 A 
HETATM    2  N2  UNL     1      12.925  53.322  87.325  1.00  0.00    -0.176 N 
ATOM      3  H2  UNL     1      13.581  54.072  87.108  1.00  0.00     0.186 HD
HETATM    4  C8  UNL     1      12.420  53.175  88.595  1.00  0.00     0.126 A 
HETATM    5  C9  UNL     1      11.541  52.164  88.877  1.00  0.00     0.028 A 
HETATM    6  C10 UNL     1      11.152  51.295  87.921  1.00  0.00     0.034 A 
HETATM    7  C11 UNL     1      10.189  50.221  88.176  1.00  0.00     0.069 C 
HETATM    8  N3  UNL     1      11.675  51.469  86.660  1.00  0.00    -0.195 N 
ATOM      9  H3  UNL     1      11.399  50.827  85.917  1.00  0.00     0.184 HD
HETATM   10  C12 UNL     1      11.048  52.075  90.312  1.00  0.00     0.156 C 
HETATM   11  C16 UNL     1      10.677  53.447  90.684  1.00  0.00    -0.010 C 
HETATM   12  C17 UNL     1       9.913  53.693  91.921  1.00  0.00     0.018 C 
HETATM   13  C18 UNL     1       9.805  53.989  89.528  1.00  0.00     0.018 C 
HETATM   14  C19 UNL     1      11.882  54.397  90.672  1.00  0.00     0.131 C 
HETATM   15  N4  UNL     1      12.793  54.075  89.612  1.00  0.00    -0.375 N 
ATOM     16  H4  UNL     1      13.720  54.501  89.595  1.00  0.00     0.161 HD
ENDROOT
BRANCH   1  17
HETATM   17  N1  UNL     1      13.034  52.628  85.200  1.00  0.00    -0.159 N 
HETATM   18  C6  UNL     1      12.812  51.750  84.123  1.00  0.00     0.239 C 
HETATM   19  O1  UNL     1      11.672  51.657  83.604  1.00  0.00    -0.272 OA
ATOM     20  H1  UNL     1      13.621  53.447  85.041  1.00  0.00     0.187 HD
BRANCH  18  21
HETATM   21  C4  UNL     1      13.985  50.950  83.646  1.00  0.00     0.078 C 
HETATM   22  C5  UNL     1      13.580  50.175  82.416  1.00  0.00     0.020 C 
BRANCH  21  23
HETATM   23  C3  UNL     1      15.046  51.976  83.236  1.00  0.00     0.040 C 
BRANCH  23  24
HETATM   24  C2  UNL     1      15.902  51.321  82.232  1.00  0.00    -0.036 C 
HETATM   25  C1  UNL     1      16.248  51.970  81.137  1.00  0.00     0.007 C 
ENDBRANCH  23  24
ENDBRANCH  21  23
ENDBRANCH  18  21
ENDBRANCH   1  17
BRANCH  10  26
HETATM   26  S1  UNL     1      12.239  51.193  91.197  1.00  0.00     0.157 S 
HETATM   27  O2  UNL     1      13.022  50.323  90.237  1.00  0.00    -0.227 OA
HETATM   28  O3  UNL     1      13.331  52.064  91.808  1.00  0.00    -0.227 OA
BRANCH  26  29
HETATM   29  C13 UNL     1      11.610  50.095  92.455  1.00  0.00     0.101 C 
HETATM   30  C14 UNL     1      11.705  50.839  93.829  1.00  0.00     0.026 C 
HETATM   31  C15 UNL     1      10.169  49.755  92.324  1.00  0.00     0.026 C 
ENDBRANCH  26  29
ENDBRANCH  10  26
TORSDOF 6
ENDMDL
MODEL 4
REMARK VINA RESULT: -6.162728187      2.641      7.154
REMARK  6 active torsions:
REMARK  status: ('A' for Active; 'I' for Inactive)
REMARK    1  A    between atoms: C2_2  and  C3_3 
REMARK    2  A    between atoms: C3_3  and  C4_4 
REMARK    3  A    between atoms: C4_4  and  C6_6 
REMARK       I    between atoms: C6_6  and  N1_8 
REMARK    4  A    between atoms: N1_8  and  C7_10 
REMARK    5  A    between atoms: C12_19  and  S1_20 
REMARK    6  A    between atoms: S1_20  and  C13_23 
ROOT
HETATM    1  C7  UNL     1      12.405  52.217  88.897  1.00  0.00     0.686 A 
HETATM    2  N2  UNL     1      11.541  51.375  88.312  1.00  0.00    -0.176 N 
ATOM      3  H2  UNL     1      10.990  50.722  88.869  1.00  0.00     0.186 HD
HETATM    4  C8  UNL     1      11.415  51.411  86.944  1.00  0.00     0.126 A 
HETATM    5  C9  UNL     1      12.161  52.290  86.204  1.00  0.00     0.028 A 
HETATM    6  C10 UNL     1      13.029  53.136  86.797  1.00  0.00     0.034 A 
HETATM    7  C11 UNL     1      13.819  54.111  86.043  1.00  0.00     0.069 C 
HETATM    8  N3  UNL     1      13.131  53.075  88.168  1.00  0.00    -0.195 N 
ATOM      9  H3  UNL     1      13.779  53.702  88.644  1.00  0.00     0.184 HD
HETATM   10  C12 UNL     1      11.962  52.246  84.698  1.00  0.00     0.156 C 
HETATM   11  C16 UNL     1      10.508  52.221  84.495  1.00  0.00    -0.010 C 
HETATM   12  C17 UNL     1       9.948  52.440  83.149  1.00  0.00     0.018 C 
HETATM   13  C18 UNL     1       9.927  53.343  85.387  1.00  0.00     0.018 C 
HETATM   14  C19 UNL     1       9.862  50.958  85.080  1.00  0.00     0.131 C 
HETATM   15  N4  UNL     1      10.507  50.553  86.295  1.00  0.00    -0.375 N 
ATOM     16  H4  UNL     1      10.306  49.635  86.693  1.00  0.00     0.161 HD
ENDROOT
BRANCH   1  17
HETATM   17  N1  UNL     1      12.493  52.150  90.183  1.00  0.00    -0.159 N 
HETATM   18  C6  UNL     1      11.608  52.805  91.060  1.00  0.00     0.239 C 
HETATM   19  O1  UNL     1      10.410  52.437  91.145  1.00  0.00    -0.272 OA
ATOM     20  H1  UNL     1      13.246  51.592  90.586  1.00  0.00     0.187 HD
BRANCH  18  21
HETATM   21  C4  UNL     1      12.165  53.938  91.866  1.00  0.00     0.078 C 
HETATM   22  C5  UNL     1      11.540  53.914  93.240  1.00  0.00     0.020 C 
BRANCH  21  23
HETATM   23  C3  UNL     1      13.660  53.644  92.017  1.00  0.00     0.040 C 
BRANCH  23  24
HETATM   24  C2  UNL     1      14.369  54.911  91.772  1.00  0.00    -0.036 C 
HETATM   25  C1  UNL     1      15.102  55.057  90.686  1.00  0.00     0.007 C 
ENDBRANCH  23  24
ENDBRANCH  21  23
ENDBRANCH  18  21
ENDBRANCH   1  17
BRANCH  10  26
HETATM   26  S1  UNL     1      12.976  50.985  84.095  1.00  0.00     0.157 S 
HETATM   27  O2  UNL     1      14.361  51.544  83.846  1.00  0.00    -0.227 OA
HETATM   28  O3  UNL     1      13.252  49.874  85.102  1.00  0.00    -0.227 OA
BRANCH  26  29
HETATM   29  C13 UNL     1      12.460  50.248  82.554  1.00  0.00     0.101 C 
HETATM   30  C14 UNL     1      13.671  50.315  81.564  1.00  0.00     0.026 C 
HETATM   31  C15 UNL     1      12.134  48.800  82.633  1.00  0.00     0.026 C 
ENDBRANCH  26  29
ENDBRANCH  10  26
TORSDOF 6
ENDMDL
MODEL 5
REMARK VINA RESULT: -6.160753877      1.378      1.709
REMARK  6 active torsions:
REMARK  status: ('A' for Active; 'I' for Inactive)
REMARK    1  A    between atoms: C2_2  and  C3_3 
REMARK    2  A    between atoms: C3_3  and  C4_4 
REMARK    3  A    between atoms: C4_4  and  C6_6 
REMARK       I    between atoms: C6_6  and  N1_8 
REMARK    4  A    between atoms: N1_8  and  C7_10 
REMARK    5  A    between atoms: C12_19  and  S1_20 
REMARK    6  A    between atoms: S1_20  and  C13_23 
ROOT
HETATM    1  C7  UNL     1      11.521  51.848  86.801  1.00  0.00     0.686 A 
HETATM    2  N2  UNL     1      11.111  52.999  87.355  1.00  0.00    -0.176 N 
ATOM      3  H2  UNL     1      10.877  53.804  86.775  1.00  0.00     0.186 HD
HETATM    4  C8  UNL     1      11.012  53.068  88.724  1.00  0.00     0.126 A 
HETATM    5  C9  UNL     1      11.330  51.982  89.496  1.00  0.00     0.028 A 
HETATM    6  C10 UNL     1      11.742  50.826  88.934  1.00  0.00     0.034 A 
HETATM    7  C11 UNL     1      12.058  49.634  89.723  1.00  0.00     0.069 C 
HETATM    8  N3  UNL     1      11.829  50.789  87.561  1.00  0.00    -0.195 N 
ATOM      9  H3  UNL     1      12.138  49.929  87.108  1.00  0.00     0.184 HD
HETATM   10  C12 UNL     1      11.202  52.159  91.000  1.00  0.00     0.156 C 
HETATM   11  C16 UNL     1       9.901  52.808  91.209  1.00  0.00    -0.010 C 
HETATM   12  C17 UNL     1       9.331  52.896  92.567  1.00  0.00     0.018 C 
HETATM   13  C18 UNL     1       8.878  52.010  90.367  1.00  0.00     0.018 C 
HETATM   14  C19 UNL     1       9.841  54.205  90.576  1.00  0.00     0.131 C 
HETATM   15  N4  UNL     1      10.570  54.254  89.342  1.00  0.00    -0.375 N 
ATOM     16  H4  UNL     1      10.769  55.154  88.908  1.00  0.00     0.161 HD
ENDROOT
BRANCH   1  17
HETATM   17  N1  UNL     1      11.600  51.826  85.513  1.00  0.00    -0.159 N 
HETATM   18  C6  UNL     1      12.649  51.208  84.807  1.00  0.00     0.239 C 
HETATM   19  O1  UNL     1      12.769  49.958  84.814  1.00  0.00    -0.272 OA
ATOM     20  H1  UNL     1      10.862  52.283  84.977  1.00  0.00     0.187 HD
BRANCH  18  21
HETATM   21  C4  UNL     1      13.592  52.106  84.066  1.00  0.00     0.078 C 
HETATM   22  C5  UNL     1      14.247  53.044  85.051  1.00  0.00     0.020 C 
BRANCH  21  23
HETATM   23  C3  UNL     1      14.673  51.188  83.490  1.00  0.00     0.040 C 
BRANCH  23  24
HETATM   24  C2  UNL     1      15.741  52.061  82.975  1.00  0.00    -0.036 C 
HETATM   25  C1  UNL     1      16.209  51.881  81.756  1.00  0.00     0.007 C 
ENDBRANCH  23  24
ENDBRANCH  21  23
ENDBRANCH  18  21
ENDBRANCH   1  17
BRANCH  10  26
HETATM   26  S1  UNL     1      12.669  52.888  91.545  1.00  0.00     0.157 S 
HETATM   27  O2  UNL     1      13.633  51.799  91.966  1.00  0.00    -0.227 OA
HETATM   28  O3  UNL     1      13.450  53.607  90.451  1.00  0.00    -0.227 OA
BRANCH  26  29
HETATM   29  C13 UNL     1      12.515  53.978  92.950  1.00  0.00     0.101 C 
HETATM   30  C14 UNL     1      12.630  53.105  94.245  1.00  0.00     0.026 C 
HETATM   31  C15 UNL     1      13.608  54.977  93.088  1.00  0.00     0.026 C 
ENDBRANCH  26  29
ENDBRANCH  10  26
TORSDOF 6
ENDMDL
