MODEL 1
REMARK VINA RESULT: -6.083425185      0.000      0.000
REMARK  8 active torsions:
REMARK  status: ('A' for Active; 'I' for Inactive)
REMARK    1  A    between atoms: O1_3  and  C3_4 
REMARK    2  A    between atoms: C3_4  and  C4_5 
REMARK    3  A    between atoms: C5_6  and  C6_7 
REMARK    4  A    between atoms: C6_7  and  C7_8 
REMARK    5  A    between atoms: C6_7  and  N3_22 
REMARK    6  A    between atoms: C7_8  and  N1_9 
REMARK    7  A    between atoms: N3_22  and  C16_25 
REMARK    8  A    between atoms: C16_25  and  C17_26 
ROOT
HETATM    1  C1  UNL     1      14.892  47.547  88.914  1.00  0.00     0.044 C 
HETATM    2  C2  UNL     1      14.572  48.176  89.904  1.00  0.00     0.043 C 
HETATM    3  O1  UNL     1      14.194  48.869  91.014  1.00  0.00    -0.292 OA
ENDROOT
BRANCH   3   4
HETATM    4  C3  UNL     1      12.852  49.317  91.175  1.00  0.00     0.281 C 
BRANCH   4   5
HETATM    5  C4  UNL     1      12.562  50.402  90.261  1.00  0.00    -0.077 C 
HETATM    6  C5  UNL     1      12.317  51.319  89.516  1.00  0.00    -0.069 C 
BRANCH   6   7
HETATM    7  C6  UNL     1      12.051  52.428  88.637  1.00  0.00     0.282 C 
BRANCH   7   8
HETATM    8  C7  UNL     1      11.366  53.602  89.275  1.00  0.00     0.180 C 
BRANCH   8   9
HETATM    9  N1  UNL     1      12.101  54.204  90.346  1.00  0.00    -0.289 N 
HETATM   10  C8  UNL     1      13.234  55.055  90.258  1.00  0.00     0.324 C 
HETATM   11  O2  UNL     1      13.822  55.433  89.187  1.00  0.00    -0.247 OA
HETATM   12  N2  UNL     1      13.584  55.401  91.589  1.00  0.00    -0.327 N 
HETATM   13  C9  UNL     1      13.007  54.432  92.493  1.00  0.00     0.088 C 
ATOM     14  H2  UNL     1      14.151  56.204  91.863  1.00  0.00     0.165 HD
HETATM   15  C10 UNL     1      13.990  53.291  92.583  1.00  0.00     0.038 C 
HETATM   16  C14 UNL     1      12.668  55.048  93.806  1.00  0.00     0.038 C 
HETATM   17  C15 UNL     1      11.782  54.045  91.743  1.00  0.00     0.112 C 
HETATM   18  C11 UNL     1      13.728  52.325  93.682  1.00  0.00     0.003 C 
HETATM   19  C12 UNL     1      13.217  52.970  94.947  1.00  0.00     0.000 C 
HETATM   20  C13 UNL     1      13.447  54.461  94.958  1.00  0.00     0.003 C 
HETATM   21  S1  UNL     1      10.365  53.547  92.324  1.00  0.00    -0.062 SA
ENDBRANCH   8   9
ENDBRANCH   7   8
BRANCH   7  22
HETATM   22  N3  UNL     1      11.331  52.023  87.434  1.00  0.00    -0.054 N 
ATOM     23  H32 UNL     1      11.724  51.171  87.032  1.00  0.00     0.279 HD
ATOM     24  H31 UNL     1      10.397  51.677  87.655  1.00  0.00     0.279 HD
BRANCH  22  25
HETATM   25  C16 UNL     1      11.281  53.095  86.462  1.00  0.00     0.280 C 
BRANCH  25  26
HETATM   26  C17 UNL     1      12.470  52.857  85.562  1.00  0.00     0.008 A 
HETATM   27  C18 UNL     1      13.643  53.561  85.525  1.00  0.00     0.017 A 
HETATM   28  C19 UNL     1      14.564  53.172  84.639  1.00  0.00     0.008 A 
HETATM   29  C20 UNL     1      14.264  52.103  83.841  1.00  0.00     0.050 A 
HETATM   30  S2  UNL     1      12.697  51.672  84.355  1.00  0.00    -0.105 SA
ENDBRANCH  25  26
ENDBRANCH  22  25
ENDBRANCH   7  22
ENDBRANCH   6   7
ENDBRANCH   4   5
ENDBRANCH   3   4
TORSDOF 8
ENDMDL
MODEL 2
REMARK VINA RESULT: -5.905261394      1.251      1.365
REMARK  8 active torsions:
REMARK  status: ('A' for Active; 'I' for Inactive)
REMARK    1  A    between atoms: O1_3  and  C3_4 
REMARK    2  A    between atoms: C3_4  and  C4_5 
REMARK    3  A    between atoms: C5_6  and  C6_7 
REMARK    4  A    between atoms: C6_7  and  C7_8 
REMARK    5  A    between atoms: C6_7  and  N3_22 
REMARK    6  A    between atoms: C7_8  and  N1_9 
REMARK    7  A    between atoms: N3_22  and  C16_25 
REMARK    8  A    between atoms: C16_25  and  C17_26 
ROOT
HETATM    1  C1  UNL     1      14.212  47.923  89.182  1.00  0.00     0.044 C 
HETATM    2  C2  UNL     1      13.251  47.990  88.440  1.00  0.00     0.043 C 
HETATM    3  O1  UNL     1      12.174  48.088  87.611  1.00  0.00    -0.292 OA
ENDROOT
BRANCH   3   4
HETATM    4  C3  UNL     1      11.080  48.941  87.930  1.00  0.00     0.281 C 
BRANCH   4   5
HETATM    5  C4  UNL     1      11.531  50.307  88.103  1.00  0.00    -0.077 C 
HETATM    6  C5  UNL     1      11.885  51.451  88.248  1.00  0.00    -0.069 C 
BRANCH   6   7
HETATM    7  C6  UNL     1      12.298  52.815  88.453  1.00  0.00     0.282 C 
BRANCH   7   8
HETATM    8  C7  UNL     1      11.428  53.617  89.377  1.00  0.00     0.180 C 
BRANCH   8   9
HETATM    9  N1  UNL     1      12.128  54.229  90.465  1.00  0.00    -0.289 N 
HETATM   10  C8  UNL     1      13.253  55.093  90.405  1.00  0.00     0.324 C 
HETATM   11  O2  UNL     1      13.863  55.477  89.348  1.00  0.00    -0.247 OA
HETATM   12  N2  UNL     1      13.566  55.444  91.744  1.00  0.00    -0.327 N 
HETATM   13  C9  UNL     1      12.979  54.469  92.634  1.00  0.00     0.088 C 
ATOM     14  H2  UNL     1      14.116  56.254  92.031  1.00  0.00     0.165 HD
HETATM   15  C10 UNL     1      13.972  53.340  92.749  1.00  0.00     0.038 C 
HETATM   16  C14 UNL     1      12.600  55.082  93.938  1.00  0.00     0.038 C 
HETATM   17  C15 UNL     1      11.777  54.067  91.854  1.00  0.00     0.112 C 
HETATM   18  C11 UNL     1      13.695  52.372  93.843  1.00  0.00     0.003 C 
HETATM   19  C12 UNL     1      13.145  53.011  95.094  1.00  0.00     0.000 C 
HETATM   20  C13 UNL     1      13.357  54.505  95.109  1.00  0.00     0.003 C 
HETATM   21  S1  UNL     1      10.353  53.552  92.400  1.00  0.00    -0.062 SA
ENDBRANCH   8   9
ENDBRANCH   7   8
BRANCH   7  22
HETATM   22  N3  UNL     1      12.486  53.533  87.195  1.00  0.00    -0.054 N 
ATOM     23  H32 UNL     1      12.094  54.474  87.240  1.00  0.00     0.279 HD
ATOM     24  H31 UNL     1      13.465  53.777  87.047  1.00  0.00     0.279 HD
BRANCH  22  25
HETATM   25  C16 UNL     1      11.950  52.787  86.076  1.00  0.00     0.280 C 
BRANCH  25  26
HETATM   26  C17 UNL     1      13.106  52.645  85.116  1.00  0.00     0.008 A 
HETATM   27  C18 UNL     1      14.215  53.444  85.020  1.00  0.00     0.017 A 
HETATM   28  C19 UNL     1      15.117  53.129  84.087  1.00  0.00     0.008 A 
HETATM   29  C20 UNL     1      14.865  52.038  83.304  1.00  0.00     0.050 A 
HETATM   30  S2  UNL     1      13.367  51.481  83.896  1.00  0.00    -0.105 SA
ENDBRANCH  25  26
ENDBRANCH  22  25
ENDBRANCH   7  22
ENDBRANCH   6   7
ENDBRANCH   4   5
ENDBRANCH   3   4
TORSDOF 8
ENDMDL
MODEL 3
REMARK VINA RESULT: -5.893252265      3.828      8.931
REMARK  8 active torsions:
REMARK  status: ('A' for Active; 'I' for Inactive)
REMARK    1  A    between atoms: O1_3  and  C3_4 
REMARK    2  A    between atoms: C3_4  and  C4_5 
REMARK    3  A    between atoms: C5_6  and  C6_7 
REMARK    4  A    between atoms: C6_7  and  C7_8 
REMARK    5  A    between atoms: C6_7  and  N3_22 
REMARK    6  A    between atoms: C7_8  and  N1_9 
REMARK    7  A    between atoms: N3_22  and  C16_25 
REMARK    8  A    between atoms: C16_25  and  C17_26 
ROOT
HETATM    1  C1  UNL     1      15.316  51.556  80.703  1.00  0.00     0.044 C 
HETATM    2  C2  UNL     1      15.504  51.777  81.883  1.00  0.00     0.043 C 
HETATM    3  O1  UNL     1      15.693  52.032  83.208  1.00  0.00    -0.292 OA
ENDROOT
BRANCH   3   4
HETATM    4  C3  UNL     1      15.112  53.176  83.824  1.00  0.00     0.281 C 
BRANCH   4   5
HETATM    5  C4  UNL     1      13.992  52.794  84.659  1.00  0.00    -0.077 C 
HETATM    6  C5  UNL     1      13.072  52.458  85.363  1.00  0.00    -0.069 C 
BRANCH   6   7
HETATM    7  C6  UNL     1      11.990  52.066  86.229  1.00  0.00     0.282 C 
BRANCH   7   8
HETATM    8  C7  UNL     1      10.863  51.335  85.559  1.00  0.00     0.180 C 
BRANCH   8   9
HETATM    9  N1  UNL     1      10.567  51.792  84.235  1.00  0.00    -0.289 N 
HETATM   10  C8  UNL     1       9.862  52.963  83.852  1.00  0.00     0.324 C 
HETATM   11  O2  UNL     1       9.342  53.830  84.636  1.00  0.00    -0.247 OA
HETATM   12  N2  UNL     1       9.848  52.981  82.433  1.00  0.00    -0.327 N 
HETATM   13  C9  UNL     1      10.103  51.645  81.944  1.00  0.00     0.088 C 
ATOM     14  H2  UNL     1       9.685  53.804  81.852  1.00  0.00     0.165 HD
HETATM   15  C10 UNL     1       8.769  50.943  81.900  1.00  0.00     0.038 C 
HETATM   16  C14 UNL     1      10.820  51.672  80.639  1.00  0.00     0.038 C 
HETATM   17  C15 UNL     1      10.970  51.112  83.029  1.00  0.00     0.112 C 
HETATM   18  C11 UNL     1       8.763  49.658  81.153  1.00  0.00     0.003 C 
HETATM   19  C12 UNL     1       9.642  49.665  79.926  1.00  0.00     0.000 C 
HETATM   20  C13 UNL     1      10.024  51.064  79.510  1.00  0.00     0.003 C 
HETATM   21  S1  UNL     1      12.135  50.005  82.929  1.00  0.00    -0.062 SA
ENDBRANCH   8   9
ENDBRANCH   7   8
BRANCH   7  22
HETATM   22  N3  UNL     1      11.467  53.186  87.006  1.00  0.00    -0.054 N 
ATOM     23  H32 UNL     1      12.031  54.026  86.877  1.00  0.00     0.279 HD
ATOM     24  H31 UNL     1      10.586  53.528  86.622  1.00  0.00     0.279 HD
BRANCH  22  25
HETATM   25  C16 UNL     1      11.337  52.843  88.406  1.00  0.00     0.280 C 
BRANCH  25  26
HETATM   26  C17 UNL     1      12.325  53.736  89.117  1.00  0.00     0.008 A 
HETATM   27  C18 UNL     1      13.465  54.296  88.603  1.00  0.00     0.017 A 
HETATM   28  C19 UNL     1      14.196  55.057  89.421  1.00  0.00     0.008 A 
HETATM   29  C20 UNL     1      13.752  55.218  90.704  1.00  0.00     0.050 A 
HETATM   30  S2  UNL     1      12.318  54.296  90.729  1.00  0.00    -0.105 SA
ENDBRANCH  25  26
ENDBRANCH  22  25
ENDBRANCH   7  22
ENDBRANCH   6   7
ENDBRANCH   4   5
ENDBRANCH   3   4
TORSDOF 8
ENDMDL
MODEL 4
REMARK VINA RESULT: -5.891246711      3.428      8.605
REMARK  8 active torsions:
REMARK  status: ('A' for Active; 'I' for Inactive)
REMARK    1  A    between atoms: O1_3  and  C3_4 
REMARK    2  A    between atoms: C3_4  and  C4_5 
REMARK    3  A    between atoms: C5_6  and  C6_7 
REMARK    4  A    between atoms: C6_7  and  C7_8 
REMARK    5  A    between atoms: C6_7  and  N3_22 
REMARK    6  A    between atoms: C7_8  and  N1_9 
REMARK    7  A    between atoms: N3_22  and  C16_25 
REMARK    8  A    between atoms: C16_25  and  C17_26 
ROOT
HETATM    1  C1  UNL     1      16.028  52.031  81.039  1.00  0.00     0.044 C 
HETATM    2  C2  UNL     1      15.708  52.038  82.212  1.00  0.00     0.043 C 
HETATM    3  O1  UNL     1      15.333  52.061  83.521  1.00  0.00    -0.292 OA
ENDROOT
BRANCH   3   4
HETATM    4  C3  UNL     1      14.929  53.275  84.146  1.00  0.00     0.281 C 
BRANCH   4   5
HETATM    5  C4  UNL     1      13.795  53.047  85.018  1.00  0.00    -0.077 C 
HETATM    6  C5  UNL     1      12.862  52.841  85.753  1.00  0.00    -0.069 C 
BRANCH   6   7
HETATM    7  C6  UNL     1      11.765  52.603  86.657  1.00  0.00     0.282 C 
BRANCH   7   8
HETATM    8  C7  UNL     1      10.422  52.439  86.007  1.00  0.00     0.180 C 
BRANCH   8   9
HETATM    9  N1  UNL     1      10.356  51.379  85.048  1.00  0.00    -0.289 N 
HETATM   10  C8  UNL     1      10.559  49.991  85.264  1.00  0.00     0.324 C 
HETATM   11  O2  UNL     1      10.857  49.428  86.374  1.00  0.00    -0.247 OA
HETATM   12  N2  UNL     1      10.367  49.353  84.011  1.00  0.00    -0.327 N 
HETATM   13  C9  UNL     1      10.517  50.333  82.959  1.00  0.00     0.088 C 
ATOM     14  H2  UNL     1      10.158  48.364  83.875  1.00  0.00     0.165 HD
HETATM   15  C10 UNL     1      11.990  50.402  82.644  1.00  0.00     0.038 C 
HETATM   16  C14 UNL     1       9.658  50.006  81.786  1.00  0.00     0.038 C 
HETATM   17  C15 UNL     1      10.044  51.561  83.652  1.00  0.00     0.112 C 
HETATM   18  C11 UNL     1      12.329  51.131  81.394  1.00  0.00     0.003 C 
HETATM   19  C12 UNL     1      11.337  50.913  80.277  1.00  0.00     0.000 C 
HETATM   20  C13 UNL     1      10.447  49.722  80.532  1.00  0.00     0.003 C 
HETATM   21  S1  UNL     1       9.325  52.855  83.020  1.00  0.00    -0.062 SA
ENDBRANCH   8   9
ENDBRANCH   7   8
BRANCH   7  22
HETATM   22  N3  UNL     1      11.690  53.607  87.714  1.00  0.00    -0.054 N 
ATOM     23  H32 UNL     1      12.348  54.370  87.553  1.00  0.00     0.279 HD
ATOM     24  H31 UNL     1      10.819  54.138  87.664  1.00  0.00     0.279 HD
BRANCH  22  25
HETATM   25  C16 UNL     1      11.874  53.013  89.021  1.00  0.00     0.280 C 
BRANCH  25  26
HETATM   26  C17 UNL     1      12.893  53.892  89.705  1.00  0.00     0.008 A 
HETATM   27  C18 UNL     1      13.919  54.589  89.124  1.00  0.00     0.017 A 
HETATM   28  C19 UNL     1      14.707  55.306  89.930  1.00  0.00     0.008 A 
HETATM   29  C20 UNL     1      14.428  55.288  91.269  1.00  0.00     0.050 A 
HETATM   30  S2  UNL     1      13.067  54.266  91.361  1.00  0.00    -0.105 SA
ENDBRANCH  25  26
ENDBRANCH  22  25
ENDBRANCH   7  22
ENDBRANCH   6   7
ENDBRANCH   4   5
ENDBRANCH   3   4
TORSDOF 8
ENDMDL
MODEL 5
REMARK VINA RESULT: -5.777569039      3.929      5.933
REMARK  8 active torsions:
REMARK  status: ('A' for Active; 'I' for Inactive)
REMARK    1  A    between atoms: O1_3  and  C3_4 
REMARK    2  A    between atoms: C3_4  and  C4_5 
REMARK    3  A    between atoms: C5_6  and  C6_7 
REMARK    4  A    between atoms: C6_7  and  C7_8 
REMARK    5  A    between atoms: C6_7  and  N3_22 
REMARK    6  A    between atoms: C7_8  and  N1_9 
REMARK    7  A    between atoms: N3_22  and  C16_25 
REMARK    8  A    between atoms: C16_25  and  C17_26 
ROOT
HETATM    1  C1  UNL     1      15.251  55.455  90.289  1.00  0.00     0.044 C 
HETATM    2  C2  UNL     1      14.100  55.142  90.049  1.00  0.00     0.043 C 
HETATM    3  O1  UNL     1      12.815  54.772  89.792  1.00  0.00    -0.292 OA
ENDROOT
BRANCH   3   4
HETATM    4  C3  UNL     1      12.490  53.422  89.479  1.00  0.00     0.281 C 
BRANCH   4   5
HETATM    5  C4  UNL     1      12.353  53.249  88.047  1.00  0.00    -0.077 C 
HETATM    6  C5  UNL     1      12.232  53.083  86.859  1.00  0.00    -0.069 C 
BRANCH   6   7
HETATM    7  C6  UNL     1      12.056  52.883  85.443  1.00  0.00     0.282 C 
BRANCH   7   8
HETATM    8  C7  UNL     1      10.975  51.913  85.062  1.00  0.00     0.180 C 
BRANCH   8   9
HETATM    9  N1  UNL     1       9.699  52.191  85.648  1.00  0.00    -0.289 N 
HETATM   10  C8  UNL     1       8.749  53.169  85.252  1.00  0.00     0.324 C 
HETATM   11  O2  UNL     1       8.871  54.003  84.290  1.00  0.00    -0.247 OA
HETATM   12  N2  UNL     1       7.643  53.039  86.131  1.00  0.00    -0.327 N 
HETATM   13  C9  UNL     1       8.072  52.348  87.325  1.00  0.00     0.088 C 
ATOM     14  H2  UNL     1       6.698  53.378  85.949  1.00  0.00     0.165 HD
HETATM   15  C10 UNL     1       8.625  53.399  88.255  1.00  0.00     0.038 C 
HETATM   16  C14 UNL     1       6.966  51.538  87.910  1.00  0.00     0.038 C 
HETATM   17  C15 UNL     1       9.147  51.479  86.774  1.00  0.00     0.112 C 
HETATM   18  C11 UNL     1       8.850  52.943  89.651  1.00  0.00     0.003 C 
HETATM   19  C12 UNL     1       7.800  51.982  90.153  1.00  0.00     0.000 C 
HETATM   20  C13 UNL     1       6.562  51.993  89.291  1.00  0.00     0.003 C 
HETATM   21  S1  UNL     1       9.633  50.034  87.291  1.00  0.00    -0.062 SA
ENDBRANCH   8   9
ENDBRANCH   7   8
BRANCH   7  22
HETATM   22  N3  UNL     1      13.303  52.529  84.773  1.00  0.00    -0.054 N 
ATOM     23  H32 UNL     1      13.601  53.261  84.127  1.00  0.00     0.279 HD
ATOM     24  H31 UNL     1      14.095  52.557  85.416  1.00  0.00     0.279 HD
BRANCH  22  25
HETATM   25  C16 UNL     1      13.203  51.246  84.111  1.00  0.00     0.280 C 
BRANCH  25  26
HETATM   26  C17 UNL     1      14.136  51.344  82.930  1.00  0.00     0.008 A 
HETATM   27  C18 UNL     1      15.401  51.870  82.906  1.00  0.00     0.017 A 
HETATM   28  C19 UNL     1      16.049  51.855  81.739  1.00  0.00     0.008 A 
HETATM   29  C20 UNL     1      15.402  51.318  80.661  1.00  0.00     0.050 A 
HETATM   30  S2  UNL     1      13.900  50.847  81.315  1.00  0.00    -0.105 SA
ENDBRANCH  25  26
ENDBRANCH  22  25
ENDBRANCH   7  22
ENDBRANCH   6   7
ENDBRANCH   4   5
ENDBRANCH   3   4
TORSDOF 8
ENDMDL
