MODEL 1
REMARK VINA RESULT: -8.121065614      0.000      0.000
REMARK  6 active torsions:
REMARK  status: ('A' for Active; 'I' for Inactive)
REMARK    1  A    between atoms: O1_2  and  C2_3 
REMARK    2  A    between atoms: C5_6  and  N1_7 
REMARK    3  A    between atoms: N1_7  and  C6_9 
REMARK    4  A    between atoms: C6_9  and  C7_10 
REMARK    5  A    between atoms: N4_20  and  C13_22 
REMARK    6  A    between atoms: C13_22  and  C14_23 
ROOT
HETATM    1  C2  UNL     1       9.586  53.791  91.419  1.00  0.00     0.089 A 
HETATM    2  C3  UNL     1      10.870  54.282  91.308  1.00  0.00     0.055 A 
HETATM    3  C4  UNL     1      11.567  54.185  90.137  1.00  0.00     0.038 A 
HETATM    4  C5  UNL     1      12.854  54.660  89.975  1.00  0.00     0.130 A 
HETATM    5  N3  UNL     1      13.539  54.565  88.823  1.00  0.00    -0.176 N 
ATOM      6  H3  UNL     1      14.489  54.926  88.736  1.00  0.00     0.186 HD
HETATM    7  C12 UNL     1      12.904  53.961  87.774  1.00  0.00     0.680 A 
HETATM    8  N4  UNL     1      13.529  53.848  86.647  1.00  0.00    -0.222 N 
ATOM      9  H4  UNL     1      14.479  54.202  86.534  1.00  0.00     0.178 HD
HETATM   10  N5  UNL     1      11.650  53.493  87.919  1.00  0.00    -0.191 N 
ATOM     11  H5  UNL     1      11.208  53.049  87.115  1.00  0.00     0.184 HD
HETATM   12  C20 UNL     1      10.947  53.578  89.062  1.00  0.00     0.064 A 
HETATM   13  C21 UNL     1       9.649  53.073  89.147  1.00  0.00     0.056 A 
HETATM   14  C22 UNL     1       8.956  53.177  90.336  1.00  0.00     0.080 A 
HETATM   15  C23 UNL     1       7.610  52.660  90.443  1.00  0.00     0.102 C 
HETATM   16  N6  UNL     1       6.535  52.239  90.548  1.00  0.00    -0.191 NA
ENDROOT
BRANCH   1  17
HETATM   17  O1  UNL     1       8.838  53.866  92.587  1.00  0.00    -0.354 OA
HETATM   18  C1  UNL     1       9.423  53.829  93.875  1.00  0.00     0.210 C 
ENDBRANCH   1  17
BRANCH   4  19
HETATM   19  N1  UNL     1      13.417  55.226  90.995  1.00  0.00    -0.371 N 
ATOM     20  H1  UNL     1      13.088  56.154  91.261  1.00  0.00     0.161 HD
BRANCH  19  21
HETATM   21  C6  UNL     1      14.463  54.650  91.775  1.00  0.00     0.161 C 
BRANCH  21  22
HETATM   22  C7  UNL     1      13.884  54.147  93.041  1.00  0.00    -0.025 A 
HETATM   23  C8  UNL     1      13.430  54.983  94.039  1.00  0.00     0.011 A 
HETATM   24  C9  UNL     1      12.910  54.408  95.175  1.00  0.00     0.018 A 
HETATM   25  C10 UNL     1      12.835  53.048  95.331  1.00  0.00     0.087 A 
HETATM   26  N2  UNL     1      13.279  52.249  94.357  1.00  0.00    -0.375 N 
HETATM   27  C11 UNL     1      13.790  52.784  93.238  1.00  0.00     0.096 A 
ATOM     28  H2  UNL     1      13.229  51.236  94.464  1.00  0.00     0.164 HD
ENDBRANCH  21  22
ENDBRANCH  19  21
ENDBRANCH   4  19
BRANCH   8  29
HETATM   29  C13 UNL     1      12.837  53.205  85.550  1.00  0.00     0.176 C 
BRANCH  29  30
HETATM   30  C14 UNL     1      13.765  52.657  84.557  1.00  0.00    -0.040 A 
HETATM   31  C15 UNL     1      14.990  53.218  84.328  1.00  0.00     0.009 A 
HETATM   32  C16 UNL     1      15.832  52.674  83.387  1.00  0.00     0.001 A 
HETATM   33  C17 UNL     1      15.489  51.566  82.649  1.00  0.00     0.000 A 
HETATM   34  C18 UNL     1      14.236  50.998  82.887  1.00  0.00     0.001 A 
HETATM   35  C19 UNL     1      13.399  51.543  83.826  1.00  0.00     0.009 A 
ENDBRANCH  29  30
ENDBRANCH   8  29
TORSDOF 6
ENDMDL
MODEL 2
REMARK VINA RESULT: -7.880723015      1.029      1.139
REMARK  6 active torsions:
REMARK  status: ('A' for Active; 'I' for Inactive)
REMARK    1  A    between atoms: O1_2  and  C2_3 
REMARK    2  A    between atoms: C5_6  and  N1_7 
REMARK    3  A    between atoms: N1_7  and  C6_9 
REMARK    4  A    between atoms: C6_9  and  C7_10 
REMARK    5  A    between atoms: N4_20  and  C13_22 
REMARK    6  A    between atoms: C13_22  and  C14_23 
ROOT
HETATM    1  C2  UNL     1       9.341  53.812  91.872  1.00  0.00     0.089 A 
HETATM    2  C3  UNL     1      10.720  53.821  91.927  1.00  0.00     0.055 A 
HETATM    3  C4  UNL     1      11.475  53.820  90.788  1.00  0.00     0.038 A 
HETATM    4  C5  UNL     1      12.856  53.829  90.791  1.00  0.00     0.130 A 
HETATM    5  N3  UNL     1      13.599  53.828  89.672  1.00  0.00    -0.176 N 
ATOM      6  H3  UNL     1      14.618  53.835  89.707  1.00  0.00     0.186 HD
HETATM    7  C12 UNL     1      12.924  53.818  88.483  1.00  0.00     0.680 A 
HETATM    8  N4  UNL     1      13.602  53.817  87.380  1.00  0.00    -0.222 N 
ATOM      9  H4  UNL     1      14.623  53.824  87.390  1.00  0.00     0.178 HD
HETATM   10  N5  UNL     1      11.579  53.809  88.466  1.00  0.00    -0.191 N 
ATOM     11  H5  UNL     1      11.110  53.802  87.561  1.00  0.00     0.184 HD
HETATM   12  C20 UNL     1      10.817  53.810  89.574  1.00  0.00     0.064 A 
HETATM   13  C21 UNL     1       9.425  53.800  89.490  1.00  0.00     0.056 A 
HETATM   14  C22 UNL     1       8.673  53.801  90.647  1.00  0.00     0.080 A 
HETATM   15  C23 UNL     1       7.228  53.792  90.579  1.00  0.00     0.102 C 
HETATM   16  N6  UNL     1       6.070  53.772  90.541  1.00  0.00    -0.191 NA
ENDROOT
BRANCH   1  17
HETATM   17  O1  UNL     1       8.531  53.812  92.999  1.00  0.00    -0.354 OA
HETATM   18  C1  UNL     1       9.052  53.786  94.316  1.00  0.00     0.210 C 
ENDBRANCH   1  17
BRANCH   4  19
HETATM   19  N1  UNL     1      13.454  53.839  91.940  1.00  0.00    -0.371 N 
ATOM     20  H1  UNL     1      13.725  52.941  92.339  1.00  0.00     0.161 HD
BRANCH  19  21
HETATM   21  C6  UNL     1      13.761  55.013  92.692  1.00  0.00     0.161 C 
BRANCH  21  22
HETATM   22  C7  UNL     1      13.163  54.879  94.040  1.00  0.00    -0.025 A 
HETATM   23  C8  UNL     1      12.458  55.895  94.648  1.00  0.00     0.011 A 
HETATM   24  C9  UNL     1      11.945  55.663  95.902  1.00  0.00     0.018 A 
HETATM   25  C10 UNL     1      12.117  54.464  96.546  1.00  0.00     0.087 A 
HETATM   26  N2  UNL     1      12.803  53.488  95.946  1.00  0.00    -0.375 N 
HETATM   27  C11 UNL     1      13.313  53.689  94.722  1.00  0.00     0.096 A 
ATOM     28  H2  UNL     1      12.938  52.594  96.417  1.00  0.00     0.164 HD
ENDBRANCH  21  22
ENDBRANCH  19  21
ENDBRANCH   4  19
BRANCH   8  29
HETATM   29  C13 UNL     1      12.867  53.806  86.134  1.00  0.00     0.176 C 
BRANCH  29  30
HETATM   30  C14 UNL     1      13.557  53.038  85.092  1.00  0.00    -0.040 A 
HETATM   31  C15 UNL     1      14.781  53.412  84.612  1.00  0.00     0.009 A 
HETATM   32  C16 UNL     1      15.395  52.666  83.635  1.00  0.00     0.001 A 
HETATM   33  C17 UNL     1      14.821  51.534  83.107  1.00  0.00     0.000 A 
HETATM   34  C18 UNL     1      13.570  51.157  83.602  1.00  0.00     0.001 A 
HETATM   35  C19 UNL     1      12.961  51.905  84.576  1.00  0.00     0.009 A 
ENDBRANCH  29  30
ENDBRANCH   8  29
TORSDOF 6
ENDMDL
MODEL 3
REMARK VINA RESULT: -7.467498030      1.277      1.461
REMARK  6 active torsions:
REMARK  status: ('A' for Active; 'I' for Inactive)
REMARK    1  A    between atoms: O1_2  and  C2_3 
REMARK    2  A    between atoms: C5_6  and  N1_7 
REMARK    3  A    between atoms: N1_7  and  C6_9 
REMARK    4  A    between atoms: C6_9  and  C7_10 
REMARK    5  A    between atoms: N4_20  and  C13_22 
REMARK    6  A    between atoms: C13_22  and  C14_23 
ROOT
HETATM    1  C2  UNL     1       9.893  52.294  91.836  1.00  0.00     0.089 A 
HETATM    2  C3  UNL     1      11.167  52.824  91.837  1.00  0.00     0.055 A 
HETATM    3  C4  UNL     1      11.798  53.153  90.670  1.00  0.00     0.038 A 
HETATM    4  C5  UNL     1      13.071  53.686  90.618  1.00  0.00     0.130 A 
HETATM    5  N3  UNL     1      13.692  54.009  89.472  1.00  0.00    -0.176 N 
ATOM      6  H3  UNL     1      14.634  54.401  89.467  1.00  0.00     0.186 HD
HETATM    7  C12 UNL     1      13.003  53.786  88.312  1.00  0.00     0.680 A 
HETATM    8  N4  UNL     1      13.566  54.084  87.185  1.00  0.00    -0.222 N 
ATOM      9  H4  UNL     1      14.507  54.477  87.154  1.00  0.00     0.178 HD
HETATM   10  N5  UNL     1      11.763  53.267  88.349  1.00  0.00    -0.191 N 
ATOM     11  H5  UNL     1      11.279  53.115  87.464  1.00  0.00     0.184 HD
HETATM   12  C20 UNL     1      11.123  52.937  89.484  1.00  0.00     0.064 A 
HETATM   13  C21 UNL     1       9.835  52.402  89.456  1.00  0.00     0.056 A 
HETATM   14  C22 UNL     1       9.208  52.075  90.640  1.00  0.00     0.080 A 
HETATM   15  C23 UNL     1       7.873  51.519  90.630  1.00  0.00     0.102 C 
HETATM   16  N6  UNL     1       6.808  51.062  90.637  1.00  0.00    -0.191 NA
ENDROOT
BRANCH   1  17
HETATM   17  O1  UNL     1       9.210  51.945  92.994  1.00  0.00    -0.354 OA
HETATM   18  C1  UNL     1       9.757  52.120  94.288  1.00  0.00     0.210 C 
ENDBRANCH   1  17
BRANCH   4  19
HETATM   19  N1  UNL     1      13.686  53.880  91.741  1.00  0.00    -0.371 N 
ATOM     20  H1  UNL     1      14.219  53.102  92.128  1.00  0.00     0.161 HD
BRANCH  19  21
HETATM   21  C6  UNL     1      13.675  55.102  92.479  1.00  0.00     0.161 C 
BRANCH  21  22
HETATM   22  C7  UNL     1      13.211  54.816  93.855  1.00  0.00    -0.025 A 
HETATM   23  C8  UNL     1      13.549  53.665  94.533  1.00  0.00     0.011 A 
HETATM   24  C9  UNL     1      13.062  53.502  95.809  1.00  0.00     0.018 A 
HETATM   25  C10 UNL     1      12.265  54.443  96.408  1.00  0.00     0.087 A 
HETATM   26  N2  UNL     1      11.945  55.554  95.740  1.00  0.00    -0.375 N 
HETATM   27  C11 UNL     1      12.406  55.738  94.494  1.00  0.00     0.096 A 
ATOM     28  H2  UNL     1      11.351  56.260  96.175  1.00  0.00     0.164 HD
ENDBRANCH  21  22
ENDBRANCH  19  21
ENDBRANCH   4  19
BRANCH   8  29
HETATM   29  C13 UNL     1      12.818  53.839  85.970  1.00  0.00     0.176 C 
BRANCH  29  30
HETATM   30  C14 UNL     1      13.592  53.071  84.990  1.00  0.00    -0.040 A 
HETATM   31  C15 UNL     1      14.841  53.460  84.593  1.00  0.00     0.009 A 
HETATM   32  C16 UNL     1      15.535  52.713  83.671  1.00  0.00     0.001 A 
HETATM   33  C17 UNL     1      15.017  51.566  83.118  1.00  0.00     0.000 A 
HETATM   34  C18 UNL     1      13.740  51.174  83.527  1.00  0.00     0.001 A 
HETATM   35  C19 UNL     1      13.052  51.922  84.446  1.00  0.00     0.009 A 
ENDBRANCH  29  30
ENDBRANCH   8  29
TORSDOF 6
ENDMDL
MODEL 4
REMARK VINA RESULT: -7.383805880      3.483      8.865
REMARK  6 active torsions:
REMARK  status: ('A' for Active; 'I' for Inactive)
REMARK    1  A    between atoms: O1_2  and  C2_3 
REMARK    2  A    between atoms: C5_6  and  N1_7 
REMARK    3  A    between atoms: N1_7  and  C6_9 
REMARK    4  A    between atoms: C6_9  and  C7_10 
REMARK    5  A    between atoms: N4_20  and  C13_22 
REMARK    6  A    between atoms: C13_22  and  C14_23 
ROOT
HETATM    1  C2  UNL     1       9.155  52.528  83.491  1.00  0.00     0.089 A 
HETATM    2  C3  UNL     1      10.514  52.438  83.710  1.00  0.00     0.055 A 
HETATM    3  C4  UNL     1      11.055  52.717  84.934  1.00  0.00     0.038 A 
HETATM    4  C5  UNL     1      12.407  52.641  85.203  1.00  0.00     0.130 A 
HETATM    5  N3  UNL     1      12.939  52.916  86.406  1.00  0.00    -0.176 N 
ATOM      6  H3  UNL     1      13.943  52.851  86.573  1.00  0.00     0.186 HD
HETATM    7  C12 UNL     1      12.071  53.287  87.395  1.00  0.00     0.680 A 
HETATM    8  N4  UNL     1      12.543  53.560  88.569  1.00  0.00    -0.222 N 
ATOM      9  H4  UNL     1      13.543  53.502  88.761  1.00  0.00     0.178 HD
HETATM   10  N5  UNL     1      10.752  53.364  87.145  1.00  0.00    -0.191 N 
ATOM     11  H5  UNL     1      10.134  53.644  87.907  1.00  0.00     0.184 HD
HETATM   12  C20 UNL     1      10.198  53.094  85.950  1.00  0.00     0.064 A 
HETATM   13  C21 UNL     1       8.821  53.193  85.755  1.00  0.00     0.056 A 
HETATM   14  C22 UNL     1       8.287  52.908  84.515  1.00  0.00     0.080 A 
HETATM   15  C23 UNL     1       6.861  53.005  84.295  1.00  0.00     0.102 C 
HETATM   16  N6  UNL     1       5.721  53.090  84.100  1.00  0.00    -0.191 NA
ENDROOT
BRANCH   1  17
HETATM   17  O1  UNL     1       8.558  52.254  82.267  1.00  0.00    -0.354 OA
HETATM   18  C1  UNL     1       9.252  51.638  81.198  1.00  0.00     0.210 C 
ENDBRANCH   1  17
BRANCH   4  19
HETATM   19  N1  UNL     1      13.192  52.286  84.236  1.00  0.00    -0.371 N 
ATOM     20  H1  UNL     1      13.447  52.995  83.550  1.00  0.00     0.161 HD
BRANCH  19  21
HETATM   21  C6  UNL     1      13.728  50.975  84.058  1.00  0.00     0.161 C 
BRANCH  21  22
HETATM   22  C7  UNL     1      14.168  50.833  82.652  1.00  0.00    -0.025 A 
HETATM   23  C8  UNL     1      13.344  50.352  81.657  1.00  0.00     0.011 A 
HETATM   24  C9  UNL     1      13.855  50.262  80.384  1.00  0.00     0.018 A 
HETATM   25  C10 UNL     1      15.142  50.634  80.091  1.00  0.00     0.087 A 
HETATM   26  N2  UNL     1      15.930  51.098  81.064  1.00  0.00    -0.375 N 
HETATM   27  C11 UNL     1      15.455  51.197  82.314  1.00  0.00     0.096 A 
ATOM     28  H2  UNL     1      16.889  51.376  80.856  1.00  0.00     0.164 HD
ENDBRANCH  21  22
ENDBRANCH  19  21
ENDBRANCH   4  19
BRANCH   8  29
HETATM   29  C13 UNL     1      11.606  53.951  89.600  1.00  0.00     0.176 C 
BRANCH  29  30
HETATM   30  C14 UNL     1      12.272  54.228  90.876  1.00  0.00    -0.040 A 
HETATM   31  C15 UNL     1      11.657  54.001  92.075  1.00  0.00     0.009 A 
HETATM   32  C16 UNL     1      12.316  54.273  93.251  1.00  0.00     0.001 A 
HETATM   33  C17 UNL     1      13.595  54.776  93.274  1.00  0.00     0.000 A 
HETATM   34  C18 UNL     1      14.218  55.005  92.046  1.00  0.00     0.001 A 
HETATM   35  C19 UNL     1      13.557  54.732  90.877  1.00  0.00     0.009 A 
ENDBRANCH  29  30
ENDBRANCH   8  29
TORSDOF 6
ENDMDL
MODEL 5
REMARK VINA RESULT: -7.360066730      2.995      8.139
REMARK  6 active torsions:
REMARK  status: ('A' for Active; 'I' for Inactive)
REMARK    1  A    between atoms: O1_2  and  C2_3 
REMARK    2  A    between atoms: C5_6  and  N1_7 
REMARK    3  A    between atoms: N1_7  and  C6_9 
REMARK    4  A    between atoms: C6_9  and  C7_10 
REMARK    5  A    between atoms: N4_20  and  C13_22 
REMARK    6  A    between atoms: C13_22  and  C14_23 
ROOT
HETATM    1  C2  UNL     1       8.471  53.243  84.956  1.00  0.00     0.089 A 
HETATM    2  C3  UNL     1       9.850  53.215  84.991  1.00  0.00     0.055 A 
HETATM    3  C4  UNL     1      10.527  53.094  86.172  1.00  0.00     0.038 A 
HETATM    4  C5  UNL     1      11.905  53.061  86.261  1.00  0.00     0.130 A 
HETATM    5  N3  UNL     1      12.569  52.943  87.422  1.00  0.00    -0.176 N 
ATOM      6  H3  UNL     1      13.589  52.922  87.453  1.00  0.00     0.186 HD
HETATM    7  C12 UNL     1      11.816  52.852  88.559  1.00  0.00     0.680 A 
HETATM    8  N4  UNL     1      12.418  52.736  89.699  1.00  0.00    -0.222 N 
ATOM      9  H4  UNL     1      13.436  52.713  89.757  1.00  0.00     0.178 HD
HETATM   10  N5  UNL     1      10.473  52.883  88.487  1.00  0.00    -0.191 N 
ATOM     11  H5  UNL     1       9.944  52.812  89.355  1.00  0.00     0.184 HD
HETATM   12  C20 UNL     1       9.787  53.001  87.336  1.00  0.00     0.064 A 
HETATM   13  C21 UNL     1       8.393  53.026  87.328  1.00  0.00     0.056 A 
HETATM   14  C22 UNL     1       7.722  53.149  86.129  1.00  0.00     0.080 A 
HETATM   15  C23 UNL     1       6.276  53.177  86.101  1.00  0.00     0.102 C 
HETATM   16  N6  UNL     1       5.118  53.213  86.064  1.00  0.00    -0.191 NA
ENDROOT
BRANCH   1  17
HETATM   17  O1  UNL     1       7.740  53.363  83.782  1.00  0.00    -0.354 OA
HETATM   18  C1  UNL     1       8.061  52.649  82.602  1.00  0.00     0.210 C 
ENDBRANCH   1  17
BRANCH   4  19
HETATM   19  N1  UNL     1      12.578  53.150  85.158  1.00  0.00    -0.371 N 
ATOM     20  H1  UNL     1      12.055  53.133  84.283  1.00  0.00     0.161 HD
BRANCH  19  21
HETATM   21  C6  UNL     1      13.998  53.270  85.075  1.00  0.00     0.161 C 
BRANCH  21  22
HETATM   22  C7  UNL     1      14.473  52.453  83.935  1.00  0.00    -0.025 A 
HETATM   23  C8  UNL     1      15.723  52.609  83.375  1.00  0.00     0.011 A 
HETATM   24  C9  UNL     1      16.062  51.796  82.319  1.00  0.00     0.018 A 
HETATM   25  C10 UNL     1      15.199  50.852  81.824  1.00  0.00     0.087 A 
HETATM   26  N2  UNL     1      13.992  50.711  82.376  1.00  0.00    -0.375 N 
HETATM   27  C11 UNL     1      13.636  51.491  83.407  1.00  0.00     0.096 A 
ATOM     28  H2  UNL     1      13.342  50.012  82.014  1.00  0.00     0.164 HD
ENDBRANCH  21  22
ENDBRANCH  19  21
ENDBRANCH   4  19
BRANCH   8  29
HETATM   29  C13 UNL     1      11.600  52.642  90.889  1.00  0.00     0.176 C 
BRANCH  29  30
HETATM   30  C14 UNL     1      12.094  53.503  91.969  1.00  0.00    -0.040 A 
HETATM   31  C15 UNL     1      11.351  53.753  93.088  1.00  0.00     0.009 A 
HETATM   32  C16 UNL     1      11.850  54.566  94.079  1.00  0.00     0.001 A 
HETATM   33  C17 UNL     1      13.091  55.151  93.991  1.00  0.00     0.000 A 
HETATM   34  C18 UNL     1      13.845  54.891  92.844  1.00  0.00     0.001 A 
HETATM   35  C19 UNL     1      13.343  54.081  91.859  1.00  0.00     0.009 A 
ENDBRANCH  29  30
ENDBRANCH   8  29
TORSDOF 6
ENDMDL
