MODEL 1
REMARK VINA RESULT: -7.038894149      0.000      0.000
REMARK  5 active torsions:
REMARK  status: ('A' for Active; 'I' for Inactive)
REMARK    1  A    between atoms: C2_2  and  C3_3 
REMARK    2  A    between atoms: C3_3  and  C4_4 
REMARK    3  A    between atoms: C4_4  and  C5_5 
REMARK       I    between atoms: C5_5  and  N1_7 
REMARK    4  A    between atoms: N1_7  and  C6_9 
REMARK    5  A    between atoms: N2_12  and  C9_13 
ROOT
HETATM    1  C6  UNL     1      -5.670  35.131   3.382  1.00  0.00     0.185 C 
HETATM    2  C7  UNL     1      -5.119  34.813   4.748  1.00  0.00     0.077 C 
HETATM    3  C8  UNL     1      -6.005  35.235   5.897  1.00  0.00     0.276 C 
HETATM    4  N2  UNL     1      -5.255  35.609   7.065  1.00  0.00     0.095 N 
HETATM    5  C17 UNL     1      -5.744  36.765   7.743  1.00  0.00     0.303 C 
HETATM    6  C18 UNL     1      -5.342  38.066   7.105  1.00  0.00     0.302 C 
HETATM    7  N3  UNL     1      -3.923  38.146   6.827  1.00  0.00     0.087 N 
HETATM    8  C19 UNL     1      -3.145  38.666   7.918  1.00  0.00     0.310 C 
HETATM    9  C20 UNL     1      -3.760  38.921   5.612  1.00  0.00     0.298 C 
HETATM   10  C21 UNL     1      -2.768  38.268   4.661  1.00  0.00     0.198 C 
HETATM   11  O2  UNL     1      -3.133  38.355   3.330  1.00  0.00    -0.384 OA
HETATM   12  C22 UNL     1      -4.364  37.810   3.045  1.00  0.00     0.211 C 
HETATM   13  C23 UNL     1      -4.381  36.689   2.060  1.00  0.00     0.083 C 
HETATM   14  N4  UNL     1      -4.547  35.393   2.537  1.00  0.00    -0.379 N 
ATOM     15  H4  UNL     1      -3.888  34.653   2.292  1.00  0.00     0.160 HD
ENDROOT
BRANCH   1  16
HETATM   16  N1  UNL     1      -6.591  34.155   2.891  1.00  0.00    -0.337 N 
HETATM   17  C5  UNL     1      -7.517  34.445   1.810  1.00  0.00     0.242 C 
HETATM   18  O1  UNL     1      -7.455  35.587   1.322  1.00  0.00    -0.269 OA
ATOM     19  H1  UNL     1      -6.600  33.227   3.313  1.00  0.00     0.164 HD
BRANCH  17  20
HETATM   20  C4  UNL     1      -8.427  33.427   1.378  1.00  0.00     0.070 C 
BRANCH  20  21
HETATM   21  C3  UNL     1      -8.183  32.591   0.213  1.00  0.00    -0.022 C 
BRANCH  21  22
HETATM   22  C2  UNL     1      -7.273  32.916  -0.883  1.00  0.00     0.023 C 
HETATM   23  C1  UNL     1      -7.750  33.870  -1.920  1.00  0.00     0.009 C 
ENDBRANCH  21  22
ENDBRANCH  20  21
ENDBRANCH  17  20
ENDBRANCH   1  16
BRANCH   4  24
HETATM   24  C9  UNL     1      -5.190  34.536   8.055  1.00  0.00     0.223 C 
HETATM   25  C10 UNL     1      -3.939  34.639   8.886  1.00  0.00     0.036 C 
HETATM   26  C11 UNL     1      -4.183  34.154  10.285  1.00  0.00     0.002 C 
HETATM   27  C12 UNL     1      -3.463  32.851  10.577  1.00  0.00     0.000 C 
HETATM   28  C13 UNL     1      -4.396  31.667  10.556  1.00  0.00     0.000 C 
HETATM   29  C14 UNL     1      -5.346  31.663   9.399  1.00  0.00     0.000 C 
HETATM   30  C15 UNL     1      -4.667  32.065   8.112  1.00  0.00     0.002 C 
HETATM   31  C16 UNL     1      -5.441  33.181   7.483  1.00  0.00     0.036 C 
ENDBRANCH   4  24
TORSDOF 5
ENDMDL
MODEL 2
REMARK VINA RESULT: -7.029848917      1.446      2.268
REMARK  5 active torsions:
REMARK  status: ('A' for Active; 'I' for Inactive)
REMARK    1  A    between atoms: C2_2  and  C3_3 
REMARK    2  A    between atoms: C3_3  and  C4_4 
REMARK    3  A    between atoms: C4_4  and  C5_5 
REMARK       I    between atoms: C5_5  and  N1_7 
REMARK    4  A    between atoms: N1_7  and  C6_9 
REMARK    5  A    between atoms: N2_12  and  C9_13 
ROOT
HETATM    1  C6  UNL     1      -4.842  35.670   1.637  1.00  0.00     0.185 C 
HETATM    2  C7  UNL     1      -4.472  35.269   3.041  1.00  0.00     0.077 C 
HETATM    3  C8  UNL     1      -5.626  35.253   4.015  1.00  0.00     0.276 C 
HETATM    4  N2  UNL     1      -5.226  35.595   5.353  1.00  0.00     0.095 N 
HETATM    5  C17 UNL     1      -6.127  36.459   6.043  1.00  0.00     0.303 C 
HETATM    6  C18 UNL     1      -5.998  37.909   5.666  1.00  0.00     0.302 C 
HETATM    7  N3  UNL     1      -4.631  38.386   5.710  1.00  0.00     0.087 N 
HETATM    8  C19 UNL     1      -4.231  38.888   6.995  1.00  0.00     0.310 C 
HETATM    9  C20 UNL     1      -4.481  39.374   4.658  1.00  0.00     0.298 C 
HETATM   10  C21 UNL     1      -3.197  39.162   3.871  1.00  0.00     0.198 C 
HETATM   11  O2  UNL     1      -3.333  39.384   2.513  1.00  0.00    -0.384 OA
HETATM   12  C22 UNL     1      -4.295  38.606   1.908  1.00  0.00     0.211 C 
HETATM   13  C23 UNL     1      -3.828  37.703   0.816  1.00  0.00     0.083 C 
HETATM   14  N4  UNL     1      -3.706  36.344   1.089  1.00  0.00    -0.379 N 
ATOM     15  H4  UNL     1      -2.836  35.845   0.904  1.00  0.00     0.160 HD
ENDROOT
BRANCH   1  16
HETATM   16  N1  UNL     1      -5.355  34.595   0.847  1.00  0.00    -0.337 N 
HETATM   17  C5  UNL     1      -6.247  34.822  -0.277  1.00  0.00     0.242 C 
HETATM   18  O1  UNL     1      -6.530  36.007  -0.526  1.00  0.00    -0.269 OA
ATOM     19  H1  UNL     1      -5.088  33.639   1.080  1.00  0.00     0.164 HD
BRANCH  17  20
HETATM   20  C4  UNL     1      -6.741  33.698  -1.016  1.00  0.00     0.070 C 
BRANCH  20  21
HETATM   21  C3  UNL     1      -7.909  32.935  -0.605  1.00  0.00    -0.022 C 
BRANCH  21  22
HETATM   22  C2  UNL     1      -8.079  32.285   0.692  1.00  0.00     0.023 C 
HETATM   23  C1  UNL     1      -8.733  33.064   1.777  1.00  0.00     0.009 C 
ENDBRANCH  21  22
ENDBRANCH  20  21
ENDBRANCH  17  20
ENDBRANCH   1  16
BRANCH   4  24
HETATM   24  C9  UNL     1      -5.039  34.418   6.199  1.00  0.00     0.223 C 
HETATM   25  C10 UNL     1      -6.357  33.761   6.513  1.00  0.00     0.036 C 
HETATM   26  C11 UNL     1      -6.198  32.275   6.644  1.00  0.00     0.002 C 
HETATM   27  C12 UNL     1      -6.385  31.798   8.071  1.00  0.00     0.000 C 
HETATM   28  C13 UNL     1      -5.073  31.477   8.741  1.00  0.00     0.000 C 
HETATM   29  C14 UNL     1      -4.007  32.503   8.512  1.00  0.00     0.000 C 
HETATM   30  C15 UNL     1      -4.545  33.908   8.623  1.00  0.00     0.002 C 
HETATM   31  C16 UNL     1      -4.175  34.669   7.389  1.00  0.00     0.036 C 
ENDBRANCH   4  24
TORSDOF 5
ENDMDL
MODEL 3
REMARK VINA RESULT: -6.933658361      0.394      1.292
REMARK  5 active torsions:
REMARK  status: ('A' for Active; 'I' for Inactive)
REMARK    1  A    between atoms: C2_2  and  C3_3 
REMARK    2  A    between atoms: C3_3  and  C4_4 
REMARK    3  A    between atoms: C4_4  and  C5_5 
REMARK       I    between atoms: C5_5  and  N1_7 
REMARK    4  A    between atoms: N1_7  and  C6_9 
REMARK    5  A    between atoms: N2_12  and  C9_13 
ROOT
HETATM    1  C6  UNL     1      -5.658  35.323   3.371  1.00  0.00     0.185 C 
HETATM    2  C7  UNL     1      -4.885  35.014   4.627  1.00  0.00     0.077 C 
HETATM    3  C8  UNL     1      -5.662  35.215   5.907  1.00  0.00     0.276 C 
HETATM    4  N2  UNL     1      -4.827  35.631   7.001  1.00  0.00     0.095 N 
HETATM    5  C17 UNL     1      -5.390  36.648   7.827  1.00  0.00     0.303 C 
HETATM    6  C18 UNL     1      -5.280  38.034   7.255  1.00  0.00     0.302 C 
HETATM    7  N3  UNL     1      -3.940  38.360   6.812  1.00  0.00     0.087 N 
HETATM    8  C19 UNL     1      -3.110  38.930   7.837  1.00  0.00     0.310 C 
HETATM    9  C20 UNL     1      -4.063  39.226   5.654  1.00  0.00     0.298 C 
HETATM   10  C21 UNL     1      -3.121  38.802   4.537  1.00  0.00     0.198 C 
HETATM   11  O2  UNL     1      -3.671  38.912   3.273  1.00  0.00    -0.384 OA
HETATM   12  C22 UNL     1      -4.833  38.193   3.098  1.00  0.00     0.211 C 
HETATM   13  C23 UNL     1      -4.812  37.149   2.033  1.00  0.00     0.083 C 
HETATM   14  N4  UNL     1      -4.712  35.815   2.418  1.00  0.00    -0.379 N 
ATOM     15  H4  UNL     1      -3.988  35.208   2.033  1.00  0.00     0.160 HD
ENDROOT
BRANCH   1  16
HETATM   16  N1  UNL     1      -6.478  34.244   2.918  1.00  0.00    -0.337 N 
HETATM   17  C5  UNL     1      -7.458  34.413   1.859  1.00  0.00     0.242 C 
HETATM   18  O1  UNL     1      -7.536  35.547   1.355  1.00  0.00    -0.269 OA
ATOM     19  H1  UNL     1      -6.372  33.327   3.352  1.00  0.00     0.164 HD
BRANCH  17  20
HETATM   20  C4  UNL     1      -8.261  33.294   1.466  1.00  0.00     0.070 C 
BRANCH  20  21
HETATM   21  C3  UNL     1      -7.982  32.499   0.280  1.00  0.00    -0.022 C 
BRANCH  21  22
HETATM   22  C2  UNL     1      -7.125  32.911  -0.829  1.00  0.00     0.023 C 
HETATM   23  C1  UNL     1      -7.736  33.729  -1.911  1.00  0.00     0.009 C 
ENDBRANCH  21  22
ENDBRANCH  20  21
ENDBRANCH  17  20
ENDBRANCH   1  16
BRANCH   4  24
HETATM   24  C9  UNL     1      -4.466  34.523   7.883  1.00  0.00     0.223 C 
HETATM   25  C10 UNL     1      -5.510  33.438   7.844  1.00  0.00     0.036 C 
HETATM   26  C11 UNL     1      -4.886  32.087   8.033  1.00  0.00     0.002 C 
HETATM   27  C12 UNL     1      -5.253  31.463   9.366  1.00  0.00     0.000 C 
HETATM   28  C13 UNL     1      -4.128  31.550  10.366  1.00  0.00     0.000 C 
HETATM   29  C14 UNL     1      -3.461  32.890  10.414  1.00  0.00     0.000 C 
HETATM   30  C15 UNL     1      -4.462  34.018  10.358  1.00  0.00     0.002 C 
HETATM   31  C16 UNL     1      -4.076  34.955   9.256  1.00  0.00     0.036 C 
ENDBRANCH   4  24
TORSDOF 5
ENDMDL
MODEL 4
REMARK VINA RESULT: -6.879973855      2.073      7.185
REMARK  5 active torsions:
REMARK  status: ('A' for Active; 'I' for Inactive)
REMARK    1  A    between atoms: C2_2  and  C3_3 
REMARK    2  A    between atoms: C3_3  and  C4_4 
REMARK    3  A    between atoms: C4_4  and  C5_5 
REMARK       I    between atoms: C5_5  and  N1_7 
REMARK    4  A    between atoms: N1_7  and  C6_9 
REMARK    5  A    between atoms: N2_12  and  C9_13 
ROOT
HETATM    1  C6  UNL     1      -5.629  36.024   6.424  1.00  0.00     0.185 C 
HETATM    2  C7  UNL     1      -6.352  35.981   5.104  1.00  0.00     0.077 C 
HETATM    3  C8  UNL     1      -5.464  35.729   3.908  1.00  0.00     0.276 C 
HETATM    4  N2  UNL     1      -5.940  36.378   2.717  1.00  0.00     0.095 N 
HETATM    5  C17 UNL     1      -4.925  36.986   1.922  1.00  0.00     0.303 C 
HETATM    6  C18 UNL     1      -4.466  38.324   2.432  1.00  0.00     0.302 C 
HETATM    7  N3  UNL     1      -5.561  39.228   2.717  1.00  0.00     0.087 N 
HETATM    8  C19 UNL     1      -5.972  40.018   1.590  1.00  0.00     0.310 C 
HETATM    9  C20 UNL     1      -5.169  40.043   3.852  1.00  0.00     0.298 C 
HETATM   10  C21 UNL     1      -6.290  40.154   4.875  1.00  0.00     0.198 C 
HETATM   11  O2  UNL     1      -5.853  40.114   6.186  1.00  0.00    -0.384 OA
HETATM   12  C22 UNL     1      -5.140  38.982   6.509  1.00  0.00     0.211 C 
HETATM   13  C23 UNL     1      -5.702  38.134   7.600  1.00  0.00     0.083 C 
HETATM   14  N4  UNL     1      -6.341  36.948   7.253  1.00  0.00    -0.379 N 
ATOM     15  H4  UNL     1      -7.286  36.743   7.578  1.00  0.00     0.160 HD
ENDROOT
BRANCH   1  16
HETATM   16  N1  UNL     1      -5.402  34.736   6.999  1.00  0.00    -0.337 N 
HETATM   17  C5  UNL     1      -4.342  34.499   7.964  1.00  0.00     0.242 C 
HETATM   18  O1  UNL     1      -3.649  35.483   8.276  1.00  0.00    -0.269 OA
ATOM     19  H1  UNL     1      -6.001  33.958   6.724  1.00  0.00     0.164 HD
BRANCH  17  20
HETATM   20  C4  UNL     1      -4.156  33.178   8.488  1.00  0.00     0.070 C 
BRANCH  20  21
HETATM   21  C3  UNL     1      -5.081  32.087   8.225  1.00  0.00    -0.022 C 
BRANCH  21  22
HETATM   22  C2  UNL     1      -5.294  30.933   9.095  1.00  0.00     0.023 C 
HETATM   23  C1  UNL     1      -5.298  31.164  10.565  1.00  0.00     0.009 C 
ENDBRANCH  21  22
ENDBRANCH  20  21
ENDBRANCH  17  20
ENDBRANCH   1  16
BRANCH   4  24
HETATM   24  C9  UNL     1      -6.674  35.468   1.840  1.00  0.00     0.223 C 
HETATM   25  C10 UNL     1      -6.749  34.086   2.433  1.00  0.00     0.036 C 
HETATM   26  C11 UNL     1      -8.034  33.409   2.056  1.00  0.00     0.002 C 
HETATM   27  C12 UNL     1      -7.818  32.256   1.095  1.00  0.00     0.000 C 
HETATM   28  C13 UNL     1      -8.192  32.614  -0.320  1.00  0.00     0.000 C 
HETATM   29  C14 UNL     1      -7.691  33.955  -0.760  1.00  0.00     0.000 C 
HETATM   30  C15 UNL     1      -6.272  34.201  -0.308  1.00  0.00     0.002 C 
HETATM   31  C16 UNL     1      -6.215  35.506   0.421  1.00  0.00     0.036 C 
ENDBRANCH   4  24
TORSDOF 5
ENDMDL
MODEL 5
REMARK VINA RESULT: -6.753366373      1.975      7.365
REMARK  5 active torsions:
REMARK  status: ('A' for Active; 'I' for Inactive)
REMARK    1  A    between atoms: C2_2  and  C3_3 
REMARK    2  A    between atoms: C3_3  and  C4_4 
REMARK    3  A    between atoms: C4_4  and  C5_5 
REMARK       I    between atoms: C5_5  and  N1_7 
REMARK    4  A    between atoms: N1_7  and  C6_9 
REMARK    5  A    between atoms: N2_12  and  C9_13 
ROOT
HETATM    1  C6  UNL     1      -5.526  35.847   6.359  1.00  0.00     0.185 C 
HETATM    2  C7  UNL     1      -6.093  35.694   4.972  1.00  0.00     0.077 C 
HETATM    3  C8  UNL     1      -5.061  35.460   3.894  1.00  0.00     0.276 C 
HETATM    4  N2  UNL     1      -5.446  36.021   2.628  1.00  0.00     0.095 N 
HETATM    5  C17 UNL     1      -4.394  36.671   1.918  1.00  0.00     0.303 C 
HETATM    6  C18 UNL     1      -4.091  38.061   2.407  1.00  0.00     0.302 C 
HETATM    7  N3  UNL     1      -5.273  38.890   2.527  1.00  0.00     0.087 N 
HETATM    8  C19 UNL     1      -5.611  39.599   1.323  1.00  0.00     0.310 C 
HETATM    9  C20 UNL     1      -5.068  39.779   3.655  1.00  0.00     0.298 C 
HETATM   10  C21 UNL     1      -6.301  39.847   4.544  1.00  0.00     0.198 C 
HETATM   11  O2  UNL     1      -6.012  39.895   5.895  1.00  0.00    -0.384 OA
HETATM   12  C22 UNL     1      -5.260  38.834   6.349  1.00  0.00     0.211 C 
HETATM   13  C23 UNL     1      -5.879  37.992   7.414  1.00  0.00     0.083 C 
HETATM   14  N4  UNL     1      -6.389  36.747   7.059  1.00  0.00    -0.379 N 
ATOM     15  H4  UNL     1      -7.348  36.485   7.290  1.00  0.00     0.160 HD
ENDROOT
BRANCH   1  16
HETATM   16  N1  UNL     1      -5.273  34.605   7.019  1.00  0.00    -0.337 N 
HETATM   17  C5  UNL     1      -4.328  34.494   8.117  1.00  0.00     0.242 C 
HETATM   18  O1  UNL     1      -3.759  35.543   8.464  1.00  0.00    -0.269 OA
ATOM     19  H1  UNL     1      -5.771  33.770   6.710  1.00  0.00     0.164 HD
BRANCH  17  20
HETATM   20  C4  UNL     1      -4.108  33.214   8.722  1.00  0.00     0.070 C 
BRANCH  20  21
HETATM   21  C3  UNL     1      -4.906  32.041   8.402  1.00  0.00    -0.022 C 
BRANCH  21  22
HETATM   22  C2  UNL     1      -5.237  30.966   9.334  1.00  0.00     0.023 C 
HETATM   23  C1  UNL     1      -5.269  31.291  10.786  1.00  0.00     0.009 C 
ENDBRANCH  21  22
ENDBRANCH  20  21
ENDBRANCH  17  20
ENDBRANCH   1  16
BRANCH   4  24
HETATM   24  C9  UNL     1      -6.011  35.022   1.723  1.00  0.00     0.223 C 
HETATM   25  C10 UNL     1      -6.309  35.620   0.373  1.00  0.00     0.036 C 
HETATM   26  C11 UNL     1      -6.117  34.607  -0.717  1.00  0.00     0.002 C 
HETATM   27  C12 UNL     1      -7.427  34.193  -1.357  1.00  0.00     0.000 C 
HETATM   28  C13 UNL     1      -7.889  32.837  -0.888  1.00  0.00     0.000 C 
HETATM   29  C14 UNL     1      -7.773  32.635   0.592  1.00  0.00     0.000 C 
HETATM   30  C15 UNL     1      -8.221  33.853   1.362  1.00  0.00     0.002 C 
HETATM   31  C16 UNL     1      -7.139  34.248   2.317  1.00  0.00     0.036 C 
ENDBRANCH   4  24
TORSDOF 5
ENDMDL
