MODEL 1
REMARK VINA RESULT: -7.514706805      0.000      0.000
REMARK  6 active torsions:
REMARK  status: ('A' for Active; 'I' for Inactive)
REMARK    1  A    between atoms: C1_2  and  C2_3 
REMARK       I    between atoms: C1_2  and  N3_28 
REMARK    2  A    between atoms: C2_3  and  O2_4 
REMARK    3  A    between atoms: O2_4  and  C3_5 
REMARK    4  A    between atoms: C4_6  and  C5_7 
REMARK    5  A    between atoms: C5_7  and  N1_8 
REMARK    6  A    between atoms: N1_8  and  C6_11 
ROOT
HETATM    1  C3  UNL     1      -8.095  35.714  -5.915  1.00  0.00     0.051 C 
HETATM    2  C4  UNL     1      -8.513  35.204  -4.779  1.00  0.00    -0.025 C 
HETATM    3  C15 UNL     1      -9.819  35.341  -4.023  1.00  0.00     0.038 C 
HETATM    4  C16 UNL     1     -10.833  36.172  -4.716  1.00  0.00     0.004 C 
HETATM    5  C17 UNL     1     -10.389  37.613  -4.812  1.00  0.00     0.001 C 
HETATM    6  C18 UNL     1      -9.316  37.838  -5.832  1.00  0.00     0.006 C 
HETATM    7  C19 UNL     1      -9.036  36.653  -6.689  1.00  0.00     0.065 C 
ENDROOT
BRANCH   2   8
HETATM    8  C5  UNL     1      -7.562  34.322  -4.068  1.00  0.00     0.272 C 
BRANCH   8   9
HETATM    9  N1  UNL     1      -6.541  35.144  -3.424  1.00  0.00    -0.039 N 
ATOM     10  H12 UNL     1      -5.620  34.992  -3.836  1.00  0.00     0.281 HD
ATOM     11  H11 UNL     1      -6.653  36.131  -3.653  1.00  0.00     0.281 HD
BRANCH   9  12
HETATM   12  C6  UNL     1      -6.526  34.928  -1.996  1.00  0.00     0.229 C 
HETATM   13  C7  UNL     1      -7.570  33.906  -1.614  1.00  0.00     0.074 C 
HETATM   14  C8  UNL     1      -7.777  33.920  -0.148  1.00  0.00    -0.000 C 
HETATM   15  C9  UNL     1      -8.010  32.550   0.446  1.00  0.00     0.024 C 
HETATM   16  C12 UNL     1      -6.500  34.406   0.513  1.00  0.00     0.036 C 
HETATM   17  C10 UNL     1      -8.175  32.699   1.926  1.00  0.00     0.114 C 
HETATM   18  N2  UNL     1      -7.232  33.531   2.578  1.00  0.00    -0.421 N 
HETATM   19  C11 UNL     1      -6.922  34.779   1.919  1.00  0.00     0.121 C 
ATOM     20  H2  UNL     1      -6.797  33.264   3.461  1.00  0.00     0.153 HD
HETATM   21  C13 UNL     1      -5.846  35.479  -0.267  1.00  0.00     0.135 C 
HETATM   22  C14 UNL     1      -6.768  36.213  -1.204  1.00  0.00     0.101 C 
HETATM   23  O3  UNL     1      -5.318  34.827  -1.425  1.00  0.00    -0.348 OA
ENDBRANCH   9  12
ENDBRANCH   8   9
ENDBRANCH   2   8
BRANCH   1  24
HETATM   24  O2  UNL     1      -6.945  35.485  -6.427  1.00  0.00    -0.346 OA
BRANCH  24  25
HETATM   25  C2  UNL     1      -5.770  35.257  -6.953  1.00  0.00     0.278 C 
BRANCH  25  26
HETATM   26  C1  UNL     1      -5.580  33.874  -7.499  1.00  0.00     0.243 C 
HETATM   27  O1  UNL     1      -6.241  33.564  -8.503  1.00  0.00    -0.271 OA
HETATM   28  N3  UNL     1      -4.670  33.023  -6.845  1.00  0.00    -0.350 N 
HETATM   29  C20 UNL     1      -4.463  31.685  -7.322  1.00  0.00     0.126 C 
HETATM   30  C24 UNL     1      -3.935  33.462  -5.691  1.00  0.00     0.126 C 
HETATM   31  C21 UNL     1      -4.800  30.742  -6.181  1.00  0.00     0.020 C 
HETATM   32  C22 UNL     1      -3.953  31.119  -4.988  1.00  0.00     0.003 C 
HETATM   33  C23 UNL     1      -4.269  32.514  -4.543  1.00  0.00     0.020 C 
ENDBRANCH  25  26
ENDBRANCH  24  25
ENDBRANCH   1  24
TORSDOF 6
ENDMDL
MODEL 2
REMARK VINA RESULT: -7.311417040      4.569      7.748
REMARK  6 active torsions:
REMARK  status: ('A' for Active; 'I' for Inactive)
REMARK    1  A    between atoms: C1_2  and  C2_3 
REMARK       I    between atoms: C1_2  and  N3_28 
REMARK    2  A    between atoms: C2_3  and  O2_4 
REMARK    3  A    between atoms: O2_4  and  C3_5 
REMARK    4  A    between atoms: C4_6  and  C5_7 
REMARK    5  A    between atoms: C5_7  and  N1_8 
REMARK    6  A    between atoms: N1_8  and  C6_11 
ROOT
HETATM    1  C3  UNL     1      -6.843  36.993   2.277  1.00  0.00     0.051 C 
HETATM    2  C4  UNL     1      -6.090  37.086   3.348  1.00  0.00    -0.025 C 
HETATM    3  C15 UNL     1      -5.732  38.258   4.239  1.00  0.00     0.038 C 
HETATM    4  C16 UNL     1      -6.391  39.531   3.857  1.00  0.00     0.004 C 
HETATM    5  C17 UNL     1      -5.905  40.017   2.512  1.00  0.00     0.001 C 
HETATM    6  C18 UNL     1      -6.456  39.233   1.361  1.00  0.00     0.006 C 
HETATM    7  C19 UNL     1      -7.522  38.265   1.742  1.00  0.00     0.065 C 
ENDROOT
BRANCH   2   8
HETATM    8  C5  UNL     1      -5.448  35.836   3.810  1.00  0.00     0.272 C 
BRANCH   8   9
HETATM    9  N1  UNL     1      -6.375  35.119   4.683  1.00  0.00    -0.039 N 
ATOM     10  H12 UNL     1      -7.148  35.715   4.979  1.00  0.00     0.281 HD
ATOM     11  H11 UNL     1      -6.907  34.417   4.169  1.00  0.00     0.281 HD
BRANCH   9  12
HETATM   12  C6  UNL     1      -5.684  34.543   5.812  1.00  0.00     0.229 C 
HETATM   13  C7  UNL     1      -6.385  33.283   6.262  1.00  0.00     0.074 C 
HETATM   14  C8  UNL     1      -5.882  32.873   7.593  1.00  0.00    -0.000 C 
HETATM   15  C9  UNL     1      -5.754  31.377   7.760  1.00  0.00     0.024 C 
HETATM   16  C12 UNL     1      -4.465  33.394   7.751  1.00  0.00     0.036 C 
HETATM   17  C10 UNL     1      -5.212  31.100   9.127  1.00  0.00     0.114 C 
HETATM   18  N2  UNL     1      -4.108  31.890   9.533  1.00  0.00    -0.421 N 
HETATM   19  C11 UNL     1      -4.194  33.302   9.239  1.00  0.00     0.121 C 
ATOM     20  H2  UNL     1      -3.300  31.485  10.005  1.00  0.00     0.153 HD
HETATM   21  C13 UNL     1      -4.297  34.735   7.151  1.00  0.00     0.135 C 
HETATM   22  C14 UNL     1      -5.579  35.508   6.993  1.00  0.00     0.101 C 
HETATM   23  O3  UNL     1      -4.347  34.518   5.738  1.00  0.00    -0.348 OA
ENDBRANCH   9  12
ENDBRANCH   8   9
ENDBRANCH   2   8
BRANCH   1  24
HETATM   24  O2  UNL     1      -7.052  35.904   1.637  1.00  0.00    -0.346 OA
BRANCH  24  25
HETATM   25  C2  UNL     1      -7.271  34.793   0.983  1.00  0.00     0.278 C 
BRANCH  25  26
HETATM   26  C1  UNL     1      -6.142  34.343   0.105  1.00  0.00     0.243 C 
HETATM   27  O1  UNL     1      -4.988  34.525   0.525  1.00  0.00    -0.271 OA
HETATM   28  N3  UNL     1      -6.461  33.748  -1.130  1.00  0.00    -0.350 N 
HETATM   29  C20 UNL     1      -5.414  33.312  -2.012  1.00  0.00     0.126 C 
HETATM   30  C24 UNL     1      -7.825  33.565  -1.540  1.00  0.00     0.126 C 
HETATM   31  C21 UNL     1      -5.598  34.049  -3.326  1.00  0.00     0.020 C 
HETATM   32  C22 UNL     1      -6.996  33.778  -3.831  1.00  0.00     0.003 C 
HETATM   33  C23 UNL     1      -8.011  34.302  -2.863  1.00  0.00     0.020 C 
ENDBRANCH  25  26
ENDBRANCH  24  25
ENDBRANCH   1  24
TORSDOF 6
ENDMDL
MODEL 3
REMARK VINA RESULT: -7.285485163      5.847      9.815
REMARK  6 active torsions:
REMARK  status: ('A' for Active; 'I' for Inactive)
REMARK    1  A    between atoms: C1_2  and  C2_3 
REMARK       I    between atoms: C1_2  and  N3_28 
REMARK    2  A    between atoms: C2_3  and  O2_4 
REMARK    3  A    between atoms: O2_4  and  C3_5 
REMARK    4  A    between atoms: C4_6  and  C5_7 
REMARK    5  A    between atoms: C5_7  and  N1_8 
REMARK    6  A    between atoms: N1_8  and  C6_11 
ROOT
HETATM    1  C3  UNL     1      -5.403  37.216   4.303  1.00  0.00     0.051 C 
HETATM    2  C4  UNL     1      -5.684  37.108   5.581  1.00  0.00    -0.025 C 
HETATM    3  C15 UNL     1      -5.816  38.140   6.683  1.00  0.00     0.038 C 
HETATM    4  C16 UNL     1      -5.639  39.539   6.224  1.00  0.00     0.004 C 
HETATM    5  C17 UNL     1      -4.226  39.786   5.749  1.00  0.00     0.001 C 
HETATM    6  C18 UNL     1      -3.930  39.172   4.416  1.00  0.00     0.006 C 
HETATM    7  C19 UNL     1      -5.127  38.615   3.726  1.00  0.00     0.065 C 
ENDROOT
BRANCH   2   8
HETATM    8  C5  UNL     1      -5.924  35.739   6.087  1.00  0.00     0.272 C 
BRANCH   8   9
HETATM    9  N1  UNL     1      -4.692  34.963   5.963  1.00  0.00    -0.039 N 
ATOM     10  H12 UNL     1      -4.732  34.318   5.173  1.00  0.00     0.281 HD
ATOM     11  H11 UNL     1      -3.913  35.542   5.651  1.00  0.00     0.281 HD
BRANCH   9  12
HETATM   12  C6  UNL     1      -4.385  34.276   7.195  1.00  0.00     0.229 C 
HETATM   13  C7  UNL     1      -5.293  33.081   7.363  1.00  0.00     0.074 C 
HETATM   14  C8  UNL     1      -5.205  32.571   8.751  1.00  0.00    -0.000 C 
HETATM   15  C9  UNL     1      -5.264  31.065   8.851  1.00  0.00     0.024 C 
HETATM   16  C12 UNL     1      -3.841  32.935   9.310  1.00  0.00     0.036 C 
HETATM   17  C10 UNL     1      -5.136  30.682  10.292  1.00  0.00     0.114 C 
HETATM   18  N2  UNL     1      -4.115  31.336  11.023  1.00  0.00    -0.421 N 
HETATM   19  C11 UNL     1      -3.989  32.759  10.807  1.00  0.00     0.121 C 
ATOM     20  H2  UNL     1      -3.503  30.831  11.664  1.00  0.00     0.153 HD
HETATM   21  C13 UNL     1      -3.396  34.272   8.861  1.00  0.00     0.135 C 
HETATM   22  C14 UNL     1      -4.514  35.180   8.421  1.00  0.00     0.101 C 
HETATM   23  O3  UNL     1      -3.085  34.114   7.475  1.00  0.00    -0.348 OA
ENDBRANCH   9  12
ENDBRANCH   8   9
ENDBRANCH   2   8
BRANCH   1  24
HETATM   24  O2  UNL     1      -5.339  36.225   3.495  1.00  0.00    -0.346 OA
BRANCH  24  25
HETATM   25  C2  UNL     1      -5.275  35.218   2.664  1.00  0.00     0.278 C 
BRANCH  25  26
HETATM   26  C1  UNL     1      -6.491  34.341   2.640  1.00  0.00     0.243 C 
HETATM   27  O1  UNL     1      -6.764  33.720   3.680  1.00  0.00    -0.271 OA
HETATM   28  N3  UNL     1      -7.239  34.280   1.450  1.00  0.00    -0.350 N 
HETATM   29  C20 UNL     1      -8.405  33.444   1.373  1.00  0.00     0.126 C 
HETATM   30  C24 UNL     1      -6.861  35.038   0.291  1.00  0.00     0.126 C 
HETATM   31  C21 UNL     1      -8.180  32.461   0.239  1.00  0.00     0.020 C 
HETATM   32  C22 UNL     1      -7.889  33.246  -1.019  1.00  0.00     0.003 C 
HETATM   33  C23 UNL     1      -6.637  34.052  -0.853  1.00  0.00     0.020 C 
ENDBRANCH  25  26
ENDBRANCH  24  25
ENDBRANCH   1  24
TORSDOF 6
ENDMDL
MODEL 4
REMARK VINA RESULT: -7.267381694      5.909     10.011
REMARK  6 active torsions:
REMARK  status: ('A' for Active; 'I' for Inactive)
REMARK    1  A    between atoms: C1_2  and  C2_3 
REMARK       I    between atoms: C1_2  and  N3_28 
REMARK    2  A    between atoms: C2_3  and  O2_4 
REMARK    3  A    between atoms: O2_4  and  C3_5 
REMARK    4  A    between atoms: C4_6  and  C5_7 
REMARK    5  A    between atoms: C5_7  and  N1_8 
REMARK    6  A    between atoms: N1_8  and  C6_11 
ROOT
HETATM    1  C3  UNL     1      -2.922  35.162   3.178  1.00  0.00     0.051 C 
HETATM    2  C4  UNL     1      -2.440  35.249   4.396  1.00  0.00    -0.025 C 
HETATM    3  C15 UNL     1      -1.068  34.957   4.968  1.00  0.00     0.038 C 
HETATM    4  C16 UNL     1      -0.069  34.535   3.957  1.00  0.00     0.004 C 
HETATM    5  C17 UNL     1      -0.433  33.200   3.351  1.00  0.00     0.001 C 
HETATM    6  C18 UNL     1      -1.574  33.275   2.385  1.00  0.00     0.006 C 
HETATM    7  C19 UNL     1      -1.997  34.664   2.054  1.00  0.00     0.065 C 
ENDROOT
BRANCH   2   8
HETATM    8  C5  UNL     1      -3.377  35.718   5.441  1.00  0.00     0.272 C 
BRANCH   8   9
HETATM    9  N1  UNL     1      -4.343  34.658   5.723  1.00  0.00    -0.039 N 
ATOM     10  H12 UNL     1      -5.301  34.975   5.577  1.00  0.00     0.281 HD
ATOM     11  H11 UNL     1      -4.312  33.923   5.017  1.00  0.00     0.281 HD
BRANCH   9  12
HETATM   12  C6  UNL     1      -4.155  34.126   7.053  1.00  0.00     0.229 C 
HETATM   13  C7  UNL     1      -5.052  32.930   7.265  1.00  0.00     0.074 C 
HETATM   14  C8  UNL     1      -5.102  32.585   8.704  1.00  0.00    -0.000 C 
HETATM   15  C9  UNL     1      -5.142  31.099   8.972  1.00  0.00     0.024 C 
HETATM   16  C12 UNL     1      -3.813  33.053   9.354  1.00  0.00     0.036 C 
HETATM   17  C10 UNL     1      -5.160  30.887  10.453  1.00  0.00     0.114 C 
HETATM   18  N2  UNL     1      -4.235  31.652  11.204  1.00  0.00    -0.421 N 
HETATM   19  C11 UNL     1      -4.115  33.044  10.839  1.00  0.00     0.121 C 
ATOM     20  H2  UNL     1      -3.685  31.243  11.960  1.00  0.00     0.153 HD
HETATM   21  C13 UNL     1      -3.349  34.343   8.801  1.00  0.00     0.135 C 
HETATM   22  C14 UNL     1      -4.430  35.160   8.145  1.00  0.00     0.101 C 
HETATM   23  O3  UNL     1      -2.889  34.038   7.482  1.00  0.00    -0.348 OA
ENDBRANCH   9  12
ENDBRANCH   8   9
ENDBRANCH   2   8
BRANCH   1  24
HETATM   24  O2  UNL     1      -4.125  35.462   2.857  1.00  0.00    -0.346 OA
BRANCH  24  25
HETATM   25  C2  UNL     1      -5.350  35.775   2.526  1.00  0.00     0.278 C 
BRANCH  25  26
HETATM   26  C1  UNL     1      -6.361  34.689   2.747  1.00  0.00     0.243 C 
HETATM   27  O1  UNL     1      -6.380  34.149   3.864  1.00  0.00    -0.271 OA
HETATM   28  N3  UNL     1      -7.215  34.354   1.680  1.00  0.00    -0.350 N 
HETATM   29  C20 UNL     1      -8.191  33.312   1.838  1.00  0.00     0.126 C 
HETATM   30  C24 UNL     1      -7.135  35.033   0.417  1.00  0.00     0.126 C 
HETATM   31  C21 UNL     1      -7.908  32.266   0.774  1.00  0.00     0.020 C 
HETATM   32  C22 UNL     1      -7.929  32.944  -0.576  1.00  0.00     0.003 C 
HETATM   33  C23 UNL     1      -6.854  33.984  -0.654  1.00  0.00     0.020 C 
ENDBRANCH  25  26
ENDBRANCH  24  25
ENDBRANCH   1  24
TORSDOF 6
ENDMDL
MODEL 5
REMARK VINA RESULT: -7.150444078      5.071      8.849
REMARK  6 active torsions:
REMARK  status: ('A' for Active; 'I' for Inactive)
REMARK    1  A    between atoms: C1_2  and  C2_3 
REMARK       I    between atoms: C1_2  and  N3_28 
REMARK    2  A    between atoms: C2_3  and  O2_4 
REMARK    3  A    between atoms: O2_4  and  C3_5 
REMARK    4  A    between atoms: C4_6  and  C5_7 
REMARK    5  A    between atoms: C5_7  and  N1_8 
REMARK    6  A    between atoms: N1_8  and  C6_11 
ROOT
HETATM    1  C3  UNL     1      -5.745  38.027   3.381  1.00  0.00     0.051 C 
HETATM    2  C4  UNL     1      -4.891  37.346   4.111  1.00  0.00    -0.025 C 
HETATM    3  C15 UNL     1      -3.779  37.780   5.043  1.00  0.00     0.038 C 
HETATM    4  C16 UNL     1      -3.658  39.250   5.196  1.00  0.00     0.004 C 
HETATM    5  C17 UNL     1      -3.237  39.903   3.900  1.00  0.00     0.001 C 
HETATM    6  C18 UNL     1      -4.332  39.966   2.881  1.00  0.00     0.006 C 
HETATM    7  C19 UNL     1      -5.668  39.563   3.402  1.00  0.00     0.065 C 
ENDROOT
BRANCH   2   8
HETATM    8  C5  UNL     1      -4.998  35.872   4.041  1.00  0.00     0.272 C 
BRANCH   8   9
HETATM    9  N1  UNL     1      -5.998  35.421   5.007  1.00  0.00    -0.039 N 
ATOM     10  H12 UNL     1      -6.548  36.200   5.369  1.00  0.00     0.281 HD
ATOM     11  H11 UNL     1      -6.747  34.897   4.556  1.00  0.00     0.281 HD
BRANCH   9  12
HETATM   12  C6  UNL     1      -5.384  34.663   6.072  1.00  0.00     0.229 C 
HETATM   13  C7  UNL     1      -6.219  33.445   6.389  1.00  0.00     0.074 C 
HETATM   14  C8  UNL     1      -5.778  32.850   7.671  1.00  0.00    -0.000 C 
HETATM   15  C9  UNL     1      -5.809  31.339   7.684  1.00  0.00     0.024 C 
HETATM   16  C12 UNL     1      -4.316  33.200   7.884  1.00  0.00     0.036 C 
HETATM   17  C10 UNL     1      -5.315  30.868   9.015  1.00  0.00     0.114 C 
HETATM   18  N2  UNL     1      -4.140  31.491   9.501  1.00  0.00    -0.421 N 
HETATM   19  C11 UNL     1      -4.074  32.927   9.354  1.00  0.00     0.121 C 
ATOM     20  H2  UNL     1      -3.384  30.957   9.930  1.00  0.00     0.153 HD
HETATM   21  C13 UNL     1      -4.000  34.570   7.424  1.00  0.00     0.135 C 
HETATM   22  C14 UNL     1      -5.193  35.485   7.346  1.00  0.00     0.101 C 
HETATM   23  O3  UNL     1      -4.056  34.505   5.997  1.00  0.00    -0.348 OA
ENDBRANCH   9  12
ENDBRANCH   8   9
ENDBRANCH   2   8
BRANCH   1  24
HETATM   24  O2  UNL     1      -6.645  37.495   2.642  1.00  0.00    -0.346 OA
BRANCH  24  25
HETATM   25  C2  UNL     1      -7.567  36.957   1.888  1.00  0.00     0.278 C 
BRANCH  25  26
HETATM   26  C1  UNL     1      -7.054  36.236   0.678  1.00  0.00     0.243 C 
HETATM   27  O1  UNL     1      -6.695  36.930  -0.287  1.00  0.00    -0.271 OA
HETATM   28  N3  UNL     1      -7.011  34.830   0.714  1.00  0.00    -0.350 N 
HETATM   29  C20 UNL     1      -6.539  34.094  -0.425  1.00  0.00     0.126 C 
HETATM   30  C24 UNL     1      -7.437  34.100   1.875  1.00  0.00     0.126 C 
HETATM   31  C21 UNL     1      -7.659  33.165  -0.856  1.00  0.00     0.020 C 
HETATM   32  C22 UNL     1      -8.047  32.308   0.326  1.00  0.00     0.003 C 
HETATM   33  C23 UNL     1      -8.561  33.163   1.444  1.00  0.00     0.020 C 
ENDBRANCH  25  26
ENDBRANCH  24  25
ENDBRANCH   1  24
TORSDOF 6
ENDMDL
