MODEL 1
REMARK VINA RESULT: -8.407268590      0.000      0.000
REMARK  8 active torsions:
REMARK  status: ('A' for Active; 'I' for Inactive)
REMARK    1  A    between atoms: C4_4  and  N1_5 
REMARK    2  A    between atoms: N1_5  and  C5_7 
REMARK    3  A    between atoms: C6_10  and  N3_11 
REMARK    4  A    between atoms: N4_14  and  C9_15 
REMARK    5  A    between atoms: N7_28  and  C18_30 
REMARK    6  A    between atoms: C18_30  and  C19_31 
REMARK    7  A    between atoms: C19_31  and  N8_32 
REMARK    8  A    between atoms: N8_32  and  C20_34 
ROOT
HETATM    1  C5  UNL     1      10.026  53.526  89.275  1.00  0.00     0.167 A 
HETATM    2  N2  UNL     1      10.173  53.016  88.050  1.00  0.00    -0.172 N 
ATOM      3  H2  UNL     1      10.875  53.435  87.442  1.00  0.00     0.186 HD
HETATM    4  C6  UNL     1       9.445  51.973  87.559  1.00  0.00     0.696 A 
HETATM    5  N5  UNL     1       8.535  51.434  88.354  1.00  0.00    -0.130 N 
ATOM      6  H5  UNL     1       7.968  50.652  88.029  1.00  0.00     0.205 HD
HETATM    7  N6  UNL     1       8.363  51.923  89.590  1.00  0.00    -0.268 N 
ATOM      8  H6  UNL     1       7.655  51.491  90.184  1.00  0.00     0.189 HD
HETATM    9  C17 UNL     1       9.068  52.948  90.088  1.00  0.00     0.162 A 
HETATM   10  N7  UNL     1       8.903  53.412  91.261  1.00  0.00    -0.371 N 
ATOM     11  H7  UNL     1       9.491  54.196  91.542  1.00  0.00     0.161 HD
ENDROOT
BRANCH   1  12
HETATM   12  N1  UNL     1      10.709  54.508  89.739  1.00  0.00    -0.339 N 
ATOM     13  H1  UNL     1      10.218  55.396  89.840  1.00  0.00     0.167 HD
BRANCH  12  14
HETATM   14  C4  UNL     1      12.056  54.491  90.119  1.00  0.00     0.033 A 
HETATM   15  C3  UNL     1      12.459  53.844  91.251  1.00  0.00     0.029 A 
HETATM   16  C2  UNL     1      13.793  53.853  91.587  1.00  0.00     0.002 A 
HETATM   17  C1  UNL     1      14.699  54.522  90.762  1.00  0.00     0.000 A 
HETATM   18  C26 UNL     1      14.275  55.172  89.620  1.00  0.00     0.002 A 
HETATM   19  C25 UNL     1      12.947  55.165  89.284  1.00  0.00     0.029 A 
ENDBRANCH  12  14
ENDBRANCH   1  12
BRANCH  10  20
HETATM   20  C18 UNL     1       7.945  52.916  92.227  1.00  0.00     0.141 C 
BRANCH  20  21
HETATM   21  C19 UNL     1       8.615  52.880  93.581  1.00  0.00     0.139 C 
BRANCH  21  22
HETATM   22  N8  UNL     1       8.488  54.098  94.315  1.00  0.00    -0.388 N 
ATOM     23  H8  UNL     1       7.543  54.369  94.585  1.00  0.00     0.159 HD
BRANCH  22  24
HETATM   24  C20 UNL     1       9.419  54.878  94.667  1.00  0.00     0.030 A 
HETATM   25  C21 UNL     1       9.139  55.996  95.425  1.00  0.00     0.046 A 
HETATM   26  C22 UNL     1      10.169  56.845  95.808  1.00  0.00     0.089 A 
HETATM   27  N9  UNL     1      11.454  56.635  95.473  1.00  0.00    -0.375 N 
HETATM   28  C23 UNL     1      11.742  55.551  94.733  1.00  0.00     0.089 A 
ATOM     29  H9  UNL     1      12.188  57.279  95.770  1.00  0.00     0.164 HD
HETATM   30  C24 UNL     1      10.738  54.666  94.325  1.00  0.00     0.046 A 
ENDBRANCH  22  24
ENDBRANCH  21  22
ENDBRANCH  20  21
ENDBRANCH  10  20
BRANCH   4  31
HETATM   31  N3  UNL     1       9.681  51.508  86.230  1.00  0.00    -0.213 N 
HETATM   32  C7  UNL     1       9.892  50.134  85.899  1.00  0.00     0.161 C 
HETATM   33  C8  UNL     1      11.254  50.022  85.208  1.00  0.00     0.143 C 
HETATM   34  N4  UNL     1      11.381  51.142  84.289  1.00  0.00    -0.378 N 
HETATM   35  C15 UNL     1      10.186  51.871  83.916  1.00  0.00     0.143 C 
HETATM   36  C16 UNL     1       9.688  52.530  85.185  1.00  0.00     0.161 C 
BRANCH  34  37
HETATM   37  C9  UNL     1      12.682  51.457  83.801  1.00  0.00     0.030 A 
HETATM   38  C10 UNL     1      13.374  52.527  84.355  1.00  0.00     0.029 A 
HETATM   39  C11 UNL     1      14.634  52.910  83.949  1.00  0.00     0.002 A 
HETATM   40  C12 UNL     1      15.276  52.222  82.944  1.00  0.00     0.000 A 
HETATM   41  C13 UNL     1      14.605  51.159  82.384  1.00  0.00     0.002 A 
HETATM   42  C14 UNL     1      13.327  50.775  82.800  1.00  0.00     0.029 A 
ENDBRANCH  34  37
ENDBRANCH   4  31
TORSDOF 8
ENDMDL
MODEL 2
REMARK VINA RESULT: -8.354470563      2.403      9.963
REMARK  8 active torsions:
REMARK  status: ('A' for Active; 'I' for Inactive)
REMARK    1  A    between atoms: C4_4  and  N1_5 
REMARK    2  A    between atoms: N1_5  and  C5_7 
REMARK    3  A    between atoms: C6_10  and  N3_11 
REMARK    4  A    between atoms: N4_14  and  C9_15 
REMARK    5  A    between atoms: N7_28  and  C18_30 
REMARK    6  A    between atoms: C18_30  and  C19_31 
REMARK    7  A    between atoms: C19_31  and  N8_32 
REMARK    8  A    between atoms: N8_32  and  C20_34 
ROOT
HETATM    1  C5  UNL     1      11.478  51.026  88.590  1.00  0.00     0.167 A 
HETATM    2  N2  UNL     1      11.830  51.396  89.823  1.00  0.00    -0.172 N 
ATOM      3  H2  UNL     1      11.895  50.671  90.537  1.00  0.00     0.186 HD
HETATM    4  C6  UNL     1      12.107  52.679  90.191  1.00  0.00     0.696 A 
HETATM    5  N5  UNL     1      12.021  53.614  89.260  1.00  0.00    -0.130 N 
ATOM      6  H5  UNL     1      12.220  54.588  89.490  1.00  0.00     0.205 HD
HETATM    7  N6  UNL     1      11.670  53.276  88.011  1.00  0.00    -0.268 N 
ATOM      8  H6  UNL     1      11.610  54.015  87.311  1.00  0.00     0.189 HD
HETATM    9  C17 UNL     1      11.394  52.021  87.633  1.00  0.00     0.162 A 
HETATM   10  N7  UNL     1      11.060  51.700  86.448  1.00  0.00    -0.371 N 
ATOM     11  H7  UNL     1      10.868  50.715  86.264  1.00  0.00     0.161 HD
ENDROOT
BRANCH   1  12
HETATM   12  N1  UNL     1      11.217  49.819  88.242  1.00  0.00    -0.339 N 
ATOM     13  H1  UNL     1      10.230  49.564  88.189  1.00  0.00     0.167 HD
BRANCH  12  14
HETATM   14  C4  UNL     1      12.139  48.815  87.927  1.00  0.00     0.033 A 
HETATM   15  C3  UNL     1      12.946  48.275  88.886  1.00  0.00     0.029 A 
HETATM   16  C2  UNL     1      13.838  47.289  88.531  1.00  0.00     0.002 A 
HETATM   17  C1  UNL     1      13.895  46.868  87.202  1.00  0.00     0.000 A 
HETATM   18  C26 UNL     1      13.072  47.425  86.243  1.00  0.00     0.002 A 
HETATM   19  C25 UNL     1      12.183  48.406  86.594  1.00  0.00     0.029 A 
ENDBRANCH  12  14
ENDBRANCH   1  12
BRANCH  10  20
HETATM   20  C18 UNL     1      10.929  52.623  85.340  1.00  0.00     0.141 C 
BRANCH  20  21
HETATM   21  C19 UNL     1      11.512  51.969  84.109  1.00  0.00     0.139 C 
BRANCH  21  22
HETATM   22  N8  UNL     1      12.938  51.897  84.121  1.00  0.00    -0.388 N 
ATOM     23  H8  UNL     1      13.398  52.151  84.995  1.00  0.00     0.159 HD
BRANCH  22  24
HETATM   24  C20 UNL     1      13.694  51.551  83.167  1.00  0.00     0.030 A 
HETATM   25  C21 UNL     1      13.242  50.670  82.207  1.00  0.00     0.046 A 
HETATM   26  C22 UNL     1      14.080  50.299  81.164  1.00  0.00     0.089 A 
HETATM   27  N9  UNL     1      15.337  50.759  81.034  1.00  0.00    -0.375 N 
HETATM   28  C23 UNL     1      15.791  51.617  81.963  1.00  0.00     0.089 A 
ATOM     29  H9  UNL     1      15.927  50.466  80.256  1.00  0.00     0.164 HD
HETATM   30  C24 UNL     1      14.983  52.021  83.032  1.00  0.00     0.046 A 
ENDBRANCH  22  24
ENDBRANCH  21  22
ENDBRANCH  20  21
ENDBRANCH  10  20
BRANCH   4  31
HETATM   31  N3  UNL     1      12.470  52.967  91.542  1.00  0.00    -0.213 N 
HETATM   32  C7  UNL     1      12.321  52.036  92.615  1.00  0.00     0.161 C 
HETATM   33  C8  UNL     1      11.424  52.681  93.675  1.00  0.00     0.143 C 
HETATM   34  N4  UNL     1      11.825  54.072  93.813  1.00  0.00    -0.378 N 
HETATM   35  C15 UNL     1      13.113  54.477  93.288  1.00  0.00     0.143 C 
HETATM   36  C16 UNL     1      13.027  54.296  91.787  1.00  0.00     0.161 C 
BRANCH  34  37
HETATM   37  C9  UNL     1      10.923  54.963  94.463  1.00  0.00     0.030 A 
HETATM   38  C10 UNL     1      11.374  56.215  94.863  1.00  0.00     0.029 A 
HETATM   39  C11 UNL     1      10.579  57.142  95.500  1.00  0.00     0.002 A 
HETATM   40  C12 UNL     1       9.260  56.852  95.774  1.00  0.00     0.000 A 
HETATM   41  C13 UNL     1       8.796  55.616  95.384  1.00  0.00     0.002 A 
HETATM   42  C14 UNL     1       9.608  54.679  94.738  1.00  0.00     0.029 A 
ENDBRANCH  34  37
ENDBRANCH   4  31
TORSDOF 8
ENDMDL
MODEL 3
REMARK VINA RESULT: -8.300592917      0.123      1.388
REMARK  8 active torsions:
REMARK  status: ('A' for Active; 'I' for Inactive)
REMARK    1  A    between atoms: C4_4  and  N1_5 
REMARK    2  A    between atoms: N1_5  and  C5_7 
REMARK    3  A    between atoms: C6_10  and  N3_11 
REMARK    4  A    between atoms: N4_14  and  C9_15 
REMARK    5  A    between atoms: N7_28  and  C18_30 
REMARK    6  A    between atoms: C18_30  and  C19_31 
REMARK    7  A    between atoms: C19_31  and  N8_32 
REMARK    8  A    between atoms: N8_32  and  C20_34 
ROOT
HETATM    1  C5  UNL     1       9.993  53.486  89.282  1.00  0.00     0.167 A 
HETATM    2  N2  UNL     1      10.170  52.955  88.070  1.00  0.00    -0.172 N 
ATOM      3  H2  UNL     1      10.888  53.362  87.472  1.00  0.00     0.186 HD
HETATM    4  C6  UNL     1       9.452  51.904  87.579  1.00  0.00     0.696 A 
HETATM    5  N5  UNL     1       8.522  51.381  88.361  1.00  0.00    -0.130 N 
ATOM      6  H5  UNL     1       7.962  50.593  88.035  1.00  0.00     0.205 HD
HETATM    7  N6  UNL     1       8.320  51.891  89.583  1.00  0.00    -0.268 N 
ATOM      8  H6  UNL     1       7.597  51.471  90.167  1.00  0.00     0.189 HD
HETATM    9  C17 UNL     1       9.015  52.923  90.081  1.00  0.00     0.162 A 
HETATM   10  N7  UNL     1       8.822  53.409  91.241  1.00  0.00    -0.371 N 
ATOM     11  H7  UNL     1       9.404  54.196  91.523  1.00  0.00     0.161 HD
ENDROOT
BRANCH   1  12
HETATM   12  N1  UNL     1      10.667  54.475  89.745  1.00  0.00    -0.339 N 
ATOM     13  H1  UNL     1      10.163  55.354  89.861  1.00  0.00     0.167 HD
BRANCH  12  14
HETATM   14  C4  UNL     1      12.019  54.476  90.107  1.00  0.00     0.033 A 
HETATM   15  C3  UNL     1      12.950  55.122  89.348  1.00  0.00     0.029 A 
HETATM   16  C2  UNL     1      14.268  55.097  89.742  1.00  0.00     0.002 A 
HETATM   17  C1  UNL     1      14.618  54.414  90.908  1.00  0.00     0.000 A 
HETATM   18  C26 UNL     1      13.663  53.764  91.665  1.00  0.00     0.002 A 
HETATM   19  C25 UNL     1      12.351  53.787  91.274  1.00  0.00     0.029 A 
ENDBRANCH  12  14
ENDBRANCH   1  12
BRANCH  10  20
HETATM   20  C18 UNL     1       7.839  52.930  92.191  1.00  0.00     0.141 C 
BRANCH  20  21
HETATM   21  C19 UNL     1       8.483  52.894  93.558  1.00  0.00     0.139 C 
BRANCH  21  22
HETATM   22  N8  UNL     1       8.382  54.127  94.271  1.00  0.00    -0.388 N 
ATOM     23  H8  UNL     1       7.440  54.433  94.518  1.00  0.00     0.159 HD
BRANCH  22  24
HETATM   24  C20 UNL     1       9.330  54.883  94.630  1.00  0.00     0.030 A 
HETATM   25  C21 UNL     1      10.626  54.596  94.254  1.00  0.00     0.046 A 
HETATM   26  C22 UNL     1      11.660  55.434  94.652  1.00  0.00     0.089 A 
HETATM   27  N9  UNL     1      11.465  56.532  95.402  1.00  0.00    -0.375 N 
HETATM   28  C23 UNL     1      10.208  56.823  95.776  1.00  0.00     0.089 A 
ATOM     29  H9  UNL     1      12.247  57.127  95.678  1.00  0.00     0.164 HD
HETATM   30  C24 UNL     1       9.134  56.010  95.398  1.00  0.00     0.046 A 
ENDBRANCH  22  24
ENDBRANCH  21  22
ENDBRANCH  20  21
ENDBRANCH  10  20
BRANCH   4  31
HETATM   31  N3  UNL     1       9.720  51.416  86.265  1.00  0.00    -0.213 N 
HETATM   32  C7  UNL     1      10.013  50.048  85.974  1.00  0.00     0.161 C 
HETATM   33  C8  UNL     1      11.381  49.996  85.289  1.00  0.00     0.143 C 
HETATM   34  N4  UNL     1      11.446  51.095  84.338  1.00  0.00    -0.378 N 
HETATM   35  C15 UNL     1      10.211  51.742  83.942  1.00  0.00     0.143 C 
HETATM   36  C16 UNL     1       9.670  52.406  85.190  1.00  0.00     0.161 C 
BRANCH  34  37
HETATM   37  C9  UNL     1      12.728  51.472  83.844  1.00  0.00     0.030 A 
HETATM   38  C10 UNL     1      13.299  50.743  82.809  1.00  0.00     0.029 A 
HETATM   39  C11 UNL     1      14.533  51.029  82.267  1.00  0.00     0.002 A 
HETATM   40  C12 UNL     1      15.273  52.086  82.749  1.00  0.00     0.000 A 
HETATM   41  C13 UNL     1      14.722  52.820  83.775  1.00  0.00     0.002 A 
HETATM   42  C14 UNL     1      13.469  52.525  84.321  1.00  0.00     0.029 A 
ENDBRANCH  34  37
ENDBRANCH   4  31
TORSDOF 8
ENDMDL
MODEL 4
REMARK VINA RESULT: -8.176476616      0.904      1.697
REMARK  8 active torsions:
REMARK  status: ('A' for Active; 'I' for Inactive)
REMARK    1  A    between atoms: C4_4  and  N1_5 
REMARK    2  A    between atoms: N1_5  and  C5_7 
REMARK    3  A    between atoms: C6_10  and  N3_11 
REMARK    4  A    between atoms: N4_14  and  C9_15 
REMARK    5  A    between atoms: N7_28  and  C18_30 
REMARK    6  A    between atoms: C18_30  and  C19_31 
REMARK    7  A    between atoms: C19_31  and  N8_32 
REMARK    8  A    between atoms: N8_32  and  C20_34 
ROOT
HETATM    1  C5  UNL     1       9.975  53.481  88.973  1.00  0.00     0.167 A 
HETATM    2  N2  UNL     1      10.236  52.968  87.769  1.00  0.00    -0.172 N 
ATOM      3  H2  UNL     1      11.020  53.356  87.246  1.00  0.00     0.186 HD
HETATM    4  C6  UNL     1       9.521  51.960  87.192  1.00  0.00     0.696 A 
HETATM    5  N5  UNL     1       8.504  51.463  87.876  1.00  0.00    -0.130 N 
ATOM      6  H5  UNL     1       7.942  50.707  87.484  1.00  0.00     0.205 HD
HETATM    7  N6  UNL     1       8.216  51.956  89.088  1.00  0.00    -0.268 N 
ATOM      8  H6  UNL     1       7.427  51.556  89.596  1.00  0.00     0.189 HD
HETATM    9  C17 UNL     1       8.907  52.947  89.670  1.00  0.00     0.162 A 
HETATM   10  N7  UNL     1       8.632  53.416  90.820  1.00  0.00    -0.371 N 
ATOM     11  H7  UNL     1       9.220  54.171  91.171  1.00  0.00     0.161 HD
ENDROOT
BRANCH   1  12
HETATM   12  N1  UNL     1      10.646  54.430  89.518  1.00  0.00    -0.339 N 
ATOM     13  H1  UNL     1      10.159  55.317  89.647  1.00  0.00     0.167 HD
BRANCH  12  14
HETATM   14  C4  UNL     1      11.975  54.379  89.953  1.00  0.00     0.033 A 
HETATM   15  C3  UNL     1      12.992  54.835  89.166  1.00  0.00     0.029 A 
HETATM   16  C2  UNL     1      14.283  54.766  89.634  1.00  0.00     0.002 A 
HETATM   17  C1  UNL     1      14.520  54.230  90.901  1.00  0.00     0.000 A 
HETATM   18  C26 UNL     1      13.481  53.771  91.685  1.00  0.00     0.002 A 
HETATM   19  C25 UNL     1      12.194  53.840  91.221  1.00  0.00     0.029 A 
ENDBRANCH  12  14
ENDBRANCH   1  12
BRANCH  10  20
HETATM   20  C18 UNL     1       7.550  52.962  91.669  1.00  0.00     0.141 C 
BRANCH  20  21
HETATM   21  C19 UNL     1       8.101  52.741  93.058  1.00  0.00     0.139 C 
BRANCH  21  22
HETATM   22  N8  UNL     1       8.863  53.842  93.553  1.00  0.00    -0.388 N 
ATOM     23  H8  UNL     1       8.439  54.765  93.464  1.00  0.00     0.159 HD
BRANCH  22  24
HETATM   24  C20 UNL     1      10.008  53.800  94.090  1.00  0.00     0.030 A 
HETATM   25  C21 UNL     1      10.622  52.586  94.319  1.00  0.00     0.046 A 
HETATM   26  C22 UNL     1      11.880  52.551  94.908  1.00  0.00     0.089 A 
HETATM   27  N9  UNL     1      12.547  53.659  95.277  1.00  0.00    -0.375 N 
HETATM   28  C23 UNL     1      11.960  54.848  95.060  1.00  0.00     0.089 A 
ATOM     29  H9  UNL     1      13.470  53.598  95.708  1.00  0.00     0.164 HD
HETATM   30  C24 UNL     1      10.695  54.932  94.469  1.00  0.00     0.046 A 
ENDBRANCH  22  24
ENDBRANCH  21  22
ENDBRANCH  20  21
ENDBRANCH  10  20
BRANCH   4  31
HETATM   31  N3  UNL     1       9.883  51.488  85.895  1.00  0.00    -0.213 N 
HETATM   32  C7  UNL     1      10.200  50.124  85.610  1.00  0.00     0.161 C 
HETATM   33  C8  UNL     1      11.614  50.082  85.024  1.00  0.00     0.143 C 
HETATM   34  N4  UNL     1      11.744  51.192  84.093  1.00  0.00    -0.378 N 
HETATM   35  C15 UNL     1      10.539  51.841  83.617  1.00  0.00     0.143 C 
HETATM   36  C16 UNL     1       9.909  52.490  84.831  1.00  0.00     0.161 C 
BRANCH  34  37
HETATM   37  C9  UNL     1      13.057  51.577  83.697  1.00  0.00     0.030 A 
HETATM   38  C10 UNL     1      13.710  50.850  82.709  1.00  0.00     0.029 A 
HETATM   39  C11 UNL     1      14.979  51.144  82.262  1.00  0.00     0.002 A 
HETATM   40  C12 UNL     1      15.673  52.206  82.796  1.00  0.00     0.000 A 
HETATM   41  C13 UNL     1      15.042  52.938  83.776  1.00  0.00     0.002 A 
HETATM   42  C14 UNL     1      13.753  52.635  84.226  1.00  0.00     0.029 A 
ENDBRANCH  34  37
ENDBRANCH   4  31
TORSDOF 8
ENDMDL
MODEL 5
REMARK VINA RESULT: -8.037159221      2.100      9.964
REMARK  8 active torsions:
REMARK  status: ('A' for Active; 'I' for Inactive)
REMARK    1  A    between atoms: C4_4  and  N1_5 
REMARK    2  A    between atoms: N1_5  and  C5_7 
REMARK    3  A    between atoms: C6_10  and  N3_11 
REMARK    4  A    between atoms: N4_14  and  C9_15 
REMARK    5  A    between atoms: N7_28  and  C18_30 
REMARK    6  A    between atoms: C18_30  and  C19_31 
REMARK    7  A    between atoms: C19_31  and  N8_32 
REMARK    8  A    between atoms: N8_32  and  C20_34 
ROOT
HETATM    1  C5  UNL     1      10.068  52.419  88.298  1.00  0.00     0.167 A 
HETATM    2  N2  UNL     1      10.578  52.553  89.524  1.00  0.00    -0.172 N 
ATOM      3  H2  UNL     1       9.988  52.298  90.316  1.00  0.00     0.186 HD
HETATM    4  C6  UNL     1      11.836  53.008  89.788  1.00  0.00     0.696 A 
HETATM    5  N5  UNL     1      12.596  53.337  88.757  1.00  0.00    -0.130 N 
ATOM      6  H5  UNL     1      13.543  53.682  88.907  1.00  0.00     0.205 HD
HETATM    7  N6  UNL     1      12.113  53.215  87.512  1.00  0.00    -0.268 N 
ATOM      8  H6  UNL     1      12.718  53.476  86.733  1.00  0.00     0.189 HD
HETATM    9  C17 UNL     1      10.880  52.770  87.235  1.00  0.00     0.162 A 
HETATM   10  N7  UNL     1      10.421  52.656  86.054  1.00  0.00    -0.371 N 
ATOM     11  H7  UNL     1       9.468  52.308  85.952  1.00  0.00     0.161 HD
ENDROOT
BRANCH   1  12
HETATM   12  N1  UNL     1       8.884  51.991  88.048  1.00  0.00    -0.339 N 
ATOM     13  H1  UNL     1       8.806  51.021  87.743  1.00  0.00     0.167 HD
BRANCH  12  14
HETATM   14  C4  UNL     1       7.689  52.712  88.149  1.00  0.00     0.033 A 
HETATM   15  C3  UNL     1       7.431  53.499  89.233  1.00  0.00     0.029 A 
HETATM   16  C2  UNL     1       6.244  54.191  89.290  1.00  0.00     0.002 A 
HETATM   17  C1  UNL     1       5.334  54.070  88.238  1.00  0.00     0.000 A 
HETATM   18  C26 UNL     1       5.610  53.269  87.148  1.00  0.00     0.002 A 
HETATM   19  C25 UNL     1       6.791  52.580  87.089  1.00  0.00     0.029 A 
ENDBRANCH  12  14
ENDBRANCH   1  12
BRANCH  10  20
HETATM   20  C18 UNL     1      11.147  52.980  84.843  1.00  0.00     0.141 C 
BRANCH  20  21
HETATM   21  C19 UNL     1      11.765  51.710  84.308  1.00  0.00     0.139 C 
BRANCH  21  22
HETATM   22  N8  UNL     1      13.176  51.800  84.109  1.00  0.00    -0.388 N 
ATOM     23  H8  UNL     1      13.720  52.182  84.883  1.00  0.00     0.159 HD
BRANCH  22  24
HETATM   24  C20 UNL     1      13.826  51.459  83.079  1.00  0.00     0.030 A 
HETATM   25  C21 UNL     1      15.112  51.920  82.886  1.00  0.00     0.046 A 
HETATM   26  C22 UNL     1      15.817  51.538  81.752  1.00  0.00     0.089 A 
HETATM   27  N9  UNL     1      15.305  50.726  80.809  1.00  0.00    -0.375 N 
HETATM   28  C23 UNL     1      14.054  50.271  80.985  1.00  0.00     0.089 A 
ATOM     29  H9  UNL     1      15.850  50.465  79.988  1.00  0.00     0.164 HD
HETATM   30  C24 UNL     1      13.305  50.628  82.111  1.00  0.00     0.046 A 
ENDBRANCH  22  24
ENDBRANCH  21  22
ENDBRANCH  20  21
ENDBRANCH  10  20
BRANCH   4  31
HETATM   31  N3  UNL     1      12.281  53.117  91.140  1.00  0.00    -0.213 N 
HETATM   32  C7  UNL     1      12.041  52.119  92.134  1.00  0.00     0.161 C 
HETATM   33  C8  UNL     1      11.280  52.778  93.287  1.00  0.00     0.143 C 
HETATM   34  N4  UNL     1      11.875  54.083  93.527  1.00  0.00    -0.378 N 
HETATM   35  C15 UNL     1      13.189  54.356  92.980  1.00  0.00     0.143 C 
HETATM   36  C16 UNL     1      13.026  54.329  91.475  1.00  0.00     0.161 C 
BRANCH  34  37
HETATM   37  C9  UNL     1      11.129  55.023  94.294  1.00  0.00     0.030 A 
HETATM   38  C10 UNL     1       9.806  54.743  94.614  1.00  0.00     0.029 A 
HETATM   39  C11 UNL     1       9.005  55.590  95.348  1.00  0.00     0.002 A 
HETATM   40  C12 UNL     1       9.503  56.789  95.808  1.00  0.00     0.000 A 
HETATM   41  C13 UNL     1      10.811  57.083  95.500  1.00  0.00     0.002 A 
HETATM   42  C14 UNL     1      11.620  56.220  94.755  1.00  0.00     0.029 A 
ENDBRANCH  34  37
ENDBRANCH   4  31
TORSDOF 8
ENDMDL
