MODEL 1
REMARK VINA RESULT: -6.799619300      0.000      0.000
REMARK  6 active torsions:
REMARK  status: ('A' for Active; 'I' for Inactive)
REMARK    1  A    between atoms: S1_2  and  N1_5 
REMARK    2  A    between atoms: N1_5  and  C2_7 
REMARK    3  A    between atoms: C2_7  and  C3_8 
REMARK    4  A    between atoms: C18_24  and  C19_25 
REMARK    5  A    between atoms: C19_25  and  O4_26 
REMARK    6  A    between atoms: C21_30  and  C22_31 
ROOT
HETATM    1  C3  UNL     1      13.269  52.579  93.038  1.00  0.00     0.012 C 
HETATM    2  C4  UNL     1      11.935  53.237  93.371  1.00  0.00     0.014 C 
HETATM    3  C5  UNL     1      11.476  52.948  94.765  1.00  0.00     0.025 C 
HETATM    4  C6  UNL     1      12.684  52.582  95.596  1.00  0.00    -0.003 C 
HETATM    5  C7  UNL     1      12.207  52.695  96.985  1.00  0.00     0.008 C 
HETATM    6  C8  UNL     1      11.017  53.665  96.932  1.00  0.00     0.039 C 
HETATM    7  C9  UNL     1      10.990  54.174  95.504  1.00  0.00     0.065 C 
HETATM    8  C10 UNL     1       9.552  54.390  95.132  1.00  0.00     0.038 C 
HETATM    9  C11 UNL     1       8.799  55.239  96.122  1.00  0.00     0.003 C 
HETATM   10  C12 UNL     1       8.915  56.680  95.661  1.00  0.00     0.002 C 
HETATM   11  C13 UNL     1      10.341  57.111  95.930  1.00  0.00     0.026 C 
HETATM   12  C14 UNL     1      11.225  56.404  94.913  1.00  0.00     0.168 C 
HETATM   13  O3  UNL     1      11.793  55.259  95.388  1.00  0.00    -0.380 OA
HETATM   14  C15 UNL     1      13.137  51.229  95.133  1.00  0.00    -0.003 C 
HETATM   15  C16 UNL     1      12.117  50.174  95.377  1.00  0.00     0.006 C 
HETATM   16  C17 UNL     1      12.770  48.804  95.153  1.00  0.00     0.010 C 
HETATM   17  C18 UNL     1      13.715  48.995  94.005  1.00  0.00     0.047 C 
HETATM   18  C20 UNL     1      13.102  49.991  93.059  1.00  0.00     0.108 A 
HETATM   19  O5  UNL     1      13.182  49.813  91.706  1.00  0.00    -0.357 OA
HETATM   20  C21 UNL     1      11.939  49.859  92.268  1.00  0.00     0.258 A 
HETATM   21  C23 UNL     1      13.530  51.308  93.682  1.00  0.00     0.034 C 
ENDROOT
BRANCH   1  22
HETATM   22  C2  UNL     1      13.594  52.749  91.597  1.00  0.00     0.137 C 
BRANCH  22  23
HETATM   23  N1  UNL     1      14.231  54.023  91.329  1.00  0.00    -0.319 N 
ATOM     24  H1  UNL     1      14.979  54.455  91.872  1.00  0.00     0.172 HD
BRANCH  23  25
HETATM   25  S1  UNL     1      13.478  54.673  89.906  1.00  0.00     0.222 S 
HETATM   26  C1  UNL     1      11.763  54.280  89.870  1.00  0.00     0.185 C 
HETATM   27  O1  UNL     1      14.145  54.087  88.686  1.00  0.00    -0.206 OA
HETATM   28  O2  UNL     1      13.735  56.156  89.889  1.00  0.00    -0.206 OA
ENDBRANCH  23  25
ENDBRANCH  22  23
ENDBRANCH   1  22
BRANCH  17  29
HETATM   29  C19 UNL     1      14.288  47.749  93.494  1.00  0.00     0.172 C 
BRANCH  29  30
HETATM   30  O4  UNL     1      15.597  47.502  93.941  1.00  0.00    -0.400 OA
ATOM     31  H4  UNL     1      16.045  46.817  93.458  1.00  0.00     0.209 HD
ENDBRANCH  29  30
ENDBRANCH  17  29
BRANCH  20  32
HETATM   32  C22 UNL     1      11.078  48.720  92.017  1.00  0.00     0.206 C 
HETATM   33  O6  UNL     1      10.013  48.540  92.619  1.00  0.00    -0.646 OA
HETATM   34  O7  UNL     1      11.400  47.750  91.075  1.00  0.00    -0.646 OA
ENDBRANCH  20  32
TORSDOF 6
ENDMDL
MODEL 2
REMARK VINA RESULT: -6.625769218      4.922      8.983
REMARK  6 active torsions:
REMARK  status: ('A' for Active; 'I' for Inactive)
REMARK    1  A    between atoms: S1_2  and  N1_5 
REMARK    2  A    between atoms: N1_5  and  C2_7 
REMARK    3  A    between atoms: C2_7  and  C3_8 
REMARK    4  A    between atoms: C18_24  and  C19_25 
REMARK    5  A    between atoms: C19_25  and  O4_26 
REMARK    6  A    between atoms: C21_30  and  C22_31 
ROOT
HETATM    1  C3  UNL     1      10.868  52.935  88.006  1.00  0.00     0.012 C 
HETATM    2  C4  UNL     1      11.680  52.033  87.085  1.00  0.00     0.014 C 
HETATM    3  C5  UNL     1      10.975  51.727  85.800  1.00  0.00     0.025 C 
HETATM    4  C6  UNL     1       9.958  52.816  85.548  1.00  0.00    -0.003 C 
HETATM    5  C7  UNL     1       9.606  52.650  84.128  1.00  0.00     0.008 C 
HETATM    6  C8  UNL     1      10.806  51.936  83.488  1.00  0.00     0.039 C 
HETATM    7  C9  UNL     1      11.855  51.880  84.581  1.00  0.00     0.065 C 
HETATM    8  C10 UNL     1      12.617  50.598  84.406  1.00  0.00     0.038 C 
HETATM    9  C11 UNL     1      13.145  50.403  83.009  1.00  0.00     0.003 C 
HETATM   10  C12 UNL     1      14.543  50.992  82.969  1.00  0.00     0.002 C 
HETATM   11  C13 UNL     1      14.384  52.497  83.014  1.00  0.00     0.026 C 
HETATM   12  C14 UNL     1      13.950  52.862  84.426  1.00  0.00     0.168 C 
HETATM   13  O3  UNL     1      12.601  53.010  84.561  1.00  0.00    -0.380 OA
HETATM   14  C15 UNL     1       8.861  52.629  86.555  1.00  0.00    -0.003 C 
HETATM   15  C16 UNL     1       8.150  51.333  86.384  1.00  0.00     0.006 C 
HETATM   16  C17 UNL     1       6.879  51.359  87.245  1.00  0.00     0.010 C 
HETATM   17  C18 UNL     1       7.254  52.107  88.489  1.00  0.00     0.047 C 
HETATM   18  C20 UNL     1       8.687  51.784  88.811  1.00  0.00     0.108 A 
HETATM   19  O5  UNL     1       9.084  51.570  90.101  1.00  0.00    -0.357 OA
HETATM   20  C21 UNL     1       9.247  50.550  89.209  1.00  0.00     0.258 A 
HETATM   21  C23 UNL     1       9.429  52.782  87.940  1.00  0.00     0.034 C 
ENDROOT
BRANCH   1  22
HETATM   22  C2  UNL     1      11.529  53.064  89.332  1.00  0.00     0.137 C 
BRANCH  22  23
HETATM   23  N1  UNL     1      11.702  54.450  89.720  1.00  0.00    -0.319 N 
ATOM     24  H1  UNL     1      10.969  55.155  89.803  1.00  0.00     0.172 HD
BRANCH  23  25
HETATM   25  S1  UNL     1      13.397  54.681  90.018  1.00  0.00     0.222 S 
HETATM   26  C1  UNL     1      13.847  54.051  91.599  1.00  0.00     0.185 C 
HETATM   27  O1  UNL     1      13.710  56.155  89.966  1.00  0.00    -0.206 OA
HETATM   28  O2  UNL     1      14.153  54.021  88.894  1.00  0.00    -0.206 OA
ENDBRANCH  23  25
ENDBRANCH  22  23
ENDBRANCH   1  22
BRANCH  17  29
HETATM   29  C19 UNL     1       6.234  52.062  89.538  1.00  0.00     0.172 C 
BRANCH  29  30
HETATM   30  O4  UNL     1       6.546  52.839  90.666  1.00  0.00    -0.400 OA
ATOM     31  H4  UNL     1       5.882  52.813  91.345  1.00  0.00     0.209 HD
ENDBRANCH  29  30
ENDBRANCH  17  29
BRANCH  20  32
HETATM   32  C22 UNL     1       8.627  49.287  89.558  1.00  0.00     0.206 C 
HETATM   33  O6  UNL     1       8.302  48.998  90.715  1.00  0.00    -0.646 OA
HETATM   34  O7  UNL     1       8.355  48.314  88.602  1.00  0.00    -0.646 OA
ENDBRANCH  20  32
TORSDOF 6
ENDMDL
MODEL 3
REMARK VINA RESULT: -6.355373663      3.469      6.726
REMARK  6 active torsions:
REMARK  status: ('A' for Active; 'I' for Inactive)
REMARK    1  A    between atoms: S1_2  and  N1_5 
REMARK    2  A    between atoms: N1_5  and  C2_7 
REMARK    3  A    between atoms: C2_7  and  C3_8 
REMARK    4  A    between atoms: C18_24  and  C19_25 
REMARK    5  A    between atoms: C19_25  and  O4_26 
REMARK    6  A    between atoms: C21_30  and  C22_31 
ROOT
HETATM    1  C3  UNL     1       9.295  53.079  94.624  1.00  0.00     0.012 C 
HETATM    2  C4  UNL     1      10.320  53.905  93.858  1.00  0.00     0.014 C 
HETATM    3  C5  UNL     1      11.677  53.272  93.834  1.00  0.00     0.025 C 
HETATM    4  C6  UNL     1      11.512  51.789  94.070  1.00  0.00    -0.003 C 
HETATM    5  C7  UNL     1      12.803  51.218  93.654  1.00  0.00     0.008 C 
HETATM    6  C8  UNL     1      13.402  52.232  92.668  1.00  0.00     0.039 C 
HETATM    7  C9  UNL     1      12.314  53.268  92.463  1.00  0.00     0.065 C 
HETATM    8  C10 UNL     1      12.988  54.595  92.269  1.00  0.00     0.038 C 
HETATM    9  C11 UNL     1      14.052  54.574  91.204  1.00  0.00     0.003 C 
HETATM   10  C12 UNL     1      13.388  54.959  89.895  1.00  0.00     0.002 C 
HETATM   11  C13 UNL     1      12.533  53.782  89.477  1.00  0.00     0.026 C 
HETATM   12  C14 UNL     1      11.335  53.740  90.415  1.00  0.00     0.168 C 
HETATM   13  O3  UNL     1      11.491  52.878  91.460  1.00  0.00    -0.380 OA
HETATM   14  C15 UNL     1      11.116  51.618  95.507  1.00  0.00    -0.003 C 
HETATM   15  C16 UNL     1      12.172  52.085  96.446  1.00  0.00     0.006 C 
HETATM   16  C17 UNL     1      11.813  51.605  97.859  1.00  0.00     0.010 C 
HETATM   17  C18 UNL     1      10.319  51.705  97.948  1.00  0.00     0.047 C 
HETATM   18  C20 UNL     1       9.885  52.900  97.144  1.00  0.00     0.108 A 
HETATM   19  O5  UNL     1       8.901  53.731  97.600  1.00  0.00    -0.357 OA
HETATM   20  C21 UNL     1      10.137  54.269  97.388  1.00  0.00     0.258 A 
HETATM   21  C23 UNL     1       9.803  52.315  95.746  1.00  0.00     0.034 C 
ENDROOT
BRANCH   1  22
HETATM   22  C2  UNL     1       8.018  53.828  94.769  1.00  0.00     0.137 C 
BRANCH  22  23
HETATM   23  N1  UNL     1       8.233  55.260  94.845  1.00  0.00    -0.319 N 
ATOM     24  H1  UNL     1       9.068  55.766  94.550  1.00  0.00     0.172 HD
BRANCH  23  25
HETATM   25  S1  UNL     1       6.795  55.948  95.533  1.00  0.00     0.222 S 
HETATM   26  C1  UNL     1       5.583  54.705  95.826  1.00  0.00     0.185 C 
HETATM   27  O1  UNL     1       6.233  56.970  94.577  1.00  0.00    -0.206 OA
HETATM   28  O2  UNL     1       7.193  56.678  96.788  1.00  0.00    -0.206 OA
ENDBRANCH  23  25
ENDBRANCH  22  23
ENDBRANCH   1  22
BRANCH  17  29
HETATM   29  C19 UNL     1       9.789  51.491  99.295  1.00  0.00     0.172 C 
BRANCH  29  30
HETATM   30  O4  UNL     1       8.386  51.518  99.363  1.00  0.00    -0.400 OA
ATOM     31  H4  UNL     1       8.003  50.714  99.695  1.00  0.00     0.209 HD
ENDBRANCH  29  30
ENDBRANCH  17  29
BRANCH  20  32
HETATM   32  C22 UNL     1      10.747  54.941  98.518  1.00  0.00     0.206 C 
HETATM   33  O6  UNL     1      11.919  54.745  98.860  1.00  0.00    -0.646 OA
HETATM   34  O7  UNL     1      10.045  55.858  99.293  1.00  0.00    -0.646 OA
ENDBRANCH  20  32
TORSDOF 6
ENDMDL
MODEL 4
REMARK VINA RESULT: -6.280013432      4.276      7.963
REMARK  6 active torsions:
REMARK  status: ('A' for Active; 'I' for Inactive)
REMARK    1  A    between atoms: S1_2  and  N1_5 
REMARK    2  A    between atoms: N1_5  and  C2_7 
REMARK    3  A    between atoms: C2_7  and  C3_8 
REMARK    4  A    between atoms: C18_24  and  C19_25 
REMARK    5  A    between atoms: C19_25  and  O4_26 
REMARK    6  A    between atoms: C21_30  and  C22_31 
ROOT
HETATM    1  C3  UNL     1      10.661  53.292  88.996  1.00  0.00     0.012 C 
HETATM    2  C4  UNL     1      11.291  52.173  88.176  1.00  0.00     0.014 C 
HETATM    3  C5  UNL     1      10.277  51.313  87.489  1.00  0.00     0.025 C 
HETATM    4  C6  UNL     1       9.002  52.111  87.341  1.00  0.00    -0.003 C 
HETATM    5  C7  UNL     1       8.225  51.355  86.345  1.00  0.00     0.008 C 
HETATM    6  C8  UNL     1       9.258  50.556  85.537  1.00  0.00     0.039 C 
HETATM    7  C9  UNL     1      10.605  51.040  86.039  1.00  0.00     0.065 C 
HETATM    8  C10 UNL     1      11.546  49.871  85.997  1.00  0.00     0.038 C 
HETATM    9  C11 UNL     1      11.579  49.178  84.660  1.00  0.00     0.003 C 
HETATM   10  C12 UNL     1      12.682  49.825  83.844  1.00  0.00     0.002 C 
HETATM   11  C13 UNL     1      12.185  51.198  83.449  1.00  0.00     0.026 C 
HETATM   12  C14 UNL     1      12.201  52.061  84.702  1.00  0.00     0.168 C 
HETATM   13  O3  UNL     1      10.994  52.129  85.333  1.00  0.00    -0.380 OA
HETATM   14  C15 UNL     1       8.412  52.247  88.714  1.00  0.00    -0.003 C 
HETATM   15  C16 UNL     1       8.028  50.934  89.300  1.00  0.00     0.006 C 
HETATM   16  C17 UNL     1       7.177  51.190  90.551  1.00  0.00     0.010 C 
HETATM   17  C18 UNL     1       7.770  52.406  91.196  1.00  0.00     0.047 C 
HETATM   18  C20 UNL     1       9.257  52.372  90.974  1.00  0.00     0.108 A 
HETATM   19  O5  UNL     1      10.123  52.733  91.968  1.00  0.00    -0.357 OA
HETATM   20  C21 UNL     1      10.207  51.459  91.485  1.00  0.00     0.258 A 
HETATM   21  C23 UNL     1       9.375  52.997  89.595  1.00  0.00     0.034 C 
ENDROOT
BRANCH   1  22
HETATM   22  C2  UNL     1      11.693  54.005  89.795  1.00  0.00     0.137 C 
BRANCH  22  23
HETATM   23  N1  UNL     1      12.733  54.571  88.960  1.00  0.00    -0.319 N 
ATOM     24  H1  UNL     1      12.676  54.754  87.958  1.00  0.00     0.172 HD
BRANCH  23  25
HETATM   25  S1  UNL     1      14.095  54.880  89.992  1.00  0.00     0.222 S 
HETATM   26  C1  UNL     1      13.687  54.570  91.676  1.00  0.00     0.185 C 
HETATM   27  O1  UNL     1      14.509  56.323  89.841  1.00  0.00    -0.206 OA
HETATM   28  O2  UNL     1      15.239  54.032  89.505  1.00  0.00    -0.206 OA
ENDBRANCH  23  25
ENDBRANCH  22  23
ENDBRANCH   1  22
BRANCH  17  29
HETATM   29  C19 UNL     1       7.230  52.697  92.525  1.00  0.00     0.172 C 
BRANCH  29  30
HETATM   30  O4  UNL     1       7.915  53.717  93.206  1.00  0.00    -0.400 OA
ATOM     31  H4  UNL     1       7.971  54.532  92.720  1.00  0.00     0.209 HD
ENDBRANCH  29  30
ENDBRANCH  17  29
BRANCH  20  32
HETATM   32  C22 UNL     1      10.079  50.394  92.459  1.00  0.00     0.206 C 
HETATM   33  O6  UNL     1       9.936  49.208  92.139  1.00  0.00    -0.646 OA
HETATM   34  O7  UNL     1      10.112  50.642  93.827  1.00  0.00    -0.646 OA
ENDBRANCH  20  32
TORSDOF 6
ENDMDL
MODEL 5
REMARK VINA RESULT: -6.253980173      3.164      6.242
REMARK  6 active torsions:
REMARK  status: ('A' for Active; 'I' for Inactive)
REMARK    1  A    between atoms: S1_2  and  N1_5 
REMARK    2  A    between atoms: N1_5  and  C2_7 
REMARK    3  A    between atoms: C2_7  and  C3_8 
REMARK    4  A    between atoms: C18_24  and  C19_25 
REMARK    5  A    between atoms: C19_25  and  O4_26 
REMARK    6  A    between atoms: C21_30  and  C22_31 
ROOT
HETATM    1  C3  UNL     1      13.348  50.004  94.036  1.00  0.00     0.012 C 
HETATM    2  C4  UNL     1      14.629  50.309  94.802  1.00  0.00     0.014 C 
HETATM    3  C5  UNL     1      14.402  51.201  95.982  1.00  0.00     0.025 C 
HETATM    4  C6  UNL     1      12.954  51.080  96.396  1.00  0.00    -0.003 C 
HETATM    5  C7  UNL     1      12.922  51.664  97.748  1.00  0.00     0.008 C 
HETATM    6  C8  UNL     1      14.354  51.532  98.287  1.00  0.00     0.039 C 
HETATM    7  C9  UNL     1      15.093  50.721  97.239  1.00  0.00     0.065 C 
HETATM    8  C10 UNL     1      16.508  51.220  97.200  1.00  0.00     0.038 C 
HETATM    9  C11 UNL     1      17.166  51.256  98.555  1.00  0.00     0.003 C 
HETATM   10  C12 UNL     1      17.865  49.924  98.752  1.00  0.00     0.002 C 
HETATM   11  C13 UNL     1      16.781  48.893  98.981  1.00  0.00     0.026 C 
HETATM   12  C14 UNL     1      16.086  48.666  97.646  1.00  0.00     0.168 C 
HETATM   13  O3  UNL     1      14.946  49.399  97.494  1.00  0.00    -0.380 OA
HETATM   14  C15 UNL     1      12.140  51.759  95.335  1.00  0.00    -0.003 C 
HETATM   15  C16 UNL     1      12.436  53.215  95.237  1.00  0.00     0.006 C 
HETATM   16  C17 UNL     1      11.367  53.870  94.353  1.00  0.00     0.010 C 
HETATM   17  C18 UNL     1      11.062  52.866  93.282  1.00  0.00     0.047 C 
HETATM   18  C20 UNL     1      12.335  52.134  92.956  1.00  0.00     0.108 A 
HETATM   19  O5  UNL     1      12.656  51.828  91.663  1.00  0.00    -0.357 OA
HETATM   20  C21 UNL     1      13.513  52.633  92.356  1.00  0.00     0.258 A 
HETATM   21  C23 UNL     1      12.349  51.053  94.022  1.00  0.00     0.034 C 
ENDROOT
BRANCH   1  22
HETATM   22  C2  UNL     1      13.648  49.265  92.781  1.00  0.00     0.137 C 
BRANCH  22  23
HETATM   23  N1  UNL     1      12.452  48.719  92.171  1.00  0.00    -0.319 N 
ATOM     24  H1  UNL     1      11.488  48.907  92.448  1.00  0.00     0.172 HD
BRANCH  23  25
HETATM   25  S1  UNL     1      12.974  47.684  90.878  1.00  0.00     0.222 S 
HETATM   26  C1  UNL     1      11.626  46.746  90.244  1.00  0.00     0.185 C 
HETATM   27  O1  UNL     1      14.030  46.741  91.398  1.00  0.00    -0.206 OA
HETATM   28  O2  UNL     1      13.622  48.551  89.832  1.00  0.00    -0.206 OA
ENDBRANCH  23  25
ENDBRANCH  22  23
ENDBRANCH   1  22
BRANCH  17  29
HETATM   29  C19 UNL     1      10.213  53.382  92.208  1.00  0.00     0.172 C 
BRANCH  29  30
HETATM   30  O4  UNL     1       9.932  52.440  91.204  1.00  0.00    -0.400 OA
ATOM     31  H4  UNL     1       9.033  52.132  91.208  1.00  0.00     0.209 HD
ENDBRANCH  29  30
ENDBRANCH  17  29
BRANCH  20  32
HETATM   32  C22 UNL     1      13.809  53.920  91.759  1.00  0.00     0.206 C 
HETATM   33  O6  UNL     1      13.523  54.992  92.303  1.00  0.00    -0.646 OA
HETATM   34  O7  UNL     1      14.441  54.029  90.525  1.00  0.00    -0.646 OA
ENDBRANCH  20  32
TORSDOF 6
ENDMDL
