MODEL 1
REMARK VINA RESULT: -7.836661020      0.000      0.000
REMARK  6 active torsions:
REMARK  status: ('A' for Active; 'I' for Inactive)
REMARK    1  A    between atoms: C4_5  and  C5_6 
REMARK    2  A    between atoms: C6_7  and  C7_8 
REMARK    3  A    between atoms: N3_25  and  C18_26 
REMARK    4  A    between atoms: C18_26  and  C19_27 
REMARK    5  A    between atoms: C19_27  and  C20_28 
REMARK    6  A    between atoms: C20_28  and  N4_29 
ROOT
HETATM    1  O1  UNL     1      11.964  45.702  86.185  1.00  0.00    -0.273 OA
HETATM    2  C1  UNL     1      12.343  46.746  86.760  1.00  0.00     0.222 C 
HETATM    3  C2  UNL     1      12.434  48.034  86.016  1.00  0.00     0.144 C 
HETATM    4  C3  UNL     1      11.820  49.074  86.929  1.00  0.00    -0.012 A 
HETATM    5  C4  UNL     1      10.930  50.089  86.726  1.00  0.00     0.005 A 
HETATM    6  C17 UNL     1      10.726  50.679  87.969  1.00  0.00     0.104 A 
HETATM    7  N3  UNL     1      11.473  50.030  88.866  1.00  0.00    -0.357 N 
HETATM    8  C25 UNL     1      12.146  49.054  88.261  1.00  0.00     0.036 A 
HETATM    9  C26 UNL     1      13.122  48.010  88.712  1.00  0.00     0.180 C 
HETATM   10  N5  UNL     1      12.702  46.754  88.147  1.00  0.00    -0.355 N 
ATOM     11  H5  UNL     1      12.663  45.904  88.711  1.00  0.00     0.162 HD
ENDROOT
BRANCH   5  12
HETATM   12  C5  UNL     1      10.310  50.538  85.478  1.00  0.00     0.061 A 
HETATM   13  C6  UNL     1      10.757  51.351  84.544  1.00  0.00     0.061 A 
HETATM   14  C15 UNL     1       9.740  51.504  83.479  1.00  0.00     0.260 A 
HETATM   15  O2  UNL     1       9.844  52.210  82.444  1.00  0.00    -0.267 OA
HETATM   16  N2  UNL     1       8.611  50.706  83.833  1.00  0.00    -0.289 N 
HETATM   17  C16 UNL     1       8.953  50.112  85.056  1.00  0.00     0.260 A 
ATOM     18  H2  UNL     1       7.744  50.592  83.310  1.00  0.00     0.172 HD
HETATM   19  O3  UNL     1       8.234  49.331  85.718  1.00  0.00    -0.267 OA
BRANCH  13  20
HETATM   20  C7  UNL     1      12.036  52.023  84.551  1.00  0.00     0.009 A 
HETATM   21  C8  UNL     1      12.436  53.058  85.410  1.00  0.00     0.101 A 
HETATM   22  N1  UNL     1      13.681  53.430  85.129  1.00  0.00    -0.364 N 
HETATM   23  C9  UNL     1      14.131  52.669  84.100  1.00  0.00     0.043 A 
ATOM     24  H1  UNL     1      14.208  54.161  85.606  1.00  0.00     0.165 HD
HETATM   25  C10 UNL     1      15.345  52.641  83.432  1.00  0.00     0.030 A 
HETATM   26  C14 UNL     1      13.123  51.797  83.737  1.00  0.00     0.003 A 
HETATM   27  C11 UNL     1      15.556  51.750  82.408  1.00  0.00     0.002 A 
HETATM   28  C12 UNL     1      14.579  50.861  82.014  1.00  0.00     0.001 A 
HETATM   29  C13 UNL     1      13.374  50.911  82.699  1.00  0.00     0.014 A 
ENDBRANCH  13  20
ENDBRANCH   5  12
BRANCH   7  30
HETATM   30  C18 UNL     1      11.514  50.369  90.254  1.00  0.00     0.133 C 
BRANCH  30  31
HETATM   31  C19 UNL     1      10.620  51.525  90.642  1.00  0.00     0.064 C 
BRANCH  31  32
HETATM   32  C20 UNL     1      11.434  52.373  91.593  1.00  0.00     0.060 C 
BRANCH  32  33
HETATM   33  N4  UNL     1      12.352  53.258  91.026  1.00  0.00    -0.389 N 
HETATM   34  C21 UNL     1      11.990  54.015  89.890  1.00  0.00     0.148 C 
HETATM   35  C22 UNL     1      13.207  54.006  88.954  1.00  0.00     0.187 C 
HETATM   36  O4  UNL     1      14.372  54.344  89.610  1.00  0.00    -0.388 OA
HETATM   37  C23 UNL     1      14.197  54.739  90.926  1.00  0.00     0.187 C 
HETATM   38  C24 UNL     1      13.510  53.631  91.738  1.00  0.00     0.148 C 
ENDBRANCH  32  33
ENDBRANCH  31  32
ENDBRANCH  30  31
ENDBRANCH   7  30
TORSDOF 6
ENDMDL
MODEL 2
REMARK VINA RESULT: -7.620999481      2.598      4.754
REMARK  6 active torsions:
REMARK  status: ('A' for Active; 'I' for Inactive)
REMARK    1  A    between atoms: C4_5  and  C5_6 
REMARK    2  A    between atoms: C6_7  and  C7_8 
REMARK    3  A    between atoms: N3_25  and  C18_26 
REMARK    4  A    between atoms: C18_26  and  C19_27 
REMARK    5  A    between atoms: C19_27  and  C20_28 
REMARK    6  A    between atoms: C20_28  and  N4_29 
ROOT
HETATM    1  O1  UNL     1       8.150  53.768  82.702  1.00  0.00    -0.273 OA
HETATM    2  C1  UNL     1       8.354  52.936  83.612  1.00  0.00     0.222 C 
HETATM    3  C2  UNL     1       9.502  51.989  83.536  1.00  0.00     0.144 C 
HETATM    4  C3  UNL     1      10.127  51.996  84.915  1.00  0.00    -0.012 A 
HETATM    5  C4  UNL     1      11.416  52.070  85.359  1.00  0.00     0.005 A 
HETATM    6  C17 UNL     1      11.346  52.068  86.749  1.00  0.00     0.104 A 
HETATM    7  N3  UNL     1      10.060  51.994  87.102  1.00  0.00    -0.357 N 
HETATM    8  C25 UNL     1       9.301  51.949  86.010  1.00  0.00     0.036 A 
HETATM    9  C26 UNL     1       7.827  51.862  85.754  1.00  0.00     0.180 C 
HETATM   10  N5  UNL     1       7.502  52.854  84.762  1.00  0.00    -0.355 N 
ATOM     11  H5  UNL     1       6.698  53.472  84.873  1.00  0.00     0.162 HD
ENDROOT
BRANCH   5  12
HETATM   12  C5  UNL     1      12.658  52.109  84.586  1.00  0.00     0.061 A 
HETATM   13  C6  UNL     1      13.125  51.281  83.676  1.00  0.00     0.061 A 
HETATM   14  C15 UNL     1      14.445  51.751  83.197  1.00  0.00     0.260 A 
HETATM   15  O2  UNL     1      15.166  51.193  82.332  1.00  0.00    -0.267 OA
HETATM   16  N2  UNL     1      14.760  52.956  83.893  1.00  0.00    -0.289 N 
HETATM   17  C16 UNL     1      13.671  53.181  84.745  1.00  0.00     0.260 A 
ATOM     18  H2  UNL     1      15.597  53.530  83.791  1.00  0.00     0.172 HD
HETATM   19  O3  UNL     1      13.546  54.142  85.537  1.00  0.00    -0.267 OA
BRANCH  13  20
HETATM   20  C7  UNL     1      12.475  50.075  83.217  1.00  0.00     0.009 A 
HETATM   21  C8  UNL     1      12.176  48.939  83.983  1.00  0.00     0.101 A 
HETATM   22  N1  UNL     1      11.573  48.025  83.231  1.00  0.00    -0.364 N 
HETATM   23  C9  UNL     1      11.457  48.518  81.972  1.00  0.00     0.043 A 
ATOM     24  H1  UNL     1      11.251  47.109  83.545  1.00  0.00     0.165 HD
HETATM   25  C10 UNL     1      10.908  47.986  80.816  1.00  0.00     0.030 A 
HETATM   26  C14 UNL     1      12.011  49.784  81.954  1.00  0.00     0.003 A 
HETATM   27  C11 UNL     1      10.908  48.709  79.649  1.00  0.00     0.002 A 
HETATM   28  C12 UNL     1      11.448  49.976  79.586  1.00  0.00     0.001 A 
HETATM   29  C13 UNL     1      11.991  50.483  80.756  1.00  0.00     0.014 A 
ENDBRANCH  13  20
ENDBRANCH   5  12
BRANCH   7  30
HETATM   30  C18 UNL     1       9.614  51.969  88.460  1.00  0.00     0.133 C 
BRANCH  30  31
HETATM   31  C19 UNL     1       9.874  53.245  89.228  1.00  0.00     0.064 C 
BRANCH  31  32
HETATM   32  C20 UNL     1      10.791  52.860  90.367  1.00  0.00     0.060 C 
BRANCH  32  33
HETATM   33  N4  UNL     1      12.007  53.539  90.461  1.00  0.00    -0.389 N 
HETATM   34  C21 UNL     1      12.284  54.608  89.580  1.00  0.00     0.148 C 
HETATM   35  C22 UNL     1      13.752  54.455  89.156  1.00  0.00     0.187 C 
HETATM   36  O4  UNL     1      14.590  54.273  90.235  1.00  0.00    -0.388 OA
HETATM   37  C23 UNL     1      13.972  54.390  91.470  1.00  0.00     0.187 C 
HETATM   38  C24 UNL     1      12.822  53.380  91.598  1.00  0.00     0.148 C 
ENDBRANCH  32  33
ENDBRANCH  31  32
ENDBRANCH  30  31
ENDBRANCH   7  30
TORSDOF 6
ENDMDL
MODEL 3
REMARK VINA RESULT: -7.561305230      2.440      4.864
REMARK  6 active torsions:
REMARK  status: ('A' for Active; 'I' for Inactive)
REMARK    1  A    between atoms: C4_5  and  C5_6 
REMARK    2  A    between atoms: C6_7  and  C7_8 
REMARK    3  A    between atoms: N3_25  and  C18_26 
REMARK    4  A    between atoms: C18_26  and  C19_27 
REMARK    5  A    between atoms: C19_27  and  C20_28 
REMARK    6  A    between atoms: C20_28  and  N4_29 
ROOT
HETATM    1  O1  UNL     1       8.155  53.782  82.822  1.00  0.00    -0.273 OA
HETATM    2  C1  UNL     1       8.385  52.934  83.711  1.00  0.00     0.222 C 
HETATM    3  C2  UNL     1       9.535  51.994  83.588  1.00  0.00     0.144 C 
HETATM    4  C3  UNL     1      10.193  51.978  84.952  1.00  0.00    -0.012 A 
HETATM    5  C4  UNL     1      11.492  52.048  85.365  1.00  0.00     0.005 A 
HETATM    6  C17 UNL     1      11.458  52.019  86.756  1.00  0.00     0.104 A 
HETATM    7  N3  UNL     1      10.181  51.933  87.139  1.00  0.00    -0.357 N 
HETATM    8  C25 UNL     1       9.395  51.906  86.066  1.00  0.00     0.036 A 
HETATM    9  C26 UNL     1       7.916  51.817  85.844  1.00  0.00     0.180 C 
HETATM   10  N5  UNL     1       7.562  52.826  84.880  1.00  0.00    -0.355 N 
ATOM     11  H5  UNL     1       6.759  53.439  85.022  1.00  0.00     0.162 HD
ENDROOT
BRANCH   5  12
HETATM   12  C5  UNL     1      12.715  52.108  84.562  1.00  0.00     0.061 A 
HETATM   13  C6  UNL     1      13.161  51.301  83.622  1.00  0.00     0.061 A 
HETATM   14  C15 UNL     1      14.468  51.785  83.121  1.00  0.00     0.260 A 
HETATM   15  O2  UNL     1      15.168  51.248  82.226  1.00  0.00    -0.267 OA
HETATM   16  N2  UNL     1      14.798  52.975  83.836  1.00  0.00    -0.289 N 
HETATM   17  C16 UNL     1      13.730  53.178  84.721  1.00  0.00     0.260 A 
ATOM     18  H2  UNL     1      15.631  53.552  83.727  1.00  0.00     0.172 HD
HETATM   19  O3  UNL     1      13.623  54.120  85.537  1.00  0.00    -0.267 OA
BRANCH  13  20
HETATM   20  C7  UNL     1      12.501  50.104  83.152  1.00  0.00     0.009 A 
HETATM   21  C8  UNL     1      12.022  49.864  81.857  1.00  0.00     0.101 A 
HETATM   22  N1  UNL     1      11.476  48.654  81.788  1.00  0.00    -0.364 N 
HETATM   23  C9  UNL     1      11.576  48.072  83.010  1.00  0.00     0.043 A 
ATOM     24  H1  UNL     1      11.054  48.234  80.959  1.00  0.00     0.165 HD
HETATM   25  C10 UNL     1      11.179  46.829  83.478  1.00  0.00     0.030 A 
HETATM   26  C14 UNL     1      12.208  48.960  83.859  1.00  0.00     0.003 A 
HETATM   27  C11 UNL     1      11.410  46.471  84.784  1.00  0.00     0.002 A 
HETATM   28  C12 UNL     1      12.039  47.325  85.664  1.00  0.00     0.001 A 
HETATM   29  C13 UNL     1      12.425  48.561  85.169  1.00  0.00     0.014 A 
ENDBRANCH  13  20
ENDBRANCH   5  12
BRANCH   7  30
HETATM   30  C18 UNL     1       9.769  51.880  88.506  1.00  0.00     0.133 C 
BRANCH  30  31
HETATM   31  C19 UNL     1       9.838  53.204  89.234  1.00  0.00     0.064 C 
BRANCH  31  32
HETATM   32  C20 UNL     1      10.683  52.955  90.462  1.00  0.00     0.060 C 
BRANCH  32  33
HETATM   33  N4  UNL     1      11.931  53.578  90.511  1.00  0.00    -0.389 N 
HETATM   34  C21 UNL     1      12.231  54.622  89.608  1.00  0.00     0.148 C 
HETATM   35  C22 UNL     1      13.677  54.395  89.144  1.00  0.00     0.187 C 
HETATM   36  O4  UNL     1      14.538  54.188  90.201  1.00  0.00    -0.388 OA
HETATM   37  C23 UNL     1      13.962  54.349  91.451  1.00  0.00     0.187 C 
HETATM   38  C24 UNL     1      12.772  53.395  91.627  1.00  0.00     0.148 C 
ENDBRANCH  32  33
ENDBRANCH  31  32
ENDBRANCH  30  31
ENDBRANCH   7  30
TORSDOF 6
ENDMDL
MODEL 4
REMARK VINA RESULT: -7.199840594      2.971      5.062
REMARK  6 active torsions:
REMARK  status: ('A' for Active; 'I' for Inactive)
REMARK    1  A    between atoms: C4_5  and  C5_6 
REMARK    2  A    between atoms: C6_7  and  C7_8 
REMARK    3  A    between atoms: N3_25  and  C18_26 
REMARK    4  A    between atoms: C18_26  and  C19_27 
REMARK    5  A    between atoms: C19_27  and  C20_28 
REMARK    6  A    between atoms: C20_28  and  N4_29 
ROOT
HETATM    1  O1  UNL     1       9.798  47.514  83.161  1.00  0.00    -0.273 OA
HETATM    2  C1  UNL     1      10.490  48.188  83.954  1.00  0.00     0.222 C 
HETATM    3  C2  UNL     1      11.949  48.379  83.718  1.00  0.00     0.144 C 
HETATM    4  C3  UNL     1      12.213  49.847  83.978  1.00  0.00    -0.012 A 
HETATM    5  C4  UNL     1      12.924  50.803  83.311  1.00  0.00     0.005 A 
HETATM    6  C17 UNL     1      12.760  51.981  84.033  1.00  0.00     0.104 A 
HETATM    7  N3  UNL     1      11.982  51.719  85.087  1.00  0.00    -0.357 N 
HETATM    8  C25 UNL     1      11.638  50.434  85.077  1.00  0.00     0.036 A 
HETATM    9  C26 UNL     1      10.806  49.558  85.964  1.00  0.00     0.180 C 
HETATM   10  N5  UNL     1       9.920  48.802  85.117  1.00  0.00    -0.355 N 
ATOM     11  H5  UNL     1       8.928  48.707  85.336  1.00  0.00     0.162 HD
ENDROOT
BRANCH   5  12
HETATM   12  C5  UNL     1      13.738  50.673  82.102  1.00  0.00     0.061 A 
HETATM   13  C6  UNL     1      13.466  50.108  80.944  1.00  0.00     0.061 A 
HETATM   14  C15 UNL     1      14.633  50.221  80.040  1.00  0.00     0.260 A 
HETATM   15  O2  UNL     1      14.710  49.786  78.863  1.00  0.00    -0.267 OA
HETATM   16  N2  UNL     1      15.664  50.915  80.741  1.00  0.00    -0.289 N 
HETATM   17  C16 UNL     1      15.123  51.194  82.004  1.00  0.00     0.260 A 
ATOM     18  H2  UNL     1      16.593  51.157  80.398  1.00  0.00     0.172 HD
HETATM   19  O3  UNL     1      15.705  51.796  82.934  1.00  0.00    -0.267 OA
BRANCH  13  20
HETATM   20  C7  UNL     1      12.228  49.447  80.596  1.00  0.00     0.009 A 
HETATM   21  C8  UNL     1      12.051  48.082  80.329  1.00  0.00     0.101 A 
HETATM   22  N1  UNL     1      10.777  47.832  80.049  1.00  0.00    -0.364 N 
HETATM   23  C9  UNL     1      10.088  48.998  80.120  1.00  0.00     0.043 A 
ATOM     24  H1  UNL     1      10.383  46.919  79.819  1.00  0.00     0.165 HD
HETATM   25  C10 UNL     1       8.748  49.296  79.928  1.00  0.00     0.030 A 
HETATM   26  C14 UNL     1      10.975  50.002  80.458  1.00  0.00     0.003 A 
HETATM   27  C11 UNL     1       8.292  50.583  80.072  1.00  0.00     0.002 A 
HETATM   28  C12 UNL     1       9.142  51.614  80.411  1.00  0.00     0.001 A 
HETATM   29  C13 UNL     1      10.477  51.289  80.596  1.00  0.00     0.014 A 
ENDBRANCH  13  20
ENDBRANCH   5  12
BRANCH   7  30
HETATM   30  C18 UNL     1      11.604  52.701  86.053  1.00  0.00     0.133 C 
BRANCH  30  31
HETATM   31  C19 UNL     1      12.669  53.011  87.081  1.00  0.00     0.064 C 
BRANCH  31  32
HETATM   32  C20 UNL     1      11.974  52.960  88.422  1.00  0.00     0.060 C 
BRANCH  32  33
HETATM   33  N4  UNL     1      12.564  53.667  89.471  1.00  0.00    -0.389 N 
HETATM   34  C21 UNL     1      13.286  54.851  89.201  1.00  0.00     0.148 C 
HETATM   35  C22 UNL     1      14.538  54.810  90.089  1.00  0.00     0.187 C 
HETATM   36  O4  UNL     1      14.236  54.524  91.403  1.00  0.00    -0.388 OA
HETATM   37  C23 UNL     1      12.880  54.456  91.680  1.00  0.00     0.187 C 
HETATM   38  C24 UNL     1      12.199  53.395  90.804  1.00  0.00     0.148 C 
ENDBRANCH  32  33
ENDBRANCH  31  32
ENDBRANCH  30  31
ENDBRANCH   7  30
TORSDOF 6
ENDMDL
MODEL 5
REMARK VINA RESULT: -7.053289985      1.277      1.565
REMARK  6 active torsions:
REMARK  status: ('A' for Active; 'I' for Inactive)
REMARK    1  A    between atoms: C4_5  and  C5_6 
REMARK    2  A    between atoms: C6_7  and  C7_8 
REMARK    3  A    between atoms: N3_25  and  C18_26 
REMARK    4  A    between atoms: C18_26  and  C19_27 
REMARK    5  A    between atoms: C19_27  and  C20_28 
REMARK    6  A    between atoms: C20_28  and  N4_29 
ROOT
HETATM    1  O1  UNL     1      11.500  45.877  84.428  1.00  0.00    -0.273 OA
HETATM    2  C1  UNL     1      12.118  46.637  85.205  1.00  0.00     0.222 C 
HETATM    3  C2  UNL     1      12.156  48.107  84.963  1.00  0.00     0.144 C 
HETATM    4  C3  UNL     1      11.903  48.747  86.312  1.00  0.00    -0.012 A 
HETATM    5  C4  UNL     1      11.103  49.772  86.727  1.00  0.00     0.005 A 
HETATM    6  C17 UNL     1      11.282  49.869  88.103  1.00  0.00     0.104 A 
HETATM    7  N3  UNL     1      12.158  48.932  88.477  1.00  0.00    -0.357 N 
HETATM    8  C25 UNL     1      12.550  48.240  87.411  1.00  0.00     0.036 A 
HETATM    9  C26 UNL     1      13.492  47.097  87.184  1.00  0.00     0.180 C 
HETATM   10  N5  UNL     1      12.814  46.136  86.353  1.00  0.00    -0.355 N 
ATOM     11  H5  UNL     1      12.828  45.140  86.573  1.00  0.00     0.162 HD
ENDROOT
BRANCH   5  12
HETATM   12  C5  UNL     1      10.240  50.649  85.934  1.00  0.00     0.061 A 
HETATM   13  C6  UNL     1      10.529  51.719  85.223  1.00  0.00     0.061 A 
HETATM   14  C15 UNL     1       9.295  52.270  84.618  1.00  0.00     0.260 A 
HETATM   15  O2  UNL     1       9.215  53.287  83.884  1.00  0.00    -0.267 OA
HETATM   16  N2  UNL     1       8.204  51.441  85.015  1.00  0.00    -0.289 N 
HETATM   17  C16 UNL     1       8.775  50.447  85.822  1.00  0.00     0.260 A 
ATOM     18  H2  UNL     1       7.221  51.549  84.766  1.00  0.00     0.172 HD
HETATM   19  O3  UNL     1       8.158  49.511  86.379  1.00  0.00    -0.267 OA
BRANCH  13  20
HETATM   20  C7  UNL     1      11.843  52.299  85.066  1.00  0.00     0.009 A 
HETATM   21  C8  UNL     1      12.406  53.325  85.838  1.00  0.00     0.101 A 
HETATM   22  N1  UNL     1      13.633  53.600  85.409  1.00  0.00    -0.364 N 
HETATM   23  C9  UNL     1      13.912  52.782  84.364  1.00  0.00     0.043 A 
ATOM     24  H1  UNL     1      14.258  54.305  85.800  1.00  0.00     0.165 HD
HETATM   25  C10 UNL     1      15.039  52.650  83.567  1.00  0.00     0.030 A 
HETATM   26  C14 UNL     1      12.813  51.975  84.144  1.00  0.00     0.003 A 
HETATM   27  C11 UNL     1      15.072  51.720  82.557  1.00  0.00     0.002 A 
HETATM   28  C12 UNL     1      13.999  50.892  82.305  1.00  0.00     0.001 A 
HETATM   29  C13 UNL     1      12.886  51.046  83.116  1.00  0.00     0.014 A 
ENDBRANCH  13  20
ENDBRANCH   5  12
BRANCH   7  30
HETATM   30  C18 UNL     1      12.582  48.742  89.828  1.00  0.00     0.133 C 
BRANCH  30  31
HETATM   31  C19 UNL     1      11.481  48.879  90.855  1.00  0.00     0.064 C 
BRANCH  31  32
HETATM   32  C20 UNL     1      12.105  49.590  92.035  1.00  0.00     0.060 C 
BRANCH  32  33
HETATM   33  N4  UNL     1      12.311  50.965  91.911  1.00  0.00    -0.389 N 
HETATM   34  C21 UNL     1      11.282  51.787  91.400  1.00  0.00     0.148 C 
HETATM   35  C22 UNL     1      11.956  52.794  90.457  1.00  0.00     0.187 C 
HETATM   36  O4  UNL     1      13.043  53.409  91.042  1.00  0.00    -0.388 OA
HETATM   37  C23 UNL     1      13.231  53.095  92.378  1.00  0.00     0.187 C 
HETATM   38  C24 UNL     1      13.399  51.580  92.562  1.00  0.00     0.148 C 
ENDBRANCH  32  33
ENDBRANCH  31  32
ENDBRANCH  30  31
ENDBRANCH   7  30
TORSDOF 6
ENDMDL
