MODEL 1
REMARK VINA RESULT: -5.953682315      0.000      0.000
REMARK  8 active torsions:
REMARK  status: ('A' for Active; 'I' for Inactive)
REMARK    1  A    between atoms: C2_2  and  C4_4 
REMARK    2  A    between atoms: C4_4  and  N1_5 
REMARK    3  A    between atoms: C4_4  and  C10_15 
REMARK    4  A    between atoms: N2_8  and  S1_9 
REMARK    5  A    between atoms: C10_15  and  N3_18 
REMARK    6  A    between atoms: N3_18  and  C13_20 
REMARK    7  A    between atoms: N6_27  and  N7_28 
REMARK       I    between atoms: N7_28  and  C15_30 
REMARK    8  A    between atoms: C15_30  and  C16_32 
ROOT
HETATM    1  N3  UNL     1      10.972  52.438  88.868  1.00  0.00    -0.212 N 
ATOM      2  H3  UNL     1      11.251  51.463  88.769  1.00  0.00     0.178 HD
ENDROOT
BRANCH   1   3
HETATM    3  C10 UNL     1       9.616  52.576  89.129  1.00  0.00     0.071 C 
HETATM    4  C11 UNL     1       9.367  54.135  89.189  1.00  0.00     0.041 C 
HETATM    5  C12 UNL     1       9.168  52.130  90.473  1.00  0.00     0.041 C 
BRANCH   3   6
HETATM    6  C4  UNL     1       8.711  52.126  87.965  1.00  0.00     0.254 C 
BRANCH   6   7
HETATM    7  C2  UNL     1       7.329  52.594  88.013  1.00  0.00     0.013 C 
HETATM    8  C1  UNL     1       6.365  51.471  88.412  1.00  0.00     0.012 C 
HETATM    9  C3  UNL     1       6.728  53.362  86.923  1.00  0.00     0.012 C 
ENDBRANCH   6   7
BRANCH   6  10
HETATM   10  N1  UNL     1       9.400  51.901  86.764  1.00  0.00     0.098 N 
HETATM   11  C5  UNL     1       9.135  50.641  86.093  1.00  0.00     0.288 C 
HETATM   12  C6  UNL     1      10.417  50.324  85.299  1.00  0.00     0.137 C 
HETATM   13  N2  UNL     1      10.529  51.324  84.280  1.00  0.00    -0.208 NA
HETATM   14  C8  UNL     1      10.498  52.667  84.752  1.00  0.00     0.137 C 
HETATM   15  C9  UNL     1       9.400  52.924  85.773  1.00  0.00     0.288 C 
BRANCH  13  16
HETATM   16  S1  UNL     1      11.776  51.018  83.151  1.00  0.00     0.207 S 
HETATM   17  C7  UNL     1      12.104  49.262  83.160  1.00  0.00     0.180 C 
HETATM   18  O1  UNL     1      11.243  51.390  81.776  1.00  0.00    -0.212 OA
HETATM   19  O2  UNL     1      13.004  51.809  83.471  1.00  0.00    -0.212 OA
ENDBRANCH  13  16
ENDBRANCH   6  10
ENDBRANCH   3   6
ENDBRANCH   1   3
BRANCH   1  20
HETATM   20  C13 UNL     1      11.959  53.246  88.723  1.00  0.00     0.717 A 
HETATM   21  N4  UNL     1      12.527  53.618  87.565  1.00  0.00    -0.128 N 
HETATM   22  N5  UNL     1      13.516  54.427  87.829  1.00  0.00    -0.260 N 
ATOM     23  H4  UNL     1      12.235  53.318  86.634  1.00  0.00     0.205 HD
HETATM   24  C14 UNL     1      13.617  54.602  89.138  1.00  0.00     0.230 A 
ATOM     25  H5  UNL     1      14.121  54.860  87.131  1.00  0.00     0.190 HD
HETATM   26  S2  UNL     1      14.737  55.550  89.888  1.00  0.00    -0.037 SA
HETATM   27  N6  UNL     1      12.632  53.858  89.732  1.00  0.00    -0.054 N 
BRANCH  27  28
HETATM   28  N7  UNL     1      12.441  53.835  91.095  1.00  0.00    -0.246 N 
HETATM   29  C15 UNL     1      13.034  53.165  92.150  1.00  0.00     0.244 C 
HETATM   30  O3  UNL     1      13.965  52.361  92.029  1.00  0.00    -0.271 OA
ATOM     31  H7  UNL     1      11.688  54.453  91.396  1.00  0.00     0.191 HD
BRANCH  29  32
HETATM   32  C16 UNL     1      12.571  53.378  93.578  1.00  0.00     0.032 C 
HETATM   33  C17 UNL     1      13.255  52.383  94.473  1.00  0.00     0.025 C 
HETATM   34  C18 UNL     1      11.064  53.274  93.613  1.00  0.00     0.025 C 
HETATM   35  C19 UNL     1      12.949  54.769  94.052  1.00  0.00     0.025 C 
ENDBRANCH  29  32
ENDBRANCH  27  28
ENDBRANCH   1  20
TORSDOF 8
ENDMDL
MODEL 2
REMARK VINA RESULT: -5.847764323      1.953      2.953
REMARK  8 active torsions:
REMARK  status: ('A' for Active; 'I' for Inactive)
REMARK    1  A    between atoms: C2_2  and  C4_4 
REMARK    2  A    between atoms: C4_4  and  N1_5 
REMARK    3  A    between atoms: C4_4  and  C10_15 
REMARK    4  A    between atoms: N2_8  and  S1_9 
REMARK    5  A    between atoms: C10_15  and  N3_18 
REMARK    6  A    between atoms: N3_18  and  C13_20 
REMARK    7  A    between atoms: N6_27  and  N7_28 
REMARK       I    between atoms: N7_28  and  C15_30 
REMARK    8  A    between atoms: C15_30  and  C16_32 
ROOT
HETATM    1  N3  UNL     1      11.073  52.256  88.849  1.00  0.00    -0.212 N 
ATOM      2  H3  UNL     1      10.144  52.673  88.795  1.00  0.00     0.178 HD
ENDROOT
BRANCH   1   3
HETATM    3  C10 UNL     1      11.026  50.888  89.079  1.00  0.00     0.071 C 
HETATM    4  C11 UNL     1       9.515  50.583  89.421  1.00  0.00     0.041 C 
HETATM    5  C12 UNL     1      11.731  50.414  90.296  1.00  0.00     0.041 C 
BRANCH   3   6
HETATM    6  C4  UNL     1      11.273  50.039  87.817  1.00  0.00     0.254 C 
BRANCH   6   7
HETATM    7  C2  UNL     1      11.462  48.607  88.038  1.00  0.00     0.013 C 
HETATM    8  C1  UNL     1      12.851  48.144  87.587  1.00  0.00     0.012 C 
HETATM    9  C3  UNL     1      10.475  47.617  87.609  1.00  0.00     0.012 C 
ENDBRANCH   6   7
BRANCH   6  10
HETATM   10  N1  UNL     1      10.685  50.562  86.656  1.00  0.00     0.098 N 
HETATM   11  C5  UNL     1      11.552  50.705  85.500  1.00  0.00     0.288 C 
HETATM   12  C6  UNL     1      10.954  51.867  84.683  1.00  0.00     0.137 C 
HETATM   13  N2  UNL     1       9.684  51.418  84.198  1.00  0.00    -0.208 NA
HETATM   14  C8  UNL     1       8.793  50.941  85.200  1.00  0.00     0.137 C 
HETATM   15  C9  UNL     1       9.455  50.006  86.202  1.00  0.00     0.288 C 
BRANCH  13  16
HETATM   16  S1  UNL     1       8.957  52.490  83.081  1.00  0.00     0.207 S 
HETATM   17  C7  UNL     1       7.333  51.857  82.693  1.00  0.00     0.180 C 
HETATM   18  O1  UNL     1       8.784  53.828  83.785  1.00  0.00    -0.212 OA
HETATM   19  O2  UNL     1       9.796  52.646  81.854  1.00  0.00    -0.212 OA
ENDBRANCH  13  16
ENDBRANCH   6  10
ENDBRANCH   3   6
ENDBRANCH   1   3
BRANCH   1  20
HETATM   20  C13 UNL     1      12.007  53.123  88.689  1.00  0.00     0.717 A 
HETATM   21  N4  UNL     1      12.574  53.487  87.528  1.00  0.00    -0.128 N 
HETATM   22  N5  UNL     1      13.500  54.371  87.778  1.00  0.00    -0.260 N 
ATOM     23  H4  UNL     1      12.323  53.131  86.606  1.00  0.00     0.205 HD
HETATM   24  C14 UNL     1      13.560  54.604  89.081  1.00  0.00     0.230 A 
ATOM     25  H5  UNL     1      14.089  54.817  87.075  1.00  0.00     0.190 HD
HETATM   26  S2  UNL     1      14.597  55.655  89.812  1.00  0.00    -0.037 SA
HETATM   27  N6  UNL     1      12.615  53.819  89.686  1.00  0.00    -0.054 N 
BRANCH  27  28
HETATM   28  N7  UNL     1      12.396  53.837  91.044  1.00  0.00    -0.246 N 
HETATM   29  C15 UNL     1      13.002  53.241  92.136  1.00  0.00     0.244 C 
HETATM   30  O3  UNL     1      13.977  52.484  92.064  1.00  0.00    -0.271 OA
ATOM     31  H7  UNL     1      11.604  54.424  91.307  1.00  0.00     0.191 HD
BRANCH  29  32
HETATM   32  C16 UNL     1      12.498  53.482  93.545  1.00  0.00     0.032 C 
HETATM   33  C17 UNL     1      13.210  52.555  94.490  1.00  0.00     0.025 C 
HETATM   34  C18 UNL     1      10.997  53.302  93.554  1.00  0.00     0.025 C 
HETATM   35  C19 UNL     1      12.795  54.906  93.974  1.00  0.00     0.025 C 
ENDBRANCH  29  32
ENDBRANCH  27  28
ENDBRANCH   1  20
TORSDOF 8
ENDMDL
MODEL 3
REMARK VINA RESULT: -5.809758581      1.231      1.546
REMARK  8 active torsions:
REMARK  status: ('A' for Active; 'I' for Inactive)
REMARK    1  A    between atoms: C2_2  and  C4_4 
REMARK    2  A    between atoms: C4_4  and  N1_5 
REMARK    3  A    between atoms: C4_4  and  C10_15 
REMARK    4  A    between atoms: N2_8  and  S1_9 
REMARK    5  A    between atoms: C10_15  and  N3_18 
REMARK    6  A    between atoms: N3_18  and  C13_20 
REMARK    7  A    between atoms: N6_27  and  N7_28 
REMARK       I    between atoms: N7_28  and  C15_30 
REMARK    8  A    between atoms: C15_30  and  C16_32 
ROOT
HETATM    1  N3  UNL     1      10.888  52.371  88.885  1.00  0.00    -0.212 N 
ATOM      2  H3  UNL     1      10.161  52.782  89.469  1.00  0.00     0.178 HD
ENDROOT
BRANCH   1   3
HETATM    3  C10 UNL     1      10.567  51.088  88.465  1.00  0.00     0.071 C 
HETATM    4  C11 UNL     1       9.772  50.451  89.672  1.00  0.00     0.041 C 
HETATM    5  C12 UNL     1      11.711  50.154  88.309  1.00  0.00     0.041 C 
BRANCH   3   6
HETATM    6  C4  UNL     1       9.540  51.049  87.317  1.00  0.00     0.254 C 
BRANCH   6   7
HETATM    7  C2  UNL     1       8.266  51.715  87.577  1.00  0.00     0.013 C 
HETATM    8  C1  UNL     1       7.078  50.859  87.123  1.00  0.00     0.012 C 
HETATM    9  C3  UNL     1       8.019  53.102  87.187  1.00  0.00     0.012 C 
ENDBRANCH   6   7
BRANCH   6  10
HETATM   10  N1  UNL     1      10.118  50.976  86.041  1.00  0.00     0.098 N 
HETATM   11  C5  UNL     1       9.683  49.878  85.195  1.00  0.00     0.288 C 
HETATM   12  C6  UNL     1      10.869  49.594  84.254  1.00  0.00     0.137 C 
HETATM   13  N2  UNL     1      11.007  50.741  83.408  1.00  0.00    -0.208 NA
HETATM   14  C8  UNL     1      11.142  51.981  84.095  1.00  0.00     0.137 C 
HETATM   15  C9  UNL     1      10.149  52.151  85.235  1.00  0.00     0.288 C 
BRANCH  13  16
HETATM   16  S1  UNL     1      12.136  50.528  82.140  1.00  0.00     0.207 S 
HETATM   17  C7  UNL     1      13.705  51.181  82.690  1.00  0.00     0.180 C 
HETATM   18  O1  UNL     1      12.298  49.031  81.926  1.00  0.00    -0.212 OA
HETATM   19  O2  UNL     1      11.672  51.193  80.884  1.00  0.00    -0.212 OA
ENDBRANCH  13  16
ENDBRANCH   6  10
ENDBRANCH   3   6
ENDBRANCH   1   3
BRANCH   1  20
HETATM   20  C13 UNL     1      11.882  53.165  88.712  1.00  0.00     0.717 A 
HETATM   21  N4  UNL     1      12.448  53.500  87.542  1.00  0.00    -0.128 N 
HETATM   22  N5  UNL     1      13.446  54.307  87.779  1.00  0.00    -0.260 N 
ATOM     23  H4  UNL     1      12.148  53.178  86.621  1.00  0.00     0.205 HD
HETATM   24  C14 UNL     1      13.555  54.516  89.083  1.00  0.00     0.230 A 
ATOM     25  H5  UNL     1      14.051  54.715  87.067  1.00  0.00     0.190 HD
HETATM   26  S2  UNL     1      14.688  55.473  89.801  1.00  0.00    -0.037 SA
HETATM   27  N6  UNL     1      12.566  53.798  89.701  1.00  0.00    -0.054 N 
BRANCH  27  28
HETATM   28  N7  UNL     1      12.382  53.813  91.065  1.00  0.00    -0.246 N 
HETATM   29  C15 UNL     1      12.985  53.180  92.136  1.00  0.00     0.244 C 
HETATM   30  O3  UNL     1      13.921  52.378  92.034  1.00  0.00    -0.271 OA
ATOM     31  H7  UNL     1      11.626  54.435  91.352  1.00  0.00     0.191 HD
BRANCH  29  32
HETATM   32  C16 UNL     1      12.528  53.431  93.559  1.00  0.00     0.032 C 
HETATM   33  C17 UNL     1      13.205  52.452  94.477  1.00  0.00     0.025 C 
HETATM   34  C18 UNL     1      11.020  53.341  93.601  1.00  0.00     0.025 C 
HETATM   35  C19 UNL     1      12.918  54.830  93.999  1.00  0.00     0.025 C 
ENDBRANCH  29  32
ENDBRANCH  27  28
ENDBRANCH   1  20
TORSDOF 8
ENDMDL
MODEL 4
REMARK VINA RESULT: -5.704523644      2.843      8.908
REMARK  8 active torsions:
REMARK  status: ('A' for Active; 'I' for Inactive)
REMARK    1  A    between atoms: C2_2  and  C4_4 
REMARK    2  A    between atoms: C4_4  and  N1_5 
REMARK    3  A    between atoms: C4_4  and  C10_15 
REMARK    4  A    between atoms: N2_8  and  S1_9 
REMARK    5  A    between atoms: C10_15  and  N3_18 
REMARK    6  A    between atoms: N3_18  and  C13_20 
REMARK    7  A    between atoms: N6_27  and  N7_28 
REMARK       I    between atoms: N7_28  and  C15_30 
REMARK    8  A    between atoms: C15_30  and  C16_32 
ROOT
HETATM    1  N3  UNL     1       9.874  52.792  83.424  1.00  0.00    -0.212 N 
ATOM      2  H3  UNL     1      10.760  53.246  83.209  1.00  0.00     0.178 HD
ENDROOT
BRANCH   1   3
HETATM    3  C10 UNL     1       9.819  52.331  84.732  1.00  0.00     0.071 C 
HETATM    4  C11 UNL     1       8.830  51.100  84.692  1.00  0.00     0.041 C 
HETATM    5  C12 UNL     1       9.162  53.236  85.708  1.00  0.00     0.041 C 
BRANCH   3   6
HETATM    6  C4  UNL     1      11.137  51.700  85.223  1.00  0.00     0.254 C 
BRANCH   6   7
HETATM    7  C2  UNL     1      11.959  51.062  84.198  1.00  0.00     0.013 C 
HETATM    8  C1  UNL     1      12.422  49.667  84.632  1.00  0.00     0.012 C 
HETATM    9  C3  UNL     1      13.081  51.750  83.560  1.00  0.00     0.012 C 
ENDBRANCH   6   7
BRANCH   6  10
HETATM   10  N1  UNL     1      11.677  52.321  86.359  1.00  0.00     0.098 N 
HETATM   11  C5  UNL     1      11.765  51.509  87.560  1.00  0.00     0.288 C 
HETATM   12  C6  UNL     1      11.684  52.506  88.732  1.00  0.00     0.137 C 
HETATM   13  N2  UNL     1      12.874  53.301  88.678  1.00  0.00    -0.208 NA
HETATM   14  C8  UNL     1      13.110  53.945  87.431  1.00  0.00     0.137 C 
HETATM   15  C9  UNL     1      12.904  53.032  86.231  1.00  0.00     0.288 C 
BRANCH  13  16
HETATM   16  S1  UNL     1      13.078  54.325  90.033  1.00  0.00     0.207 S 
HETATM   17  C7  UNL     1      11.870  53.854  91.262  1.00  0.00     0.180 C 
HETATM   18  O1  UNL     1      14.461  54.050  90.604  1.00  0.00    -0.212 OA
HETATM   19  O2  UNL     1      12.943  55.764  89.649  1.00  0.00    -0.212 OA
ENDBRANCH  13  16
ENDBRANCH   6  10
ENDBRANCH   3   6
ENDBRANCH   1   3
BRANCH   1  20
HETATM   20  C13 UNL     1       9.074  52.782  82.420  1.00  0.00     0.717 A 
HETATM   21  N4  UNL     1       8.058  53.631  82.195  1.00  0.00    -0.128 N 
HETATM   22  N5  UNL     1       7.465  53.282  81.086  1.00  0.00    -0.260 N 
ATOM     23  H4  UNL     1       7.795  54.416  82.790  1.00  0.00     0.205 HD
HETATM   24  C14 UNL     1       8.065  52.220  80.569  1.00  0.00     0.230 A 
ATOM     25  H5  UNL     1       6.659  53.757  80.679  1.00  0.00     0.190 HD
HETATM   26  S2  UNL     1       7.624  51.465  79.173  1.00  0.00    -0.037 SA
HETATM   27  N6  UNL     1       9.097  51.881  81.402  1.00  0.00    -0.054 N 
BRANCH  27  28
HETATM   28  N7  UNL     1       9.945  50.829  81.143  1.00  0.00    -0.246 N 
HETATM   29  C15 UNL     1      11.141  50.687  80.462  1.00  0.00     0.244 C 
HETATM   30  O3  UNL     1      11.731  51.611  79.891  1.00  0.00    -0.271 OA
ATOM     31  H7  UNL     1       9.615  49.951  81.544  1.00  0.00     0.191 HD
BRANCH  29  32
HETATM   32  C16 UNL     1      11.838  49.344  80.367  1.00  0.00     0.032 C 
HETATM   33  C17 UNL     1      11.350  48.453  81.475  1.00  0.00     0.025 C 
HETATM   34  C18 UNL     1      13.331  49.576  80.403  1.00  0.00     0.025 C 
HETATM   35  C19 UNL     1      11.507  48.672  79.048  1.00  0.00     0.025 C 
ENDBRANCH  29  32
ENDBRANCH  27  28
ENDBRANCH   1  20
TORSDOF 8
ENDMDL
MODEL 5
REMARK VINA RESULT: -5.541670083      3.301      4.499
REMARK  8 active torsions:
REMARK  status: ('A' for Active; 'I' for Inactive)
REMARK    1  A    between atoms: C2_2  and  C4_4 
REMARK    2  A    between atoms: C4_4  and  N1_5 
REMARK    3  A    between atoms: C4_4  and  C10_15 
REMARK    4  A    between atoms: N2_8  and  S1_9 
REMARK    5  A    between atoms: C10_15  and  N3_18 
REMARK    6  A    between atoms: N3_18  and  C13_20 
REMARK    7  A    between atoms: N6_27  and  N7_28 
REMARK       I    between atoms: N7_28  and  C15_30 
REMARK    8  A    between atoms: C15_30  and  C16_32 
ROOT
HETATM    1  N3  UNL     1      10.962  52.480  88.722  1.00  0.00    -0.212 N 
ATOM      2  H3  UNL     1      11.179  51.521  88.452  1.00  0.00     0.178 HD
ENDROOT
BRANCH   1   3
HETATM    3  C10 UNL     1       9.651  52.624  89.154  1.00  0.00     0.071 C 
HETATM    4  C11 UNL     1       8.770  52.011  87.995  1.00  0.00     0.041 C 
HETATM    5  C12 UNL     1       9.148  54.018  89.234  1.00  0.00     0.041 C 
BRANCH   3   6
HETATM    6  C4  UNL     1       9.296  51.738  90.364  1.00  0.00     0.254 C 
BRANCH   6   7
HETATM    7  C2  UNL     1       7.885  51.709  90.741  1.00  0.00     0.013 C 
HETATM    8  C1  UNL     1       7.636  52.453  92.058  1.00  0.00     0.012 C 
HETATM    9  C3  UNL     1       7.108  50.470  90.748  1.00  0.00     0.012 C 
ENDBRANCH   6   7
BRANCH   6  10
HETATM   10  N1  UNL     1      10.158  50.646  90.541  1.00  0.00     0.098 N 
HETATM   11  C5  UNL     1      10.603  50.385  91.898  1.00  0.00     0.288 C 
HETATM   12  C6  UNL     1      11.974  49.697  91.753  1.00  0.00     0.137 C 
HETATM   13  N2  UNL     1      11.733  48.424  91.143  1.00  0.00    -0.208 NA
HETATM   14  C8  UNL     1      11.015  48.474  89.914  1.00  0.00     0.137 C 
HETATM   15  C9  UNL     1       9.804  49.394  89.958  1.00  0.00     0.288 C 
BRANCH  13  16
HETATM   16  S1  UNL     1      13.111  47.412  91.096  1.00  0.00     0.207 S 
HETATM   17  C7  UNL     1      12.559  45.726  91.298  1.00  0.00     0.180 C 
HETATM   18  O1  UNL     1      13.723  47.545  89.710  1.00  0.00    -0.212 OA
HETATM   19  O2  UNL     1      14.102  47.798  92.148  1.00  0.00    -0.212 OA
ENDBRANCH  13  16
ENDBRANCH   6  10
ENDBRANCH   3   6
ENDBRANCH   1   3
BRANCH   1  20
HETATM   20  C13 UNL     1      11.968  53.266  88.581  1.00  0.00     0.717 A 
HETATM   21  N4  UNL     1      12.569  53.601  87.428  1.00  0.00    -0.128 N 
HETATM   22  N5  UNL     1      13.567  54.398  87.697  1.00  0.00    -0.260 N 
ATOM     23  H4  UNL     1      12.293  53.285  86.498  1.00  0.00     0.205 HD
HETATM   24  C14 UNL     1      13.640  54.601  89.004  1.00  0.00     0.230 A 
ATOM     25  H5  UNL     1      14.195  54.804  87.004  1.00  0.00     0.190 HD
HETATM   26  S2  UNL     1      14.761  55.546  89.758  1.00  0.00    -0.037 SA
HETATM   27  N6  UNL     1      12.629  53.889  89.591  1.00  0.00    -0.054 N 
BRANCH  27  28
HETATM   28  N7  UNL     1      12.405  53.901  90.949  1.00  0.00    -0.246 N 
HETATM   29  C15 UNL     1      13.007  53.299  92.040  1.00  0.00     0.244 C 
HETATM   30  O3  UNL     1      13.981  52.541  91.967  1.00  0.00    -0.271 OA
ATOM     31  H7  UNL     1      11.614  54.489  91.212  1.00  0.00     0.191 HD
BRANCH  29  32
HETATM   32  C16 UNL     1      12.499  53.535  93.449  1.00  0.00     0.032 C 
HETATM   33  C17 UNL     1      12.966  52.415  94.337  1.00  0.00     0.025 C 
HETATM   34  C18 UNL     1      10.994  53.667  93.400  1.00  0.00     0.025 C 
HETATM   35  C19 UNL     1      13.059  54.832  94.000  1.00  0.00     0.025 C 
ENDBRANCH  29  32
ENDBRANCH  27  28
ENDBRANCH   1  20
TORSDOF 8
ENDMDL
