MODEL 1
REMARK VINA RESULT: -7.834608805      0.000      0.000
REMARK  12 active torsions:
REMARK  status: ('A' for Active; 'I' for Inactive)
REMARK    1  A    between atoms: C7_7  and  C8_8 
REMARK    2  A    between atoms: C8_8  and  C9_9 
REMARK    3  A    between atoms: C9_9  and  N1_10 
REMARK    4  A    between atoms: N1_10  and  C10_11 
REMARK    5  A    between atoms: N3_19  and  C15_20 
REMARK    6  A    between atoms: C15_20  and  C16_21 
REMARK    7  A    between atoms: C16_21  and  C17_22 
REMARK    8  A    between atoms: C17_22  and  N4_23 
REMARK    9  A    between atoms: C22_31  and  N6_32 
REMARK   10  A    between atoms: N6_32  and  C23_34 
REMARK   11  A    between atoms: C27_38  and  N7_39 
REMARK   12  A    between atoms: N7_39  and  S1_41 
ROOT
HETATM    1  C10 UNL     1      12.184  48.809  85.567  1.00  0.00     0.137 A 
HETATM    2  C11 UNL     1      13.146  47.914  85.040  1.00  0.00     0.064 A 
HETATM    3  C12 UNL     1      13.967  47.167  85.835  1.00  0.00     0.092 A 
HETATM    4  N2  UNL     1      13.883  47.263  87.162  1.00  0.00    -0.359 N 
ATOM      5  H2  UNL     1      14.498  46.703  87.752  1.00  0.00     0.165 HD
HETATM    6  C13 UNL     1      12.983  48.101  87.727  1.00  0.00     0.132 A 
HETATM    7  C14 UNL     1      12.891  48.201  89.102  1.00  0.00     0.291 A 
HETATM    8  O1  UNL     1      13.674  47.488  89.784  1.00  0.00    -0.265 OA
HETATM    9  N3  UNL     1      12.010  49.019  89.693  1.00  0.00    -0.145 N 
HETATM   10  C22 UNL     1      11.190  49.764  88.936  1.00  0.00     0.688 A 
HETATM   11  N8  UNL     1      11.275  49.671  87.599  1.00  0.00    -0.185 N 
ATOM     12  H8  UNL     1      10.645  50.245  87.039  1.00  0.00     0.184 HD
HETATM   13  C30 UNL     1      12.140  48.868  86.954  1.00  0.00     0.122 A 
ENDROOT
BRANCH  10  14
HETATM   14  N6  UNL     1      10.372  50.529  89.567  1.00  0.00    -0.191 N 
ATOM     15  H6  UNL     1       9.684  50.071  90.165  1.00  0.00     0.184 HD
BRANCH  14  16
HETATM   16  C23 UNL     1      10.331  51.930  89.516  1.00  0.00     0.051 A 
HETATM   17  C24 UNL     1       9.220  52.606  89.970  1.00  0.00     0.030 A 
HETATM   18  C25 UNL     1       9.183  53.962  89.923  1.00  0.00     0.005 A 
HETATM   19  C26 UNL     1      10.251  54.682  89.425  1.00  0.00     0.030 A 
HETATM   20  C27 UNL     1      11.385  54.060  88.959  1.00  0.00     0.044 A 
HETATM   21  C29 UNL     1      11.382  52.662  89.025  1.00  0.00     0.060 A 
BRANCH  20  22
HETATM   22  N7  UNL     1      12.505  54.753  88.446  1.00  0.00    -0.285 N 
ATOM     23  H7  UNL     1      12.489  55.025  87.463  1.00  0.00     0.178 HD
BRANCH  22  24
HETATM   24  S1  UNL     1      13.887  55.163  89.370  1.00  0.00     0.227 S 
HETATM   25  C28 UNL     1      13.723  54.738  91.079  1.00  0.00     0.186 C 
HETATM   26  O2  UNL     1      14.123  56.666  89.232  1.00  0.00    -0.206 OA
HETATM   27  O3  UNL     1      15.111  54.430  88.855  1.00  0.00    -0.206 OA
ENDBRANCH  22  24
ENDBRANCH  20  22
ENDBRANCH  14  16
ENDBRANCH  10  14
BRANCH   9  28
HETATM   28  C15 UNL     1      11.958  49.081  91.140  1.00  0.00     0.153 C 
BRANCH  28  29
HETATM   29  C16 UNL     1      12.802  50.212  91.696  1.00  0.00     0.041 C 
BRANCH  29  30
HETATM   30  C17 UNL     1      12.189  50.572  93.052  1.00  0.00     0.122 C 
BRANCH  30  31
HETATM   31  N4  UNL     1      12.851  51.711  93.646  1.00  0.00    -0.380 N 
HETATM   32  C18 UNL     1      12.222  52.823  93.755  1.00  0.00     0.072 C 
HETATM   33  C19 UNL     1      10.809  53.096  93.313  1.00  0.00     0.077 C 
HETATM   34  N5  UNL     1      12.774  54.003  94.322  1.00  0.00    -0.380 N 
HETATM   35  C20 UNL     1      10.784  54.624  93.377  1.00  0.00     0.027 C 
HETATM   36  C21 UNL     1      11.652  54.864  94.610  1.00  0.00     0.121 C 
ATOM     37  H5  UNL     1      13.759  54.201  94.492  1.00  0.00     0.160 HD
ATOM     38  H4  UNL     1      13.813  51.630  93.977  1.00  0.00     0.160 HD
ENDBRANCH  30  31
ENDBRANCH  29  30
ENDBRANCH  28  29
ENDBRANCH   9  28
BRANCH   1  39
HETATM   39  N1  UNL     1      11.483  49.436  84.822  1.00  0.00    -0.419 NA
BRANCH  39  40
HETATM   40  C9  UNL     1      11.062  50.253  83.854  1.00  0.00     0.160 C 
BRANCH  40  41
HETATM   41  C8  UNL     1      11.365  51.737  83.856  1.00  0.00     0.098 C 
BRANCH  41  42
HETATM   42  C7  UNL     1      12.661  52.094  83.311  1.00  0.00    -0.046 A 
HETATM   43  C2  UNL     1      13.458  53.148  83.673  1.00  0.00    -0.055 A 
HETATM   44  C1  UNL     1      13.082  54.021  84.808  1.00  0.00     0.049 C 
HETATM   45  C3  UNL     1      14.658  53.381  83.002  1.00  0.00     0.007 A 
HETATM   46  C4  UNL     1      15.097  52.586  81.970  1.00  0.00     0.001 A 
HETATM   47  C5  UNL     1      14.302  51.522  81.598  1.00  0.00     0.001 A 
HETATM   48  C6  UNL     1      13.128  51.297  82.257  1.00  0.00     0.008 A 
ENDBRANCH  41  42
ENDBRANCH  40  41
ENDBRANCH  39  40
ENDBRANCH   1  39
TORSDOF 12
ENDMDL
MODEL 2
REMARK VINA RESULT: -7.609808303      3.168      4.427
REMARK  12 active torsions:
REMARK  status: ('A' for Active; 'I' for Inactive)
REMARK    1  A    between atoms: C7_7  and  C8_8 
REMARK    2  A    between atoms: C8_8  and  C9_9 
REMARK    3  A    between atoms: C9_9  and  N1_10 
REMARK    4  A    between atoms: N1_10  and  C10_11 
REMARK    5  A    between atoms: N3_19  and  C15_20 
REMARK    6  A    between atoms: C15_20  and  C16_21 
REMARK    7  A    between atoms: C16_21  and  C17_22 
REMARK    8  A    between atoms: C17_22  and  N4_23 
REMARK    9  A    between atoms: C22_31  and  N6_32 
REMARK   10  A    between atoms: N6_32  and  C23_34 
REMARK   11  A    between atoms: C27_38  and  N7_39 
REMARK   12  A    between atoms: N7_39  and  S1_41 
ROOT
HETATM    1  C10 UNL     1      10.204  51.759  85.087  1.00  0.00     0.137 A 
HETATM    2  C11 UNL     1       9.400  50.746  84.511  1.00  0.00     0.064 A 
HETATM    3  C12 UNL     1       8.234  50.321  85.081  1.00  0.00     0.092 A 
HETATM    4  N2  UNL     1       7.811  50.862  86.223  1.00  0.00    -0.359 N 
ATOM      5  H2  UNL     1       6.940  50.543  86.646  1.00  0.00     0.165 HD
HETATM    6  C13 UNL     1       8.536  51.836  86.823  1.00  0.00     0.132 A 
HETATM    7  C14 UNL     1       8.099  52.401  88.007  1.00  0.00     0.291 A 
HETATM    8  O1  UNL     1       7.018  51.969  88.485  1.00  0.00    -0.265 OA
HETATM    9  N3  UNL     1       8.791  53.367  88.625  1.00  0.00    -0.145 N 
HETATM   10  C22 UNL     1       9.940  53.804  88.087  1.00  0.00     0.688 A 
HETATM   11  N8  UNL     1      10.369  53.258  86.937  1.00  0.00    -0.185 N 
ATOM     12  H8  UNL     1      11.245  53.602  86.542  1.00  0.00     0.184 HD
HETATM   13  C30 UNL     1       9.716  52.287  86.275  1.00  0.00     0.122 A 
ENDROOT
BRANCH  10  14
HETATM   14  N6  UNL     1      10.555  54.729  88.733  1.00  0.00    -0.191 N 
ATOM     15  H6  UNL     1      10.067  55.619  88.837  1.00  0.00     0.184 HD
BRANCH  14  16
HETATM   16  C23 UNL     1      11.830  54.638  89.311  1.00  0.00     0.051 A 
HETATM   17  C24 UNL     1      12.919  55.190  88.671  1.00  0.00     0.030 A 
HETATM   18  C25 UNL     1      14.152  55.105  89.232  1.00  0.00     0.005 A 
HETATM   19  C26 UNL     1      14.334  54.469  90.445  1.00  0.00     0.030 A 
HETATM   20  C27 UNL     1      13.285  53.902  91.127  1.00  0.00     0.044 A 
HETATM   21  C29 UNL     1      12.031  54.012  90.514  1.00  0.00     0.060 A 
BRANCH  20  22
HETATM   22  N7  UNL     1      13.421  53.247  92.372  1.00  0.00    -0.285 N 
ATOM     23  H7  UNL     1      13.629  53.817  93.191  1.00  0.00     0.178 HD
BRANCH  22  24
HETATM   24  S1  UNL     1      13.257  51.555  92.590  1.00  0.00     0.227 S 
HETATM   25  C28 UNL     1      14.006  50.980  94.085  1.00  0.00     0.186 C 
HETATM   26  O2  UNL     1      13.895  50.857  91.390  1.00  0.00    -0.206 OA
HETATM   27  O3  UNL     1      11.793  51.165  92.658  1.00  0.00    -0.206 OA
ENDBRANCH  22  24
ENDBRANCH  20  22
ENDBRANCH  14  16
ENDBRANCH  10  14
BRANCH   9  28
HETATM   28  C15 UNL     1       8.284  53.923  89.863  1.00  0.00     0.153 C 
BRANCH  28  29
HETATM   29  C16 UNL     1       8.531  53.008  91.047  1.00  0.00     0.041 C 
BRANCH  29  30
HETATM   30  C17 UNL     1       8.778  53.925  92.248  1.00  0.00     0.122 C 
BRANCH  30  31
HETATM   31  N4  UNL     1       9.591  53.275  93.251  1.00  0.00    -0.380 N 
HETATM   32  C18 UNL     1      10.348  53.982  94.007  1.00  0.00     0.072 C 
HETATM   33  C19 UNL     1      10.499  55.480  93.971  1.00  0.00     0.077 C 
HETATM   34  N5  UNL     1      11.185  53.450  95.024  1.00  0.00    -0.380 N 
HETATM   35  C20 UNL     1      11.756  55.657  94.823  1.00  0.00     0.027 C 
HETATM   36  C21 UNL     1      11.539  54.566  95.869  1.00  0.00     0.121 C 
ATOM     37  H5  UNL     1      11.477  52.479  95.135  1.00  0.00     0.160 HD
ATOM     38  H4  UNL     1       9.563  52.260  93.356  1.00  0.00     0.160 HD
ENDBRANCH  30  31
ENDBRANCH  29  30
ENDBRANCH  28  29
ENDBRANCH   9  28
BRANCH   1  39
HETATM   39  N1  UNL     1      11.216  52.098  84.540  1.00  0.00    -0.419 NA
BRANCH  39  40
HETATM   40  C9  UNL     1      12.232  52.182  83.678  1.00  0.00     0.160 C 
BRANCH  40  41
HETATM   41  C8  UNL     1      12.672  51.011  82.825  1.00  0.00     0.098 C 
BRANCH  41  42
HETATM   42  C7  UNL     1      13.551  51.356  81.723  1.00  0.00    -0.046 A 
HETATM   43  C2  UNL     1      13.428  50.990  80.409  1.00  0.00    -0.055 A 
HETATM   44  C1  UNL     1      12.240  50.236  79.946  1.00  0.00     0.049 C 
HETATM   45  C3  UNL     1      14.400  51.364  79.483  1.00  0.00     0.007 A 
HETATM   46  C4  UNL     1      15.506  52.104  79.829  1.00  0.00     0.001 A 
HETATM   47  C5  UNL     1      15.640  52.479  81.149  1.00  0.00     0.001 A 
HETATM   48  C6  UNL     1      14.685  52.110  82.053  1.00  0.00     0.008 A 
ENDBRANCH  41  42
ENDBRANCH  40  41
ENDBRANCH  39  40
ENDBRANCH   1  39
TORSDOF 12
ENDMDL
MODEL 3
REMARK VINA RESULT: -7.598028909      3.646      9.365
REMARK  12 active torsions:
REMARK  status: ('A' for Active; 'I' for Inactive)
REMARK    1  A    between atoms: C7_7  and  C8_8 
REMARK    2  A    between atoms: C8_8  and  C9_9 
REMARK    3  A    between atoms: C9_9  and  N1_10 
REMARK    4  A    between atoms: N1_10  and  C10_11 
REMARK    5  A    between atoms: N3_19  and  C15_20 
REMARK    6  A    between atoms: C15_20  and  C16_21 
REMARK    7  A    between atoms: C16_21  and  C17_22 
REMARK    8  A    between atoms: C17_22  and  N4_23 
REMARK    9  A    between atoms: C22_31  and  N6_32 
REMARK   10  A    between atoms: N6_32  and  C23_34 
REMARK   11  A    between atoms: C27_38  and  N7_39 
REMARK   12  A    between atoms: N7_39  and  S1_41 
ROOT
HETATM    1  C10 UNL     1      12.444  54.462  90.642  1.00  0.00     0.137 A 
HETATM    2  C11 UNL     1      13.768  54.963  90.678  1.00  0.00     0.064 A 
HETATM    3  C12 UNL     1      14.554  55.040  89.565  1.00  0.00     0.092 A 
HETATM    4  N2  UNL     1      14.085  54.635  88.384  1.00  0.00    -0.359 N 
ATOM      5  H2  UNL     1      14.675  54.694  87.555  1.00  0.00     0.165 HD
HETATM    6  C13 UNL     1      12.827  54.146  88.285  1.00  0.00     0.132 A 
HETATM    7  C14 UNL     1      12.336  53.728  87.062  1.00  0.00     0.291 A 
HETATM    8  O1  UNL     1      13.107  53.822  86.071  1.00  0.00    -0.265 OA
HETATM    9  N3  UNL     1      11.095  53.241  86.929  1.00  0.00    -0.145 N 
HETATM   10  C22 UNL     1      10.301  53.155  88.007  1.00  0.00     0.688 A 
HETATM   11  N8  UNL     1      10.772  53.560  89.197  1.00  0.00    -0.185 N 
ATOM     12  H8  UNL     1      10.155  53.487  90.006  1.00  0.00     0.184 HD
HETATM   13  C30 UNL     1      12.008  54.056  89.388  1.00  0.00     0.122 A 
ENDROOT
BRANCH  10  14
HETATM   14  N6  UNL     1       9.124  52.676  87.809  1.00  0.00    -0.191 N 
ATOM     15  H6  UNL     1       9.046  51.662  87.746  1.00  0.00     0.184 HD
BRANCH  14  16
HETATM   16  C23 UNL     1       7.937  53.411  87.670  1.00  0.00     0.051 A 
HETATM   17  C24 UNL     1       7.075  53.141  86.630  1.00  0.00     0.030 A 
HETATM   18  C25 UNL     1       5.925  53.850  86.499  1.00  0.00     0.005 A 
HETATM   19  C26 UNL     1       5.601  54.846  87.400  1.00  0.00     0.030 A 
HETATM   20  C27 UNL     1       6.423  55.157  88.456  1.00  0.00     0.044 A 
HETATM   21  C29 UNL     1       7.598  54.403  88.555  1.00  0.00     0.060 A 
BRANCH  20  22
HETATM   22  N7  UNL     1       6.133  56.162  89.406  1.00  0.00    -0.285 N 
ATOM     23  H7  UNL     1       6.084  55.891  90.388  1.00  0.00     0.178 HD
BRANCH  22  24
HETATM   24  S1  UNL     1       5.859  57.806  89.012  1.00  0.00     0.227 S 
HETATM   25  C28 UNL     1       4.497  58.030  87.905  1.00  0.00     0.186 C 
HETATM   26  O2  UNL     1       7.134  58.364  88.382  1.00  0.00    -0.206 OA
HETATM   27  O3  UNL     1       5.542  58.609  90.259  1.00  0.00    -0.206 OA
ENDBRANCH  22  24
ENDBRANCH  20  22
ENDBRANCH  14  16
ENDBRANCH  10  14
BRANCH   9  28
HETATM   28  C15 UNL     1      10.634  52.819  85.622  1.00  0.00     0.153 C 
BRANCH  28  29
HETATM   29  C16 UNL     1      11.207  51.475  85.218  1.00  0.00     0.041 C 
BRANCH  29  30
HETATM   30  C17 UNL     1      11.577  51.598  83.737  1.00  0.00     0.122 C 
BRANCH  30  31
HETATM   31  N4  UNL     1      12.787  52.366  83.556  1.00  0.00    -0.380 N 
HETATM   32  C18 UNL     1      13.563  52.101  82.569  1.00  0.00     0.072 C 
HETATM   33  C19 UNL     1      13.353  51.033  81.530  1.00  0.00     0.077 C 
HETATM   34  N5  UNL     1      14.774  52.792  82.296  1.00  0.00    -0.380 N 
HETATM   35  C20 UNL     1      14.740  50.989  80.887  1.00  0.00     0.027 C 
HETATM   36  C21 UNL     1      15.113  52.469  80.930  1.00  0.00     0.121 C 
ATOM     37  H5  UNL     1      15.296  53.393  82.933  1.00  0.00     0.160 HD
ATOM     38  H4  UNL     1      13.023  53.114  84.209  1.00  0.00     0.160 HD
ENDBRANCH  30  31
ENDBRANCH  29  30
ENDBRANCH  28  29
ENDBRANCH   9  28
BRANCH   1  39
HETATM   39  N1  UNL     1      11.795  54.423  91.651  1.00  0.00    -0.419 NA
BRANCH  39  40
HETATM   40  C9  UNL     1      11.424  54.498  92.931  1.00  0.00     0.160 C 
BRANCH  40  41
HETATM   41  C8  UNL     1      11.673  55.730  93.777  1.00  0.00     0.098 C 
BRANCH  41  42
HETATM   42  C7  UNL     1      10.480  56.330  94.343  1.00  0.00    -0.046 A 
HETATM   43  C2  UNL     1      10.344  57.591  94.861  1.00  0.00    -0.055 A 
HETATM   44  C1  UNL     1      11.462  58.559  94.789  1.00  0.00     0.049 C 
HETATM   45  C3  UNL     1       9.132  57.991  95.421  1.00  0.00     0.007 A 
HETATM   46  C4  UNL     1       8.034  57.165  95.481  1.00  0.00     0.001 A 
HETATM   47  C5  UNL     1       8.160  55.894  94.962  1.00  0.00     0.001 A 
HETATM   48  C6  UNL     1       9.349  55.505  94.415  1.00  0.00     0.008 A 
ENDBRANCH  41  42
ENDBRANCH  40  41
ENDBRANCH  39  40
ENDBRANCH   1  39
TORSDOF 12
ENDMDL
MODEL 4
REMARK VINA RESULT: -7.389050475      5.362      7.970
REMARK  12 active torsions:
REMARK  status: ('A' for Active; 'I' for Inactive)
REMARK    1  A    between atoms: C7_7  and  C8_8 
REMARK    2  A    between atoms: C8_8  and  C9_9 
REMARK    3  A    between atoms: C9_9  and  N1_10 
REMARK    4  A    between atoms: N1_10  and  C10_11 
REMARK    5  A    between atoms: N3_19  and  C15_20 
REMARK    6  A    between atoms: C15_20  and  C16_21 
REMARK    7  A    between atoms: C16_21  and  C17_22 
REMARK    8  A    between atoms: C17_22  and  N4_23 
REMARK    9  A    between atoms: C22_31  and  N6_32 
REMARK   10  A    between atoms: N6_32  and  C23_34 
REMARK   11  A    between atoms: C27_38  and  N7_39 
REMARK   12  A    between atoms: N7_39  and  S1_41 
ROOT
HETATM    1  C10 UNL     1      13.910  51.079  80.912  1.00  0.00     0.137 A 
HETATM    2  C11 UNL     1      15.237  51.573  80.891  1.00  0.00     0.064 A 
HETATM    3  C12 UNL     1      15.698  52.477  81.804  1.00  0.00     0.092 A 
HETATM    4  N2  UNL     1      14.891  52.931  82.763  1.00  0.00    -0.359 N 
ATOM      5  H2  UNL     1      15.239  53.607  83.443  1.00  0.00     0.165 HD
HETATM    6  C13 UNL     1      13.611  52.497  82.836  1.00  0.00     0.132 A 
HETATM    7  C14 UNL     1      12.772  52.964  83.830  1.00  0.00     0.291 A 
HETATM    8  O1  UNL     1      13.253  53.797  84.643  1.00  0.00    -0.265 OA
HETATM    9  N3  UNL     1      11.502  52.553  83.932  1.00  0.00    -0.145 N 
HETATM   10  C22 UNL     1      11.022  51.664  83.049  1.00  0.00     0.688 A 
HETATM   11  N8  UNL     1      11.833  51.207  82.080  1.00  0.00    -0.185 N 
ATOM     12  H8  UNL     1      11.452  50.532  81.417  1.00  0.00     0.184 HD
HETATM   13  C30 UNL     1      13.115  51.585  81.931  1.00  0.00     0.122 A 
ENDROOT
BRANCH  10  14
HETATM   14  N6  UNL     1       9.795  51.315  83.202  1.00  0.00    -0.191 N 
ATOM     15  H6  UNL     1       9.522  50.989  84.129  1.00  0.00     0.184 HD
BRANCH  14  16
HETATM   16  C23 UNL     1       8.792  51.338  82.221  1.00  0.00     0.051 A 
HETATM   17  C24 UNL     1       8.254  50.159  81.756  1.00  0.00     0.030 A 
HETATM   18  C25 UNL     1       7.281  50.182  80.809  1.00  0.00     0.005 A 
HETATM   19  C26 UNL     1       6.817  51.380  80.302  1.00  0.00     0.030 A 
HETATM   20  C27 UNL     1       7.317  52.586  80.730  1.00  0.00     0.044 A 
HETATM   21  C29 UNL     1       8.318  52.518  81.706  1.00  0.00     0.060 A 
BRANCH  20  22
HETATM   22  N7  UNL     1       6.871  53.837  80.245  1.00  0.00    -0.285 N 
ATOM     23  H7  UNL     1       7.287  54.679  80.643  1.00  0.00     0.178 HD
BRANCH  22  24
HETATM   24  S1  UNL     1       5.677  54.027  79.032  1.00  0.00     0.227 S 
HETATM   25  C28 UNL     1       5.416  52.554  78.087  1.00  0.00     0.186 C 
HETATM   26  O2  UNL     1       6.113  55.163  78.108  1.00  0.00    -0.206 OA
HETATM   27  O3  UNL     1       4.341  54.389  79.651  1.00  0.00    -0.206 OA
ENDBRANCH  22  24
ENDBRANCH  20  22
ENDBRANCH  14  16
ENDBRANCH  10  14
BRANCH   9  28
HETATM   28  C15 UNL     1      10.669  53.075  84.997  1.00  0.00     0.153 C 
BRANCH  28  29
HETATM   29  C16 UNL     1      10.629  52.152  86.199  1.00  0.00     0.041 C 
BRANCH  29  30
HETATM   30  C17 UNL     1      10.869  53.040  87.424  1.00  0.00     0.122 C 
BRANCH  30  31
HETATM   31  N4  UNL     1      12.175  53.657  87.382  1.00  0.00    -0.380 N 
HETATM   32  C18 UNL     1      12.671  54.159  88.453  1.00  0.00     0.072 C 
HETATM   33  C19 UNL     1      12.023  54.185  89.811  1.00  0.00     0.077 C 
HETATM   34  N5  UNL     1      13.944  54.787  88.527  1.00  0.00    -0.380 N 
HETATM   35  C20 UNL     1      12.917  55.197  90.530  1.00  0.00     0.027 C 
HETATM   36  C21 UNL     1      14.276  54.842  89.931  1.00  0.00     0.121 C 
ATOM     37  H5  UNL     1      14.508  55.128  87.749  1.00  0.00     0.160 HD
ATOM     38  H4  UNL     1      12.698  53.693  86.507  1.00  0.00     0.160 HD
ENDBRANCH  30  31
ENDBRANCH  29  30
ENDBRANCH  28  29
ENDBRANCH   9  28
BRANCH   1  39
HETATM   39  N1  UNL     1      13.560  50.279  80.088  1.00  0.00    -0.419 NA
BRANCH  39  40
HETATM   40  C9  UNL     1      12.821  49.582  79.223  1.00  0.00     0.160 C 
BRANCH  40  41
HETATM   41  C8  UNL     1      11.347  49.312  79.447  1.00  0.00     0.098 C 
BRANCH  41  42
HETATM   42  C7  UNL     1      10.450  50.167  78.693  1.00  0.00    -0.046 A 
HETATM   43  C2  UNL     1       9.484  49.784  77.800  1.00  0.00    -0.055 A 
HETATM   44  C1  UNL     1       9.181  48.350  77.589  1.00  0.00     0.049 C 
HETATM   45  C3  UNL     1       8.743  50.745  77.115  1.00  0.00     0.007 A 
HETATM   46  C4  UNL     1       8.934  52.095  77.294  1.00  0.00     0.001 A 
HETATM   47  C5  UNL     1       9.904  52.492  78.191  1.00  0.00     0.001 A 
HETATM   48  C6  UNL     1      10.628  51.547  78.860  1.00  0.00     0.008 A 
ENDBRANCH  41  42
ENDBRANCH  40  41
ENDBRANCH  39  40
ENDBRANCH   1  39
TORSDOF 12
ENDMDL
MODEL 5
REMARK VINA RESULT: -7.272612295      3.355      4.249
REMARK  12 active torsions:
REMARK  status: ('A' for Active; 'I' for Inactive)
REMARK    1  A    between atoms: C7_7  and  C8_8 
REMARK    2  A    between atoms: C8_8  and  C9_9 
REMARK    3  A    between atoms: C9_9  and  N1_10 
REMARK    4  A    between atoms: N1_10  and  C10_11 
REMARK    5  A    between atoms: N3_19  and  C15_20 
REMARK    6  A    between atoms: C15_20  and  C16_21 
REMARK    7  A    between atoms: C16_21  and  C17_22 
REMARK    8  A    between atoms: C17_22  and  N4_23 
REMARK    9  A    between atoms: C22_31  and  N6_32 
REMARK   10  A    between atoms: N6_32  and  C23_34 
REMARK   11  A    between atoms: C27_38  and  N7_39 
REMARK   12  A    between atoms: N7_39  and  S1_41 
ROOT
HETATM    1  C10 UNL     1      11.409  49.948  86.433  1.00  0.00     0.137 A 
HETATM    2  C11 UNL     1      12.081  48.751  86.779  1.00  0.00     0.064 A 
HETATM    3  C12 UNL     1      12.533  48.501  88.043  1.00  0.00     0.092 A 
HETATM    4  N2  UNL     1      12.347  49.400  89.010  1.00  0.00    -0.359 N 
ATOM      5  H2  UNL     1      12.685  49.210  89.953  1.00  0.00     0.165 HD
HETATM    6  C13 UNL     1      11.709  50.564  88.742  1.00  0.00     0.132 A 
HETATM    7  C14 UNL     1      11.513  51.497  89.743  1.00  0.00     0.291 A 
HETATM    8  O1  UNL     1      11.950  51.212  90.889  1.00  0.00    -0.265 OA
HETATM    9  N3  UNL     1      10.884  52.657  89.512  1.00  0.00    -0.145 N 
HETATM   10  C22 UNL     1      10.430  52.928  88.279  1.00  0.00     0.688 A 
HETATM   11  N8  UNL     1      10.619  52.026  87.303  1.00  0.00    -0.185 N 
ATOM     12  H8  UNL     1      10.268  52.248  86.372  1.00  0.00     0.184 HD
HETATM   13  C30 UNL     1      11.242  50.846  87.478  1.00  0.00     0.122 A 
ENDROOT
BRANCH  10  14
HETATM   14  N6  UNL     1       9.840  54.060  88.127  1.00  0.00    -0.191 N 
ATOM     15  H6  UNL     1      10.433  54.890  88.117  1.00  0.00     0.184 HD
BRANCH  14  16
HETATM   16  C23 UNL     1       8.461  54.268  87.973  1.00  0.00     0.051 A 
HETATM   17  C24 UNL     1       7.763  53.583  87.002  1.00  0.00     0.030 A 
HETATM   18  C25 UNL     1       6.429  53.781  86.857  1.00  0.00     0.005 A 
HETATM   19  C26 UNL     1       5.752  54.667  87.673  1.00  0.00     0.030 A 
HETATM   20  C27 UNL     1       6.397  55.377  88.657  1.00  0.00     0.044 A 
HETATM   21  C29 UNL     1       7.772  55.142  88.774  1.00  0.00     0.060 A 
BRANCH  20  22
HETATM   22  N7  UNL     1       5.748  56.289  89.520  1.00  0.00    -0.285 N 
ATOM     23  H7  UNL     1       5.304  55.919  90.360  1.00  0.00     0.178 HD
BRANCH  22  24
HETATM   24  S1  UNL     1       5.662  57.978  89.244  1.00  0.00     0.227 S 
HETATM   25  C28 UNL     1       4.429  58.417  88.055  1.00  0.00     0.186 C 
HETATM   26  O2  UNL     1       7.033  58.452  88.766  1.00  0.00    -0.206 OA
HETATM   27  O3  UNL     1       5.313  58.711  90.524  1.00  0.00    -0.206 OA
ENDBRANCH  22  24
ENDBRANCH  20  22
ENDBRANCH  14  16
ENDBRANCH  10  14
BRANCH   9  28
HETATM   28  C15 UNL     1      10.705  53.597  90.601  1.00  0.00     0.153 C 
BRANCH  28  29
HETATM   29  C16 UNL     1       9.481  53.278  91.438  1.00  0.00     0.041 C 
BRANCH  29  30
HETATM   30  C17 UNL     1       9.958  53.249  92.893  1.00  0.00     0.122 C 
BRANCH  30  31
HETATM   31  N4  UNL     1       9.289  54.253  93.688  1.00  0.00    -0.380 N 
HETATM   32  C18 UNL     1       9.943  55.281  94.090  1.00  0.00     0.072 C 
HETATM   33  C19 UNL     1      11.394  55.578  93.820  1.00  0.00     0.077 C 
HETATM   34  N5  UNL     1       9.387  56.327  94.874  1.00  0.00    -0.380 N 
HETATM   35  C20 UNL     1      11.644  56.699  94.829  1.00  0.00     0.027 C 
HETATM   36  C21 UNL     1      10.307  57.434  94.765  1.00  0.00     0.121 C 
ATOM     37  H5  UNL     1       8.516  56.302  95.404  1.00  0.00     0.160 HD
ATOM     38  H4  UNL     1       8.303  54.145  93.929  1.00  0.00     0.160 HD
ENDBRANCH  30  31
ENDBRANCH  29  30
ENDBRANCH  28  29
ENDBRANCH   9  28
BRANCH   1  39
HETATM   39  N1  UNL     1      11.027  50.112  85.307  1.00  0.00    -0.419 NA
BRANCH  39  40
HETATM   40  C9  UNL     1      10.959  50.482  84.026  1.00  0.00     0.160 C 
BRANCH  40  41
HETATM   41  C8  UNL     1      11.215  51.906  83.578  1.00  0.00     0.098 C 
BRANCH  41  42
HETATM   42  C7  UNL     1      12.570  52.167  83.128  1.00  0.00    -0.046 A 
HETATM   43  C2  UNL     1      13.435  53.122  83.594  1.00  0.00    -0.055 A 
HETATM   44  C1  UNL     1      13.070  53.968  84.753  1.00  0.00     0.049 C 
HETATM   45  C3  UNL     1      14.690  53.276  83.007  1.00  0.00     0.007 A 
HETATM   46  C4  UNL     1      15.119  52.496  81.959  1.00  0.00     0.001 A 
HETATM   47  C5  UNL     1      14.256  51.531  81.483  1.00  0.00     0.001 A 
HETATM   48  C6  UNL     1      13.027  51.384  82.060  1.00  0.00     0.008 A 
ENDBRANCH  41  42
ENDBRANCH  40  41
ENDBRANCH  39  40
ENDBRANCH   1  39
TORSDOF 12
ENDMDL
