MODEL 1
REMARK VINA RESULT: -9.158880012      0.000      0.000
REMARK  13 active torsions:
REMARK  status: ('A' for Active; 'I' for Inactive)
REMARK    1  A    between atoms: O1_2  and  C2_3 
REMARK    2  A    between atoms: C7_8  and  C8_9 
REMARK    3  A    between atoms: C8_9  and  N1_10 
REMARK    4  A    between atoms: N1_10  and  C9_12 
REMARK    5  A    between atoms: C10_15  and  N3_16 
REMARK    6  A    between atoms: N3_16  and  C11_18 
REMARK    7  A    between atoms: C11_18  and  C12_19 
REMARK    8  A    between atoms: C14_21  and  S1_22 
REMARK    9  A    between atoms: S1_22  and  N4_25 
REMARK   10  A    between atoms: N4_25  and  C15_27 
REMARK   11  A    between atoms: C15_27  and  C16_28 
REMARK   12  A    between atoms: C19_31  and  C20_32 
REMARK   13  A    between atoms: C20_32  and  N5_33 
ROOT
HETATM    1  C12 UNL     1       7.418  53.735  88.068  1.00  0.00    -0.018 A 
HETATM    2  C13 UNL     1       8.234  53.580  86.975  1.00  0.00     0.035 A 
HETATM    3  C14 UNL     1       7.767  53.113  85.758  1.00  0.00     0.080 A 
HETATM    4  C23 UNL     1       6.414  52.807  85.670  1.00  0.00     0.027 A 
HETATM    5  C24 UNL     1       5.587  52.953  86.748  1.00  0.00     0.025 A 
HETATM    6  C25 UNL     1       6.042  53.407  87.955  1.00  0.00     0.052 A 
HETATM    7  C26 UNL     1       5.154  53.558  89.072  1.00  0.00     0.100 C 
HETATM    8  N6  UNL     1       4.442  53.703  89.975  1.00  0.00    -0.191 NA
ENDROOT
BRANCH   1   9
HETATM    9  C11 UNL     1       7.818  54.075  89.451  1.00  0.00     0.178 C 
BRANCH   9  10
HETATM   10  N3  UNL     1       8.767  53.140  90.046  1.00  0.00    -0.222 N 
ATOM     11  H3  UNL     1       8.491  52.199  90.328  1.00  0.00     0.178 HD
BRANCH  10  12
HETATM   12  C10 UNL     1      10.020  53.584  90.200  1.00  0.00     0.680 A 
HETATM   13  N2  UNL     1      10.485  53.885  91.420  1.00  0.00    -0.176 N 
HETATM   14  C9  UNL     1      11.741  54.354  91.647  1.00  0.00     0.133 A 
ATOM     15  H2  UNL     1       9.866  53.756  92.220  1.00  0.00     0.186 HD
HETATM   16  C32 UNL     1      12.569  54.528  90.515  1.00  0.00     0.036 A 
HETATM   17  C27 UNL     1      12.112  54.228  89.260  1.00  0.00     0.063 A 
HETATM   18  C31 UNL     1      13.865  55.007  90.671  1.00  0.00     0.017 A 
HETATM   19  N7  UNL     1      10.831  53.759  89.164  1.00  0.00    -0.191 N 
HETATM   20  C28 UNL     1      12.891  54.383  88.106  1.00  0.00     0.031 A 
ATOM     21  H7  UNL     1      10.475  53.530  88.235  1.00  0.00     0.184 HD
HETATM   22  C29 UNL     1      14.174  54.858  88.282  1.00  0.00     0.002 A 
HETATM   23  C30 UNL     1      14.668  55.170  89.534  1.00  0.00     0.001 A 
BRANCH  14  24
HETATM   24  N1  UNL     1      12.269  54.588  92.779  1.00  0.00    -0.350 N 
ATOM     25  H1  UNL     1      13.269  54.788  92.793  1.00  0.00     0.166 HD
BRANCH  24  26
HETATM   26  C8  UNL     1      11.600  54.595  94.008  1.00  0.00     0.104 C 
BRANCH  26  27
HETATM   27  C7  UNL     1      11.003  55.894  94.406  1.00  0.00     0.013 A 
HETATM   28  C2  UNL     1       9.642  55.843  94.780  1.00  0.00     0.079 A 
HETATM   29  C3  UNL     1       8.967  56.979  95.170  1.00  0.00     0.037 A 
HETATM   30  C4  UNL     1       9.603  58.191  95.203  1.00  0.00     0.003 A 
HETATM   31  C5  UNL     1      10.944  58.268  94.842  1.00  0.00     0.001 A 
HETATM   32  C6  UNL     1      11.613  57.106  94.448  1.00  0.00     0.015 A 
BRANCH  28  33
HETATM   33  O1  UNL     1       9.059  54.615  94.732  1.00  0.00    -0.355 OA
HETATM   34  C1  UNL     1       7.989  54.104  94.040  1.00  0.00     0.210 C 
ENDBRANCH  28  33
ENDBRANCH  26  27
ENDBRANCH  24  26
ENDBRANCH  14  24
ENDBRANCH  10  12
ENDBRANCH   9  10
ENDBRANCH   1   9
BRANCH   3  35
HETATM   35  S1  UNL     1       8.810  52.742  84.428  1.00  0.00     0.259 S 
HETATM   36  O2  UNL     1       9.060  53.952  83.566  1.00  0.00    -0.201 OA
HETATM   37  O3  UNL     1       8.325  51.581  83.601  1.00  0.00    -0.201 OA
BRANCH  35  38
HETATM   38  N4  UNL     1      10.375  52.273  85.051  1.00  0.00    -0.311 N 
ATOM     39  H4  UNL     1      10.547  51.400  85.550  1.00  0.00     0.172 HD
BRANCH  38  40
HETATM   40  C15 UNL     1      11.377  53.235  84.788  1.00  0.00     0.170 C 
BRANCH  40  41
HETATM   41  C16 UNL     1      12.428  52.801  83.836  1.00  0.00    -0.040 A 
HETATM   42  C17 UNL     1      12.399  51.779  82.948  1.00  0.00     0.009 A 
HETATM   43  C18 UNL     1      13.451  51.490  82.079  1.00  0.00     0.009 A 
HETATM   44  C19 UNL     1      14.599  52.241  82.069  1.00  0.00    -0.033 A 
HETATM   45  C21 UNL     1      14.653  53.311  82.987  1.00  0.00     0.009 A 
HETATM   46  C22 UNL     1      13.622  53.573  83.823  1.00  0.00     0.009 A 
BRANCH  44  47
HETATM   47  C20 UNL     1      15.750  52.034  81.159  1.00  0.00     0.268 C 
BRANCH  47  48
HETATM   48  N5  UNL     1      15.434  51.262  79.983  1.00  0.00    -0.075 N 
ATOM     49  H53 UNL     1      15.345  50.273  80.217  1.00  0.00     0.274 HD
ATOM     50  H52 UNL     1      14.480  51.452  79.675  1.00  0.00     0.274 HD
ATOM     51  H51 UNL     1      16.091  51.391  79.214  1.00  0.00     0.274 HD
ENDBRANCH  47  48
ENDBRANCH  44  47
ENDBRANCH  40  41
ENDBRANCH  38  40
ENDBRANCH  35  38
ENDBRANCH   3  35
TORSDOF 13
ENDMDL
MODEL 2
REMARK VINA RESULT: -8.591238125      3.053     10.881
REMARK  13 active torsions:
REMARK  status: ('A' for Active; 'I' for Inactive)
REMARK    1  A    between atoms: O1_2  and  C2_3 
REMARK    2  A    between atoms: C7_8  and  C8_9 
REMARK    3  A    between atoms: C8_9  and  N1_10 
REMARK    4  A    between atoms: N1_10  and  C9_12 
REMARK    5  A    between atoms: C10_15  and  N3_16 
REMARK    6  A    between atoms: N3_16  and  C11_18 
REMARK    7  A    between atoms: C11_18  and  C12_19 
REMARK    8  A    between atoms: C14_21  and  S1_22 
REMARK    9  A    between atoms: S1_22  and  N4_25 
REMARK   10  A    between atoms: N4_25  and  C15_27 
REMARK   11  A    between atoms: C15_27  and  C16_28 
REMARK   12  A    between atoms: C19_31  and  C20_32 
REMARK   13  A    between atoms: C20_32  and  N5_33 
ROOT
HETATM    1  C12 UNL     1      10.577  53.131  88.117  1.00  0.00    -0.018 A 
HETATM    2  C13 UNL     1      11.700  53.147  88.907  1.00  0.00     0.035 A 
HETATM    3  C14 UNL     1      11.682  53.591  90.218  1.00  0.00     0.080 A 
HETATM    4  C23 UNL     1      10.463  54.023  90.727  1.00  0.00     0.027 A 
HETATM    5  C24 UNL     1       9.335  54.018  89.956  1.00  0.00     0.025 A 
HETATM    6  C25 UNL     1       9.347  53.586  88.659  1.00  0.00     0.052 A 
HETATM    7  C26 UNL     1       8.149  53.584  87.868  1.00  0.00     0.100 C 
HETATM    8  N6  UNL     1       7.183  53.559  87.228  1.00  0.00    -0.191 NA
ENDROOT
BRANCH   1   9
HETATM    9  C11 UNL     1      10.495  52.829  86.672  1.00  0.00     0.178 C 
BRANCH   9  10
HETATM   10  N3  UNL     1      11.459  53.556  85.853  1.00  0.00    -0.222 N 
ATOM     11  H3  UNL     1      11.731  54.516  86.067  1.00  0.00     0.178 HD
BRANCH  10  12
HETATM   12  C10 UNL     1      11.967  52.895  84.807  1.00  0.00     0.680 A 
HETATM   13  N2  UNL     1      11.385  51.770  84.370  1.00  0.00    -0.176 N 
HETATM   14  C9  UNL     1      11.856  51.042  83.323  1.00  0.00     0.133 A 
ATOM     15  H2  UNL     1      10.545  51.443  84.847  1.00  0.00     0.186 HD
HETATM   16  C32 UNL     1      13.026  51.521  82.691  1.00  0.00     0.036 A 
HETATM   17  C27 UNL     1      13.638  52.667  83.123  1.00  0.00     0.063 A 
HETATM   18  C31 UNL     1      13.567  50.825  81.615  1.00  0.00     0.017 A 
HETATM   19  N7  UNL     1      13.063  53.311  84.184  1.00  0.00    -0.191 N 
HETATM   20  C28 UNL     1      14.798  53.183  82.533  1.00  0.00     0.031 A 
ATOM     21  H7  UNL     1      13.506  54.168  84.518  1.00  0.00     0.184 HD
HETATM   22  C29 UNL     1      15.318  52.479  81.466  1.00  0.00     0.002 A 
HETATM   23  C30 UNL     1      14.727  51.320  81.003  1.00  0.00     0.001 A 
BRANCH  14  24
HETATM   24  N1  UNL     1      11.314  50.012  82.811  1.00  0.00    -0.350 N 
ATOM     25  H1  UNL     1      11.858  49.150  82.817  1.00  0.00     0.166 HD
BRANCH  24  26
HETATM   26  C8  UNL     1      10.038  49.958  82.241  1.00  0.00     0.104 C 
BRANCH  26  27
HETATM   27  C7  UNL     1       9.962  50.321  80.804  1.00  0.00     0.013 A 
HETATM   28  C2  UNL     1       9.764  51.694  80.539  1.00  0.00     0.079 A 
HETATM   29  C3  UNL     1       9.674  52.165  79.247  1.00  0.00     0.037 A 
HETATM   30  C4  UNL     1       9.774  51.308  78.184  1.00  0.00     0.003 A 
HETATM   31  C5  UNL     1       9.971  49.950  78.418  1.00  0.00     0.001 A 
HETATM   32  C6  UNL     1      10.059  49.490  79.735  1.00  0.00     0.015 A 
BRANCH  28  33
HETATM   33  O1  UNL     1       9.675  52.503  81.630  1.00  0.00    -0.355 OA
HETATM   34  C1  UNL     1       8.665  53.268  82.157  1.00  0.00     0.210 C 
ENDBRANCH  28  33
ENDBRANCH  26  27
ENDBRANCH  24  26
ENDBRANCH  14  24
ENDBRANCH  10  12
ENDBRANCH   9  10
ENDBRANCH   1   9
BRANCH   3  35
HETATM   35  S1  UNL     1      13.117  53.785  91.167  1.00  0.00     0.259 S 
HETATM   36  O2  UNL     1      14.317  54.074  90.304  1.00  0.00    -0.201 OA
HETATM   37  O3  UNL     1      13.380  52.621  92.086  1.00  0.00    -0.201 OA
BRANCH  35  38
HETATM   38  N4  UNL     1      12.926  55.184  92.199  1.00  0.00    -0.311 N 
ATOM     39  H4  UNL     1      13.111  56.140  91.895  1.00  0.00     0.172 HD
BRANCH  38  40
HETATM   40  C15 UNL     1      12.488  54.846  93.499  1.00  0.00     0.170 C 
BRANCH  40  41
HETATM   41  C16 UNL     1      11.445  55.738  94.060  1.00  0.00    -0.040 A 
HETATM   42  C17 UNL     1      11.539  57.045  94.402  1.00  0.00     0.009 A 
HETATM   43  C18 UNL     1      10.466  57.788  94.894  1.00  0.00     0.009 A 
HETATM   44  C19 UNL     1       9.225  57.229  95.061  1.00  0.00    -0.033 A 
HETATM   45  C21 UNL     1       9.101  55.867  94.713  1.00  0.00     0.009 A 
HETATM   46  C22 UNL     1      10.156  55.165  94.239  1.00  0.00     0.009 A 
BRANCH  44  47
HETATM   47  C20 UNL     1       8.020  57.946  95.540  1.00  0.00     0.268 C 
BRANCH  47  48
HETATM   48  N5  UNL     1       6.867  57.785  94.689  1.00  0.00    -0.075 N 
ATOM     49  H53 UNL     1       7.076  58.096  93.740  1.00  0.00     0.274 HD
ATOM     50  H52 UNL     1       6.688  56.796  94.510  1.00  0.00     0.274 HD
ATOM     51  H51 UNL     1       6.027  58.243  95.040  1.00  0.00     0.274 HD
ENDBRANCH  47  48
ENDBRANCH  44  47
ENDBRANCH  40  41
ENDBRANCH  38  40
ENDBRANCH  35  38
ENDBRANCH   3  35
TORSDOF 13
ENDMDL
MODEL 3
REMARK VINA RESULT: -8.502288742      2.040      3.035
REMARK  13 active torsions:
REMARK  status: ('A' for Active; 'I' for Inactive)
REMARK    1  A    between atoms: O1_2  and  C2_3 
REMARK    2  A    between atoms: C7_8  and  C8_9 
REMARK    3  A    between atoms: C8_9  and  N1_10 
REMARK    4  A    between atoms: N1_10  and  C9_12 
REMARK    5  A    between atoms: C10_15  and  N3_16 
REMARK    6  A    between atoms: N3_16  and  C11_18 
REMARK    7  A    between atoms: C11_18  and  C12_19 
REMARK    8  A    between atoms: C14_21  and  S1_22 
REMARK    9  A    between atoms: S1_22  and  N4_25 
REMARK   10  A    between atoms: N4_25  and  C15_27 
REMARK   11  A    between atoms: C15_27  and  C16_28 
REMARK   12  A    between atoms: C19_31  and  C20_32 
REMARK   13  A    between atoms: C20_32  and  N5_33 
ROOT
HETATM    1  C12 UNL     1      10.171  53.853  88.893  1.00  0.00    -0.018 A 
HETATM    2  C13 UNL     1      10.138  53.576  87.548  1.00  0.00     0.035 A 
HETATM    3  C14 UNL     1       8.977  53.199  86.895  1.00  0.00     0.080 A 
HETATM    4  C23 UNL     1       7.816  53.115  87.655  1.00  0.00     0.027 A 
HETATM    5  C24 UNL     1       7.831  53.384  88.995  1.00  0.00     0.025 A 
HETATM    6  C25 UNL     1       8.975  53.750  89.649  1.00  0.00     0.052 A 
HETATM    7  C26 UNL     1       8.966  54.033  91.055  1.00  0.00     0.100 C 
HETATM    8  N6  UNL     1       8.966  54.284  92.187  1.00  0.00    -0.191 NA
ENDROOT
BRANCH   1   9
HETATM    9  C11 UNL     1      11.362  54.113  89.730  1.00  0.00     0.178 C 
BRANCH   9  10
HETATM   10  N3  UNL     1      12.219  52.949  89.930  1.00  0.00    -0.222 N 
ATOM     11  H3  UNL     1      12.517  52.361  89.152  1.00  0.00     0.178 HD
BRANCH  10  12
HETATM   12  C10 UNL     1      12.591  52.695  91.190  1.00  0.00     0.680 A 
HETATM   13  N2  UNL     1      12.369  53.597  92.156  1.00  0.00    -0.176 N 
HETATM   14  C9  UNL     1      12.734  53.409  93.452  1.00  0.00     0.133 A 
ATOM     15  H2  UNL     1      11.903  54.469  91.906  1.00  0.00     0.186 HD
HETATM   16  C32 UNL     1      13.384  52.193  93.760  1.00  0.00     0.036 A 
HETATM   17  C27 UNL     1      13.622  51.259  92.788  1.00  0.00     0.063 A 
HETATM   18  C31 UNL     1      13.788  51.934  95.065  1.00  0.00     0.017 A 
HETATM   19  N7  UNL     1      13.202  51.564  91.522  1.00  0.00    -0.191 N 
HETATM   20  C28 UNL     1      14.263  50.040  93.039  1.00  0.00     0.031 A 
ATOM     21  H7  UNL     1      13.371  50.879  90.785  1.00  0.00     0.184 HD
HETATM   22  C29 UNL     1      14.655  49.801  94.341  1.00  0.00     0.002 A 
HETATM   23  C30 UNL     1      14.430  50.720  95.347  1.00  0.00     0.001 A 
BRANCH  14  24
HETATM   24  N1  UNL     1      12.489  54.186  94.428  1.00  0.00    -0.350 N 
ATOM     25  H1  UNL     1      13.279  54.687  94.833  1.00  0.00     0.166 HD
BRANCH  24  26
HETATM   26  C8  UNL     1      11.231  54.415  94.995  1.00  0.00     0.104 C 
BRANCH  26  27
HETATM   27  C7  UNL     1      10.791  55.833  95.029  1.00  0.00     0.013 A 
HETATM   28  C2  UNL     1       9.484  56.046  95.520  1.00  0.00     0.079 A 
HETATM   29  C3  UNL     1       8.952  57.315  95.602  1.00  0.00     0.037 A 
HETATM   30  C4  UNL     1       9.683  58.404  95.207  1.00  0.00     0.003 A 
HETATM   31  C5  UNL     1      10.974  58.220  94.722  1.00  0.00     0.001 A 
HETATM   32  C6  UNL     1      11.497  56.927  94.645  1.00  0.00     0.015 A 
BRANCH  28  33
HETATM   33  O1  UNL     1       8.803  54.932  95.900  1.00  0.00    -0.355 OA
HETATM   34  C1  UNL     1       8.047  54.618  97.003  1.00  0.00     0.210 C 
ENDBRANCH  28  33
ENDBRANCH  26  27
ENDBRANCH  24  26
ENDBRANCH  14  24
ENDBRANCH  10  12
ENDBRANCH   9  10
ENDBRANCH   1   9
BRANCH   3  35
HETATM   35  S1  UNL     1       8.951  52.677  85.245  1.00  0.00     0.259 S 
HETATM   36  O2  UNL     1       8.749  53.833  84.301  1.00  0.00    -0.201 OA
HETATM   37  O3  UNL     1       7.946  51.585  84.986  1.00  0.00    -0.201 OA
BRANCH  35  38
HETATM   38  N4  UNL     1      10.513  52.003  84.842  1.00  0.00    -0.311 N 
ATOM     39  H4  UNL     1      10.691  51.002  84.753  1.00  0.00     0.172 HD
BRANCH  38  40
HETATM   40  C15 UNL     1      11.502  52.995  84.653  1.00  0.00     0.170 C 
BRANCH  40  41
HETATM   41  C16 UNL     1      12.572  52.636  83.691  1.00  0.00    -0.040 A 
HETATM   42  C17 UNL     1      12.604  51.620  82.796  1.00  0.00     0.009 A 
HETATM   43  C18 UNL     1      13.666  51.406  81.917  1.00  0.00     0.009 A 
HETATM   44  C19 UNL     1      14.762  52.232  81.903  1.00  0.00    -0.033 A 
HETATM   45  C21 UNL     1      14.752  53.298  82.828  1.00  0.00     0.009 A 
HETATM   46  C22 UNL     1      13.712  53.486  83.673  1.00  0.00     0.009 A 
BRANCH  44  47
HETATM   47  C20 UNL     1      15.917  52.107  80.983  1.00  0.00     0.268 C 
BRANCH  47  48
HETATM   48  N5  UNL     1      15.587  51.524  79.707  1.00  0.00    -0.075 N 
ATOM     49  H53 UNL     1      14.676  51.065  79.747  1.00  0.00     0.274 HD
ATOM     50  H52 UNL     1      15.382  52.251  79.022  1.00  0.00     0.274 HD
ATOM     51  H51 UNL     1      16.295  50.883  79.350  1.00  0.00     0.274 HD
ENDBRANCH  47  48
ENDBRANCH  44  47
ENDBRANCH  40  41
ENDBRANCH  38  40
ENDBRANCH  35  38
ENDBRANCH   3  35
TORSDOF 13
ENDMDL
MODEL 4
REMARK VINA RESULT: -8.489927415      2.976     10.523
REMARK  13 active torsions:
REMARK  status: ('A' for Active; 'I' for Inactive)
REMARK    1  A    between atoms: O1_2  and  C2_3 
REMARK    2  A    between atoms: C7_8  and  C8_9 
REMARK    3  A    between atoms: C8_9  and  N1_10 
REMARK    4  A    between atoms: N1_10  and  C9_12 
REMARK    5  A    between atoms: C10_15  and  N3_16 
REMARK    6  A    between atoms: N3_16  and  C11_18 
REMARK    7  A    between atoms: C11_18  and  C12_19 
REMARK    8  A    between atoms: C14_21  and  S1_22 
REMARK    9  A    between atoms: S1_22  and  N4_25 
REMARK   10  A    between atoms: N4_25  and  C15_27 
REMARK   11  A    between atoms: C15_27  and  C16_28 
REMARK   12  A    between atoms: C19_31  and  C20_32 
REMARK   13  A    between atoms: C20_32  and  N5_33 
ROOT
HETATM    1  C12 UNL     1      10.956  53.064  90.148  1.00  0.00    -0.018 A 
HETATM    2  C13 UNL     1      11.899  52.197  90.640  1.00  0.00     0.035 A 
HETATM    3  C14 UNL     1      11.665  51.387  91.738  1.00  0.00     0.080 A 
HETATM    4  C23 UNL     1      10.414  51.473  92.338  1.00  0.00     0.027 A 
HETATM    5  C24 UNL     1       9.463  52.332  91.864  1.00  0.00     0.025 A 
HETATM    6  C25 UNL     1       9.689  53.139  90.783  1.00  0.00     0.052 A 
HETATM    7  C26 UNL     1       8.674  54.030  90.299  1.00  0.00     0.100 C 
HETATM    8  N6  UNL     1       7.854  54.738  89.887  1.00  0.00    -0.191 NA
ENDROOT
BRANCH   1   9
HETATM    9  C11 UNL     1      11.131  54.082  89.089  1.00  0.00     0.178 C 
BRANCH   9  10
HETATM   10  N3  UNL     1      12.018  53.671  88.006  1.00  0.00    -0.222 N 
ATOM     11  H3  UNL     1      13.024  53.569  88.144  1.00  0.00     0.178 HD
BRANCH  10  12
HETATM   12  C10 UNL     1      11.440  53.436  86.822  1.00  0.00     0.680 A 
HETATM   13  N2  UNL     1      12.189  53.293  85.720  1.00  0.00    -0.176 N 
HETATM   14  C9  UNL     1      11.668  53.067  84.486  1.00  0.00     0.133 A 
ATOM     15  H2  UNL     1      13.203  53.357  85.813  1.00  0.00     0.186 HD
HETATM   16  C32 UNL     1      10.260  52.991  84.394  1.00  0.00     0.036 A 
HETATM   17  C27 UNL     1       9.476  53.137  85.507  1.00  0.00     0.063 A 
HETATM   18  C31 UNL     1       9.656  52.765  83.162  1.00  0.00     0.017 A 
HETATM   19  N7  UNL     1      10.122  53.356  86.693  1.00  0.00    -0.191 N 
HETATM   20  C28 UNL     1       8.077  53.072  85.471  1.00  0.00     0.031 A 
ATOM     21  H7  UNL     1       9.552  53.466  87.533  1.00  0.00     0.184 HD
HETATM   22  C29 UNL     1       7.498  52.846  84.240  1.00  0.00     0.002 A 
HETATM   23  C30 UNL     1       8.258  52.694  83.096  1.00  0.00     0.001 A 
BRANCH  14  24
HETATM   24  N1  UNL     1      12.320  52.849  83.416  1.00  0.00    -0.350 N 
ATOM     25  H1  UNL     1      12.322  53.588  82.714  1.00  0.00     0.166 HD
BRANCH  24  26
HETATM   26  C8  UNL     1      13.034  51.684  83.117  1.00  0.00     0.104 C 
BRANCH  26  27
HETATM   27  C7  UNL     1      13.852  51.733  81.879  1.00  0.00     0.013 A 
HETATM   28  C2  UNL     1      13.179  51.353  80.697  1.00  0.00     0.079 A 
HETATM   29  C3  UNL     1      13.824  51.353  79.479  1.00  0.00     0.037 A 
HETATM   30  C4  UNL     1      15.139  51.722  79.386  1.00  0.00     0.003 A 
HETATM   31  C5  UNL     1      15.824  52.103  80.536  1.00  0.00     0.001 A 
HETATM   32  C6  UNL     1      15.155  52.096  81.763  1.00  0.00     0.015 A 
BRANCH  28  33
HETATM   33  O1  UNL     1      11.874  50.999  80.844  1.00  0.00    -0.355 OA
HETATM   34  C1  UNL     1      10.931  50.492  79.985  1.00  0.00     0.210 C 
ENDBRANCH  28  33
ENDBRANCH  26  27
ENDBRANCH  24  26
ENDBRANCH  14  24
ENDBRANCH  10  12
ENDBRANCH   9  10
ENDBRANCH   1   9
BRANCH   3  35
HETATM   35  S1  UNL     1      12.897  50.423  92.479  1.00  0.00     0.259 S 
HETATM   36  O2  UNL     1      14.245  50.672  91.854  1.00  0.00    -0.201 OA
HETATM   37  O3  UNL     1      12.571  48.953  92.491  1.00  0.00    -0.201 OA
BRANCH  35  38
HETATM   38  N4  UNL     1      13.056  50.899  94.154  1.00  0.00    -0.311 N 
ATOM     39  H4  UNL     1      12.707  50.344  94.935  1.00  0.00     0.172 HD
BRANCH  38  40
HETATM   40  C15 UNL     1      13.722  52.136  94.308  1.00  0.00     0.170 C 
BRANCH  40  41
HETATM   41  C16 UNL     1      12.832  53.302  94.533  1.00  0.00    -0.040 A 
HETATM   42  C17 UNL     1      11.992  53.541  95.567  1.00  0.00     0.009 A 
HETATM   43  C18 UNL     1      11.225  54.701  95.679  1.00  0.00     0.009 A 
HETATM   44  C19 UNL     1      11.281  55.690  94.730  1.00  0.00    -0.033 A 
HETATM   45  C21 UNL     1      12.149  55.463  93.641  1.00  0.00     0.009 A 
HETATM   46  C22 UNL     1      12.883  54.330  93.552  1.00  0.00     0.009 A 
BRANCH  44  47
HETATM   47  C20 UNL     1      10.534  56.969  94.781  1.00  0.00     0.268 C 
BRANCH  47  48
HETATM   48  N5  UNL     1      11.378  58.139  94.766  1.00  0.00    -0.075 N 
ATOM     49  H53 UNL     1      10.860  58.958  95.084  1.00  0.00     0.274 HD
ATOM     50  H52 UNL     1      12.081  58.083  95.503  1.00  0.00     0.274 HD
ATOM     51  H51 UNL     1      11.817  58.320  93.864  1.00  0.00     0.274 HD
ENDBRANCH  47  48
ENDBRANCH  44  47
ENDBRANCH  40  41
ENDBRANCH  38  40
ENDBRANCH  35  38
ENDBRANCH   3  35
TORSDOF 13
ENDMDL
MODEL 5
REMARK VINA RESULT: -8.486272147      3.023     10.028
REMARK  13 active torsions:
REMARK  status: ('A' for Active; 'I' for Inactive)
REMARK    1  A    between atoms: O1_2  and  C2_3 
REMARK    2  A    between atoms: C7_8  and  C8_9 
REMARK    3  A    between atoms: C8_9  and  N1_10 
REMARK    4  A    between atoms: N1_10  and  C9_12 
REMARK    5  A    between atoms: C10_15  and  N3_16 
REMARK    6  A    between atoms: N3_16  and  C11_18 
REMARK    7  A    between atoms: C11_18  and  C12_19 
REMARK    8  A    between atoms: C14_21  and  S1_22 
REMARK    9  A    between atoms: S1_22  and  N4_25 
REMARK   10  A    between atoms: N4_25  and  C15_27 
REMARK   11  A    between atoms: C15_27  and  C16_28 
REMARK   12  A    between atoms: C19_31  and  C20_32 
REMARK   13  A    between atoms: C20_32  and  N5_33 
ROOT
HETATM    1  C12 UNL     1      10.673  53.146  87.916  1.00  0.00    -0.018 A 
HETATM    2  C13 UNL     1      11.767  53.167  88.745  1.00  0.00     0.035 A 
HETATM    3  C14 UNL     1      11.703  53.626  90.050  1.00  0.00     0.080 A 
HETATM    4  C23 UNL     1      10.467  54.066  90.510  1.00  0.00     0.027 A 
HETATM    5  C24 UNL     1       9.368  54.054  89.699  1.00  0.00     0.025 A 
HETATM    6  C25 UNL     1       9.425  53.609  88.407  1.00  0.00     0.052 A 
HETATM    7  C26 UNL     1       8.257  53.601  87.574  1.00  0.00     0.100 C 
HETATM    8  N6  UNL     1       7.315  53.571  86.899  1.00  0.00    -0.191 NA
ENDROOT
BRANCH   1   9
HETATM    9  C11 UNL     1      10.642  52.828  86.471  1.00  0.00     0.178 C 
BRANCH   9  10
HETATM   10  N3  UNL     1      11.633  53.550  85.679  1.00  0.00    -0.222 N 
ATOM     11  H3  UNL     1      11.951  54.484  85.938  1.00  0.00     0.178 HD
BRANCH  10  12
HETATM   12  C10 UNL     1      12.101  52.919  84.597  1.00  0.00     0.680 A 
HETATM   13  N2  UNL     1      11.412  51.907  84.052  1.00  0.00    -0.176 N 
HETATM   14  C9  UNL     1      11.836  51.215  82.962  1.00  0.00     0.133 A 
ATOM     15  H2  UNL     1      10.523  51.643  84.477  1.00  0.00     0.186 HD
HETATM   16  C32 UNL     1      13.075  51.603  82.404  1.00  0.00     0.036 A 
HETATM   17  C27 UNL     1      13.796  52.632  82.947  1.00  0.00     0.063 A 
HETATM   18  C31 UNL     1      13.573  50.936  81.290  1.00  0.00     0.017 A 
HETATM   19  N7  UNL     1      13.260  53.253  84.041  1.00  0.00    -0.191 N 
HETATM   20  C28 UNL     1      15.029  53.055  82.434  1.00  0.00     0.031 A 
ATOM     21  H7  UNL     1      13.784  54.023  84.457  1.00  0.00     0.184 HD
HETATM   22  C29 UNL     1      15.505  52.382  81.328  1.00  0.00     0.002 A 
HETATM   23  C30 UNL     1      14.804  51.339  80.754  1.00  0.00     0.001 A 
BRANCH  14  24
HETATM   24  N1  UNL     1      11.200  50.298  82.352  1.00  0.00    -0.350 N 
ATOM     25  H1  UNL     1      10.773  50.544  81.459  1.00  0.00     0.166 HD
BRANCH  24  26
HETATM   26  C8  UNL     1      11.033  48.983  82.798  1.00  0.00     0.104 C 
BRANCH  26  27
HETATM   27  C7  UNL     1      11.424  48.729  84.207  1.00  0.00     0.013 A 
HETATM   28  C2  UNL     1      10.443  49.049  85.171  1.00  0.00     0.079 A 
HETATM   29  C3  UNL     1      10.680  48.862  86.517  1.00  0.00     0.037 A 
HETATM   30  C4  UNL     1      11.877  48.359  86.951  1.00  0.00     0.003 A 
HETATM   31  C5  UNL     1      12.858  48.034  86.020  1.00  0.00     0.001 A 
HETATM   32  C6  UNL     1      12.603  48.230  84.661  1.00  0.00     0.015 A 
BRANCH  28  33
HETATM   33  O1  UNL     1       9.272  49.542  84.687  1.00  0.00    -0.355 OA
HETATM   34  C1  UNL     1       8.243  50.255  85.250  1.00  0.00     0.210 C 
ENDBRANCH  28  33
ENDBRANCH  26  27
ENDBRANCH  24  26
ENDBRANCH  14  24
ENDBRANCH  10  12
ENDBRANCH   9  10
ENDBRANCH   1   9
BRANCH   3  35
HETATM   35  S1  UNL     1      13.102  53.827  91.048  1.00  0.00     0.259 S 
HETATM   36  O2  UNL     1      14.327  54.140  90.229  1.00  0.00    -0.201 OA
HETATM   37  O3  UNL     1      13.349  52.657  91.963  1.00  0.00    -0.201 OA
BRANCH  35  38
HETATM   38  N4  UNL     1      12.860  55.212  92.087  1.00  0.00    -0.311 N 
ATOM     39  H4  UNL     1      13.007  56.176  91.788  1.00  0.00     0.172 HD
BRANCH  38  40
HETATM   40  C15 UNL     1      12.439  54.851  93.387  1.00  0.00     0.170 C 
BRANCH  40  41
HETATM   41  C16 UNL     1      11.418  55.746  93.985  1.00  0.00    -0.040 A 
HETATM   42  C17 UNL     1      11.546  57.035  94.380  1.00  0.00     0.009 A 
HETATM   43  C18 UNL     1      10.493  57.783  94.904  1.00  0.00     0.009 A 
HETATM   44  C19 UNL     1       9.237  57.250  95.049  1.00  0.00    -0.033 A 
HETATM   45  C21 UNL     1       9.079  55.906  94.645  1.00  0.00     0.009 A 
HETATM   46  C22 UNL     1      10.116  55.198  94.142  1.00  0.00     0.009 A 
BRANCH  44  47
HETATM   47  C20 UNL     1       8.051  57.977  95.559  1.00  0.00     0.268 C 
BRANCH  47  48
HETATM   48  N5  UNL     1       6.873  57.818  94.743  1.00  0.00    -0.075 N 
ATOM     49  H53 UNL     1       6.190  58.545  94.953  1.00  0.00     0.274 HD
ATOM     50  H52 UNL     1       7.077  58.049  93.770  1.00  0.00     0.274 HD
ATOM     51  H51 UNL     1       6.445  56.894  94.810  1.00  0.00     0.274 HD
ENDBRANCH  47  48
ENDBRANCH  44  47
ENDBRANCH  40  41
ENDBRANCH  38  40
ENDBRANCH  35  38
ENDBRANCH   3  35
TORSDOF 13
ENDMDL
