MODEL 1
REMARK VINA RESULT: -7.886589146      0.000      0.000
REMARK  15 active torsions:
REMARK  status: ('A' for Active; 'I' for Inactive)
REMARK    1  A    between atoms: C2_2  and  O1_3 
REMARK    2  A    between atoms: C2_2  and  C3_5 
REMARK    3  A    between atoms: C5_9  and  C6_10 
REMARK    4  A    between atoms: C7_13  and  S1_14 
REMARK    5  A    between atoms: S1_14  and  C8_15 
REMARK    6  A    between atoms: C10_20  and  C11_21 
REMARK    7  A    between atoms: C11_21  and  C12_22 
REMARK       I    between atoms: C12_22  and  N3_24 
REMARK    8  A    between atoms: N3_24  and  C13_26 
REMARK    9  A    between atoms: N4_29  and  C16_30 
REMARK   10  A    between atoms: C16_30  and  O6_31 
REMARK   11  A    between atoms: C16_30  and  C17_33 
REMARK   12  A    between atoms: C17_33  and  C18_34 
REMARK   13  A    between atoms: C18_34  and  C19_35 
REMARK   14  A    between atoms: C19_35  and  C20_36 
REMARK   15  A    between atoms: C21_37  and  C22_38 
ROOT
HETATM    1  C11 UNL     1      12.043  54.370  89.989  1.00  0.00     0.135 C 
ENDROOT
BRANCH   1   2
HETATM    2  C10 UNL     1      12.120  53.246  91.003  1.00  0.00     0.195 C 
HETATM    3  N2  UNL     1      13.512  53.089  91.451  1.00  0.00    -0.069 N 
HETATM    4  C9  UNL     1      13.739  54.321  92.209  1.00  0.00     0.248 C 
ATOM      5  H22 UNL     1      14.186  52.913  90.707  1.00  0.00     0.277 HD
ATOM      6  H21 UNL     1      13.704  52.228  91.963  1.00  0.00     0.277 HD
HETATM    7  C8  UNL     1      12.407  54.704  92.824  1.00  0.00     0.080 C 
HETATM    8  C30 UNL     1      11.487  53.630  92.318  1.00  0.00     0.050 C 
BRANCH   7   9
HETATM    9  S1  UNL     1      12.671  54.635  94.617  1.00  0.00    -0.125 SA
BRANCH   9  10
HETATM   10  C7  UNL     1      11.395  55.525  95.471  1.00  0.00     0.018 C 
HETATM   11  C5  UNL     1      11.134  55.322  96.766  1.00  0.00     0.128 C 
HETATM   12  N1  UNL     1      10.058  56.186  97.160  1.00  0.00    -0.304 N 
HETATM   13  C4  UNL     1       9.106  57.022  97.799  1.00  0.00     0.233 C 
HETATM   14  C33 UNL     1       9.299  56.420  95.921  1.00  0.00     0.117 C 
HETATM   15  C3  UNL     1       8.740  57.669  96.498  1.00  0.00     0.130 C 
HETATM   16  O2  UNL     1       8.763  57.117  99.008  1.00  0.00    -0.272 OA
HETATM   17  C31 UNL     1      10.474  56.567  94.956  1.00  0.00     0.048 C 
HETATM   18  C32 UNL     1      11.071  57.957  95.066  1.00  0.00     0.018 C 
BRANCH  11  19
HETATM   19  C6  UNL     1      11.805  54.393  97.662  1.00  0.00     0.228 C 
HETATM   20  O3  UNL     1      11.781  53.159  97.480  1.00  0.00    -0.643 OA
HETATM   21  O4  UNL     1      12.514  54.828  98.781  1.00  0.00    -0.643 OA
ENDBRANCH  11  19
BRANCH  15  22
HETATM   22  C2  UNL     1       7.241  57.731  96.247  1.00  0.00     0.129 C 
HETATM   23  C1  UNL     1       6.945  58.639  95.074  1.00  0.00     0.040 C 
BRANCH  22  24
HETATM   24  O1  UNL     1       6.644  58.233  97.385  1.00  0.00    -0.395 OA
ATOM     25  H1  UNL     1       5.770  58.542  97.179  1.00  0.00     0.210 HD
ENDBRANCH  22  24
ENDBRANCH  15  22
ENDBRANCH   9  10
ENDBRANCH   7   9
ENDBRANCH   1   2
BRANCH   1  26
HETATM   26  C12 UNL     1      11.430  53.841  88.763  1.00  0.00     0.219 C 
HETATM   27  O5  UNL     1      10.160  53.748  88.723  1.00  0.00    -0.274 OA
HETATM   28  N3  UNL     1      12.238  53.448  87.675  1.00  0.00    -0.356 N 
ATOM     29  H3  UNL     1      13.255  53.526  87.715  1.00  0.00     0.162 HD
BRANCH  28  30
HETATM   30  C13 UNL     1      11.580  52.937  86.514  1.00  0.00     0.087 C 
HETATM   31  C14 UNL     1      11.533  51.409  86.615  1.00  0.00     0.045 C 
HETATM   32  C15 UNL     1      11.168  50.863  85.284  1.00  0.00     0.127 C 
HETATM   33  N4  UNL     1      10.667  51.849  84.319  1.00  0.00    -0.362 N 
HETATM   34  C28 UNL     1      11.354  53.083  84.119  1.00  0.00     0.127 C 
HETATM   35  C29 UNL     1      12.371  53.253  85.276  1.00  0.00     0.045 C 
BRANCH  33  36
HETATM   36  C16 UNL     1       9.487  51.515  83.630  1.00  0.00     0.137 C 
BRANCH  36  37
HETATM   37  O6  UNL     1       8.608  50.825  84.353  1.00  0.00    -0.346 OA
ATOM     38  H6  UNL     1       8.104  50.193  83.855  1.00  0.00     0.219 HD
ENDBRANCH  36  37
BRANCH  36  39
HETATM   39  C17 UNL     1       9.133  51.814  82.298  1.00  0.00     0.052 C 
BRANCH  39  40
HETATM   40  C18 UNL     1       9.430  51.240  81.191  1.00  0.00    -0.019 C 
BRANCH  40  41
HETATM   41  C19 UNL     1      10.315  52.023  80.227  1.00  0.00     0.054 C 
BRANCH  41  42
HETATM   42  C20 UNL     1      11.576  51.225  79.988  1.00  0.00    -0.027 C 
HETATM   43  C21 UNL     1      12.532  51.318  80.855  1.00  0.00    -0.026 C 
BRANCH  43  44
HETATM   44  C22 UNL     1      13.857  50.652  80.866  1.00  0.00     0.008 C 
HETATM   45  C23 UNL     1      14.716  51.303  81.920  1.00  0.00     0.008 C 
HETATM   46  C24 UNL     1      15.558  52.424  81.461  1.00  0.00     0.001 C 
HETATM   47  C25 UNL     1      15.476  52.757  79.997  1.00  0.00     0.000 C 
HETATM   48  C26 UNL     1      15.607  51.479  79.246  1.00  0.00     0.001 C 
HETATM   49  C27 UNL     1      14.465  50.553  79.532  1.00  0.00     0.008 C 
ENDBRANCH  43  44
ENDBRANCH  41  42
ENDBRANCH  40  41
ENDBRANCH  39  40
ENDBRANCH  36  39
ENDBRANCH  33  36
ENDBRANCH  28  30
ENDBRANCH   1  26
TORSDOF 15
ENDMDL
MODEL 2
REMARK VINA RESULT: -7.852633301      1.381      2.807
REMARK  15 active torsions:
REMARK  status: ('A' for Active; 'I' for Inactive)
REMARK    1  A    between atoms: C2_2  and  O1_3 
REMARK    2  A    between atoms: C2_2  and  C3_5 
REMARK    3  A    between atoms: C5_9  and  C6_10 
REMARK    4  A    between atoms: C7_13  and  S1_14 
REMARK    5  A    between atoms: S1_14  and  C8_15 
REMARK    6  A    between atoms: C10_20  and  C11_21 
REMARK    7  A    between atoms: C11_21  and  C12_22 
REMARK       I    between atoms: C12_22  and  N3_24 
REMARK    8  A    between atoms: N3_24  and  C13_26 
REMARK    9  A    between atoms: N4_29  and  C16_30 
REMARK   10  A    between atoms: C16_30  and  O6_31 
REMARK   11  A    between atoms: C16_30  and  C17_33 
REMARK   12  A    between atoms: C17_33  and  C18_34 
REMARK   13  A    between atoms: C18_34  and  C19_35 
REMARK   14  A    between atoms: C19_35  and  C20_36 
REMARK   15  A    between atoms: C21_37  and  C22_38 
ROOT
HETATM    1  C11 UNL     1      11.326  52.960  90.289  1.00  0.00     0.135 C 
ENDROOT
BRANCH   1   2
HETATM    2  C10 UNL     1      12.274  52.339  91.295  1.00  0.00     0.195 C 
HETATM    3  N2  UNL     1      13.543  53.083  91.292  1.00  0.00    -0.069 N 
HETATM    4  C9  UNL     1      13.151  54.373  91.863  1.00  0.00     0.248 C 
ATOM      5  H22 UNL     1      14.007  53.138  90.385  1.00  0.00     0.277 HD
ATOM      6  H21 UNL     1      14.315  52.618  91.769  1.00  0.00     0.277 HD
HETATM    7  C8  UNL     1      12.027  54.092  92.840  1.00  0.00     0.080 C 
HETATM    8  C30 UNL     1      11.842  52.607  92.715  1.00  0.00     0.050 C 
BRANCH   7   9
HETATM    9  S1  UNL     1      12.663  54.602  94.460  1.00  0.00    -0.125 SA
BRANCH   9  10
HETATM   10  C7  UNL     1      11.421  55.484  95.370  1.00  0.00     0.018 C 
HETATM   11  C5  UNL     1      11.189  55.248  96.665  1.00  0.00     0.128 C 
HETATM   12  N1  UNL     1      10.134  56.115  97.109  1.00  0.00    -0.304 N 
HETATM   13  C4  UNL     1       9.210  56.945  97.794  1.00  0.00     0.233 C 
HETATM   14  C33 UNL     1       9.349  56.394  95.895  1.00  0.00     0.117 C 
HETATM   15  C3  UNL     1       8.823  57.634  96.522  1.00  0.00     0.130 C 
HETATM   16  O2  UNL     1       8.898  57.011  99.013  1.00  0.00    -0.272 OA
HETATM   17  C31 UNL     1      10.503  56.553  94.906  1.00  0.00     0.048 C 
HETATM   18  C32 UNL     1      11.123  57.931  95.042  1.00  0.00     0.018 C 
BRANCH  11  19
HETATM   19  C6  UNL     1      11.867  54.284  97.517  1.00  0.00     0.228 C 
HETATM   20  O3  UNL     1      11.871  53.062  97.267  1.00  0.00    -0.643 OA
HETATM   21  O4  UNL     1      12.552  54.671  98.668  1.00  0.00    -0.643 OA
ENDBRANCH  11  19
BRANCH  15  22
HETATM   22  C2  UNL     1       7.319  57.725  96.309  1.00  0.00     0.129 C 
HETATM   23  C1  UNL     1       7.006  58.700  95.196  1.00  0.00     0.040 C 
BRANCH  22  24
HETATM   24  O1  UNL     1       6.753  58.165  97.487  1.00  0.00    -0.395 OA
ATOM     25  H1  UNL     1       5.824  57.967  97.490  1.00  0.00     0.210 HD
ENDBRANCH  22  24
ENDBRANCH  15  22
ENDBRANCH   9  10
ENDBRANCH   7   9
ENDBRANCH   1   2
BRANCH   1  26
HETATM   26  C12 UNL     1      11.825  52.658  88.940  1.00  0.00     0.219 C 
HETATM   27  O5  UNL     1      12.288  51.492  88.722  1.00  0.00    -0.274 OA
HETATM   28  N3  UNL     1      11.788  53.644  87.930  1.00  0.00    -0.356 N 
ATOM     29  H3  UNL     1      11.415  54.575  88.113  1.00  0.00     0.162 HD
BRANCH  28  30
HETATM   30  C13 UNL     1      12.293  53.288  86.642  1.00  0.00     0.087 C 
HETATM   31  C14 UNL     1      13.413  54.265  86.272  1.00  0.00     0.045 C 
HETATM   32  C15 UNL     1      13.703  54.119  84.823  1.00  0.00     0.127 C 
HETATM   33  N4  UNL     1      13.110  52.939  84.183  1.00  0.00    -0.362 N 
HETATM   34  C28 UNL     1      11.740  52.609  84.397  1.00  0.00     0.127 C 
HETATM   35  C29 UNL     1      11.229  53.451  85.594  1.00  0.00     0.045 C 
BRANCH  33  36
HETATM   36  C16 UNL     1      13.962  52.165  83.374  1.00  0.00     0.137 C 
BRANCH  36  37
HETATM   37  O6  UNL     1      13.614  50.883  83.285  1.00  0.00    -0.346 OA
ATOM     38  H6  UNL     1      14.176  50.291  83.772  1.00  0.00     0.219 HD
ENDBRANCH  36  37
BRANCH  36  39
HETATM   39  C17 UNL     1      15.111  52.572  82.666  1.00  0.00     0.052 C 
BRANCH  39  40
HETATM   40  C18 UNL     1      15.857  51.950  81.830  1.00  0.00    -0.019 C 
BRANCH  40  41
HETATM   41  C19 UNL     1      15.589  52.201  80.350  1.00  0.00     0.054 C 
BRANCH  41  42
HETATM   42  C20 UNL     1      14.732  51.072  79.826  1.00  0.00    -0.027 C 
HETATM   43  C21 UNL     1      13.446  51.200  79.889  1.00  0.00    -0.026 C 
BRANCH  43  44
HETATM   44  C22 UNL     1      12.387  50.259  79.451  1.00  0.00     0.008 C 
HETATM   45  C23 UNL     1      11.103  51.030  79.268  1.00  0.00     0.008 C 
HETATM   46  C24 UNL     1      10.217  51.091  80.447  1.00  0.00     0.001 C 
HETATM   47  C25 UNL     1      10.691  50.356  81.670  1.00  0.00     0.000 C 
HETATM   48  C26 UNL     1      11.118  48.999  81.231  1.00  0.00     0.001 C 
HETATM   49  C27 UNL     1      12.288  49.064  80.299  1.00  0.00     0.008 C 
ENDBRANCH  43  44
ENDBRANCH  41  42
ENDBRANCH  40  41
ENDBRANCH  39  40
ENDBRANCH  36  39
ENDBRANCH  33  36
ENDBRANCH  28  30
ENDBRANCH   1  26
TORSDOF 15
ENDMDL
MODEL 3
REMARK VINA RESULT: -7.518987385      1.054      1.349
REMARK  15 active torsions:
REMARK  status: ('A' for Active; 'I' for Inactive)
REMARK    1  A    between atoms: C2_2  and  O1_3 
REMARK    2  A    between atoms: C2_2  and  C3_5 
REMARK    3  A    between atoms: C5_9  and  C6_10 
REMARK    4  A    between atoms: C7_13  and  S1_14 
REMARK    5  A    between atoms: S1_14  and  C8_15 
REMARK    6  A    between atoms: C10_20  and  C11_21 
REMARK    7  A    between atoms: C11_21  and  C12_22 
REMARK       I    between atoms: C12_22  and  N3_24 
REMARK    8  A    between atoms: N3_24  and  C13_26 
REMARK    9  A    between atoms: N4_29  and  C16_30 
REMARK   10  A    between atoms: C16_30  and  O6_31 
REMARK   11  A    between atoms: C16_30  and  C17_33 
REMARK   12  A    between atoms: C17_33  and  C18_34 
REMARK   13  A    between atoms: C18_34  and  C19_35 
REMARK   14  A    between atoms: C19_35  and  C20_36 
REMARK   15  A    between atoms: C21_37  and  C22_38 
ROOT
HETATM    1  C11 UNL     1      12.062  54.376  90.208  1.00  0.00     0.135 C 
ENDROOT
BRANCH   1   2
HETATM    2  C10 UNL     1      12.408  53.333  91.252  1.00  0.00     0.195 C 
HETATM    3  N2  UNL     1      13.790  53.542  91.709  1.00  0.00    -0.069 N 
HETATM    4  C9  UNL     1      13.692  54.809  92.436  1.00  0.00     0.248 C 
ATOM      5  H22 UNL     1      14.495  53.523  90.972  1.00  0.00     0.277 HD
ATOM      6  H21 UNL     1      14.187  52.769  92.244  1.00  0.00     0.277 HD
HETATM    7  C8  UNL     1      12.300  54.859  93.036  1.00  0.00     0.080 C 
HETATM    8  C30 UNL     1      11.686  53.577  92.554  1.00  0.00     0.050 C 
BRANCH   7   9
HETATM    9  S1  UNL     1      12.555  54.902  94.830  1.00  0.00    -0.125 SA
BRANCH   9  10
HETATM   10  C7  UNL     1      11.206  55.730  95.634  1.00  0.00     0.018 C 
HETATM   11  C5  UNL     1      10.879  55.482  96.906  1.00  0.00     0.128 C 
HETATM   12  N1  UNL     1       9.756  56.303  97.260  1.00  0.00    -0.304 N 
HETATM   13  C4  UNL     1       8.744  57.092  97.864  1.00  0.00     0.233 C 
HETATM   14  C33 UNL     1       9.061  56.549  95.985  1.00  0.00     0.117 C 
HETATM   15  C3  UNL     1       8.432  57.765  96.563  1.00  0.00     0.130 C 
HETATM   16  O2  UNL     1       8.331  57.144  99.054  1.00  0.00    -0.272 OA
HETATM   17  C31 UNL     1      10.284  56.758  95.094  1.00  0.00     0.048 C 
HETATM   18  C32 UNL     1      10.831  58.161  95.274  1.00  0.00     0.018 C 
BRANCH  11  19
HETATM   19  C6  UNL     1      11.527  54.549  97.814  1.00  0.00     0.228 C 
HETATM   20  O3  UNL     1      11.296  53.323  97.782  1.00  0.00    -0.643 OA
HETATM   21  O4  UNL     1      12.443  54.970  98.775  1.00  0.00    -0.643 OA
ENDBRANCH  11  19
BRANCH  15  22
HETATM   22  C2  UNL     1       6.949  57.790  96.228  1.00  0.00     0.129 C 
HETATM   23  C1  UNL     1       6.707  58.618  94.986  1.00  0.00     0.040 C 
BRANCH  22  24
HETATM   24  O1  UNL     1       6.286  58.353  97.298  1.00  0.00    -0.395 OA
ATOM     25  H1  UNL     1       6.452  59.288  97.322  1.00  0.00     0.210 HD
ENDBRANCH  22  24
ENDBRANCH  15  22
ENDBRANCH   9  10
ENDBRANCH   7   9
ENDBRANCH   1   2
BRANCH   1  26
HETATM   26  C12 UNL     1      11.683  53.680  88.970  1.00  0.00     0.219 C 
HETATM   27  O5  UNL     1      12.612  53.161  88.270  1.00  0.00    -0.274 OA
HETATM   28  N3  UNL     1      10.328  53.603  88.584  1.00  0.00    -0.356 N 
ATOM     29  H3  UNL     1       9.591  54.022  89.151  1.00  0.00     0.162 HD
BRANCH  28  30
HETATM   30  C13 UNL     1      10.027  52.918  87.367  1.00  0.00     0.087 C 
HETATM   31  C14 UNL     1       8.766  53.538  86.758  1.00  0.00     0.045 C 
HETATM   32  C15 UNL     1       8.262  52.629  85.698  1.00  0.00     0.127 C 
HETATM   33  N4  UNL     1       9.191  51.569  85.289  1.00  0.00    -0.362 N 
HETATM   34  C28 UNL     1       9.868  50.780  86.265  1.00  0.00     0.127 C 
HETATM   35  C29 UNL     1       9.700  51.477  87.639  1.00  0.00     0.045 C 
BRANCH  33  36
HETATM   36  C16 UNL     1       9.378  51.393  83.906  1.00  0.00     0.137 C 
BRANCH  36  37
HETATM   37  O6  UNL     1       8.883  50.254  83.428  1.00  0.00    -0.346 OA
ATOM     38  H6  UNL     1       9.541  49.631  83.144  1.00  0.00     0.219 HD
ENDBRANCH  36  37
BRANCH  36  39
HETATM   39  C17 UNL     1      10.012  52.256  82.988  1.00  0.00     0.052 C 
BRANCH  39  40
HETATM   40  C18 UNL     1       9.642  52.696  81.842  1.00  0.00    -0.019 C 
BRANCH  40  41
HETATM   41  C19 UNL     1      10.278  52.046  80.618  1.00  0.00     0.054 C 
BRANCH  41  42
HETATM   42  C20 UNL     1      11.488  51.263  81.072  1.00  0.00    -0.027 C 
HETATM   43  C21 UNL     1      12.542  51.278  80.322  1.00  0.00    -0.026 C 
BRANCH  43  44
HETATM   44  C22 UNL     1      13.849  50.607  80.528  1.00  0.00     0.008 C 
HETATM   45  C23 UNL     1      14.577  51.305  81.649  1.00  0.00     0.008 C 
HETATM   46  C24 UNL     1      15.481  52.399  81.246  1.00  0.00     0.001 C 
HETATM   47  C25 UNL     1      15.584  52.662  79.769  1.00  0.00     0.000 C 
HETATM   48  C26 UNL     1      15.794  51.349  79.101  1.00  0.00     0.001 C 
HETATM   49  C27 UNL     1      14.616  50.442  79.286  1.00  0.00     0.008 C 
ENDBRANCH  43  44
ENDBRANCH  41  42
ENDBRANCH  40  41
ENDBRANCH  39  40
ENDBRANCH  36  39
ENDBRANCH  33  36
ENDBRANCH  28  30
ENDBRANCH   1  26
TORSDOF 15
ENDMDL
MODEL 4
REMARK VINA RESULT: -7.483271756      1.423      2.571
REMARK  15 active torsions:
REMARK  status: ('A' for Active; 'I' for Inactive)
REMARK    1  A    between atoms: C2_2  and  O1_3 
REMARK    2  A    between atoms: C2_2  and  C3_5 
REMARK    3  A    between atoms: C5_9  and  C6_10 
REMARK    4  A    between atoms: C7_13  and  S1_14 
REMARK    5  A    between atoms: S1_14  and  C8_15 
REMARK    6  A    between atoms: C10_20  and  C11_21 
REMARK    7  A    between atoms: C11_21  and  C12_22 
REMARK       I    between atoms: C12_22  and  N3_24 
REMARK    8  A    between atoms: N3_24  and  C13_26 
REMARK    9  A    between atoms: N4_29  and  C16_30 
REMARK   10  A    between atoms: C16_30  and  O6_31 
REMARK   11  A    between atoms: C16_30  and  C17_33 
REMARK   12  A    between atoms: C17_33  and  C18_34 
REMARK   13  A    between atoms: C18_34  and  C19_35 
REMARK   14  A    between atoms: C19_35  and  C20_36 
REMARK   15  A    between atoms: C21_37  and  C22_38 
ROOT
HETATM    1  C11 UNL     1      11.979  54.486  90.117  1.00  0.00     0.135 C 
ENDROOT
BRANCH   1   2
HETATM    2  C10 UNL     1      12.196  53.405  91.157  1.00  0.00     0.195 C 
HETATM    3  N2  UNL     1      13.602  53.420  91.588  1.00  0.00    -0.069 N 
HETATM    4  C9  UNL     1      13.695  54.689  92.312  1.00  0.00     0.248 C 
ATOM      5  H22 UNL     1      14.283  53.303  90.838  1.00  0.00     0.277 HD
ATOM      6  H21 UNL     1      13.898  52.600  92.118  1.00  0.00     0.277 HD
HETATM    7  C8  UNL     1      12.335  54.933  92.937  1.00  0.00     0.080 C 
HETATM    8  C30 UNL     1      11.539  53.748  92.471  1.00  0.00     0.050 C 
BRANCH   7   9
HETATM    9  S1  UNL     1      12.627  54.941  94.727  1.00  0.00    -0.125 SA
BRANCH   9  10
HETATM   10  C7  UNL     1      11.293  55.749  95.574  1.00  0.00     0.018 C 
HETATM   11  C5  UNL     1      11.005  55.489  96.853  1.00  0.00     0.128 C 
HETATM   12  N1  UNL     1       9.884  56.295  97.245  1.00  0.00    -0.304 N 
HETATM   13  C4  UNL     1       8.882  57.069  97.884  1.00  0.00     0.233 C 
HETATM   14  C33 UNL     1       9.151  56.544  95.993  1.00  0.00     0.117 C 
HETATM   15  C3  UNL     1       8.527  57.749  96.597  1.00  0.00     0.130 C 
HETATM   16  O2  UNL     1       8.501  57.108  99.085  1.00  0.00    -0.272 OA
HETATM   17  C31 UNL     1      10.346  56.773  95.069  1.00  0.00     0.048 C 
HETATM   18  C32 UNL     1      10.884  58.179  95.245  1.00  0.00     0.018 C 
BRANCH  11  19
HETATM   19  C6  UNL     1      11.686  54.554  97.735  1.00  0.00     0.228 C 
HETATM   20  O3  UNL     1      12.360  54.935  98.713  1.00  0.00    -0.643 OA
HETATM   21  O4  UNL     1      11.626  53.176  97.538  1.00  0.00    -0.643 OA
ENDBRANCH  11  19
BRANCH  15  22
HETATM   22  C2  UNL     1       7.034  57.762  96.304  1.00  0.00     0.129 C 
HETATM   23  C1  UNL     1       6.743  58.647  95.112  1.00  0.00     0.040 C 
BRANCH  22  24
HETATM   24  O1  UNL     1       6.391  58.257  97.419  1.00  0.00    -0.395 OA
ATOM     25  H1  UNL     1       6.516  57.664  98.151  1.00  0.00     0.210 HD
ENDBRANCH  22  24
ENDBRANCH  15  22
ENDBRANCH   9  10
ENDBRANCH   7   9
ENDBRANCH   1   2
BRANCH   1  26
HETATM   26  C12 UNL     1      12.141  53.883  88.786  1.00  0.00     0.219 C 
HETATM   27  O5  UNL     1      13.317  53.817  88.301  1.00  0.00    -0.274 OA
HETATM   28  N3  UNL     1      11.018  53.400  88.082  1.00  0.00    -0.356 N 
ATOM     29  H3  UNL     1      10.080  53.457  88.479  1.00  0.00     0.162 HD
BRANCH  28  30
HETATM   30  C13 UNL     1      11.243  52.830  86.791  1.00  0.00     0.087 C 
HETATM   31  C14 UNL     1      10.116  53.282  85.857  1.00  0.00     0.045 C 
HETATM   32  C15 UNL     1      10.153  52.437  84.636  1.00  0.00     0.127 C 
HETATM   33  N4  UNL     1      11.365  51.625  84.474  1.00  0.00    -0.362 N 
HETATM   34  C28 UNL     1      11.875  50.856  85.561  1.00  0.00     0.127 C 
HETATM   35  C29 UNL     1      11.164  51.331  86.854  1.00  0.00     0.045 C 
BRANCH  33  36
HETATM   36  C16 UNL     1      11.986  51.663  83.212  1.00  0.00     0.137 C 
BRANCH  36  37
HETATM   37  O6  UNL     1      11.216  52.144  82.239  1.00  0.00    -0.346 OA
ATOM     38  H6  UNL     1      10.308  51.869  82.287  1.00  0.00     0.219 HD
ENDBRANCH  36  37
BRANCH  36  39
HETATM   39  C17 UNL     1      13.291  51.261  82.863  1.00  0.00     0.052 C 
BRANCH  39  40
HETATM   40  C18 UNL     1      14.305  51.931  82.453  1.00  0.00    -0.019 C 
BRANCH  40  41
HETATM   41  C19 UNL     1      14.684  51.776  80.985  1.00  0.00     0.054 C 
BRANCH  41  42
HETATM   42  C20 UNL     1      13.990  50.548  80.444  1.00  0.00    -0.027 C 
HETATM   43  C21 UNL     1      12.953  50.716  79.687  1.00  0.00    -0.026 C 
BRANCH  43  44
HETATM   44  C22 UNL     1      12.096  49.699  79.030  1.00  0.00     0.008 C 
HETATM   45  C23 UNL     1      10.676  49.890  79.498  1.00  0.00     0.008 C 
HETATM   46  C24 UNL     1      10.277  49.103  80.681  1.00  0.00     0.001 C 
HETATM   47  C25 UNL     1      11.327  48.190  81.253  1.00  0.00     0.000 C 
HETATM   48  C26 UNL     1      11.915  47.429  80.117  1.00  0.00     0.001 C 
HETATM   49  C27 UNL     1      12.622  48.333  79.155  1.00  0.00     0.008 C 
ENDBRANCH  43  44
ENDBRANCH  41  42
ENDBRANCH  40  41
ENDBRANCH  39  40
ENDBRANCH  36  39
ENDBRANCH  33  36
ENDBRANCH  28  30
ENDBRANCH   1  26
TORSDOF 15
ENDMDL
MODEL 5
REMARK VINA RESULT: -7.280623761      2.734      4.320
REMARK  15 active torsions:
REMARK  status: ('A' for Active; 'I' for Inactive)
REMARK    1  A    between atoms: C2_2  and  O1_3 
REMARK    2  A    between atoms: C2_2  and  C3_5 
REMARK    3  A    between atoms: C5_9  and  C6_10 
REMARK    4  A    between atoms: C7_13  and  S1_14 
REMARK    5  A    between atoms: S1_14  and  C8_15 
REMARK    6  A    between atoms: C10_20  and  C11_21 
REMARK    7  A    between atoms: C11_21  and  C12_22 
REMARK       I    between atoms: C12_22  and  N3_24 
REMARK    8  A    between atoms: N3_24  and  C13_26 
REMARK    9  A    between atoms: N4_29  and  C16_30 
REMARK   10  A    between atoms: C16_30  and  O6_31 
REMARK   11  A    between atoms: C16_30  and  C17_33 
REMARK   12  A    between atoms: C17_33  and  C18_34 
REMARK   13  A    between atoms: C18_34  and  C19_35 
REMARK   14  A    between atoms: C19_35  and  C20_36 
REMARK   15  A    between atoms: C21_37  and  C22_38 
ROOT
HETATM    1  C11 UNL     1      11.802  53.877  90.168  1.00  0.00     0.135 C 
ENDROOT
BRANCH   1   2
HETATM    2  C10 UNL     1      11.923  52.900  91.320  1.00  0.00     0.195 C 
HETATM    3  N2  UNL     1      13.336  52.776  91.707  1.00  0.00    -0.069 N 
HETATM    4  C9  UNL     1      13.623  54.094  92.276  1.00  0.00     0.248 C 
ATOM      5  H22 UNL     1      13.963  52.486  90.957  1.00  0.00     0.277 HD
ATOM      6  H21 UNL     1      13.546  51.988  92.320  1.00  0.00     0.277 HD
HETATM    7  C8  UNL     1      12.334  54.584  92.906  1.00  0.00     0.080 C 
HETATM    8  C30 UNL     1      11.372  53.472  92.603  1.00  0.00     0.050 C 
BRANCH   7   9
HETATM    9  S1  UNL     1      12.701  54.753  94.674  1.00  0.00    -0.125 SA
BRANCH   9  10
HETATM   10  C7  UNL     1      11.390  55.613  95.506  1.00  0.00     0.018 C 
HETATM   11  C5  UNL     1      11.099  55.389  96.791  1.00  0.00     0.128 C 
HETATM   12  N1  UNL     1       9.999  56.232  97.167  1.00  0.00    -0.304 N 
HETATM   13  C4  UNL     1       9.019  57.046  97.790  1.00  0.00     0.233 C 
HETATM   14  C33 UNL     1       9.269  56.470  95.910  1.00  0.00     0.117 C 
HETATM   15  C3  UNL     1       8.677  57.704  96.488  1.00  0.00     0.130 C 
HETATM   16  O2  UNL     1       8.643  57.121  98.990  1.00  0.00    -0.272 OA
HETATM   17  C31 UNL     1      10.467  56.647  94.978  1.00  0.00     0.048 C 
HETATM   18  C32 UNL     1      11.040  58.044  95.121  1.00  0.00     0.018 C 
BRANCH  11  19
HETATM   19  C6  UNL     1      11.760  54.459  97.693  1.00  0.00     0.228 C 
HETATM   20  O3  UNL     1      11.711  53.224  97.526  1.00  0.00    -0.643 OA
HETATM   21  O4  UNL     1      12.487  54.895  98.799  1.00  0.00    -0.643 OA
ENDBRANCH  11  19
BRANCH  15  22
HETATM   22  C2  UNL     1       7.184  57.747  96.198  1.00  0.00     0.129 C 
HETATM   23  C1  UNL     1       6.901  58.694  95.053  1.00  0.00     0.040 C 
BRANCH  22  24
HETATM   24  O1  UNL     1       6.547  58.193  97.338  1.00  0.00    -0.395 OA
ATOM     25  H1  UNL     1       5.715  57.745  97.435  1.00  0.00     0.210 HD
ENDBRANCH  22  24
ENDBRANCH  15  22
ENDBRANCH   9  10
ENDBRANCH   7   9
ENDBRANCH   1   2
BRANCH   1  26
HETATM   26  C12 UNL     1      11.940  53.127  88.912  1.00  0.00     0.219 C 
HETATM   27  O5  UNL     1      12.266  51.898  88.984  1.00  0.00    -0.274 OA
HETATM   28  N3  UNL     1      11.718  53.766  87.673  1.00  0.00    -0.356 N 
ATOM     29  H3  UNL     1      11.456  54.751  87.625  1.00  0.00     0.162 HD
BRANCH  28  30
HETATM   30  C13 UNL     1      11.873  52.982  86.489  1.00  0.00     0.087 C 
HETATM   31  C14 UNL     1      13.014  53.577  85.658  1.00  0.00     0.045 C 
HETATM   32  C15 UNL     1      12.957  52.990  84.295  1.00  0.00     0.127 C 
HETATM   33  N4  UNL     1      12.075  51.825  84.153  1.00  0.00    -0.362 N 
HETATM   34  C28 UNL     1      10.752  51.847  84.683  1.00  0.00     0.127 C 
HETATM   35  C29 UNL     1      10.640  53.066  85.634  1.00  0.00     0.045 C 
BRANCH  33  36
HETATM   36  C16 UNL     1      12.610  50.706  83.488  1.00  0.00     0.137 C 
BRANCH  36  37
HETATM   37  O6  UNL     1      13.598  50.993  82.644  1.00  0.00    -0.346 OA
ATOM     38  H6  UNL     1      14.461  50.743  82.953  1.00  0.00     0.219 HD
ENDBRANCH  36  37
BRANCH  36  39
HETATM   39  C17 UNL     1      12.234  49.352  83.605  1.00  0.00     0.052 C 
BRANCH  39  40
HETATM   40  C18 UNL     1      12.517  48.466  84.487  1.00  0.00    -0.019 C 
BRANCH  40  41
HETATM   41  C19 UNL     1      12.116  48.773  85.925  1.00  0.00     0.054 C 
BRANCH  41  42
HETATM   42  C20 UNL     1      12.892  47.854  86.841  1.00  0.00    -0.027 C 
HETATM   43  C21 UNL     1      14.180  47.813  86.717  1.00  0.00    -0.026 C 
BRANCH  43  44
HETATM   44  C22 UNL     1      15.169  47.012  87.477  1.00  0.00     0.008 C 
HETATM   45  C23 UNL     1      14.443  46.241  88.550  1.00  0.00     0.008 C 
HETATM   46  C24 UNL     1      14.341  46.906  89.863  1.00  0.00     0.001 C 
HETATM   47  C25 UNL     1      14.998  48.255  89.974  1.00  0.00     0.000 C 
HETATM   48  C26 UNL     1      16.365  48.128  89.399  1.00  0.00     0.001 C 
HETATM   49  C27 UNL     1      16.320  47.800  87.939  1.00  0.00     0.008 C 
ENDBRANCH  43  44
ENDBRANCH  41  42
ENDBRANCH  40  41
ENDBRANCH  39  40
ENDBRANCH  36  39
ENDBRANCH  33  36
ENDBRANCH  28  30
ENDBRANCH   1  26
TORSDOF 15
ENDMDL
