MODEL 1
REMARK VINA RESULT: -7.500302001      0.000      0.000
REMARK  13 active torsions:
REMARK  status: ('A' for Active; 'I' for Inactive)
REMARK    1  A    between atoms: C3_3  and  O1_4 
REMARK    2  A    between atoms: O1_4  and  C4_5 
REMARK    3  A    between atoms: C8_10  and  O3_11 
REMARK    4  A    between atoms: O3_11  and  C9_12 
REMARK    5  A    between atoms: C9_12  and  C10_13 
REMARK    6  A    between atoms: C10_13  and  N1_14 
REMARK    7  A    between atoms: C14_18  and  C15_19 
REMARK    8  A    between atoms: C15_19  and  C16_20 
REMARK    9  A    between atoms: C21_27  and  O4_28 
REMARK   10  A    between atoms: C24_32  and  N3_33 
REMARK       I    between atoms: N3_33  and  C25_35 
REMARK   11  A    between atoms: C25_35  and  C26_37 
REMARK   12  A    between atoms: C30_41  and  C31_42 
REMARK   13  A    between atoms: C31_42  and  O6_43 
ROOT
HETATM    1  C1  UNL     1       7.464  58.693  88.672  1.00  0.00     0.014 C 
HETATM    2  C2  UNL     1       7.397  57.495  88.843  1.00  0.00    -0.091 C 
HETATM    3  C3  UNL     1       7.291  56.032  89.077  1.00  0.00     0.260 C 
ENDROOT
BRANCH   3   4
HETATM    4  O1  UNL     1       8.482  55.378  88.840  1.00  0.00    -0.374 OA
BRANCH   4   5
HETATM    5  C4  UNL     1       8.262  54.054  88.576  1.00  0.00     0.133 C 
HETATM    6  C5  UNL     1       6.820  53.849  88.033  1.00  0.00     0.058 C 
HETATM    7  C6  UNL     1       6.827  52.891  86.881  1.00  0.00     0.171 C 
HETATM    8  O2  UNL     1       7.574  51.761  87.058  1.00  0.00    -0.383 OA
HETATM    9  C7  UNL     1       8.859  51.977  87.509  1.00  0.00     0.159 C 
HETATM   10  C8  UNL     1       9.924  51.451  86.603  1.00  0.00     0.157 C 
HETATM   11  C35 UNL     1       9.112  53.473  87.505  1.00  0.00     0.069 C 
HETATM   12  C14 UNL     1      11.023  52.540  86.608  1.00  0.00     0.045 C 
HETATM   13  C24 UNL     1      10.582  53.511  87.670  1.00  0.00     0.100 C 
BRANCH  10  14
HETATM   14  O3  UNL     1      10.453  50.249  87.057  1.00  0.00    -0.381 OA
BRANCH  14  15
HETATM   15  C9  UNL     1      11.786  50.075  86.813  1.00  0.00     0.196 C 
BRANCH  15  16
HETATM   16  C10 UNL     1      12.432  48.959  87.582  1.00  0.00     0.262 C 
BRANCH  16  17
HETATM   17  N1  UNL     1      12.994  47.982  86.658  1.00  0.00    -0.077 N 
HETATM   18  C11 UNL     1      12.320  46.712  86.723  1.00  0.00     0.271 C 
HETATM   19  C12 UNL     1      14.375  47.754  87.116  1.00  0.00     0.271 C 
HETATM   20  C13 UNL     1      13.049  48.504  85.309  1.00  0.00     0.271 C 
ENDBRANCH  16  17
ENDBRANCH  15  16
ENDBRANCH  14  15
ENDBRANCH  10  14
BRANCH  12  21
HETATM   21  C15 UNL     1      11.156  53.002  85.221  1.00  0.00     0.050 C 
BRANCH  21  22
HETATM   22  C16 UNL     1      12.472  53.108  84.621  1.00  0.00    -0.030 A 
HETATM   23  C17 UNL     1      13.436  54.029  85.018  1.00  0.00     0.096 A 
HETATM   24  N2  UNL     1      14.527  53.916  84.238  1.00  0.00    -0.365 N 
HETATM   25  C18 UNL     1      14.277  52.938  83.346  1.00  0.00     0.043 A 
ATOM     26  H2  UNL     1      15.382  54.468  84.309  1.00  0.00     0.165 HD
HETATM   27  C19 UNL     1      15.076  52.430  82.347  1.00  0.00     0.033 A 
HETATM   28  C23 UNL     1      13.007  52.423  83.569  1.00  0.00     0.001 A 
HETATM   29  C20 UNL     1      14.620  51.389  81.546  1.00  0.00     0.039 A 
HETATM   30  C21 UNL     1      13.363  50.849  81.737  1.00  0.00     0.066 A 
HETATM   31  C22 UNL     1      12.595  51.381  82.740  1.00  0.00     0.050 A 
BRANCH  30  32
HETATM   32  O4  UNL     1      12.882  49.805  80.947  1.00  0.00    -0.361 OA
ATOM     33  H4  UNL     1      11.998  49.805  80.599  1.00  0.00     0.217 HD
ENDBRANCH  30  32
ENDBRANCH  21  22
ENDBRANCH  12  21
BRANCH  13  34
HETATM   34  N3  UNL     1      11.068  53.080  88.979  1.00  0.00    -0.353 N 
HETATM   35  C25 UNL     1      11.732  54.023  89.791  1.00  0.00     0.253 C 
HETATM   36  O5  UNL     1      11.872  55.204  89.333  1.00  0.00    -0.270 OA
ATOM     37  H3  UNL     1      10.932  52.121  89.298  1.00  0.00     0.163 HD
BRANCH  35  38
HETATM   38  C26 UNL     1      12.269  53.756  91.103  1.00  0.00     0.148 C 
HETATM   39  C27 UNL     1      11.208  53.860  92.216  1.00  0.00     0.056 C 
HETATM   40  C28 UNL     1      12.219  53.478  93.316  1.00  0.00     0.023 C 
HETATM   41  C29 UNL     1      13.255  54.536  93.113  1.00  0.00     0.018 C 
HETATM   42  C32 UNL     1      12.729  52.206  92.671  1.00  0.00     0.059 C 
HETATM   43  C30 UNL     1      13.218  54.839  91.617  1.00  0.00     0.054 C 
HETATM   44  C33 UNL     1      13.968  51.678  93.295  1.00  0.00     0.046 C 
HETATM   45  C34 UNL     1      11.640  51.173  92.736  1.00  0.00     0.046 C 
HETATM   46  O7  UNL     1      12.888  52.558  91.317  1.00  0.00    -0.359 OA
BRANCH  43  47
HETATM   47  C31 UNL     1      14.573  54.727  90.973  1.00  0.00     0.172 C 
BRANCH  47  48
HETATM   48  O6  UNL     1      14.779  55.832  90.173  1.00  0.00    -0.400 OA
ATOM     49  H6  UNL     1      15.381  55.599  89.477  1.00  0.00     0.209 HD
ENDBRANCH  47  48
ENDBRANCH  43  47
ENDBRANCH  35  38
ENDBRANCH  13  34
ENDBRANCH   4   5
ENDBRANCH   3   4
TORSDOF 13
ENDMDL
MODEL 2
REMARK VINA RESULT: -7.257050913      1.287      1.698
REMARK  13 active torsions:
REMARK  status: ('A' for Active; 'I' for Inactive)
REMARK    1  A    between atoms: C3_3  and  O1_4 
REMARK    2  A    between atoms: O1_4  and  C4_5 
REMARK    3  A    between atoms: C8_10  and  O3_11 
REMARK    4  A    between atoms: O3_11  and  C9_12 
REMARK    5  A    between atoms: C9_12  and  C10_13 
REMARK    6  A    between atoms: C10_13  and  N1_14 
REMARK    7  A    between atoms: C14_18  and  C15_19 
REMARK    8  A    between atoms: C15_19  and  C16_20 
REMARK    9  A    between atoms: C21_27  and  O4_28 
REMARK   10  A    between atoms: C24_32  and  N3_33 
REMARK       I    between atoms: N3_33  and  C25_35 
REMARK   11  A    between atoms: C25_35  and  C26_37 
REMARK   12  A    between atoms: C30_41  and  C31_42 
REMARK   13  A    between atoms: C31_42  and  O6_43 
ROOT
HETATM    1  C1  UNL     1       7.582  53.458  91.791  1.00  0.00     0.014 C 
HETATM    2  C2  UNL     1       7.435  53.806  90.639  1.00  0.00    -0.091 C 
HETATM    3  C3  UNL     1       7.225  54.222  89.229  1.00  0.00     0.260 C 
ENDROOT
BRANCH   3   4
HETATM    4  O1  UNL     1       8.373  54.110  88.474  1.00  0.00    -0.374 OA
BRANCH   4   5
HETATM    5  C4  UNL     1       8.589  52.809  88.112  1.00  0.00     0.133 C 
HETATM    6  C5  UNL     1       7.308  52.215  87.460  1.00  0.00     0.058 C 
HETATM    7  C6  UNL     1       7.666  51.402  86.255  1.00  0.00     0.171 C 
HETATM    8  O2  UNL     1       8.719  50.546  86.411  1.00  0.00    -0.383 OA
HETATM    9  C7  UNL     1       9.850  51.109  86.961  1.00  0.00     0.159 C 
HETATM   10  C8  UNL     1      11.066  51.011  86.098  1.00  0.00     0.157 C 
HETATM   11  C35 UNL     1       9.625  52.606  87.068  1.00  0.00     0.069 C 
HETATM   12  C14 UNL     1      11.770  52.380  86.246  1.00  0.00     0.045 C 
HETATM   13  C24 UNL     1      11.001  53.080  87.334  1.00  0.00     0.100 C 
BRANCH  10  14
HETATM   14  O3  UNL     1      11.922  49.997  86.510  1.00  0.00    -0.381 OA
BRANCH  14  15
HETATM   15  C9  UNL     1      11.545  49.350  87.653  1.00  0.00     0.196 C 
BRANCH  15  16
HETATM   16  C10 UNL     1      12.026  47.933  87.769  1.00  0.00     0.262 C 
BRANCH  16  17
HETATM   17  N1  UNL     1      13.103  47.854  88.748  1.00  0.00    -0.077 N 
HETATM   18  C11 UNL     1      13.145  49.002  89.615  1.00  0.00     0.271 C 
HETATM   19  C12 UNL     1      14.350  47.868  87.963  1.00  0.00     0.271 C 
HETATM   20  C13 UNL     1      13.053  46.611  89.487  1.00  0.00     0.271 C 
ENDBRANCH  16  17
ENDBRANCH  15  16
ENDBRANCH  14  15
ENDBRANCH  10  14
BRANCH  12  21
HETATM   21  C15 UNL     1      11.816  52.972  84.903  1.00  0.00     0.050 C 
BRANCH  21  22
HETATM   22  C16 UNL     1      13.067  53.003  84.172  1.00  0.00    -0.030 A 
HETATM   23  C17 UNL     1      14.117  53.868  84.464  1.00  0.00     0.096 A 
HETATM   24  N2  UNL     1      15.115  53.693  83.578  1.00  0.00    -0.365 N 
HETATM   25  C18 UNL     1      14.721  52.729  82.722  1.00  0.00     0.043 A 
ATOM     26  H2  UNL     1      16.002  54.195  83.558  1.00  0.00     0.165 HD
HETATM   27  C19 UNL     1      15.385  52.177  81.650  1.00  0.00     0.033 A 
HETATM   28  C23 UNL     1      13.453  52.287  83.076  1.00  0.00     0.001 A 
HETATM   29  C20 UNL     1      14.791  51.163  80.906  1.00  0.00     0.039 A 
HETATM   30  C21 UNL     1      13.531  50.695  81.227  1.00  0.00     0.066 A 
HETATM   31  C22 UNL     1      12.901  51.270  82.299  1.00  0.00     0.050 A 
BRANCH  30  32
HETATM   32  O4  UNL     1      12.915  49.680  80.496  1.00  0.00    -0.361 OA
ATOM     33  H4  UNL     1      12.222  49.861  79.871  1.00  0.00     0.217 HD
ENDBRANCH  30  32
ENDBRANCH  21  22
ENDBRANCH  12  21
BRANCH  13  34
HETATM   34  N3  UNL     1      11.538  52.715  88.644  1.00  0.00    -0.353 N 
HETATM   35  C25 UNL     1      11.791  53.744  89.574  1.00  0.00     0.253 C 
HETATM   36  O5  UNL     1      11.538  54.940  89.217  1.00  0.00    -0.270 OA
ATOM     37  H3  UNL     1      11.724  51.741  88.879  1.00  0.00     0.163 HD
BRANCH  35  38
HETATM   38  C26 UNL     1      12.318  53.549  90.903  1.00  0.00     0.148 C 
HETATM   39  C27 UNL     1      11.223  53.559  91.989  1.00  0.00     0.056 C 
HETATM   40  C28 UNL     1      12.239  53.295  93.118  1.00  0.00     0.023 C 
HETATM   41  C29 UNL     1      13.169  54.450  92.925  1.00  0.00     0.018 C 
HETATM   42  C32 UNL     1      12.891  52.073  92.505  1.00  0.00     0.059 C 
HETATM   43  C30 UNL     1      13.140  54.729  91.424  1.00  0.00     0.054 C 
HETATM   44  C33 UNL     1      14.161  51.681  93.167  1.00  0.00     0.046 C 
HETATM   45  C34 UNL     1      11.911  50.937  92.559  1.00  0.00     0.046 C 
HETATM   46  O7  UNL     1      13.050  52.423  91.150  1.00  0.00    -0.359 OA
BRANCH  43  47
HETATM   47  C31 UNL     1      14.515  54.747  90.815  1.00  0.00     0.172 C 
BRANCH  47  48
HETATM   48  O6  UNL     1      14.614  55.832  89.969  1.00  0.00    -0.400 OA
ATOM     49  H6  UNL     1      13.774  55.972  89.548  1.00  0.00     0.209 HD
ENDBRANCH  47  48
ENDBRANCH  43  47
ENDBRANCH  35  38
ENDBRANCH  13  34
ENDBRANCH   4   5
ENDBRANCH   3   4
TORSDOF 13
ENDMDL
MODEL 3
REMARK VINA RESULT: -6.792387414      0.922      1.610
REMARK  13 active torsions:
REMARK  status: ('A' for Active; 'I' for Inactive)
REMARK    1  A    between atoms: C3_3  and  O1_4 
REMARK    2  A    between atoms: O1_4  and  C4_5 
REMARK    3  A    between atoms: C8_10  and  O3_11 
REMARK    4  A    between atoms: O3_11  and  C9_12 
REMARK    5  A    between atoms: C9_12  and  C10_13 
REMARK    6  A    between atoms: C10_13  and  N1_14 
REMARK    7  A    between atoms: C14_18  and  C15_19 
REMARK    8  A    between atoms: C15_19  and  C16_20 
REMARK    9  A    between atoms: C21_27  and  O4_28 
REMARK   10  A    between atoms: C24_32  and  N3_33 
REMARK       I    between atoms: N3_33  and  C25_35 
REMARK   11  A    between atoms: C25_35  and  C26_37 
REMARK   12  A    between atoms: C30_41  and  C31_42 
REMARK   13  A    between atoms: C31_42  and  O6_43 
ROOT
HETATM    1  C1  UNL     1       6.761  58.264  89.038  1.00  0.00     0.014 C 
HETATM    2  C2  UNL     1       6.770  57.057  88.915  1.00  0.00    -0.091 C 
HETATM    3  C3  UNL     1       6.751  55.579  88.776  1.00  0.00     0.260 C 
ENDROOT
BRANCH   3   4
HETATM    4  O1  UNL     1       7.998  55.020  88.964  1.00  0.00    -0.374 OA
BRANCH   4   5
HETATM    5  C4  UNL     1       7.977  53.684  88.671  1.00  0.00     0.133 C 
HETATM    6  C5  UNL     1       6.607  53.292  88.050  1.00  0.00     0.058 C 
HETATM    7  C6  UNL     1       6.806  52.368  86.888  1.00  0.00     0.171 C 
HETATM    8  O2  UNL     1       7.693  51.349  87.090  1.00  0.00    -0.383 OA
HETATM    9  C7  UNL     1       8.910  51.731  87.611  1.00  0.00     0.159 C 
HETATM   10  C8  UNL     1      10.083  51.375  86.756  1.00  0.00     0.157 C 
HETATM   11  C35 UNL     1       8.953  53.248  87.640  1.00  0.00     0.069 C 
HETATM   12  C14 UNL     1      11.018  52.605  86.833  1.00  0.00     0.045 C 
HETATM   13  C24 UNL     1      10.393  53.485  87.882  1.00  0.00     0.100 C 
BRANCH  10  14
HETATM   14  O3  UNL     1      10.750  50.249  87.221  1.00  0.00    -0.381 OA
BRANCH  14  15
HETATM   15  C9  UNL     1      10.945  49.266  86.292  1.00  0.00     0.196 C 
BRANCH  15  16
HETATM   16  C10 UNL     1      12.380  48.996  85.945  1.00  0.00     0.262 C 
BRANCH  16  17
HETATM   17  N1  UNL     1      12.801  47.730  86.533  1.00  0.00    -0.077 N 
HETATM   18  C11 UNL     1      11.687  46.905  86.920  1.00  0.00     0.271 C 
HETATM   19  C12 UNL     1      13.516  48.088  87.770  1.00  0.00     0.271 C 
HETATM   20  C13 UNL     1      13.726  47.030  85.667  1.00  0.00     0.271 C 
ENDBRANCH  16  17
ENDBRANCH  15  16
ENDBRANCH  14  15
ENDBRANCH  10  14
BRANCH  12  21
HETATM   21  C15 UNL     1      11.156  53.109  85.461  1.00  0.00     0.050 C 
BRANCH  21  22
HETATM   22  C16 UNL     1      12.476  53.264  84.880  1.00  0.00    -0.030 A 
HETATM   23  C17 UNL     1      13.409  54.202  85.309  1.00  0.00     0.096 A 
HETATM   24  N2  UNL     1      14.512  54.135  84.541  1.00  0.00    -0.365 N 
HETATM   25  C18 UNL     1      14.301  53.170  83.626  1.00  0.00     0.043 A 
ATOM     26  H2  UNL     1      15.351  54.708  84.635  1.00  0.00     0.165 HD
HETATM   27  C19 UNL     1      15.126  52.705  82.626  1.00  0.00     0.033 A 
HETATM   28  C23 UNL     1      13.042  52.616  83.821  1.00  0.00     0.001 A 
HETATM   29  C20 UNL     1      14.708  51.670  81.797  1.00  0.00     0.039 A 
HETATM   30  C21 UNL     1      13.463  51.092  81.961  1.00  0.00     0.066 A 
HETATM   31  C22 UNL     1      12.670  51.581  82.965  1.00  0.00     0.050 A 
BRANCH  30  32
HETATM   32  O4  UNL     1      13.021  50.053  81.143  1.00  0.00    -0.361 OA
ATOM     33  H4  UNL     1      13.088  49.143  81.408  1.00  0.00     0.217 HD
ENDBRANCH  30  32
ENDBRANCH  21  22
ENDBRANCH  12  21
BRANCH  13  34
HETATM   34  N3  UNL     1      10.868  53.099  89.210  1.00  0.00    -0.353 N 
HETATM   35  C25 UNL     1      11.568  54.054  89.975  1.00  0.00     0.253 C 
HETATM   36  O5  UNL     1      11.750  55.206  89.461  1.00  0.00    -0.270 OA
ATOM     37  H3  UNL     1      10.697  52.162  89.574  1.00  0.00     0.163 HD
BRANCH  35  38
HETATM   38  C26 UNL     1      12.099  53.831  91.297  1.00  0.00     0.148 C 
HETATM   39  C27 UNL     1      13.056  54.949  91.755  1.00  0.00     0.056 C 
HETATM   40  C28 UNL     1      13.286  54.290  93.130  1.00  0.00     0.023 C 
HETATM   41  C29 UNL     1      13.787  52.946  92.708  1.00  0.00     0.018 C 
HETATM   42  C32 UNL     1      11.828  54.137  93.513  1.00  0.00     0.059 C 
HETATM   43  C30 UNL     1      13.084  52.664  91.382  1.00  0.00     0.054 C 
HETATM   44  C33 UNL     1      11.609  53.244  94.678  1.00  0.00     0.046 C 
HETATM   45  C34 UNL     1      11.269  55.502  93.798  1.00  0.00     0.046 C 
HETATM   46  O7  UNL     1      11.218  53.676  92.330  1.00  0.00    -0.359 OA
BRANCH  43  47
HETATM   47  C31 UNL     1      12.366  51.343  91.380  1.00  0.00     0.172 C 
BRANCH  47  48
HETATM   48  O6  UNL     1      12.658  50.678  90.208  1.00  0.00    -0.400 OA
ATOM     49  H6  UNL     1      13.399  51.100  89.791  1.00  0.00     0.209 HD
ENDBRANCH  47  48
ENDBRANCH  43  47
ENDBRANCH  35  38
ENDBRANCH  13  34
ENDBRANCH   4   5
ENDBRANCH   3   4
TORSDOF 13
ENDMDL
MODEL 4
REMARK VINA RESULT: -6.623492676      1.570      1.956
REMARK  13 active torsions:
REMARK  status: ('A' for Active; 'I' for Inactive)
REMARK    1  A    between atoms: C3_3  and  O1_4 
REMARK    2  A    between atoms: O1_4  and  C4_5 
REMARK    3  A    between atoms: C8_10  and  O3_11 
REMARK    4  A    between atoms: O3_11  and  C9_12 
REMARK    5  A    between atoms: C9_12  and  C10_13 
REMARK    6  A    between atoms: C10_13  and  N1_14 
REMARK    7  A    between atoms: C14_18  and  C15_19 
REMARK    8  A    between atoms: C15_19  and  C16_20 
REMARK    9  A    between atoms: C21_27  and  O4_28 
REMARK   10  A    between atoms: C24_32  and  N3_33 
REMARK       I    between atoms: N3_33  and  C25_35 
REMARK   11  A    between atoms: C25_35  and  C26_37 
REMARK   12  A    between atoms: C30_41  and  C31_42 
REMARK   13  A    between atoms: C31_42  and  O6_43 
ROOT
HETATM    1  C1  UNL     1       5.591  55.759  89.805  1.00  0.00     0.014 C 
HETATM    2  C2  UNL     1       6.240  55.115  89.008  1.00  0.00    -0.091 C 
HETATM    3  C3  UNL     1       7.008  54.315  88.020  1.00  0.00     0.260 C 
ENDROOT
BRANCH   3   4
HETATM    4  O1  UNL     1       8.237  53.924  88.506  1.00  0.00    -0.374 OA
BRANCH   4   5
HETATM    5  C4  UNL     1       8.546  52.661  88.081  1.00  0.00     0.133 C 
HETATM    6  C5  UNL     1       7.326  52.028  87.354  1.00  0.00     0.058 C 
HETATM    7  C6  UNL     1       7.772  51.309  86.118  1.00  0.00     0.171 C 
HETATM    8  O2  UNL     1       8.871  50.511  86.263  1.00  0.00    -0.383 OA
HETATM    9  C7  UNL     1       9.948  51.111  86.882  1.00  0.00     0.159 C 
HETATM   10  C8  UNL     1      11.193  51.136  86.057  1.00  0.00     0.157 C 
HETATM   11  C35 UNL     1       9.625  52.583  87.063  1.00  0.00     0.069 C 
HETATM   12  C14 UNL     1      11.804  52.536  86.304  1.00  0.00     0.045 C 
HETATM   13  C24 UNL     1      10.959  53.124  87.402  1.00  0.00     0.100 C 
BRANCH  10  14
HETATM   14  O3  UNL     1      12.098  50.155  86.442  1.00  0.00    -0.381 OA
BRANCH  14  15
HETATM   15  C9  UNL     1      11.701  49.384  87.498  1.00  0.00     0.196 C 
BRANCH  15  16
HETATM   16  C10 UNL     1      12.623  49.405  88.682  1.00  0.00     0.262 C 
BRANCH  16  17
HETATM   17  N1  UNL     1      13.174  48.074  88.905  1.00  0.00    -0.077 N 
HETATM   18  C11 UNL     1      12.200  47.034  88.705  1.00  0.00     0.271 C 
HETATM   19  C12 UNL     1      13.550  48.036  90.329  1.00  0.00     0.271 C 
HETATM   20  C13 UNL     1      14.371  47.863  88.120  1.00  0.00     0.271 C 
ENDBRANCH  16  17
ENDBRANCH  15  16
ENDBRANCH  14  15
ENDBRANCH  10  14
BRANCH  12  21
HETATM   21  C15 UNL     1      11.853  53.205  84.998  1.00  0.00     0.050 C 
BRANCH  21  22
HETATM   22  C16 UNL     1      11.856  52.413  83.783  1.00  0.00    -0.030 A 
HETATM   23  C17 UNL     1      10.729  51.788  83.261  1.00  0.00     0.096 A 
HETATM   24  N2  UNL     1      11.063  51.087  82.161  1.00  0.00    -0.365 N 
HETATM   25  C18 UNL     1      12.386  51.254  81.970  1.00  0.00     0.043 A 
ATOM     26  H2  UNL     1      10.432  50.534  81.581  1.00  0.00     0.165 HD
HETATM   27  C19 UNL     1      13.204  50.761  80.979  1.00  0.00     0.033 A 
HETATM   28  C23 UNL     1      12.896  52.077  82.967  1.00  0.00     0.001 A 
HETATM   29  C20 UNL     1      14.557  51.083  80.962  1.00  0.00     0.039 A 
HETATM   30  C21 UNL     1      15.101  51.898  81.935  1.00  0.00     0.066 A 
HETATM   31  C22 UNL     1      14.257  52.369  82.906  1.00  0.00     0.050 A 
BRANCH  30  32
HETATM   32  O4  UNL     1      16.455  52.236  81.940  1.00  0.00    -0.361 OA
ATOM     33  H4  UNL     1      16.872  52.647  81.192  1.00  0.00     0.217 HD
ENDBRANCH  30  32
ENDBRANCH  21  22
ENDBRANCH  12  21
BRANCH  13  34
HETATM   34  N3  UNL     1      11.477  52.719  88.708  1.00  0.00    -0.353 N 
HETATM   35  C25 UNL     1      11.745  53.721  89.662  1.00  0.00     0.253 C 
HETATM   36  O5  UNL     1      11.520  54.930  89.330  1.00  0.00    -0.270 OA
ATOM     37  H3  UNL     1      11.641  51.736  88.923  1.00  0.00     0.163 HD
BRANCH  35  38
HETATM   38  C26 UNL     1      12.257  53.486  90.991  1.00  0.00     0.148 C 
HETATM   39  C27 UNL     1      11.147  53.427  92.058  1.00  0.00     0.056 C 
HETATM   40  C28 UNL     1      12.152  53.142  93.193  1.00  0.00     0.023 C 
HETATM   41  C29 UNL     1      13.056  54.325  93.059  1.00  0.00     0.018 C 
HETATM   42  C32 UNL     1      12.842  51.961  92.542  1.00  0.00     0.059 C 
HETATM   43  C30 UNL     1      13.043  54.663  91.570  1.00  0.00     0.054 C 
HETATM   44  C33 UNL     1      14.111  51.572  93.207  1.00  0.00     0.046 C 
HETATM   45  C34 UNL     1      11.888  50.801  92.536  1.00  0.00     0.046 C 
HETATM   46  O7  UNL     1      13.011  52.368  91.204  1.00  0.00    -0.359 OA
BRANCH  43  47
HETATM   47  C31 UNL     1      14.426  54.737  90.984  1.00  0.00     0.172 C 
BRANCH  47  48
HETATM   48  O6  UNL     1      14.491  55.818  90.129  1.00  0.00    -0.400 OA
ATOM     49  H6  UNL     1      15.400  56.067  90.018  1.00  0.00     0.209 HD
ENDBRANCH  47  48
ENDBRANCH  43  47
ENDBRANCH  35  38
ENDBRANCH  13  34
ENDBRANCH   4   5
ENDBRANCH   3   4
TORSDOF 13
ENDMDL
MODEL 5
REMARK VINA RESULT: -6.579846861      2.006      2.753
REMARK  13 active torsions:
REMARK  status: ('A' for Active; 'I' for Inactive)
REMARK    1  A    between atoms: C3_3  and  O1_4 
REMARK    2  A    between atoms: O1_4  and  C4_5 
REMARK    3  A    between atoms: C8_10  and  O3_11 
REMARK    4  A    between atoms: O3_11  and  C9_12 
REMARK    5  A    between atoms: C9_12  and  C10_13 
REMARK    6  A    between atoms: C10_13  and  N1_14 
REMARK    7  A    between atoms: C14_18  and  C15_19 
REMARK    8  A    between atoms: C15_19  and  C16_20 
REMARK    9  A    between atoms: C21_27  and  O4_28 
REMARK   10  A    between atoms: C24_32  and  N3_33 
REMARK       I    between atoms: N3_33  and  C25_35 
REMARK   11  A    between atoms: C25_35  and  C26_37 
REMARK   12  A    between atoms: C30_41  and  C31_42 
REMARK   13  A    between atoms: C31_42  and  O6_43 
ROOT
HETATM    1  C1  UNL     1       7.204  52.020  90.424  1.00  0.00     0.014 C 
HETATM    2  C2  UNL     1       7.087  52.125  89.221  1.00  0.00    -0.091 C 
HETATM    3  C3  UNL     1       6.916  52.235  87.750  1.00  0.00     0.260 C 
ENDROOT
BRANCH   3   4
HETATM    4  O1  UNL     1       8.124  52.310  87.089  1.00  0.00    -0.374 OA
BRANCH   4   5
HETATM    5  C4  UNL     1       8.685  51.069  86.964  1.00  0.00     0.133 C 
HETATM    6  C5  UNL     1       7.649  50.070  86.376  1.00  0.00     0.058 C 
HETATM    7  C6  UNL     1       8.294  49.199  85.342  1.00  0.00     0.171 C 
HETATM    8  O2  UNL     1       9.511  48.680  85.682  1.00  0.00    -0.383 OA
HETATM    9  C7  UNL     1      10.418  49.596  86.169  1.00  0.00     0.159 C 
HETATM   10  C8  UNL     1      11.686  49.682  85.382  1.00  0.00     0.157 C 
HETATM   11  C35 UNL     1       9.819  50.981  86.009  1.00  0.00     0.069 C 
HETATM   12  C14 UNL     1      12.012  51.193  85.320  1.00  0.00     0.045 C 
HETATM   13  C24 UNL     1      11.008  51.830  86.242  1.00  0.00     0.100 C 
BRANCH  10  14
HETATM   14  O3  UNL     1      12.731  49.001  85.994  1.00  0.00    -0.381 OA
BRANCH  14  15
HETATM   15  C9  UNL     1      12.454  48.516  87.241  1.00  0.00     0.196 C 
BRANCH  15  16
HETATM   16  C10 UNL     1      13.115  47.210  87.575  1.00  0.00     0.262 C 
BRANCH  16  17
HETATM   17  N1  UNL     1      14.104  47.410  88.627  1.00  0.00    -0.077 N 
HETATM   18  C11 UNL     1      13.780  48.520  89.485  1.00  0.00     0.271 C 
HETATM   19  C12 UNL     1      15.354  47.762  87.932  1.00  0.00     0.271 C 
HETATM   20  C13 UNL     1      14.334  46.191  89.373  1.00  0.00     0.271 C 
ENDBRANCH  16  17
ENDBRANCH  15  16
ENDBRANCH  14  15
ENDBRANCH  10  14
BRANCH  12  21
HETATM   21  C15 UNL     1      12.016  51.559  83.898  1.00  0.00     0.050 C 
BRANCH  21  22
HETATM   22  C16 UNL     1      13.239  52.035  83.281  1.00  0.00    -0.030 A 
HETATM   23  C17 UNL     1      14.074  52.993  83.846  1.00  0.00     0.096 A 
HETATM   24  N2  UNL     1      15.094  53.262  83.012  1.00  0.00    -0.365 N 
HETATM   25  C18 UNL     1      14.927  52.491  81.919  1.00  0.00     0.043 A 
ATOM     26  H2  UNL     1      15.853  53.924  83.176  1.00  0.00     0.165 HD
HETATM   27  C19 UNL     1      15.705  52.382  80.789  1.00  0.00     0.033 A 
HETATM   28  C23 UNL     1      13.781  51.721  82.069  1.00  0.00     0.001 A 
HETATM   29  C20 UNL     1      15.353  51.493  79.779  1.00  0.00     0.039 A 
HETATM   30  C21 UNL     1      14.221  50.709  79.890  1.00  0.00     0.066 A 
HETATM   31  C22 UNL     1      13.471  50.846  81.029  1.00  0.00     0.050 A 
BRANCH  30  32
HETATM   32  O4  UNL     1      13.846  49.811  78.892  1.00  0.00    -0.361 OA
ATOM     33  H4  UNL     1      13.386  50.093  78.110  1.00  0.00     0.217 HD
ENDBRANCH  30  32
ENDBRANCH  21  22
ENDBRANCH  12  21
BRANCH  13  34
HETATM   34  N3  UNL     1      11.512  51.826  87.614  1.00  0.00    -0.353 N 
HETATM   35  C25 UNL     1      11.301  52.972  88.409  1.00  0.00     0.253 C 
HETATM   36  O5  UNL     1      10.682  53.952  87.882  1.00  0.00    -0.270 OA
ATOM     37  H3  UNL     1      12.003  51.015  87.988  1.00  0.00     0.163 HD
BRANCH  35  38
HETATM   38  C26 UNL     1      11.735  53.124  89.776  1.00  0.00     0.148 C 
HETATM   39  C27 UNL     1      10.583  52.970  90.790  1.00  0.00     0.056 C 
HETATM   40  C28 UNL     1      11.522  53.169  91.997  1.00  0.00     0.023 C 
HETATM   41  C29 UNL     1      12.111  54.504  91.668  1.00  0.00     0.018 C 
HETATM   42  C32 UNL     1      12.541  52.113  91.621  1.00  0.00     0.059 C 
HETATM   43  C30 UNL     1      12.147  54.551  90.142  1.00  0.00     0.054 C 
HETATM   44  C33 UNL     1      13.802  52.198  92.400  1.00  0.00     0.046 C 
HETATM   45  C34 UNL     1      11.911  50.762  91.807  1.00  0.00     0.046 C 
HETATM   46  O7  UNL     1      12.722  52.301  90.237  1.00  0.00    -0.359 OA
BRANCH  43  47
HETATM   47  C31 UNL     1      13.514  54.877  89.607  1.00  0.00     0.172 C 
BRANCH  47  48
HETATM   48  O6  UNL     1      13.379  55.474  88.371  1.00  0.00    -0.400 OA
ATOM     49  H6  UNL     1      12.835  54.923  87.821  1.00  0.00     0.209 HD
ENDBRANCH  47  48
ENDBRANCH  43  47
ENDBRANCH  35  38
ENDBRANCH  13  34
ENDBRANCH   4   5
ENDBRANCH   3   4
TORSDOF 13
ENDMDL
