MODEL 1
REMARK VINA RESULT: -7.031448578      0.000      0.000
REMARK  11 active torsions:
REMARK  status: ('A' for Active; 'I' for Inactive)
REMARK    1  A    between atoms: C2_2  and  N1_3 
REMARK    2  A    between atoms: N1_3  and  C3_4 
REMARK    3  A    between atoms: N1_3  and  C30_42 
REMARK    4  A    between atoms: C3_4  and  C4_5 
REMARK       I    between atoms: C4_5  and  N2_7 
REMARK    5  A    between atoms: N2_7  and  C5_9 
REMARK    6  A    between atoms: C9_13  and  C10_14 
REMARK    7  A    between atoms: C12_16  and  O2_17 
REMARK    8  A    between atoms: C13_19  and  O3_20 
REMARK    9  A    between atoms: C14_22  and  N3_23 
REMARK   10  A    between atoms: C23_33  and  O5_34 
REMARK   11  A    between atoms: C30_42  and  C31_43 
ROOT
HETATM    1  C5  UNL     1      10.175  52.038  83.102  1.00  0.00     0.084 C 
HETATM    2  C6  UNL     1      10.642  53.205  83.936  1.00  0.00     0.025 C 
HETATM    3  C7  UNL     1      11.751  52.878  84.878  1.00  0.00     0.007 C 
HETATM    4  C8  UNL     1      11.454  51.698  85.758  1.00  0.00    -0.005 C 
HETATM    5  C9  UNL     1      10.273  51.940  86.659  1.00  0.00    -0.005 C 
HETATM    6  C20 UNL     1       9.777  50.714  87.315  1.00  0.00     0.011 C 
HETATM    7  C21 UNL     1      10.517  49.459  87.026  1.00  0.00    -0.003 C 
HETATM    8  C22 UNL     1       9.593  48.299  87.430  1.00  0.00     0.037 C 
HETATM    9  C23 UNL     1      10.162  46.980  86.951  1.00  0.00     0.118 C 
HETATM   10  C24 UNL     1      10.005  46.949  85.457  1.00  0.00     0.032 C 
HETATM   11  C25 UNL     1      10.051  48.332  84.839  1.00  0.00     0.012 C 
HETATM   12  C26 UNL     1      10.959  49.257  85.616  1.00  0.00    -0.036 C 
HETATM   13  C27 UNL     1      12.334  48.586  85.626  1.00  0.00     0.016 C 
HETATM   14  C28 UNL     1      11.113  50.550  84.846  1.00  0.00     0.000 C 
HETATM   15  C29 UNL     1       9.909  50.862  83.992  1.00  0.00     0.031 C 
ENDROOT
BRANCH   5  16
HETATM   16  C10 UNL     1      10.583  53.069  87.662  1.00  0.00    -0.006 C 
HETATM   17  C11 UNL     1       9.377  53.843  87.988  1.00  0.00     0.039 C 
HETATM   18  C12 UNL     1       9.094  54.140  89.401  1.00  0.00     0.149 C 
HETATM   19  C13 UNL     1       9.975  53.580  90.431  1.00  0.00     0.180 C 
HETATM   20  C14 UNL     1      11.356  53.189  90.067  1.00  0.00     0.254 C 
HETATM   21  C19 UNL     1      11.327  52.441  88.774  1.00  0.00     0.043 C 
BRANCH  18  22
HETATM   22  O2  UNL     1       7.760  53.778  89.728  1.00  0.00    -0.393 OA
ATOM     23  H2  UNL     1       7.696  52.842  89.877  1.00  0.00     0.210 HD
ENDBRANCH  18  22
BRANCH  19  24
HETATM   24  O3  UNL     1       9.343  52.437  90.985  1.00  0.00    -0.391 OA
ATOM     25  H3  UNL     1       9.774  52.224  91.804  1.00  0.00     0.210 HD
ENDBRANCH  19  24
BRANCH  20  26
HETATM   26  N3  UNL     1      12.373  54.176  90.166  1.00  0.00     0.099 N 
HETATM   27  C15 UNL     1      13.242  54.180  91.268  1.00  0.00     0.299 C 
HETATM   28  C16 UNL     1      14.436  55.080  90.893  1.00  0.00     0.198 C 
HETATM   29  O4  UNL     1      14.043  56.154  90.129  1.00  0.00    -0.388 OA
HETATM   30  C17 UNL     1      13.686  55.745  88.852  1.00  0.00     0.198 C 
HETATM   31  C18 UNL     1      13.137  54.342  88.945  1.00  0.00     0.299 C 
ENDBRANCH  20  26
ENDBRANCH   5  16
BRANCH   1  32
HETATM   32  N2  UNL     1      11.103  51.718  82.045  1.00  0.00    -0.355 N 
HETATM   33  C4  UNL     1      10.721  51.710  80.669  1.00  0.00     0.246 C 
HETATM   34  O1  UNL     1       9.527  51.994  80.397  1.00  0.00    -0.272 OA
ATOM     35  H2  UNL     1      12.066  51.490  82.290  1.00  0.00     0.162 HD
BRANCH  33  36
HETATM   36  C3  UNL     1      11.701  51.381  79.652  1.00  0.00     0.375 C 
BRANCH  36  37
HETATM   37  N1  UNL     1      12.732  50.461  79.997  1.00  0.00     0.102 N 
BRANCH  37  38
HETATM   38  C2  UNL     1      12.534  49.161  79.355  1.00  0.00     0.269 C 
HETATM   39  C1  UNL     1      11.811  48.274  80.338  1.00  0.00     0.037 C 
ENDBRANCH  37  38
BRANCH  37  40
HETATM   40  C30 UNL     1      14.077  50.941  79.712  1.00  0.00     0.337 C 
BRANCH  40  41
HETATM   41  C31 UNL     1      14.581  51.610  80.938  1.00  0.00     0.080 A 
HETATM   42  C32 UNL     1      15.925  51.957  81.108  1.00  0.00     0.036 A 
HETATM   43  C33 UNL     1      16.076  52.557  82.337  1.00  0.00     0.027 A 
HETATM   44  C34 UNL     1      14.786  52.549  82.877  1.00  0.00     0.142 A 
HETATM   45  O6  UNL     1      13.964  51.987  82.019  1.00  0.00    -0.325 OA
ENDBRANCH  40  41
ENDBRANCH  37  40
ENDBRANCH  36  37
ENDBRANCH  33  36
ENDBRANCH   1  32
BRANCH   9  46
HETATM   46  O5  UNL     1       9.374  45.976  87.556  1.00  0.00    -0.396 OA
ATOM     47  H5  UNL     1       9.495  45.197  87.027  1.00  0.00     0.210 HD
ENDBRANCH   9  46
TORSDOF 11
ENDMDL
MODEL 2
REMARK VINA RESULT: -6.944053026      2.905      9.425
REMARK  11 active torsions:
REMARK  status: ('A' for Active; 'I' for Inactive)
REMARK    1  A    between atoms: C2_2  and  N1_3 
REMARK    2  A    between atoms: N1_3  and  C3_4 
REMARK    3  A    between atoms: N1_3  and  C30_42 
REMARK    4  A    between atoms: C3_4  and  C4_5 
REMARK       I    between atoms: C4_5  and  N2_7 
REMARK    5  A    between atoms: N2_7  and  C5_9 
REMARK    6  A    between atoms: C9_13  and  C10_14 
REMARK    7  A    between atoms: C12_16  and  O2_17 
REMARK    8  A    between atoms: C13_19  and  O3_20 
REMARK    9  A    between atoms: C14_22  and  N3_23 
REMARK   10  A    between atoms: C23_33  and  O5_34 
REMARK   11  A    between atoms: C30_42  and  C31_43 
ROOT
HETATM    1  C5  UNL     1      10.424  53.579  85.162  1.00  0.00     0.084 C 
HETATM    2  C6  UNL     1       9.056  53.115  84.726  1.00  0.00     0.025 C 
HETATM    3  C7  UNL     1       9.009  51.696  84.268  1.00  0.00     0.007 C 
HETATM    4  C8  UNL     1      10.025  51.382  83.208  1.00  0.00    -0.005 C 
HETATM    5  C9  UNL     1       9.803  52.177  81.950  1.00  0.00    -0.005 C 
HETATM    6  C20 UNL     1      10.940  52.112  81.009  1.00  0.00     0.011 C 
HETATM    7  C21 UNL     1      12.092  51.267  81.415  1.00  0.00    -0.003 C 
HETATM    8  C22 UNL     1      13.282  51.697  80.543  1.00  0.00     0.037 C 
HETATM    9  C23 UNL     1      14.561  51.061  81.046  1.00  0.00     0.118 C 
HETATM   10  C24 UNL     1      14.911  51.739  82.341  1.00  0.00     0.032 C 
HETATM   11  C25 UNL     1      13.687  52.232  83.087  1.00  0.00     0.012 C 
HETATM   12  C26 UNL     1      12.494  51.335  82.850  1.00  0.00    -0.036 C 
HETATM   13  C27 UNL     1      12.921  49.937  83.304  1.00  0.00     0.016 C 
HETATM   14  C28 UNL     1      11.370  51.765  83.766  1.00  0.00     0.000 C 
HETATM   15  C29 UNL     1      11.430  53.233  84.106  1.00  0.00     0.031 C 
ENDROOT
BRANCH   5  16
HETATM   16  C10 UNL     1       8.465  51.785  81.294  1.00  0.00    -0.006 C 
HETATM   17  C11 UNL     1       7.464  52.853  81.435  1.00  0.00     0.039 C 
HETATM   18  C12 UNL     1       6.686  53.247  80.251  1.00  0.00     0.149 C 
HETATM   19  C13 UNL     1       6.997  52.623  78.961  1.00  0.00     0.180 C 
HETATM   20  C14 UNL     1       7.676  51.307  78.939  1.00  0.00     0.254 C 
HETATM   21  C19 UNL     1       8.793  51.317  79.931  1.00  0.00     0.043 C 
BRANCH  18  22
HETATM   22  O2  UNL     1       6.730  54.655  80.073  1.00  0.00    -0.393 OA
ATOM     23  H2  UNL     1       6.529  54.883  79.173  1.00  0.00     0.210 HD
ENDBRANCH  18  22
BRANCH  19  24
HETATM   24  O3  UNL     1       7.796  53.524  78.211  1.00  0.00    -0.391 OA
ATOM     25  H3  UNL     1       7.375  53.670  77.372  1.00  0.00     0.210 HD
ENDBRANCH  19  24
BRANCH  20  26
HETATM   26  N3  UNL     1       6.865  50.141  78.961  1.00  0.00     0.099 N 
HETATM   27  C15 UNL     1       5.639  50.126  78.279  1.00  0.00     0.299 C 
HETATM   28  C16 UNL     1       5.211  48.649  78.160  1.00  0.00     0.198 C 
HETATM   29  O4  UNL     1       5.560  47.928  79.278  1.00  0.00    -0.388 OA
HETATM   30  C17 UNL     1       6.933  47.738  79.333  1.00  0.00     0.198 C 
HETATM   31  C18 UNL     1       7.597  48.923  78.672  1.00  0.00     0.299 C 
ENDBRANCH  20  26
ENDBRANCH   5  16
BRANCH   1  32
HETATM   32  N2  UNL     1      10.793  53.052  86.453  1.00  0.00    -0.355 N 
HETATM   33  C4  UNL     1      10.003  53.273  87.622  1.00  0.00     0.246 C 
HETATM   34  O1  UNL     1       8.955  53.955  87.495  1.00  0.00    -0.272 OA
ATOM     35  H2  UNL     1      11.647  52.501  86.533  1.00  0.00     0.162 HD
BRANCH  33  36
HETATM   36  C3  UNL     1      10.426  52.715  88.892  1.00  0.00     0.375 C 
BRANCH  36  37
HETATM   37  N1  UNL     1      10.633  53.616  89.977  1.00  0.00     0.102 N 
BRANCH  37  38
HETATM   38  C2  UNL     1       9.524  53.580  90.930  1.00  0.00     0.269 C 
HETATM   39  C1  UNL     1      10.076  53.955  92.283  1.00  0.00     0.037 C 
ENDBRANCH  37  38
BRANCH  37  40
HETATM   40  C30 UNL     1      11.888  53.410  90.688  1.00  0.00     0.337 C 
BRANCH  40  41
HETATM   41  C31 UNL     1      12.915  54.261  90.034  1.00  0.00     0.080 A 
HETATM   42  C32 UNL     1      14.061  54.704  90.702  1.00  0.00     0.036 A 
HETATM   43  C33 UNL     1      14.811  55.466  89.837  1.00  0.00     0.027 A 
HETATM   44  C34 UNL     1      14.072  55.456  88.650  1.00  0.00     0.142 A 
HETATM   45  O6  UNL     1      12.984  54.740  88.828  1.00  0.00    -0.325 OA
ENDBRANCH  40  41
ENDBRANCH  37  40
ENDBRANCH  36  37
ENDBRANCH  33  36
ENDBRANCH   1  32
BRANCH   9  46
HETATM   46  O5  UNL     1      15.539  51.330  80.063  1.00  0.00    -0.396 OA
ATOM     47  H5  UNL     1      15.706  50.502  79.629  1.00  0.00     0.210 HD
ENDBRANCH   9  46
TORSDOF 11
ENDMDL
MODEL 3
REMARK VINA RESULT: -6.704765168      3.138      9.770
REMARK  11 active torsions:
REMARK  status: ('A' for Active; 'I' for Inactive)
REMARK    1  A    between atoms: C2_2  and  N1_3 
REMARK    2  A    between atoms: N1_3  and  C3_4 
REMARK    3  A    between atoms: N1_3  and  C30_42 
REMARK    4  A    between atoms: C3_4  and  C4_5 
REMARK       I    between atoms: C4_5  and  N2_7 
REMARK    5  A    between atoms: N2_7  and  C5_9 
REMARK    6  A    between atoms: C9_13  and  C10_14 
REMARK    7  A    between atoms: C12_16  and  O2_17 
REMARK    8  A    between atoms: C13_19  and  O3_20 
REMARK    9  A    between atoms: C14_22  and  N3_23 
REMARK   10  A    between atoms: C23_33  and  O5_34 
REMARK   11  A    between atoms: C30_42  and  C31_43 
ROOT
HETATM    1  C5  UNL     1       9.799  53.256  84.266  1.00  0.00     0.084 C 
HETATM    2  C6  UNL     1       8.528  52.858  83.557  1.00  0.00     0.025 C 
HETATM    3  C7  UNL     1       8.542  51.469  83.013  1.00  0.00     0.007 C 
HETATM    4  C8  UNL     1       9.732  51.184  82.142  1.00  0.00    -0.005 C 
HETATM    5  C9  UNL     1       9.764  52.055  80.916  1.00  0.00    -0.005 C 
HETATM    6  C20 UNL     1      11.055  52.010  80.200  1.00  0.00     0.011 C 
HETATM    7  C21 UNL     1      12.096  51.110  80.760  1.00  0.00    -0.003 C 
HETATM    8  C22 UNL     1      13.436  51.553  80.152  1.00  0.00     0.037 C 
HETATM    9  C23 UNL     1      14.586  50.853  80.844  1.00  0.00     0.118 C 
HETATM   10  C24 UNL     1      14.700  51.446  82.221  1.00  0.00     0.032 C 
HETATM   11  C25 UNL     1      13.367  51.932  82.756  1.00  0.00     0.012 C 
HETATM   12  C26 UNL     1      12.223  51.085  82.247  1.00  0.00    -0.036 C 
HETATM   13  C27 UNL     1      12.532  49.652  82.686  1.00  0.00     0.016 C 
HETATM   14  C28 UNL     1      10.956  51.496  82.963  1.00  0.00     0.000 C 
HETATM   15  C29 UNL     1      10.978  52.941  83.396  1.00  0.00     0.031 C 
ENDROOT
BRANCH   5  16
HETATM   16  C10 UNL     1       8.565  51.740  80.000  1.00  0.00    -0.006 C 
HETATM   17  C11 UNL     1       7.486  52.723  80.171  1.00  0.00     0.039 C 
HETATM   18  C12 UNL     1       6.864  53.300  78.970  1.00  0.00     0.149 C 
HETATM   19  C13 UNL     1       7.402  52.940  77.653  1.00  0.00     0.180 C 
HETATM   20  C14 UNL     1       8.163  51.679  77.503  1.00  0.00     0.254 C 
HETATM   21  C19 UNL     1       9.120  51.548  78.643  1.00  0.00     0.043 C 
BRANCH  18  22
HETATM   22  O2  UNL     1       6.839  54.718  79.054  1.00  0.00    -0.393 OA
ATOM     23  H2  UNL     1       6.073  55.063  78.610  1.00  0.00     0.210 HD
ENDBRANCH  18  22
BRANCH  19  24
HETATM   24  O3  UNL     1       8.239  53.996  77.210  1.00  0.00    -0.391 OA
ATOM     25  H3  UNL     1       8.390  53.886  76.278  1.00  0.00     0.210 HD
ENDBRANCH  19  24
BRANCH  20  26
HETATM   26  N3  UNL     1       7.437  50.498  77.191  1.00  0.00     0.099 N 
HETATM   27  C15 UNL     1       6.443  50.526  76.202  1.00  0.00     0.299 C 
HETATM   28  C16 UNL     1       6.140  49.061  75.830  1.00  0.00     0.198 C 
HETATM   29  O4  UNL     1       6.211  48.233  76.926  1.00  0.00    -0.388 OA
HETATM   30  C17 UNL     1       7.527  48.072  77.335  1.00  0.00     0.198 C 
HETATM   31  C18 UNL     1       8.281  49.335  76.998  1.00  0.00     0.299 C 
ENDBRANCH  20  26
ENDBRANCH   5  16
BRANCH   1  32
HETATM   32  N2  UNL     1       9.910  52.646  85.568  1.00  0.00    -0.355 N 
HETATM   33  C4  UNL     1      11.063  52.815  86.395  1.00  0.00     0.246 C 
HETATM   34  O1  UNL     1      11.999  53.524  85.947  1.00  0.00    -0.272 OA
ATOM     35  H2  UNL     1       9.138  52.075  85.911  1.00  0.00     0.162 HD
BRANCH  33  36
HETATM   36  C3  UNL     1      11.115  52.178  87.696  1.00  0.00     0.375 C 
BRANCH  36  37
HETATM   37  N1  UNL     1      10.863  52.987  88.842  1.00  0.00     0.102 N 
BRANCH  37  38
HETATM   38  C2  UNL     1       9.463  52.912  89.261  1.00  0.00     0.269 C 
HETATM   39  C1  UNL     1       8.858  54.281  89.071  1.00  0.00     0.037 C 
ENDBRANCH  37  38
BRANCH  37  40
HETATM   40  C30 UNL     1      11.724  52.691  89.979  1.00  0.00     0.337 C 
BRANCH  40  41
HETATM   41  C31 UNL     1      12.718  53.790  90.084  1.00  0.00     0.080 A 
HETATM   42  C32 UNL     1      12.584  54.994  89.387  1.00  0.00     0.036 A 
HETATM   43  C33 UNL     1      13.656  55.803  89.690  1.00  0.00     0.027 A 
HETATM   44  C34 UNL     1      14.415  55.037  90.580  1.00  0.00     0.142 A 
HETATM   45  O6  UNL     1      13.819  53.881  90.769  1.00  0.00    -0.325 OA
ENDBRANCH  40  41
ENDBRANCH  37  40
ENDBRANCH  36  37
ENDBRANCH  33  36
ENDBRANCH   1  32
BRANCH   9  46
HETATM   46  O5  UNL     1      15.736  51.148  80.079  1.00  0.00    -0.396 OA
ATOM     47  H5  UNL     1      16.378  50.487  80.309  1.00  0.00     0.210 HD
ENDBRANCH   9  46
TORSDOF 11
ENDMDL
MODEL 4
REMARK VINA RESULT: -6.647911539      5.774      9.900
REMARK  11 active torsions:
REMARK  status: ('A' for Active; 'I' for Inactive)
REMARK    1  A    between atoms: C2_2  and  N1_3 
REMARK    2  A    between atoms: N1_3  and  C3_4 
REMARK    3  A    between atoms: N1_3  and  C30_42 
REMARK    4  A    between atoms: C3_4  and  C4_5 
REMARK       I    between atoms: C4_5  and  N2_7 
REMARK    5  A    between atoms: N2_7  and  C5_9 
REMARK    6  A    between atoms: C9_13  and  C10_14 
REMARK    7  A    between atoms: C12_16  and  O2_17 
REMARK    8  A    between atoms: C13_19  and  O3_20 
REMARK    9  A    between atoms: C14_22  and  N3_23 
REMARK   10  A    between atoms: C23_33  and  O5_34 
REMARK   11  A    between atoms: C30_42  and  C31_43 
ROOT
HETATM    1  C5  UNL     1      13.229  53.745  91.933  1.00  0.00     0.084 C 
HETATM    2  C6  UNL     1      13.691  52.378  92.372  1.00  0.00     0.025 C 
HETATM    3  C7  UNL     1      12.683  51.618  93.167  1.00  0.00     0.007 C 
HETATM    4  C8  UNL     1      12.152  52.387  94.342  1.00  0.00    -0.005 C 
HETATM    5  C9  UNL     1      13.228  52.718  95.341  1.00  0.00    -0.005 C 
HETATM    6  C20 UNL     1      12.805  53.714  96.347  1.00  0.00     0.011 C 
HETATM    7  C21 UNL     1      11.406  54.205  96.250  1.00  0.00    -0.003 C 
HETATM    8  C22 UNL     1      11.337  55.503  97.069  1.00  0.00     0.037 C 
HETATM    9  C23 UNL     1      10.016  56.205  96.835  1.00  0.00     0.118 C 
HETATM   10  C24 UNL     1      10.054  56.762  95.440  1.00  0.00     0.032 C 
HETATM   11  C25 UNL     1      10.919  55.936  94.508  1.00  0.00     0.012 C 
HETATM   12  C26 UNL     1      10.888  54.471  94.877  1.00  0.00    -0.036 C 
HETATM   13  C27 UNL     1       9.417  54.053  94.820  1.00  0.00     0.016 C 
HETATM   14  C28 UNL     1      11.606  53.683  93.804  1.00  0.00     0.000 C 
HETATM   15  C29 UNL     1      12.677  54.489  93.112  1.00  0.00     0.031 C 
ENDROOT
BRANCH   5  16
HETATM   16  C10 UNL     1      13.788  51.431  95.976  1.00  0.00    -0.006 C 
HETATM   17  C11 UNL     1      15.244  51.338  95.807  1.00  0.00     0.039 C 
HETATM   18  C12 UNL     1      16.065  50.978  96.973  1.00  0.00     0.149 C 
HETATM   19  C13 UNL     1      15.411  50.813  98.275  1.00  0.00     0.180 C 
HETATM   20  C14 UNL     1      13.964  50.501  98.322  1.00  0.00     0.254 C 
HETATM   21  C19 UNL     1      13.243  51.377  97.350  1.00  0.00     0.043 C 
BRANCH  18  22
HETATM   22  O2  UNL     1      17.129  51.906  97.138  1.00  0.00    -0.393 OA
ATOM     23  H2  UNL     1      17.367  51.979  98.055  1.00  0.00     0.210 HD
ENDBRANCH  18  22
BRANCH  19  24
HETATM   24  O3  UNL     1      15.614  51.996  99.030  1.00  0.00    -0.391 OA
ATOM     25  H3  UNL     1      16.403  51.888  99.548  1.00  0.00     0.210 HD
ENDBRANCH  19  24
BRANCH  20  26
HETATM   26  N3  UNL     1      13.578  49.133  98.296  1.00  0.00     0.099 N 
HETATM   27  C15 UNL     1      14.414  48.158  98.861  1.00  0.00     0.299 C 
HETATM   28  C16 UNL     1      13.562  46.883  99.031  1.00  0.00     0.198 C 
HETATM   29  O4  UNL     1      12.669  46.728  97.997  1.00  0.00    -0.388 OA
HETATM   30  C17 UNL     1      11.651  47.666  98.081  1.00  0.00     0.198 C 
HETATM   31  C18 UNL     1      12.212  48.911  98.726  1.00  0.00     0.299 C 
ENDBRANCH  20  26
ENDBRANCH   5  16
BRANCH   1  32
HETATM   32  N2  UNL     1      12.283  53.678  90.846  1.00  0.00    -0.355 N 
HETATM   33  C4  UNL     1      12.648  53.978  89.498  1.00  0.00     0.246 C 
HETATM   34  O1  UNL     1      13.840  54.311  89.278  1.00  0.00    -0.272 OA
ATOM     35  H2  UNL     1      11.321  53.406  91.046  1.00  0.00     0.162 HD
BRANCH  33  36
HETATM   36  C3  UNL     1      11.652  53.890  88.447  1.00  0.00     0.375 C 
BRANCH  36  37
HETATM   37  N1  UNL     1      11.828  52.889  87.448  1.00  0.00     0.102 N 
BRANCH  37  38
HETATM   38  C2  UNL     1      11.369  51.579  87.909  1.00  0.00     0.269 C 
HETATM   39  C1  UNL     1       9.882  51.675  88.145  1.00  0.00     0.037 C 
ENDBRANCH  37  38
BRANCH  37  40
HETATM   40  C30 UNL     1      11.193  53.202  86.175  1.00  0.00     0.337 C 
BRANCH  40  41
HETATM   41  C31 UNL     1      12.223  53.054  85.115  1.00  0.00     0.080 A 
HETATM   42  C32 UNL     1      13.328  53.905  85.015  1.00  0.00     0.036 A 
HETATM   43  C33 UNL     1      14.093  53.514  83.939  1.00  0.00     0.027 A 
HETATM   44  C34 UNL     1      13.403  52.415  83.417  1.00  0.00     0.142 A 
HETATM   45  O6  UNL     1      12.328  52.198  84.142  1.00  0.00    -0.325 OA
ENDBRANCH  40  41
ENDBRANCH  37  40
ENDBRANCH  36  37
ENDBRANCH  33  36
ENDBRANCH   1  32
BRANCH   9  46
HETATM   46  O5  UNL     1       9.958  57.248  97.786  1.00  0.00    -0.396 OA
ATOM     47  H5  UNL     1       9.346  57.885  97.437  1.00  0.00     0.210 HD
ENDBRANCH   9  46
TORSDOF 11
ENDMDL
MODEL 5
REMARK VINA RESULT: -6.640906498      5.413      9.442
REMARK  11 active torsions:
REMARK  status: ('A' for Active; 'I' for Inactive)
REMARK    1  A    between atoms: C2_2  and  N1_3 
REMARK    2  A    between atoms: N1_3  and  C3_4 
REMARK    3  A    between atoms: N1_3  and  C30_42 
REMARK    4  A    between atoms: C3_4  and  C4_5 
REMARK       I    between atoms: C4_5  and  N2_7 
REMARK    5  A    between atoms: N2_7  and  C5_9 
REMARK    6  A    between atoms: C9_13  and  C10_14 
REMARK    7  A    between atoms: C12_16  and  O2_17 
REMARK    8  A    between atoms: C13_19  and  O3_20 
REMARK    9  A    between atoms: C14_22  and  N3_23 
REMARK   10  A    between atoms: C23_33  and  O5_34 
REMARK   11  A    between atoms: C30_42  and  C31_43 
ROOT
HETATM    1  C5  UNL     1      13.206  53.735  91.889  1.00  0.00     0.084 C 
HETATM    2  C6  UNL     1      13.707  52.384  92.336  1.00  0.00     0.025 C 
HETATM    3  C7  UNL     1      12.727  51.607  93.149  1.00  0.00     0.007 C 
HETATM    4  C8  UNL     1      12.190  52.375  94.323  1.00  0.00    -0.005 C 
HETATM    5  C9  UNL     1      13.267  52.743  95.307  1.00  0.00    -0.005 C 
HETATM    6  C20 UNL     1      12.830  53.738  96.308  1.00  0.00     0.011 C 
HETATM    7  C21 UNL     1      11.419  54.193  96.221  1.00  0.00    -0.003 C 
HETATM    8  C22 UNL     1      11.326  55.497  97.028  1.00  0.00     0.037 C 
HETATM    9  C23 UNL     1       9.986  56.163  96.802  1.00  0.00     0.118 C 
HETATM   10  C24 UNL     1       9.995  56.708  95.400  1.00  0.00     0.032 C 
HETATM   11  C25 UNL     1      10.870  55.894  94.467  1.00  0.00     0.012 C 
HETATM   12  C26 UNL     1      10.880  54.432  94.851  1.00  0.00    -0.036 C 
HETATM   13  C27 UNL     1       9.419  53.977  94.814  1.00  0.00     0.016 C 
HETATM   14  C28 UNL     1      11.605  53.651  93.778  1.00  0.00     0.000 C 
HETATM   15  C29 UNL     1      12.648  54.477  93.066  1.00  0.00     0.031 C 
ENDROOT
BRANCH   5  16
HETATM   16  C10 UNL     1      13.866  51.476  95.949  1.00  0.00    -0.006 C 
HETATM   17  C11 UNL     1      12.986  50.314  95.765  1.00  0.00     0.039 C 
HETATM   18  C12 UNL     1      13.581  49.049  95.307  1.00  0.00     0.149 C 
HETATM   19  C13 UNL     1      15.008  49.020  94.968  1.00  0.00     0.180 C 
HETATM   20  C14 UNL     1      15.910  50.040  95.550  1.00  0.00     0.254 C 
HETATM   21  C19 UNL     1      15.256  51.380  95.455  1.00  0.00     0.043 C 
BRANCH  18  22
HETATM   22  O2  UNL     1      12.862  48.534  94.195  1.00  0.00    -0.393 OA
ATOM     23  H2  UNL     1      12.588  49.240  93.620  1.00  0.00     0.210 HD
ENDBRANCH  18  22
BRANCH  19  24
HETATM   24  O3  UNL     1      15.133  49.098  93.557  1.00  0.00    -0.391 OA
ATOM     25  H3  UNL     1      15.791  48.471  93.281  1.00  0.00     0.210 HD
ENDBRANCH  19  24
BRANCH  20  26
HETATM   26  N3  UNL     1      16.514  49.755  96.804  1.00  0.00     0.099 N 
HETATM   27  C15 UNL     1      17.200  48.547  96.993  1.00  0.00     0.299 C 
HETATM   28  C16 UNL     1      18.052  48.711  98.269  1.00  0.00     0.198 C 
HETATM   29  O4  UNL     1      17.405  49.467  99.218  1.00  0.00    -0.388 OA
HETATM   30  C17 UNL     1      17.354  50.799  98.833  1.00  0.00     0.198 C 
HETATM   31  C18 UNL     1      17.307  50.851  97.325  1.00  0.00     0.299 C 
ENDBRANCH  20  26
ENDBRANCH   5  16
BRANCH   1  32
HETATM   32  N2  UNL     1      12.251  53.633  90.813  1.00  0.00    -0.355 N 
HETATM   33  C4  UNL     1      12.589  53.943  89.460  1.00  0.00     0.246 C 
HETATM   34  O1  UNL     1      13.767  54.316  89.226  1.00  0.00    -0.272 OA
ATOM     35  H2  UNL     1      11.301  53.329  91.025  1.00  0.00     0.162 HD
BRANCH  33  36
HETATM   36  C3  UNL     1      11.585  53.819  88.421  1.00  0.00     0.375 C 
BRANCH  36  37
HETATM   37  N1  UNL     1      11.797  52.841  87.407  1.00  0.00     0.102 N 
BRANCH  37  38
HETATM   38  C2  UNL     1      11.350  51.514  87.833  1.00  0.00     0.269 C 
HETATM   39  C1  UNL     1       9.880  51.614  88.159  1.00  0.00     0.037 C 
ENDBRANCH  37  38
BRANCH  37  40
HETATM   40  C30 UNL     1      11.184  53.169  86.127  1.00  0.00     0.337 C 
BRANCH  40  41
HETATM   41  C31 UNL     1      12.236  53.053  85.085  1.00  0.00     0.080 A 
HETATM   42  C32 UNL     1      13.331  53.920  85.021  1.00  0.00     0.036 A 
HETATM   43  C33 UNL     1      14.121  53.557  83.954  1.00  0.00     0.027 A 
HETATM   44  C34 UNL     1      13.457  52.458  83.400  1.00  0.00     0.142 A 
HETATM   45  O6  UNL     1      12.371  52.215  84.100  1.00  0.00    -0.325 OA
ENDBRANCH  40  41
ENDBRANCH  37  40
ENDBRANCH  36  37
ENDBRANCH  33  36
ENDBRANCH   1  32
BRANCH   9  46
HETATM   46  O5  UNL     1       9.912  57.214  97.743  1.00  0.00    -0.396 OA
ATOM     47  H5  UNL     1       9.174  57.751  97.476  1.00  0.00     0.210 HD
ENDBRANCH   9  46
TORSDOF 11
ENDMDL
