MODEL 1
REMARK VINA RESULT: -8.598578845      0.000      0.000
REMARK  9 active torsions:
REMARK  status: ('A' for Active; 'I' for Inactive)
REMARK    1  A    between atoms: O1_2  and  C2_3 
REMARK    2  A    between atoms: C5_6  and  S1_7 
REMARK    3  A    between atoms: S1_7  and  N1_10 
REMARK    4  A    between atoms: C8_13  and  N2_14 
REMARK    5  A    between atoms: C9_15  and  C10_16 
REMARK    6  A    between atoms: C17_28  and  N5_29 
REMARK    7  A    between atoms: N5_29  and  C18_31 
REMARK    8  A    between atoms: C18_31  and  C19_32 
REMARK    9  A    between atoms: C19_32  and  C20_33 
ROOT
HETATM    1  N2  UNL     1      10.986  53.831  91.890  1.00  0.00    -0.293 N 
HETATM    2  C9  UNL     1       9.878  53.238  91.466  1.00  0.00     0.059 A 
HETATM    3  C15 UNL     1       9.942  53.127  90.074  1.00  0.00     0.064 A 
HETATM    4  C16 UNL     1      11.151  53.678  89.662  1.00  0.00     0.081 A 
HETATM    5  N4  UNL     1      11.693  53.791  88.428  1.00  0.00    -0.335 N 
ATOM      6  H4  UNL     1      11.181  53.457  87.612  1.00  0.00     0.168 HD
HETATM    7  C17 UNL     1      12.910  54.345  88.281  1.00  0.00     0.171 A 
HETATM    8  C28 UNL     1      13.567  54.785  89.433  1.00  0.00     0.291 A 
HETATM    9  O5  UNL     1      14.700  55.298  89.269  1.00  0.00    -0.264 OA
HETATM   10  N7  UNL     1      13.000  54.659  90.639  1.00  0.00    -0.304 N 
ATOM     11  H7  UNL     1      13.500  54.989  91.464  1.00  0.00     0.171 HD
HETATM   12  C29 UNL     1      11.781  54.104  90.785  1.00  0.00     0.143 A 
ENDROOT
BRANCH   1  13
HETATM   13  C8  UNL     1      11.432  54.170  93.177  1.00  0.00     0.067 A 
HETATM   14  C5  UNL     1      12.314  53.366  93.878  1.00  0.00     0.107 A 
HETATM   15  C4  UNL     1      12.665  53.716  95.192  1.00  0.00     0.030 A 
HETATM   16  C3  UNL     1      12.147  54.843  95.790  1.00  0.00     0.038 A 
HETATM   17  C2  UNL     1      11.270  55.657  95.112  1.00  0.00     0.070 A 
HETATM   18  C30 UNL     1      10.941  55.298  93.834  1.00  0.00     0.068 A 
BRANCH  14  19
HETATM   19  S1  UNL     1      13.099  51.974  93.233  1.00  0.00     0.262 S 
HETATM   20  O2  UNL     1      14.026  52.199  92.106  1.00  0.00    -0.200 OA
HETATM   21  O3  UNL     1      13.968  51.373  94.354  1.00  0.00    -0.200 OA
BRANCH  19  22
HETATM   22  N1  UNL     1      11.998  50.712  92.835  1.00  0.00    -0.315 N 
HETATM   23  C6  UNL     1      11.776  49.766  93.864  1.00  0.00     0.162 C 
HETATM   24  C7  UNL     1      12.095  50.220  91.506  1.00  0.00     0.162 C 
ENDBRANCH  19  22
ENDBRANCH  14  19
BRANCH  17  25
HETATM   25  O1  UNL     1      10.778  56.777  95.754  1.00  0.00    -0.356 OA
HETATM   26  C1  UNL     1      10.597  57.990  95.053  1.00  0.00     0.210 C 
ENDBRANCH  17  25
ENDBRANCH   1  13
BRANCH   2  27
HETATM   27  C10 UNL     1       8.758  52.630  92.216  1.00  0.00     0.059 A 
HETATM   28  C11 UNL     1       8.604  51.258  92.274  1.00  0.00     0.021 A 
HETATM   29  C12 UNL     1       7.496  50.727  92.933  1.00  0.00     0.018 A 
HETATM   30  C13 UNL     1       6.551  51.516  93.524  1.00  0.00     0.091 A 
HETATM   31  N3  UNL     1       6.719  52.843  93.456  1.00  0.00    -0.333 N 
HETATM   32  C14 UNL     1       7.781  53.399  92.827  1.00  0.00     0.257 A 
ATOM     33  H3  UNL     1       6.027  53.453  93.891  1.00  0.00     0.168 HD
HETATM   34  O4  UNL     1       7.820  54.631  92.831  1.00  0.00    -0.267 OA
ENDBRANCH   2  27
BRANCH   7  35
HETATM   35  N5  UNL     1      13.437  54.460  87.131  1.00  0.00    -0.371 N 
ATOM     36  H5  UNL     1      14.338  54.931  87.051  1.00  0.00     0.161 HD
BRANCH  35  37
HETATM   37  C18 UNL     1      12.816  53.951  85.933  1.00  0.00     0.126 C 
BRANCH  37  38
HETATM   38  C19 UNL     1      13.800  53.881  84.793  1.00  0.00     0.060 C 
BRANCH  38  39
HETATM   39  C20 UNL     1      13.376  52.876  83.786  1.00  0.00    -0.029 A 
HETATM   40  C21 UNL     1      12.157  52.234  83.682  1.00  0.00     0.096 A 
HETATM   41  N6  UNL     1      12.198  51.404  82.634  1.00  0.00    -0.365 N 
HETATM   42  C22 UNL     1      13.407  51.466  82.027  1.00  0.00     0.042 A 
ATOM     43  H6  UNL     1      11.426  50.807  82.333  1.00  0.00     0.165 HD
HETATM   44  C23 UNL     1      13.974  50.846  80.939  1.00  0.00     0.030 A 
HETATM   45  C27 UNL     1      14.138  52.376  82.738  1.00  0.00    -0.002 A 
HETATM   46  C24 UNL     1      15.266  51.130  80.560  1.00  0.00     0.002 A 
HETATM   47  C25 UNL     1      15.977  52.047  81.291  1.00  0.00     0.001 A 
HETATM   48  C26 UNL     1      15.435  52.677  82.376  1.00  0.00     0.014 A 
ENDBRANCH  38  39
ENDBRANCH  37  38
ENDBRANCH  35  37
ENDBRANCH   7  35
TORSDOF 9
ENDMDL
MODEL 2
REMARK VINA RESULT: -8.010587675      3.861     10.951
REMARK  9 active torsions:
REMARK  status: ('A' for Active; 'I' for Inactive)
REMARK    1  A    between atoms: O1_2  and  C2_3 
REMARK    2  A    between atoms: C5_6  and  S1_7 
REMARK    3  A    between atoms: S1_7  and  N1_10 
REMARK    4  A    between atoms: C8_13  and  N2_14 
REMARK    5  A    between atoms: C9_15  and  C10_16 
REMARK    6  A    between atoms: C17_28  and  N5_29 
REMARK    7  A    between atoms: N5_29  and  C18_31 
REMARK    8  A    between atoms: C18_31  and  C19_32 
REMARK    9  A    between atoms: C19_32  and  C20_33 
ROOT
HETATM    1  N2  UNL     1      12.474  51.901  84.203  1.00  0.00    -0.293 N 
HETATM    2  C9  UNL     1      13.404  52.496  83.468  1.00  0.00     0.059 A 
HETATM    3  C15 UNL     1      13.923  53.569  84.198  1.00  0.00     0.064 A 
HETATM    4  C16 UNL     1      13.269  53.601  85.425  1.00  0.00     0.081 A 
HETATM    5  N4  UNL     1      13.423  54.426  86.486  1.00  0.00    -0.335 N 
ATOM      6  H4  UNL     1      14.100  55.188  86.447  1.00  0.00     0.168 HD
HETATM    7  C17 UNL     1      12.682  54.238  87.592  1.00  0.00     0.171 A 
HETATM    8  C28 UNL     1      11.769  53.180  87.591  1.00  0.00     0.291 A 
HETATM    9  O5  UNL     1      11.090  53.025  88.634  1.00  0.00    -0.264 OA
HETATM   10  N7  UNL     1      11.641  52.384  86.522  1.00  0.00    -0.304 N 
ATOM     11  H7  UNL     1      10.967  51.618  86.547  1.00  0.00     0.171 HD
HETATM   12  C29 UNL     1      12.385  52.573  85.415  1.00  0.00     0.143 A 
ENDROOT
BRANCH   1  13
HETATM   13  C8  UNL     1      11.662  50.783  83.958  1.00  0.00     0.067 A 
HETATM   14  C5  UNL     1      10.334  50.914  83.588  1.00  0.00     0.107 A 
HETATM   15  C4  UNL     1       9.549  49.760  83.431  1.00  0.00     0.030 A 
HETATM   16  C3  UNL     1      10.078  48.506  83.638  1.00  0.00     0.038 A 
HETATM   17  C2  UNL     1      11.395  48.352  84.005  1.00  0.00     0.070 A 
HETATM   18  C30 UNL     1      12.142  49.488  84.152  1.00  0.00     0.068 A 
BRANCH  14  19
HETATM   19  S1  UNL     1       9.560  52.410  83.221  1.00  0.00     0.262 S 
HETATM   20  O2  UNL     1       9.822  53.535  84.141  1.00  0.00    -0.200 OA
HETATM   21  O3  UNL     1      10.090  52.879  81.852  1.00  0.00    -0.200 OA
BRANCH  19  22
HETATM   22  N1  UNL     1       7.865  52.242  82.979  1.00  0.00    -0.315 N 
HETATM   23  C6  UNL     1       7.376  52.794  81.771  1.00  0.00     0.162 C 
HETATM   24  C7  UNL     1       7.067  52.409  84.142  1.00  0.00     0.162 C 
ENDBRANCH  19  22
ENDBRANCH  14  19
BRANCH  17  25
HETATM   25  O1  UNL     1      11.881  47.074  84.200  1.00  0.00    -0.356 OA
HETATM   26  C1  UNL     1      12.859  46.816  85.185  1.00  0.00     0.210 C 
ENDBRANCH  17  25
ENDBRANCH   1  13
BRANCH   2  27
HETATM   27  C10 UNL     1      13.987  52.128  82.160  1.00  0.00     0.059 A 
HETATM   28  C11 UNL     1      13.198  51.605  81.153  1.00  0.00     0.021 A 
HETATM   29  C12 UNL     1      13.798  51.205  79.959  1.00  0.00     0.018 A 
HETATM   30  C13 UNL     1      15.143  51.312  79.748  1.00  0.00     0.091 A 
HETATM   31  N3  UNL     1      15.889  51.821  80.736  1.00  0.00    -0.333 N 
HETATM   32  C14 UNL     1      15.346  52.221  81.911  1.00  0.00     0.257 A 
ATOM     33  H3  UNL     1      16.896  51.910  80.602  1.00  0.00     0.168 HD
HETATM   34  O4  UNL     1      16.138  52.669  82.741  1.00  0.00    -0.267 OA
ENDBRANCH   2  27
BRANCH   7  35
HETATM   35  N5  UNL     1      12.813  55.001  88.600  1.00  0.00    -0.371 N 
ATOM     36  H5  UNL     1      12.199  55.812  88.682  1.00  0.00     0.161 HD
BRANCH  35  37
HETATM   37  C18 UNL     1      13.792  54.769  89.632  1.00  0.00     0.126 C 
BRANCH  37  38
HETATM   38  C19 UNL     1      13.386  55.421  90.929  1.00  0.00     0.060 C 
BRANCH  38  39
HETATM   39  C20 UNL     1      13.294  54.420  92.021  1.00  0.00    -0.029 A 
HETATM   40  C21 UNL     1      13.682  53.094  91.998  1.00  0.00     0.096 A 
HETATM   41  N6  UNL     1      13.418  52.550  93.192  1.00  0.00    -0.365 N 
HETATM   42  C22 UNL     1      12.864  53.468  94.019  1.00  0.00     0.042 A 
ATOM     43  H6  UNL     1      13.608  51.580  93.444  1.00  0.00     0.165 HD
HETATM   44  C23 UNL     1      12.413  53.450  95.318  1.00  0.00     0.030 A 
HETATM   45  C27 UNL     1      12.785  54.626  93.297  1.00  0.00    -0.002 A 
HETATM   46  C24 UNL     1      11.885  54.581  95.896  1.00  0.00     0.002 A 
HETATM   47  C25 UNL     1      11.818  55.729  95.150  1.00  0.00     0.001 A 
HETATM   48  C26 UNL     1      12.260  55.772  93.857  1.00  0.00     0.014 A 
ENDBRANCH  38  39
ENDBRANCH  37  38
ENDBRANCH  35  37
ENDBRANCH   7  35
TORSDOF 9
ENDMDL
MODEL 3
REMARK VINA RESULT: -7.970514886      1.077      1.214
REMARK  9 active torsions:
REMARK  status: ('A' for Active; 'I' for Inactive)
REMARK    1  A    between atoms: O1_2  and  C2_3 
REMARK    2  A    between atoms: C5_6  and  S1_7 
REMARK    3  A    between atoms: S1_7  and  N1_10 
REMARK    4  A    between atoms: C8_13  and  N2_14 
REMARK    5  A    between atoms: C9_15  and  C10_16 
REMARK    6  A    between atoms: C17_28  and  N5_29 
REMARK    7  A    between atoms: N5_29  and  C18_31 
REMARK    8  A    between atoms: C18_31  and  C19_32 
REMARK    9  A    between atoms: C19_32  and  C20_33 
ROOT
HETATM    1  N2  UNL     1      11.502  52.826  92.182  1.00  0.00    -0.293 N 
HETATM    2  C9  UNL     1      10.347  52.299  91.801  1.00  0.00     0.059 A 
HETATM    3  C15 UNL     1      10.221  52.462  90.418  1.00  0.00     0.064 A 
HETATM    4  C16 UNL     1      11.363  53.114  89.965  1.00  0.00     0.081 A 
HETATM    5  N4  UNL     1      11.734  53.480  88.717  1.00  0.00    -0.335 N 
ATOM      6  H4  UNL     1      11.116  53.299  87.926  1.00  0.00     0.168 HD
HETATM    7  C17 UNL     1      12.920  54.083  88.521  1.00  0.00     0.171 A 
HETATM    8  C28 UNL     1      13.727  54.307  89.639  1.00  0.00     0.291 A 
HETATM    9  O5  UNL     1      14.829  54.871  89.431  1.00  0.00    -0.264 OA
HETATM   10  N7  UNL     1      13.329  53.933  90.861  1.00  0.00    -0.304 N 
ATOM     11  H7  UNL     1      13.937  54.109  91.661  1.00  0.00     0.171 HD
HETATM   12  C29 UNL     1      12.140  53.329  91.056  1.00  0.00     0.143 A 
ENDROOT
BRANCH   1  13
HETATM   13  C8  UNL     1      12.119  52.918  93.439  1.00  0.00     0.067 A 
HETATM   14  C5  UNL     1      13.082  52.012  93.848  1.00  0.00     0.107 A 
HETATM   15  C4  UNL     1      13.608  52.109  95.146  1.00  0.00     0.030 A 
HETATM   16  C3  UNL     1      13.182  53.088  96.015  1.00  0.00     0.038 A 
HETATM   17  C2  UNL     1      12.227  54.001  95.630  1.00  0.00     0.070 A 
HETATM   18  C30 UNL     1      11.727  53.888  94.362  1.00  0.00     0.068 A 
BRANCH  14  19
HETATM   19  S1  UNL     1      13.764  50.786  92.846  1.00  0.00     0.262 S 
HETATM   20  O2  UNL     1      14.490  51.241  91.643  1.00  0.00    -0.200 OA
HETATM   21  O3  UNL     1      14.813  50.034  93.687  1.00  0.00    -0.200 OA
BRANCH  19  22
HETATM   22  N1  UNL     1      12.626  49.570  92.412  1.00  0.00    -0.315 N 
HETATM   23  C6  UNL     1      12.476  48.527  93.356  1.00  0.00     0.162 C 
HETATM   24  C7  UNL     1      12.618  49.212  91.037  1.00  0.00     0.162 C 
ENDBRANCH  19  22
ENDBRANCH  14  19
BRANCH  17  25
HETATM   25  O1  UNL     1      11.833  54.965  96.536  1.00  0.00    -0.356 OA
HETATM   26  C1  UNL     1      11.124  56.110  96.110  1.00  0.00     0.210 C 
ENDBRANCH  17  25
ENDBRANCH   1  13
BRANCH   2  27
HETATM   27  C10 UNL     1       9.338  51.527  92.558  1.00  0.00     0.059 A 
HETATM   28  C11 UNL     1       9.244  50.155  92.422  1.00  0.00     0.021 A 
HETATM   29  C12 UNL     1       8.234  49.474  93.101  1.00  0.00     0.018 A 
HETATM   30  C13 UNL     1       7.329  50.115  93.898  1.00  0.00     0.091 A 
HETATM   31  N3  UNL     1       7.438  51.444  94.015  1.00  0.00    -0.333 N 
HETATM   32  C14 UNL     1       8.404  52.144  93.374  1.00  0.00     0.257 A 
ATOM     33  H3  UNL     1       6.774  51.945  94.605  1.00  0.00     0.168 HD
HETATM   34  O4  UNL     1       8.396  53.362  93.562  1.00  0.00    -0.267 OA
ENDBRANCH   2  27
BRANCH   7  35
HETATM   35  N5  UNL     1      13.287  54.434  87.356  1.00  0.00    -0.371 N 
ATOM     36  H5  UNL     1      14.039  55.116  87.266  1.00  0.00     0.161 HD
BRANCH  35  37
HETATM   37  C18 UNL     1      12.684  53.907  86.156  1.00  0.00     0.126 C 
BRANCH  37  38
HETATM   38  C19 UNL     1      13.637  53.972  84.991  1.00  0.00     0.060 C 
BRANCH  38  39
HETATM   39  C20 UNL     1      13.265  52.986  83.945  1.00  0.00    -0.029 A 
HETATM   40  C21 UNL     1      12.049  52.356  83.760  1.00  0.00     0.096 A 
HETATM   41  N6  UNL     1      12.146  51.541  82.704  1.00  0.00    -0.365 N 
HETATM   42  C22 UNL     1      13.389  51.601  82.170  1.00  0.00     0.042 A 
ATOM     43  H6  UNL     1      11.389  50.956  82.349  1.00  0.00     0.165 HD
HETATM   44  C23 UNL     1      14.015  50.992  81.108  1.00  0.00     0.030 A 
HETATM   45  C27 UNL     1      14.084  52.495  82.937  1.00  0.00    -0.002 A 
HETATM   46  C24 UNL     1      15.328  51.271  80.810  1.00  0.00     0.002 A 
HETATM   47  C25 UNL     1      16.002  52.171  81.595  1.00  0.00     0.001 A 
HETATM   48  C26 UNL     1      15.402  52.790  82.656  1.00  0.00     0.014 A 
ENDBRANCH  38  39
ENDBRANCH  37  38
ENDBRANCH  35  37
ENDBRANCH   7  35
TORSDOF 9
ENDMDL
MODEL 4
REMARK VINA RESULT: -7.839420333      2.349      4.173
REMARK  9 active torsions:
REMARK  status: ('A' for Active; 'I' for Inactive)
REMARK    1  A    between atoms: O1_2  and  C2_3 
REMARK    2  A    between atoms: C5_6  and  S1_7 
REMARK    3  A    between atoms: S1_7  and  N1_10 
REMARK    4  A    between atoms: C8_13  and  N2_14 
REMARK    5  A    between atoms: C9_15  and  C10_16 
REMARK    6  A    between atoms: C17_28  and  N5_29 
REMARK    7  A    between atoms: N5_29  and  C18_31 
REMARK    8  A    between atoms: C18_31  and  C19_32 
REMARK    9  A    between atoms: C19_32  and  C20_33 
ROOT
HETATM    1  N2  UNL     1      11.759  52.456  90.994  1.00  0.00    -0.293 N 
HETATM    2  C9  UNL     1      11.451  53.716  91.271  1.00  0.00     0.059 A 
HETATM    3  C15 UNL     1      11.083  54.353  90.082  1.00  0.00     0.064 A 
HETATM    4  C16 UNL     1      11.175  53.417  89.057  1.00  0.00     0.081 A 
HETATM    5  N4  UNL     1      10.907  53.527  87.735  1.00  0.00    -0.335 N 
ATOM      6  H4  UNL     1      10.599  54.419  87.349  1.00  0.00     0.168 HD
HETATM    7  C17 UNL     1      11.047  52.457  86.934  1.00  0.00     0.171 A 
HETATM    8  C28 UNL     1      11.471  51.260  87.516  1.00  0.00     0.291 A 
HETATM    9  O5  UNL     1      11.593  50.276  86.747  1.00  0.00    -0.264 OA
HETATM   10  N7  UNL     1      11.729  51.187  88.827  1.00  0.00    -0.304 N 
ATOM     11  H7  UNL     1      12.039  50.301  89.228  1.00  0.00     0.171 HD
HETATM   12  C29 UNL     1      11.589  52.260  89.630  1.00  0.00     0.143 A 
ENDROOT
BRANCH   1  13
HETATM   13  C8  UNL     1      12.173  51.393  91.810  1.00  0.00     0.067 A 
HETATM   14  C5  UNL     1      11.289  50.423  92.249  1.00  0.00     0.107 A 
HETATM   15  C4  UNL     1      11.744  49.426  93.127  1.00  0.00     0.030 A 
HETATM   16  C3  UNL     1      13.052  49.400  93.556  1.00  0.00     0.038 A 
HETATM   17  C2  UNL     1      13.949  50.353  93.133  1.00  0.00     0.070 A 
HETATM   18  C30 UNL     1      13.485  51.315  92.279  1.00  0.00     0.068 A 
BRANCH  14  19
HETATM   19  S1  UNL     1       9.649  50.286  91.736  1.00  0.00     0.262 S 
HETATM   20  O2  UNL     1       9.425  49.953  90.314  1.00  0.00    -0.200 OA
HETATM   21  O3  UNL     1       9.015  49.123  92.524  1.00  0.00    -0.200 OA
BRANCH  19  22
HETATM   22  N1  UNL     1       8.698  51.653  92.169  1.00  0.00    -0.315 N 
HETATM   23  C6  UNL     1       8.007  51.536  93.398  1.00  0.00     0.162 C 
HETATM   24  C7  UNL     1       8.014  52.280  91.093  1.00  0.00     0.162 C 
ENDBRANCH  19  22
ENDBRANCH  14  19
BRANCH  17  25
HETATM   25  O1  UNL     1      15.250  50.285  93.590  1.00  0.00    -0.356 OA
HETATM   26  C1  UNL     1      15.531  50.298  94.975  1.00  0.00     0.210 C 
ENDBRANCH  17  25
ENDBRANCH   1  13
BRANCH   2  27
HETATM   27  C10 UNL     1      11.338  54.423  92.565  1.00  0.00     0.059 A 
HETATM   28  C11 UNL     1      10.108  54.609  93.167  1.00  0.00     0.021 A 
HETATM   29  C12 UNL     1      10.037  55.342  94.352  1.00  0.00     0.018 A 
HETATM   30  C13 UNL     1      11.143  55.884  94.942  1.00  0.00     0.091 A 
HETATM   31  N3  UNL     1      12.324  55.691  94.342  1.00  0.00    -0.333 N 
HETATM   32  C14 UNL     1      12.437  54.987  93.191  1.00  0.00     0.257 A 
ATOM     33  H3  UNL     1      13.164  56.087  94.764  1.00  0.00     0.168 HD
HETATM   34  O4  UNL     1      13.578  54.883  92.737  1.00  0.00    -0.267 OA
ENDBRANCH   2  27
BRANCH   7  35
HETATM   35  N5  UNL     1      10.799  52.539  85.690  1.00  0.00    -0.371 N 
ATOM     36  H5  UNL     1      10.058  51.956  85.300  1.00  0.00     0.161 HD
BRANCH  35  37
HETATM   37  C18 UNL     1      11.519  53.422  84.807  1.00  0.00     0.126 C 
BRANCH  37  38
HETATM   38  C19 UNL     1      12.861  52.846  84.431  1.00  0.00     0.060 C 
BRANCH  38  39
HETATM   39  C20 UNL     1      12.796  52.169  83.110  1.00  0.00    -0.029 A 
HETATM   40  C21 UNL     1      11.713  51.543  82.524  1.00  0.00     0.096 A 
HETATM   41  N6  UNL     1      12.089  51.063  81.334  1.00  0.00    -0.365 N 
HETATM   42  C22 UNL     1      13.393  51.344  81.099  1.00  0.00     0.042 A 
ATOM     43  H6  UNL     1      11.479  50.555  80.692  1.00  0.00     0.165 HD
HETATM   44  C23 UNL     1      14.264  51.094  80.066  1.00  0.00     0.030 A 
HETATM   45  C27 UNL     1      13.833  52.029  82.197  1.00  0.00    -0.002 A 
HETATM   46  C24 UNL     1      15.569  51.523  80.125  1.00  0.00     0.002 A 
HETATM   47  C25 UNL     1      15.985  52.208  81.238  1.00  0.00     0.001 A 
HETATM   48  C26 UNL     1      15.138  52.469  82.278  1.00  0.00     0.014 A 
ENDBRANCH  38  39
ENDBRANCH  37  38
ENDBRANCH  35  37
ENDBRANCH   7  35
TORSDOF 9
ENDMDL
MODEL 5
REMARK VINA RESULT: -7.763797668      1.247      1.460
REMARK  9 active torsions:
REMARK  status: ('A' for Active; 'I' for Inactive)
REMARK    1  A    between atoms: O1_2  and  C2_3 
REMARK    2  A    between atoms: C5_6  and  S1_7 
REMARK    3  A    between atoms: S1_7  and  N1_10 
REMARK    4  A    between atoms: C8_13  and  N2_14 
REMARK    5  A    between atoms: C9_15  and  C10_16 
REMARK    6  A    between atoms: C17_28  and  N5_29 
REMARK    7  A    between atoms: N5_29  and  C18_31 
REMARK    8  A    between atoms: C18_31  and  C19_32 
REMARK    9  A    between atoms: C19_32  and  C20_33 
ROOT
HETATM    1  N2  UNL     1      10.869  53.213  90.928  1.00  0.00    -0.293 N 
HETATM    2  C9  UNL     1       9.633  52.752  90.794  1.00  0.00     0.059 A 
HETATM    3  C15 UNL     1       9.340  52.666  89.429  1.00  0.00     0.064 A 
HETATM    4  C16 UNL     1      10.463  53.094  88.729  1.00  0.00     0.081 A 
HETATM    5  N4  UNL     1      10.695  53.176  87.399  1.00  0.00    -0.335 N 
ATOM      6  H4  UNL     1       9.965  52.917  86.735  1.00  0.00     0.168 HD
HETATM    7  C17 UNL     1      11.891  53.600  86.954  1.00  0.00     0.171 A 
HETATM    8  C28 UNL     1      12.855  53.942  87.906  1.00  0.00     0.291 A 
HETATM    9  O5  UNL     1      13.963  54.334  87.466  1.00  0.00    -0.264 OA
HETATM   10  N7  UNL     1      12.591  53.849  89.215  1.00  0.00    -0.304 N 
ATOM     11  H7  UNL     1      13.312  54.106  89.890  1.00  0.00     0.171 HD
HETATM   12  C29 UNL     1      11.393  53.425  89.660  1.00  0.00     0.143 A 
ENDROOT
BRANCH   1  13
HETATM   13  C8  UNL     1      11.651  53.474  92.063  1.00  0.00     0.067 A 
HETATM   14  C5  UNL     1      12.459  52.503  92.631  1.00  0.00     0.107 A 
HETATM   15  C4  UNL     1      13.160  52.798  93.811  1.00  0.00     0.030 A 
HETATM   16  C3  UNL     1      13.057  54.034  94.410  1.00  0.00     0.038 A 
HETATM   17  C2  UNL     1      12.261  55.014  93.864  1.00  0.00     0.070 A 
HETATM   18  C30 UNL     1      11.587  54.706  92.714  1.00  0.00     0.068 A 
BRANCH  14  19
HETATM   19  S1  UNL     1      12.745  50.945  91.952  1.00  0.00     0.262 S 
HETATM   20  O2  UNL     1      12.834  50.869  90.480  1.00  0.00    -0.200 OA
HETATM   21  O3  UNL     1      14.117  50.464  92.462  1.00  0.00    -0.200 OA
BRANCH  19  22
HETATM   22  N1  UNL     1      11.644  49.755  92.529  1.00  0.00    -0.315 N 
HETATM   23  C6  UNL     1      11.747  49.463  93.910  1.00  0.00     0.162 C 
HETATM   24  C7  UNL     1      11.415  48.664  91.648  1.00  0.00     0.162 C 
ENDBRANCH  19  22
ENDBRANCH  14  19
BRANCH  17  25
HETATM   25  O1  UNL     1      12.190  56.237  94.500  1.00  0.00    -0.356 OA
HETATM   26  C1  UNL     1      10.943  56.856  94.739  1.00  0.00     0.210 C 
ENDBRANCH  17  25
ENDBRANCH   1  13
BRANCH   2  27
HETATM   27  C10 UNL     1       8.672  52.250  91.799  1.00  0.00     0.059 A 
HETATM   28  C11 UNL     1       8.422  50.898  91.929  1.00  0.00     0.021 A 
HETATM   29  C12 UNL     1       7.457  50.470  92.841  1.00  0.00     0.018 A 
HETATM   30  C13 UNL     1       6.747  51.344  93.614  1.00  0.00     0.091 A 
HETATM   31  N3  UNL     1       7.005  52.650  93.472  1.00  0.00    -0.333 N 
HETATM   32  C14 UNL     1       7.933  53.107  92.599  1.00  0.00     0.257 A 
ATOM     33  H3  UNL     1       6.487  53.322  94.039  1.00  0.00     0.168 HD
HETATM   34  O4  UNL     1       8.076  54.330  92.560  1.00  0.00    -0.267 OA
ENDBRANCH   2  27
BRANCH   7  35
HETATM   35  N5  UNL     1      12.129  53.684  85.708  1.00  0.00    -0.371 N 
ATOM     36  H5  UNL     1      12.144  54.607  85.275  1.00  0.00     0.161 HD
BRANCH  35  37
HETATM   37  C18 UNL     1      12.378  52.528  84.882  1.00  0.00     0.126 C 
BRANCH  37  38
HETATM   38  C19 UNL     1      13.442  52.811  83.852  1.00  0.00     0.060 C 
BRANCH  38  39
HETATM   39  C20 UNL     1      13.345  51.862  82.714  1.00  0.00    -0.029 A 
HETATM   40  C21 UNL     1      12.423  50.850  82.523  1.00  0.00     0.096 A 
HETATM   41  N6  UNL     1      12.699  50.232  81.369  1.00  0.00    -0.365 N 
HETATM   42  C22 UNL     1      13.778  50.796  80.775  1.00  0.00     0.042 A 
ATOM     43  H6  UNL     1      12.170  49.447  80.989  1.00  0.00     0.165 HD
HETATM   44  C23 UNL     1      14.470  50.564  79.611  1.00  0.00     0.030 A 
HETATM   45  C27 UNL     1      14.180  51.805  81.606  1.00  0.00    -0.002 A 
HETATM   46  C24 UNL     1      15.560  51.333  79.274  1.00  0.00     0.002 A 
HETATM   47  C25 UNL     1      15.942  52.338  80.125  1.00  0.00     0.001 A 
HETATM   48  C26 UNL     1      15.269  52.588  81.288  1.00  0.00     0.014 A 
ENDBRANCH  38  39
ENDBRANCH  37  38
ENDBRANCH  35  37
ENDBRANCH   7  35
TORSDOF 9
ENDMDL
