MODEL 1
REMARK VINA RESULT: -8.080267793      0.000      0.000
REMARK  8 active torsions:
REMARK  status: ('A' for Active; 'I' for Inactive)
REMARK    1  A    between atoms: C3_5  and  C4_6 
REMARK    2  A    between atoms: C4_6  and  C5_7 
REMARK    3  A    between atoms: C5_7  and  C6_8 
REMARK    4  A    between atoms: C6_8  and  N2_9 
REMARK    5  A    between atoms: N3_12  and  C9_13 
REMARK    6  A    between atoms: C9_13  and  C10_14 
REMARK    7  A    between atoms: C20_32  and  C21_33 
REMARK    8  A    between atoms: N7_39  and  C27_40 
ROOT
HETATM    1  N2  UNL     1       8.052  50.852  85.886  1.00  0.00    -0.390 N 
HETATM    2  C7  UNL     1       7.435  50.726  87.141  1.00  0.00     0.152 C 
HETATM    3  C8  UNL     1       8.201  51.440  88.261  1.00  0.00     0.292 C 
HETATM    4  N3  UNL     1       8.498  52.790  87.932  1.00  0.00     0.095 N 
HETATM    5  C18 UNL     1       8.234  53.133  86.561  1.00  0.00     0.292 C 
HETATM    6  C19 UNL     1       8.681  52.083  85.574  1.00  0.00     0.152 C 
ENDROOT
BRANCH   1   7
HETATM    7  C6  UNL     1       7.664  50.006  84.843  1.00  0.00     0.058 C 
BRANCH   7   8
HETATM    8  C5  UNL     1       8.205  48.616  84.862  1.00  0.00     0.049 C 
BRANCH   8   9
HETATM    9  C4  UNL     1       8.915  48.335  83.539  1.00  0.00     0.052 C 
BRANCH   9  10
HETATM   10  C3  UNL     1       9.793  49.410  83.135  1.00  0.00     0.041 A 
HETATM   11  C2  UNL     1       9.598  50.211  82.025  1.00  0.00     0.270 A 
HETATM   12  N1  UNL     1      10.546  51.130  81.993  1.00  0.00    -0.254 N 
HETATM   13  O1  UNL     1       8.669  50.056  81.213  1.00  0.00    -0.266 OA
HETATM   14  C1  UNL     1      10.704  52.174  80.967  1.00  0.00     0.182 C 
HETATM   15  N7  UNL     1      11.370  50.966  83.048  1.00  0.00    -0.251 N 
HETATM   16  C20 UNL     1      10.912  49.896  83.766  1.00  0.00     0.079 A 
BRANCH  15  17
HETATM   17  C27 UNL     1      12.498  51.796  83.249  1.00  0.00     0.057 A 
HETATM   18  C28 UNL     1      13.672  51.653  82.505  1.00  0.00     0.031 A 
HETATM   19  C29 UNL     1      14.762  52.476  82.675  1.00  0.00     0.002 A 
HETATM   20  C30 UNL     1      14.745  53.495  83.601  1.00  0.00     0.000 A 
HETATM   21  C31 UNL     1      13.600  53.660  84.350  1.00  0.00     0.002 A 
HETATM   22  C32 UNL     1      12.508  52.833  84.178  1.00  0.00     0.031 A 
ENDBRANCH  15  17
BRANCH  16  23
HETATM   23  C21 UNL     1      11.673  49.351  84.893  1.00  0.00    -0.007 A 
HETATM   24  C22 UNL     1      12.572  48.329  84.717  1.00  0.00     0.014 A 
HETATM   25  C23 UNL     1      13.247  47.693  85.753  1.00  0.00     0.001 A 
HETATM   26  C24 UNL     1      13.021  48.094  87.041  1.00  0.00     0.000 A 
HETATM   27  C25 UNL     1      12.134  49.113  87.280  1.00  0.00     0.001 A 
HETATM   28  C26 UNL     1      11.468  49.733  86.214  1.00  0.00     0.014 A 
ENDBRANCH  16  23
ENDBRANCH   9  10
ENDBRANCH   8   9
ENDBRANCH   7   8
ENDBRANCH   1   7
BRANCH   4  29
HETATM   29  C9  UNL     1       9.959  52.986  88.134  1.00  0.00     0.302 C 
BRANCH  29  30
HETATM   30  C10 UNL     1      10.370  52.692  89.469  1.00  0.00     0.033 C 
HETATM   31  C11 UNL     1      11.296  52.984  90.326  1.00  0.00     0.046 A 
HETATM   32  N4  UNL     1      11.258  52.355  91.648  1.00  0.00    -0.332 N 
HETATM   33  C17 UNL     1      12.407  53.917  90.120  1.00  0.00     0.035 A 
HETATM   34  C12 UNL     1      12.227  52.644  92.615  1.00  0.00     0.177 A 
ATOM     35  H4  UNL     1      10.513  51.695  91.868  1.00  0.00     0.168 HD
HETATM   36  S1  UNL     1      12.112  51.891  94.076  1.00  0.00    -0.040 SA
HETATM   37  N5  UNL     1      13.289  53.543  92.394  1.00  0.00    -0.318 N 
HETATM   38  C13 UNL     1      13.347  54.178  91.099  1.00  0.00     0.122 A 
ATOM     39  H5  UNL     1      13.984  53.737  93.114  1.00  0.00     0.170 HD
HETATM   40  N6  UNL     1      14.359  55.055  90.900  1.00  0.00    -0.309 N 
HETATM   41  C14 UNL     1      14.507  55.716  89.755  1.00  0.00     0.246 A 
ATOM     42  H6  UNL     1      15.029  55.213  91.653  1.00  0.00     0.170 HD
HETATM   43  O2  UNL     1      15.447  56.522  89.589  1.00  0.00    -0.268 OA
HETATM   44  C15 UNL     1      13.592  55.486  88.760  1.00  0.00     0.075 A 
HETATM   45  C16 UNL     1      12.554  54.597  88.943  1.00  0.00     0.023 A 
ENDBRANCH  29  30
ENDBRANCH   4  29
TORSDOF 8
ENDMDL
MODEL 2
REMARK VINA RESULT: -8.022897207      3.993      9.838
REMARK  8 active torsions:
REMARK  status: ('A' for Active; 'I' for Inactive)
REMARK    1  A    between atoms: C3_5  and  C4_6 
REMARK    2  A    between atoms: C4_6  and  C5_7 
REMARK    3  A    between atoms: C5_7  and  C6_8 
REMARK    4  A    between atoms: C6_8  and  N2_9 
REMARK    5  A    between atoms: N3_12  and  C9_13 
REMARK    6  A    between atoms: C9_13  and  C10_14 
REMARK    7  A    between atoms: C20_32  and  C21_33 
REMARK    8  A    between atoms: N7_39  and  C27_40 
ROOT
HETATM    1  N2  UNL     1      11.890  50.323  88.281  1.00  0.00    -0.390 N 
HETATM    2  C7  UNL     1      11.294  51.587  88.155  1.00  0.00     0.152 C 
HETATM    3  C8  UNL     1      11.435  52.180  86.748  1.00  0.00     0.292 C 
HETATM    4  N3  UNL     1      11.009  51.274  85.739  1.00  0.00     0.095 N 
HETATM    5  C18 UNL     1      10.762  49.939  86.213  1.00  0.00     0.292 C 
HETATM    6  C19 UNL     1      11.806  49.434  87.180  1.00  0.00     0.152 C 
ENDROOT
BRANCH   1   7
HETATM    7  C6  UNL     1      12.128  49.801  89.555  1.00  0.00     0.058 C 
BRANCH   7   8
HETATM    8  C5  UNL     1      11.327  50.368  90.679  1.00  0.00     0.049 C 
BRANCH   8   9
HETATM    9  C4  UNL     1      12.263  50.728  91.832  1.00  0.00     0.052 C 
BRANCH   9  10
HETATM   10  C3  UNL     1      11.704  51.725  92.717  1.00  0.00     0.041 A 
HETATM   11  C2  UNL     1      10.949  51.445  93.842  1.00  0.00     0.270 A 
HETATM   12  N1  UNL     1      10.660  52.581  94.451  1.00  0.00    -0.254 N 
HETATM   13  O1  UNL     1      10.617  50.297  94.186  1.00  0.00    -0.266 OA
HETATM   14  C1  UNL     1       9.866  52.722  95.682  1.00  0.00     0.182 C 
HETATM   15  N7  UNL     1      11.198  53.610  93.768  1.00  0.00    -0.251 N 
HETATM   16  C20 UNL     1      11.849  53.090  92.683  1.00  0.00     0.079 A 
BRANCH  15  17
HETATM   17  C27 UNL     1      11.019  54.953  94.179  1.00  0.00     0.057 A 
HETATM   18  C28 UNL     1       9.758  55.548  94.258  1.00  0.00     0.031 A 
HETATM   19  C29 UNL     1       9.576  56.844  94.686  1.00  0.00     0.002 A 
HETATM   20  C30 UNL     1      10.645  57.624  95.061  1.00  0.00     0.000 A 
HETATM   21  C31 UNL     1      11.903  57.064  94.993  1.00  0.00     0.002 A 
HETATM   22  C32 UNL     1      12.083  55.765  94.564  1.00  0.00     0.031 A 
ENDBRANCH  15  17
BRANCH  16  23
HETATM   23  C21 UNL     1      12.413  53.955  91.644  1.00  0.00    -0.007 A 
HETATM   24  C22 UNL     1      11.676  54.320  90.545  1.00  0.00     0.014 A 
HETATM   25  C23 UNL     1      12.180  55.047  89.472  1.00  0.00     0.001 A 
HETATM   26  C24 UNL     1      13.490  55.438  89.487  1.00  0.00     0.000 A 
HETATM   27  C25 UNL     1      14.277  55.105  90.561  1.00  0.00     0.001 A 
HETATM   28  C26 UNL     1      13.740  54.369  91.627  1.00  0.00     0.014 A 
ENDBRANCH  16  23
ENDBRANCH   9  10
ENDBRANCH   8   9
ENDBRANCH   7   8
ENDBRANCH   1   7
BRANCH   4  29
HETATM   29  C9  UNL     1      12.113  51.162  84.747  1.00  0.00     0.302 C 
BRANCH  29  30
HETATM   30  C10 UNL     1      11.760  50.351  83.626  1.00  0.00     0.033 C 
HETATM   31  C11 UNL     1      12.112  50.114  82.402  1.00  0.00     0.046 A 
HETATM   32  N4  UNL     1      11.358  49.123  81.631  1.00  0.00    -0.332 N 
HETATM   33  C17 UNL     1      13.227  50.736  81.684  1.00  0.00     0.035 A 
HETATM   34  C12 UNL     1      11.703  48.820  80.309  1.00  0.00     0.177 A 
ATOM     35  H4  UNL     1      10.569  48.645  82.065  1.00  0.00     0.168 HD
HETATM   36  S1  UNL     1      10.802  47.694  79.512  1.00  0.00    -0.040 SA
HETATM   37  N5  UNL     1      12.778  49.434  79.636  1.00  0.00    -0.318 N 
HETATM   38  C13 UNL     1      13.537  50.413  80.376  1.00  0.00     0.122 A 
ATOM     39  H5  UNL     1      13.010  49.197  78.672  1.00  0.00     0.170 HD
HETATM   40  N6  UNL     1      14.581  50.984  79.730  1.00  0.00    -0.309 N 
HETATM   41  C14 UNL     1      15.366  51.886  80.313  1.00  0.00     0.246 A 
ATOM     42  H6  UNL     1      14.770  50.713  78.765  1.00  0.00     0.170 HD
HETATM   43  O2  UNL     1      16.324  52.403  79.701  1.00  0.00    -0.268 OA
HETATM   44  C15 UNL     1      15.091  52.232  81.611  1.00  0.00     0.075 A 
HETATM   45  C16 UNL     1      14.033  51.661  82.287  1.00  0.00     0.023 A 
ENDBRANCH  29  30
ENDBRANCH   4  29
TORSDOF 8
ENDMDL
MODEL 3
REMARK VINA RESULT: -7.946010360      4.366     10.888
REMARK  8 active torsions:
REMARK  status: ('A' for Active; 'I' for Inactive)
REMARK    1  A    between atoms: C3_5  and  C4_6 
REMARK    2  A    between atoms: C4_6  and  C5_7 
REMARK    3  A    between atoms: C5_7  and  C6_8 
REMARK    4  A    between atoms: C6_8  and  N2_9 
REMARK    5  A    between atoms: N3_12  and  C9_13 
REMARK    6  A    between atoms: C9_13  and  C10_14 
REMARK    7  A    between atoms: C20_32  and  C21_33 
REMARK    8  A    between atoms: N7_39  and  C27_40 
ROOT
HETATM    1  N2  UNL     1      11.604  53.962  88.995  1.00  0.00    -0.390 N 
HETATM    2  C7  UNL     1      10.230  53.802  89.231  1.00  0.00     0.152 C 
HETATM    3  C8  UNL     1       9.408  53.691  87.942  1.00  0.00     0.292 C 
HETATM    4  N3  UNL     1       9.927  52.706  87.058  1.00  0.00     0.095 N 
HETATM    5  C18 UNL     1      11.216  52.196  87.438  1.00  0.00     0.292 C 
HETATM    6  C19 UNL     1      12.179  53.260  87.906  1.00  0.00     0.152 C 
ENDROOT
BRANCH   1   7
HETATM    7  C6  UNL     1      12.433  54.395  90.034  1.00  0.00     0.058 C 
BRANCH   7   8
HETATM    8  C5  UNL     1      11.882  54.313  91.418  1.00  0.00     0.049 C 
BRANCH   8   9
HETATM    9  C4  UNL     1      13.012  54.533  92.423  1.00  0.00     0.052 C 
BRANCH   9  10
HETATM   10  C3  UNL     1      12.719  53.979  93.726  1.00  0.00     0.041 A 
HETATM   11  C2  UNL     1      13.184  52.761  94.187  1.00  0.00     0.270 A 
HETATM   12  N1  UNL     1      12.784  52.599  95.434  1.00  0.00    -0.254 N 
HETATM   13  O1  UNL     1      13.865  51.975  93.503  1.00  0.00    -0.266 OA
HETATM   14  C1  UNL     1      13.061  51.431  96.286  1.00  0.00     0.182 C 
HETATM   15  N7  UNL     1      12.064  53.671  95.821  1.00  0.00    -0.251 N 
HETATM   16  C20 UNL     1      12.014  54.538  94.764  1.00  0.00     0.079 A 
BRANCH  15  17
HETATM   17  C27 UNL     1      11.481  53.753  97.108  1.00  0.00     0.057 A 
HETATM   18  C28 UNL     1      12.083  54.451  98.158  1.00  0.00     0.031 A 
HETATM   19  C29 UNL     1      11.506  54.559  99.403  1.00  0.00     0.002 A 
HETATM   20  C30 UNL     1      10.289  53.976  99.674  1.00  0.00     0.000 A 
HETATM   21  C31 UNL     1       9.670  53.282  98.657  1.00  0.00     0.002 A 
HETATM   22  C32 UNL     1      10.250  53.174  97.409  1.00  0.00     0.031 A 
ENDBRANCH  15  17
BRANCH  16  23
HETATM   23  C21 UNL     1      11.174  55.738  94.798  1.00  0.00    -0.007 A 
HETATM   24  C22 UNL     1      11.724  56.985  94.951  1.00  0.00     0.014 A 
HETATM   25  C23 UNL     1      10.983  58.154  95.099  1.00  0.00     0.001 A 
HETATM   26  C24 UNL     1       9.617  58.082  95.095  1.00  0.00     0.000 A 
HETATM   27  C25 UNL     1       9.010  56.862  94.943  1.00  0.00     0.001 A 
HETATM   28  C26 UNL     1       9.785  55.702  94.797  1.00  0.00     0.014 A 
ENDBRANCH  16  23
ENDBRANCH   9  10
ENDBRANCH   8   9
ENDBRANCH   7   8
ENDBRANCH   1   7
BRANCH   4  29
HETATM   29  C9  UNL     1      10.113  53.354  85.731  1.00  0.00     0.302 C 
BRANCH  29  30
HETATM   30  C10 UNL     1       9.991  52.428  84.651  1.00  0.00     0.033 C 
HETATM   31  C11 UNL     1      10.681  51.910  83.685  1.00  0.00     0.046 A 
HETATM   32  N4  UNL     1      10.032  50.947  82.791  1.00  0.00    -0.332 N 
HETATM   33  C17 UNL     1      12.090  52.177  83.384  1.00  0.00     0.035 A 
HETATM   34  C12 UNL     1      10.734  50.350  81.739  1.00  0.00     0.177 A 
ATOM     35  H4  UNL     1       9.052  50.709  82.939  1.00  0.00     0.168 HD
HETATM   36  S1  UNL     1       9.929  49.279  80.781  1.00  0.00    -0.040 SA
HETATM   37  N5  UNL     1      12.089  50.624  81.466  1.00  0.00    -0.318 N 
HETATM   38  C13 UNL     1      12.751  51.568  82.334  1.00  0.00     0.122 A 
ATOM     39  H5  UNL     1      12.579  50.175  80.693  1.00  0.00     0.170 HD
HETATM   40  N6  UNL     1      14.058  51.811  82.077  1.00  0.00    -0.309 N 
HETATM   41  C14 UNL     1      14.781  52.648  82.819  1.00  0.00     0.246 A 
ATOM     42  H6  UNL     1      14.502  51.338  81.291  1.00  0.00     0.170 HD
HETATM   43  O2  UNL     1      15.985  52.861  82.567  1.00  0.00    -0.268 OA
HETATM   44  C15 UNL     1      14.160  53.270  83.871  1.00  0.00     0.075 A 
HETATM   45  C16 UNL     1      12.830  53.035  84.149  1.00  0.00     0.023 A 
ENDBRANCH  29  30
ENDBRANCH   4  29
TORSDOF 8
ENDMDL
MODEL 4
REMARK VINA RESULT: -7.940999736      4.096     10.802
REMARK  8 active torsions:
REMARK  status: ('A' for Active; 'I' for Inactive)
REMARK    1  A    between atoms: C3_5  and  C4_6 
REMARK    2  A    between atoms: C4_6  and  C5_7 
REMARK    3  A    between atoms: C5_7  and  C6_8 
REMARK    4  A    between atoms: C6_8  and  N2_9 
REMARK    5  A    between atoms: N3_12  and  C9_13 
REMARK    6  A    between atoms: C9_13  and  C10_14 
REMARK    7  A    between atoms: C20_32  and  C21_33 
REMARK    8  A    between atoms: N7_39  and  C27_40 
ROOT
HETATM    1  N2  UNL     1      13.006  53.965  87.785  1.00  0.00    -0.390 N 
HETATM    2  C7  UNL     1      13.309  54.675  86.613  1.00  0.00     0.152 C 
HETATM    3  C8  UNL     1      13.145  53.833  85.341  1.00  0.00     0.292 C 
HETATM    4  N3  UNL     1      11.875  53.196  85.280  1.00  0.00     0.095 N 
HETATM    5  C18 UNL     1      11.117  53.278  86.499  1.00  0.00     0.292 C 
HETATM    6  C19 UNL     1      11.936  53.036  87.743  1.00  0.00     0.152 C 
ENDROOT
BRANCH   1   7
HETATM    7  C6  UNL     1      13.409  54.478  89.021  1.00  0.00     0.058 C 
BRANCH   7   8
HETATM    8  C5  UNL     1      12.396  54.477  90.117  1.00  0.00     0.049 C 
BRANCH   8   9
HETATM    9  C4  UNL     1      13.045  54.992  91.401  1.00  0.00     0.052 C 
BRANCH   9  10
HETATM   10  C3  UNL     1      12.834  54.111  92.527  1.00  0.00     0.041 A 
HETATM   11  C2  UNL     1      13.335  52.826  92.628  1.00  0.00     0.270 A 
HETATM   12  N1  UNL     1      13.010  52.336  93.810  1.00  0.00    -0.254 N 
HETATM   13  O1  UNL     1      13.981  52.262  91.727  1.00  0.00    -0.266 OA
HETATM   14  C1  UNL     1      13.346  50.992  94.309  1.00  0.00     0.182 C 
HETATM   15  N7  UNL     1      12.306  53.253  94.502  1.00  0.00    -0.251 N 
HETATM   16  C20 UNL     1      12.187  54.364  93.712  1.00  0.00     0.079 A 
BRANCH  15  17
HETATM   17  C27 UNL     1      11.798  52.984  95.795  1.00  0.00     0.057 A 
HETATM   18  C28 UNL     1      12.472  53.368  96.957  1.00  0.00     0.031 A 
HETATM   19  C29 UNL     1      11.969  53.135  98.217  1.00  0.00     0.002 A 
HETATM   20  C30 UNL     1      10.759  52.503  98.392  1.00  0.00     0.000 A 
HETATM   21  C31 UNL     1      10.071  52.112  97.264  1.00  0.00     0.002 A 
HETATM   22  C32 UNL     1      10.577  52.346  96.002  1.00  0.00     0.031 A 
ENDBRANCH  15  17
BRANCH  16  23
HETATM   23  C21 UNL     1      11.341  55.494  94.105  1.00  0.00    -0.007 A 
HETATM   24  C22 UNL     1      11.889  56.677  94.531  1.00  0.00     0.014 A 
HETATM   25  C23 UNL     1      11.151  57.750  95.020  1.00  0.00     0.001 A 
HETATM   26  C24 UNL     1       9.788  57.646  95.088  1.00  0.00     0.000 A 
HETATM   27  C25 UNL     1       9.183  56.487  94.674  1.00  0.00     0.001 A 
HETATM   28  C26 UNL     1       9.956  55.422  94.188  1.00  0.00     0.014 A 
ENDBRANCH  16  23
ENDBRANCH   9  10
ENDBRANCH   8   9
ENDBRANCH   7   8
ENDBRANCH   1   7
BRANCH   4  29
HETATM   29  C9  UNL     1      12.116  51.747  85.039  1.00  0.00     0.302 C 
BRANCH  29  30
HETATM   30  C10 UNL     1      11.459  51.273  83.864  1.00  0.00     0.033 C 
HETATM   31  C11 UNL     1      11.654  51.116  82.593  1.00  0.00     0.046 A 
HETATM   32  N4  UNL     1      10.575  50.554  81.777  1.00  0.00    -0.332 N 
HETATM   33  C17 UNL     1      12.881  51.435  81.858  1.00  0.00     0.035 A 
HETATM   34  C12 UNL     1      10.737  50.353  80.403  1.00  0.00     0.177 A 
ATOM     35  H4  UNL     1       9.691  50.304  82.219  1.00  0.00     0.168 HD
HETATM   36  S1  UNL     1       9.474  49.717  79.559  1.00  0.00    -0.040 SA
HETATM   37  N5  UNL     1      11.926  50.670  79.715  1.00  0.00    -0.318 N 
HETATM   38  C13 UNL     1      13.005  51.224  80.498  1.00  0.00     0.122 A 
ATOM     39  H5  UNL     1      12.020  50.515  78.712  1.00  0.00     0.170 HD
HETATM   40  N6  UNL     1      14.149  51.508  79.834  1.00  0.00    -0.309 N 
HETATM   41  C14 UNL     1      15.220  52.005  80.450  1.00  0.00     0.246 A 
ATOM     42  H6  UNL     1      14.193  51.335  78.829  1.00  0.00     0.170 HD
HETATM   43  O2  UNL     1      16.268  52.261  79.821  1.00  0.00    -0.268 OA
HETATM   44  C15 UNL     1      15.136  52.226  81.800  1.00  0.00     0.075 A 
HETATM   45  C16 UNL     1      13.979  51.943  82.494  1.00  0.00     0.023 A 
ENDBRANCH  29  30
ENDBRANCH   4  29
TORSDOF 8
ENDMDL
MODEL 5
REMARK VINA RESULT: -7.844213159      1.175      1.472
REMARK  8 active torsions:
REMARK  status: ('A' for Active; 'I' for Inactive)
REMARK    1  A    between atoms: C3_5  and  C4_6 
REMARK    2  A    between atoms: C4_6  and  C5_7 
REMARK    3  A    between atoms: C5_7  and  C6_8 
REMARK    4  A    between atoms: C6_8  and  N2_9 
REMARK    5  A    between atoms: N3_12  and  C9_13 
REMARK    6  A    between atoms: C9_13  and  C10_14 
REMARK    7  A    between atoms: C20_32  and  C21_33 
REMARK    8  A    between atoms: N7_39  and  C27_40 
ROOT
HETATM    1  N2  UNL     1       7.199  51.503  87.321  1.00  0.00    -0.390 N 
HETATM    2  C7  UNL     1       6.747  51.412  88.647  1.00  0.00     0.152 C 
HETATM    3  C8  UNL     1       7.564  52.270  89.620  1.00  0.00     0.292 C 
HETATM    4  N3  UNL     1       7.685  53.616  89.177  1.00  0.00     0.095 N 
HETATM    5  C18 UNL     1       7.231  53.834  87.830  1.00  0.00     0.292 C 
HETATM    6  C19 UNL     1       7.662  52.760  86.860  1.00  0.00     0.152 C 
ENDROOT
BRANCH   1   7
HETATM    7  C6  UNL     1       6.778  50.553  86.386  1.00  0.00     0.058 C 
BRANCH   7   8
HETATM    8  C5  UNL     1       7.591  49.307  86.275  1.00  0.00     0.049 C 
BRANCH   8   9
HETATM    9  C4  UNL     1       8.024  49.117  84.822  1.00  0.00     0.052 C 
BRANCH   9  10
HETATM   10  C3  UNL     1       8.903  50.166  84.358  1.00  0.00     0.041 A 
HETATM   11  C2  UNL     1       8.534  51.177  83.490  1.00  0.00     0.270 A 
HETATM   12  N1  UNL     1       9.558  51.997  83.333  1.00  0.00    -0.254 N 
HETATM   13  O1  UNL     1       7.411  51.263  82.963  1.00  0.00    -0.266 OA
HETATM   14  C1  UNL     1       9.581  53.197  82.482  1.00  0.00     0.182 C 
HETATM   15  N7  UNL     1      10.600  51.563  84.070  1.00  0.00    -0.251 N 
HETATM   16  C20 UNL     1      10.206  50.422  84.712  1.00  0.00     0.079 A 
BRANCH  15  17
HETATM   17  C27 UNL     1      11.845  52.236  84.068  1.00  0.00     0.057 A 
HETATM   18  C28 UNL     1      12.839  51.964  83.124  1.00  0.00     0.031 A 
HETATM   19  C29 UNL     1      14.040  52.636  83.099  1.00  0.00     0.002 A 
HETATM   20  C30 UNL     1      14.321  53.623  84.017  1.00  0.00     0.000 A 
HETATM   21  C31 UNL     1      13.359  53.913  84.960  1.00  0.00     0.002 A 
HETATM   22  C32 UNL     1      12.156  53.238  84.984  1.00  0.00     0.031 A 
ENDBRANCH  15  17
BRANCH  16  23
HETATM   23  C21 UNL     1      11.155  49.608  85.475  1.00  0.00    -0.007 A 
HETATM   24  C22 UNL     1      11.269  49.737  86.836  1.00  0.00     0.014 A 
HETATM   25  C23 UNL     1      12.219  49.077  87.608  1.00  0.00     0.001 A 
HETATM   26  C24 UNL     1      13.109  48.237  86.996  1.00  0.00     0.000 A 
HETATM   27  C25 UNL     1      13.042  48.065  85.637  1.00  0.00     0.001 A 
HETATM   28  C26 UNL     1      12.073  48.746  84.886  1.00  0.00     0.014 A 
ENDBRANCH  16  23
ENDBRANCH   9  10
ENDBRANCH   8   9
ENDBRANCH   7   8
ENDBRANCH   1   7
BRANCH   4  29
HETATM   29  C9  UNL     1       9.133  53.958  89.185  1.00  0.00     0.302 C 
BRANCH  29  30
HETATM   30  C10 UNL     1       9.873  53.175  90.123  1.00  0.00     0.033 C 
HETATM   31  C11 UNL     1      11.056  53.073  90.639  1.00  0.00     0.046 A 
HETATM   32  N4  UNL     1      11.310  52.015  91.620  1.00  0.00    -0.332 N 
HETATM   33  C17 UNL     1      12.205  53.937  90.354  1.00  0.00     0.035 A 
HETATM   34  C12 UNL     1      12.566  51.868  92.217  1.00  0.00     0.177 A 
ATOM     35  H4  UNL     1      10.557  51.376  91.873  1.00  0.00     0.168 HD
HETATM   36  S1  UNL     1      12.767  50.652  93.309  1.00  0.00    -0.040 SA
HETATM   37  N5  UNL     1      13.658  52.709  91.925  1.00  0.00    -0.318 N 
HETATM   38  C13 UNL     1      13.433  53.761  90.962  1.00  0.00     0.122 A 
ATOM     39  H5  UNL     1      14.565  52.582  92.373  1.00  0.00     0.170 HD
HETATM   40  N6  UNL     1      14.482  54.576  90.702  1.00  0.00    -0.309 N 
HETATM   41  C14 UNL     1      14.391  55.593  89.847  1.00  0.00     0.246 A 
ATOM     42  H6  UNL     1      15.369  54.406  91.175  1.00  0.00     0.170 HD
HETATM   43  O2  UNL     1      15.369  56.335  89.618  1.00  0.00    -0.268 OA
HETATM   44  C15 UNL     1      13.188  55.801  89.224  1.00  0.00     0.075 A 
HETATM   45  C16 UNL     1      12.108  54.982  89.477  1.00  0.00     0.023 A 
ENDBRANCH  29  30
ENDBRANCH   4  29
TORSDOF 8
ENDMDL
