MODEL 1
REMARK VINA RESULT: -8.051449189      0.000      0.000
REMARK  12 active torsions:
REMARK  status: ('A' for Active; 'I' for Inactive)
REMARK    1  A    between atoms: C6_8  and  N2_9 
REMARK    2  A    between atoms: N2_9  and  C7_11 
REMARK    3  A    between atoms: C7_11  and  C8_12 
REMARK    4  A    between atoms: C8_12  and  C9_14 
REMARK    5  A    between atoms: C9_14  and  N3_15 
REMARK    6  A    between atoms: C9_14  and  C18_28 
REMARK       I    between atoms: N3_15  and  C10_16 
REMARK    7  A    between atoms: C10_16  and  C11_18 
REMARK    8  A    between atoms: C11_18  and  C13_21 
REMARK    9  A    between atoms: C13_21  and  C14_22 
REMARK   10  A    between atoms: C18_28  and  C19_30 
REMARK       I    between atoms: C19_30  and  N4_32 
REMARK   11  A    between atoms: N4_32  and  C20_34 
REMARK   12  A    between atoms: C20_34  and  C21_35 
ROOT
HETATM    1  C9  UNL     1      14.186   5.053  15.012  1.00  0.00     0.213 C 
ENDROOT
BRANCH   1   2
HETATM    2  C8  UNL     1      14.356   3.620  15.368  1.00  0.00     0.212 C 
HETATM    3  O1  UNL     1      14.604   3.283  16.542  1.00  0.00    -0.288 OA
BRANCH   2   4
HETATM    4  C7  UNL     1      14.233   2.590  14.325  1.00  0.00     0.224 C 
BRANCH   4   5
HETATM    5  N2  UNL     1      12.959   2.616  13.683  1.00  0.00    -0.219 N 
ATOM      6  H2  UNL     1      12.682   3.453  13.169  1.00  0.00     0.178 HD
BRANCH   5   7
HETATM    7  C6  UNL     1      12.153   1.623  13.732  1.00  0.00     0.678 A 
HETATM    8  N1  UNL     1      12.451   0.554  14.469  1.00  0.00    -0.196 N 
HETATM    9  C4  UNL     1      11.557  -0.469  14.495  1.00  0.00     0.024 A 
ATOM     10  H1  UNL     1      13.323   0.505  14.997  1.00  0.00     0.184 HD
HETATM   11  C3  UNL     1      10.381  -0.425  13.793  1.00  0.00     0.050 A 
HETATM   12  C5  UNL     1      11.874  -1.673  15.314  1.00  0.00     0.068 C 
HETATM   13  C2  UNL     1      10.136   0.706  13.054  1.00  0.00     0.024 A 
HETATM   14  C1  UNL     1       8.857   0.768  12.286  1.00  0.00     0.068 C 
HETATM   15  N6  UNL     1      11.000   1.719  13.016  1.00  0.00    -0.196 N 
ATOM     16  H6  UNL     1      10.800   2.552  12.461  1.00  0.00     0.184 HD
ENDBRANCH   5   7
ENDBRANCH   4   5
ENDBRANCH   2   4
ENDBRANCH   1   2
BRANCH   1  17
HETATM   17  N3  UNL     1      14.995   5.561  14.288  1.00  0.00    -0.360 NA
HETATM   18  C10 UNL     1      16.049   5.894  13.560  1.00  0.00     0.332 C 
HETATM   19  O2  UNL     1      17.097   6.415  14.123  1.00  0.00    -0.253 OA
BRANCH  18  20
HETATM   20  C11 UNL     1      16.182   5.732  12.073  1.00  0.00     0.198 C 
HETATM   21  C12 UNL     1      15.278   4.693  11.503  1.00  0.00     0.064 C 
HETATM   22  F1  UNL     1      17.476   5.419  11.747  1.00  0.00    -0.231 F 
BRANCH  20  23
HETATM   23  C13 UNL     1      15.899   7.073  11.389  1.00  0.00     0.100 C 
BRANCH  23  24
HETATM   24  C14 UNL     1      14.584   7.558  11.907  1.00  0.00    -0.013 A 
HETATM   25  C15 UNL     1      14.327   8.518  12.853  1.00  0.00     0.034 A 
HETATM   26  C16 UNL     1      13.063   8.778  13.150  1.00  0.00     0.018 A 
HETATM   27 BR1  UNL     1      12.509  10.102  14.459  1.00  0.00    -0.051 Br
HETATM   28  C17 UNL     1      12.095   8.072  12.493  1.00  0.00     0.069 A 
HETATM   29  S1  UNL     1      13.001   7.046  11.462  1.00  0.00    -0.105 SA
ENDBRANCH  23  24
ENDBRANCH  20  23
ENDBRANCH  18  20
ENDBRANCH   1  17
BRANCH   1  30
HETATM   30  C18 UNL     1      13.029   5.721  15.573  1.00  0.00     0.283 C 
HETATM   31  O3  UNL     1      11.879   5.237  15.304  1.00  0.00    -0.279 OA
BRANCH  30  32
HETATM   32  C19 UNL     1      13.055   6.896  16.417  1.00  0.00     0.295 C 
HETATM   33  O4  UNL     1      14.075   7.571  16.684  1.00  0.00    -0.264 OA
HETATM   34  N4  UNL     1      11.846   7.393  17.038  1.00  0.00    -0.350 N 
ATOM     35  H4  UNL     1      10.973   6.895  16.865  1.00  0.00     0.163 HD
BRANCH  34  36
HETATM   36  C20 UNL     1      11.814   8.547  17.881  1.00  0.00     0.162 C 
BRANCH  36  37
HETATM   37  C21 UNL     1      10.451   9.163  17.897  1.00  0.00    -0.025 A 
HETATM   38  C22 UNL     1      10.058  10.082  18.840  1.00  0.00     0.011 A 
HETATM   39  C23 UNL     1       8.795  10.629  18.832  1.00  0.00     0.018 A 
HETATM   40  C24 UNL     1       7.920  10.243  17.857  1.00  0.00     0.087 A 
HETATM   41  N5  UNL     1       8.285   9.349  16.931  1.00  0.00    -0.375 N 
HETATM   42  C25 UNL     1       9.531   8.800  16.928  1.00  0.00     0.096 A 
ATOM     43  H5  UNL     1       7.617   9.073  16.212  1.00  0.00     0.164 HD
ENDBRANCH  36  37
ENDBRANCH  34  36
ENDBRANCH  30  32
ENDBRANCH   1  30
TORSDOF 12
ENDMDL
MODEL 2
REMARK VINA RESULT: -7.998979949      3.251      5.280
REMARK  12 active torsions:
REMARK  status: ('A' for Active; 'I' for Inactive)
REMARK    1  A    between atoms: C6_8  and  N2_9 
REMARK    2  A    between atoms: N2_9  and  C7_11 
REMARK    3  A    between atoms: C7_11  and  C8_12 
REMARK    4  A    between atoms: C8_12  and  C9_14 
REMARK    5  A    between atoms: C9_14  and  N3_15 
REMARK    6  A    between atoms: C9_14  and  C18_28 
REMARK       I    between atoms: N3_15  and  C10_16 
REMARK    7  A    between atoms: C10_16  and  C11_18 
REMARK    8  A    between atoms: C11_18  and  C13_21 
REMARK    9  A    between atoms: C13_21  and  C14_22 
REMARK   10  A    between atoms: C18_28  and  C19_30 
REMARK       I    between atoms: C19_30  and  N4_32 
REMARK   11  A    between atoms: N4_32  and  C20_34 
REMARK   12  A    between atoms: C20_34  and  C21_35 
ROOT
HETATM    1  C9  UNL     1      13.875   4.911  14.577  1.00  0.00     0.213 C 
ENDROOT
BRANCH   1   2
HETATM    2  C8  UNL     1      13.614   3.464  14.361  1.00  0.00     0.212 C 
HETATM    3  O1  UNL     1      12.989   3.074  13.356  1.00  0.00    -0.288 OA
BRANCH   2   4
HETATM    4  C7  UNL     1      14.098   2.481  15.344  1.00  0.00     0.224 C 
BRANCH   4   5
HETATM    5  N2  UNL     1      15.467   2.136  15.139  1.00  0.00    -0.219 N 
ATOM      6  H2  UNL     1      15.798   1.970  14.188  1.00  0.00     0.178 HD
BRANCH   5   7
HETATM    7  C6  UNL     1      16.294   2.029  16.110  1.00  0.00     0.678 A 
HETATM    8  N1  UNL     1      16.346   2.971  17.052  1.00  0.00    -0.196 N 
HETATM    9  C4  UNL     1      17.234   2.804  18.067  1.00  0.00     0.024 A 
ATOM     10  H1  UNL     1      15.740   3.790  17.012  1.00  0.00     0.184 HD
HETATM   11  C3  UNL     1      18.060   1.712  18.140  1.00  0.00     0.050 A 
HETATM   12  C5  UNL     1      17.308   3.847  19.129  1.00  0.00     0.068 C 
HETATM   13  C2  UNL     1      17.954   0.781  17.137  1.00  0.00     0.024 A 
HETATM   14  C1  UNL     1      18.845  -0.415  17.206  1.00  0.00     0.068 C 
HETATM   15  N6  UNL     1      17.089   0.926  16.134  1.00  0.00    -0.196 N 
ATOM     16  H6  UNL     1      17.025   0.223  15.398  1.00  0.00     0.184 HD
ENDBRANCH   5   7
ENDBRANCH   4   5
ENDBRANCH   2   4
ENDBRANCH   1   2
BRANCH   1  17
HETATM   17  N3  UNL     1      14.770   5.426  13.969  1.00  0.00    -0.360 NA
HETATM   18  C10 UNL     1      15.904   5.760  13.376  1.00  0.00     0.332 C 
HETATM   19  O2  UNL     1      16.896   6.229  14.072  1.00  0.00    -0.253 OA
BRANCH  18  20
HETATM   20  C11 UNL     1      16.197   5.658  11.906  1.00  0.00     0.198 C 
HETATM   21  C12 UNL     1      15.407   4.600  11.214  1.00  0.00     0.064 C 
HETATM   22  F1  UNL     1      17.531   5.416  11.706  1.00  0.00    -0.231 F 
BRANCH  20  23
HETATM   23  C13 UNL     1      15.919   7.009  11.238  1.00  0.00     0.100 C 
BRANCH  23  24
HETATM   24  C14 UNL     1      14.617   7.503  11.778  1.00  0.00    -0.013 A 
HETATM   25  C15 UNL     1      14.383   8.422  12.769  1.00  0.00     0.034 A 
HETATM   26  C16 UNL     1      13.126   8.702  13.077  1.00  0.00     0.018 A 
HETATM   27 BR1  UNL     1      12.605   9.974  14.450  1.00  0.00    -0.051 Br
HETATM   28  C17 UNL     1      12.140   8.055  12.386  1.00  0.00     0.069 A 
HETATM   29  S1  UNL     1      13.022   7.057  11.306  1.00  0.00    -0.105 SA
ENDBRANCH  23  24
ENDBRANCH  20  23
ENDBRANCH  18  20
ENDBRANCH   1  17
BRANCH   1  30
HETATM   30  C18 UNL     1      13.000   5.588  15.513  1.00  0.00     0.283 C 
HETATM   31  O3  UNL     1      11.799   5.167  15.610  1.00  0.00    -0.279 OA
BRANCH  30  32
HETATM   32  C19 UNL     1      13.363   6.706  16.355  1.00  0.00     0.295 C 
HETATM   33  O4  UNL     1      12.620   7.238  17.211  1.00  0.00    -0.264 OA
HETATM   34  N4  UNL     1      14.673   7.316  16.260  1.00  0.00    -0.350 N 
ATOM     35  H4  UNL     1      15.335   6.935  15.584  1.00  0.00     0.163 HD
BRANCH  34  36
HETATM   36  C20 UNL     1      15.084   8.423  17.065  1.00  0.00     0.162 C 
BRANCH  36  37
HETATM   37  C21 UNL     1      16.452   8.199  17.629  1.00  0.00    -0.025 A 
HETATM   38  C22 UNL     1      17.316   7.250  17.137  1.00  0.00     0.011 A 
HETATM   39  C23 UNL     1      18.567   7.064  17.678  1.00  0.00     0.018 A 
HETATM   40  C24 UNL     1      18.949   7.848  18.730  1.00  0.00     0.087 A 
HETATM   41  N5  UNL     1      18.121   8.777  19.221  1.00  0.00    -0.375 N 
HETATM   42  C25 UNL     1      16.881   8.971  18.695  1.00  0.00     0.096 A 
ATOM     43  H5  UNL     1      18.426   9.352  20.006  1.00  0.00     0.164 HD
ENDBRANCH  36  37
ENDBRANCH  34  36
ENDBRANCH  30  32
ENDBRANCH   1  30
TORSDOF 12
ENDMDL
MODEL 3
REMARK VINA RESULT: -7.995590685      2.631      4.116
REMARK  12 active torsions:
REMARK  status: ('A' for Active; 'I' for Inactive)
REMARK    1  A    between atoms: C6_8  and  N2_9 
REMARK    2  A    between atoms: N2_9  and  C7_11 
REMARK    3  A    between atoms: C7_11  and  C8_12 
REMARK    4  A    between atoms: C8_12  and  C9_14 
REMARK    5  A    between atoms: C9_14  and  N3_15 
REMARK    6  A    between atoms: C9_14  and  C18_28 
REMARK       I    between atoms: N3_15  and  C10_16 
REMARK    7  A    between atoms: C10_16  and  C11_18 
REMARK    8  A    between atoms: C11_18  and  C13_21 
REMARK    9  A    between atoms: C13_21  and  C14_22 
REMARK   10  A    between atoms: C18_28  and  C19_30 
REMARK       I    between atoms: C19_30  and  N4_32 
REMARK   11  A    between atoms: N4_32  and  C20_34 
REMARK   12  A    between atoms: C20_34  and  C21_35 
ROOT
HETATM    1  C9  UNL     1      14.597   4.979  12.420  1.00  0.00     0.213 C 
ENDROOT
BRANCH   1   2
HETATM    2  C8  UNL     1      13.994   3.623  12.505  1.00  0.00     0.212 C 
HETATM    3  O1  UNL     1      13.403   3.128  11.525  1.00  0.00    -0.288 OA
BRANCH   2   4
HETATM    4  C7  UNL     1      14.093   2.858  13.758  1.00  0.00     0.224 C 
BRANCH   4   5
HETATM    5  N2  UNL     1      12.821   2.650  14.369  1.00  0.00    -0.219 N 
ATOM      6  H2  UNL     1      12.444   3.373  14.982  1.00  0.00     0.178 HD
BRANCH   5   7
HETATM    7  C6  UNL     1      12.138   1.585  14.172  1.00  0.00     0.678 A 
HETATM    8  N1  UNL     1      11.182   1.565  13.245  1.00  0.00    -0.196 N 
HETATM    9  C4  UNL     1      10.493   0.407  13.069  1.00  0.00     0.024 A 
ATOM     10  H1  UNL     1      10.973   2.392  12.685  1.00  0.00     0.184 HD
HETATM   11  C3  UNL     1      10.755  -0.716  13.810  1.00  0.00     0.050 A 
HETATM   12  C5  UNL     1       9.419   0.366  12.036  1.00  0.00     0.068 C 
HETATM   13  C2  UNL     1      11.753  -0.626  14.748  1.00  0.00     0.024 A 
HETATM   14  C1  UNL     1      12.051  -1.842  15.561  1.00  0.00     0.068 C 
HETATM   15  N6  UNL     1      12.440   0.500  14.936  1.00  0.00    -0.196 N 
ATOM     16  H6  UNL     1      13.178   0.548  15.638  1.00  0.00     0.184 HD
ENDBRANCH   5   7
ENDBRANCH   4   5
ENDBRANCH   2   4
ENDBRANCH   1   2
BRANCH   1  17
HETATM   17  N3  UNL     1      15.376   5.310  13.269  1.00  0.00    -0.360 NA
HETATM   18  C10 UNL     1      16.198   5.937  14.093  1.00  0.00     0.332 C 
HETATM   19  O2  UNL     1      17.388   6.281  13.699  1.00  0.00    -0.253 OA
BRANCH  18  20
HETATM   20  C11 UNL     1      15.902   6.319  15.515  1.00  0.00     0.198 C 
HETATM   21  C12 UNL     1      17.095   6.813  16.261  1.00  0.00     0.064 C 
HETATM   22  F1  UNL     1      15.370   5.252  16.190  1.00  0.00    -0.231 F 
BRANCH  20  23
HETATM   23  C13 UNL     1      14.816   7.401  15.535  1.00  0.00     0.100 C 
BRANCH  23  24
HETATM   24  C14 UNL     1      13.662   6.845  16.303  1.00  0.00    -0.013 A 
HETATM   25  C15 UNL     1      12.660   6.010  15.878  1.00  0.00     0.034 A 
HETATM   26  C16 UNL     1      11.736   5.648  16.755  1.00  0.00     0.018 A 
HETATM   27 BR1  UNL     1      10.246   4.474  16.333  1.00  0.00    -0.051 Br
HETATM   28  C17 UNL     1      11.840   6.130  18.029  1.00  0.00     0.069 A 
HETATM   29  S1  UNL     1      13.256   7.094  17.959  1.00  0.00    -0.105 SA
ENDBRANCH  23  24
ENDBRANCH  20  23
ENDBRANCH  18  20
ENDBRANCH   1  17
BRANCH   1  30
HETATM   30  C18 UNL     1      14.191   5.793  11.292  1.00  0.00     0.283 C 
HETATM   31  O3  UNL     1      14.849   5.666  10.205  1.00  0.00    -0.279 OA
BRANCH  30  32
HETATM   32  C19 UNL     1      13.102   6.744  11.282  1.00  0.00     0.295 C 
HETATM   33  O4  UNL     1      12.424   7.056  10.276  1.00  0.00    -0.264 OA
HETATM   34  N4  UNL     1      12.704   7.433  12.490  1.00  0.00    -0.350 N 
ATOM     35  H4  UNL     1      13.210   7.230  13.352  1.00  0.00     0.163 HD
BRANCH  34  36
HETATM   36  C20 UNL     1      11.637   8.383  12.537  1.00  0.00     0.162 C 
BRANCH  36  37
HETATM   37  C21 UNL     1      11.488   8.956  13.912  1.00  0.00    -0.025 A 
HETATM   38  C22 UNL     1      12.327   9.922  14.413  1.00  0.00     0.011 A 
HETATM   39  C23 UNL     1      12.167  10.427  15.683  1.00  0.00     0.018 A 
HETATM   40  C24 UNL     1      11.146   9.951  16.455  1.00  0.00     0.087 A 
HETATM   41  N5  UNL     1      10.319   9.010  15.983  1.00  0.00    -0.375 N 
HETATM   42  C25 UNL     1      10.466   8.502  14.729  1.00  0.00     0.096 A 
ATOM     43  H5  UNL     1       9.562   8.668  16.575  1.00  0.00     0.164 HD
ENDBRANCH  36  37
ENDBRANCH  34  36
ENDBRANCH  30  32
ENDBRANCH   1  30
TORSDOF 12
ENDMDL
MODEL 4
REMARK VINA RESULT: -7.828461009      3.571      6.259
REMARK  12 active torsions:
REMARK  status: ('A' for Active; 'I' for Inactive)
REMARK    1  A    between atoms: C6_8  and  N2_9 
REMARK    2  A    between atoms: N2_9  and  C7_11 
REMARK    3  A    between atoms: C7_11  and  C8_12 
REMARK    4  A    between atoms: C8_12  and  C9_14 
REMARK    5  A    between atoms: C9_14  and  N3_15 
REMARK    6  A    between atoms: C9_14  and  C18_28 
REMARK       I    between atoms: N3_15  and  C10_16 
REMARK    7  A    between atoms: C10_16  and  C11_18 
REMARK    8  A    between atoms: C11_18  and  C13_21 
REMARK    9  A    between atoms: C13_21  and  C14_22 
REMARK   10  A    between atoms: C18_28  and  C19_30 
REMARK       I    between atoms: C19_30  and  N4_32 
REMARK   11  A    between atoms: N4_32  and  C20_34 
REMARK   12  A    between atoms: C20_34  and  C21_35 
ROOT
HETATM    1  C9  UNL     1      11.969   7.550  15.754  1.00  0.00     0.213 C 
ENDROOT
BRANCH   1   2
HETATM    2  C8  UNL     1      11.152   7.823  16.965  1.00  0.00     0.212 C 
HETATM    3  O1  UNL     1      11.516   8.677  17.798  1.00  0.00    -0.288 OA
BRANCH   2   4
HETATM    4  C7  UNL     1       9.902   7.079  17.186  1.00  0.00     0.224 C 
BRANCH   4   5
HETATM    5  N2  UNL     1       9.521   6.308  16.048  1.00  0.00    -0.219 N 
ATOM      6  H2  UNL     1       9.434   6.772  15.143  1.00  0.00     0.178 HD
BRANCH   5   7
HETATM    7  C6  UNL     1       9.285   5.052  16.125  1.00  0.00     0.678 A 
HETATM    8  N1  UNL     1      10.249   4.172  15.856  1.00  0.00    -0.196 N 
HETATM    9  C4  UNL     1       9.948   2.851  15.963  1.00  0.00     0.024 A 
ATOM     10  H1  UNL     1      11.181   4.480  15.579  1.00  0.00     0.184 HD
HETATM   11  C3  UNL     1       8.703   2.415  16.333  1.00  0.00     0.050 A 
HETATM   12  C5  UNL     1      11.014   1.852  15.666  1.00  0.00     0.068 C 
HETATM   13  C2  UNL     1       7.758   3.375  16.595  1.00  0.00     0.024 A 
HETATM   14  C1  UNL     1       6.397   2.914  17.002  1.00  0.00     0.068 C 
HETATM   15  N6  UNL     1       8.032   4.674  16.497  1.00  0.00    -0.196 N 
ATOM     16  H6  UNL     1       7.316   5.373  16.696  1.00  0.00     0.184 HD
ENDBRANCH   5   7
ENDBRANCH   4   5
ENDBRANCH   2   4
ENDBRANCH   1   2
BRANCH   1  17
HETATM   17  N3  UNL     1      12.660   6.571  15.742  1.00  0.00    -0.360 NA
HETATM   18  C10 UNL     1      13.452   5.552  15.450  1.00  0.00     0.332 C 
HETATM   19  O2  UNL     1      12.978   4.505  14.844  1.00  0.00    -0.253 OA
BRANCH  18  20
HETATM   20  C11 UNL     1      14.919   5.458  15.755  1.00  0.00     0.198 C 
HETATM   21  C12 UNL     1      15.577   4.262  15.156  1.00  0.00     0.064 C 
HETATM   22  F1  UNL     1      15.119   5.440  17.111  1.00  0.00    -0.231 F 
BRANCH  20  23
HETATM   23  C13 UNL     1      15.624   6.722  15.253  1.00  0.00     0.100 C 
BRANCH  23  24
HETATM   24  C14 UNL     1      16.395   7.278  16.406  1.00  0.00    -0.013 A 
HETATM   25  C15 UNL     1      17.682   7.011  16.796  1.00  0.00     0.034 A 
HETATM   26  C16 UNL     1      18.154   7.635  17.865  1.00  0.00     0.018 A 
HETATM   27 BR1  UNL     1      19.949   7.383  18.563  1.00  0.00    -0.051 Br
HETATM   28  C17 UNL     1      17.324   8.508  18.511  1.00  0.00     0.069 A 
HETATM   29  S1  UNL     1      15.884   8.425  17.584  1.00  0.00    -0.105 SA
ENDBRANCH  23  24
ENDBRANCH  20  23
ENDBRANCH  18  20
ENDBRANCH   1  17
BRANCH   1  30
HETATM   30  C18 UNL     1      11.847   8.503  14.669  1.00  0.00     0.283 C 
HETATM   31  O3  UNL     1      10.986   9.437  14.797  1.00  0.00    -0.279 OA
BRANCH  30  32
HETATM   32  C19 UNL     1      12.616   8.495  13.445  1.00  0.00     0.295 C 
HETATM   33  O4  UNL     1      13.462   9.359  13.116  1.00  0.00    -0.264 OA
HETATM   34  N4  UNL     1      12.452   7.439  12.469  1.00  0.00    -0.350 N 
ATOM     35  H4  UNL     1      11.781   6.697  12.667  1.00  0.00     0.163 HD
BRANCH  34  36
HETATM   36  C20 UNL     1      13.184   7.382  11.243  1.00  0.00     0.162 C 
BRANCH  36  37
HETATM   37  C21 UNL     1      14.324   6.417  11.340  1.00  0.00    -0.025 A 
HETATM   38  C22 UNL     1      15.594   6.797  11.702  1.00  0.00     0.011 A 
HETATM   39  C23 UNL     1      16.624   5.887  11.779  1.00  0.00     0.018 A 
HETATM   40  C24 UNL     1      16.365   4.578  11.489  1.00  0.00     0.087 A 
HETATM   41  N5  UNL     1      15.134   4.190  11.136  1.00  0.00    -0.375 N 
HETATM   42  C25 UNL     1      14.106   5.080  11.054  1.00  0.00     0.096 A 
ATOM     43  H5  UNL     1      14.961   3.208  10.923  1.00  0.00     0.164 HD
ENDBRANCH  36  37
ENDBRANCH  34  36
ENDBRANCH  30  32
ENDBRANCH   1  30
TORSDOF 12
ENDMDL
MODEL 5
REMARK VINA RESULT: -7.819524632      3.838      8.016
REMARK  12 active torsions:
REMARK  status: ('A' for Active; 'I' for Inactive)
REMARK    1  A    between atoms: C6_8  and  N2_9 
REMARK    2  A    between atoms: N2_9  and  C7_11 
REMARK    3  A    between atoms: C7_11  and  C8_12 
REMARK    4  A    between atoms: C8_12  and  C9_14 
REMARK    5  A    between atoms: C9_14  and  N3_15 
REMARK    6  A    between atoms: C9_14  and  C18_28 
REMARK       I    between atoms: N3_15  and  C10_16 
REMARK    7  A    between atoms: C10_16  and  C11_18 
REMARK    8  A    between atoms: C11_18  and  C13_21 
REMARK    9  A    between atoms: C13_21  and  C14_22 
REMARK   10  A    between atoms: C18_28  and  C19_30 
REMARK       I    between atoms: C19_30  and  N4_32 
REMARK   11  A    between atoms: N4_32  and  C20_34 
REMARK   12  A    between atoms: C20_34  and  C21_35 
ROOT
HETATM    1  C9  UNL     1      11.504   7.238  15.264  1.00  0.00     0.213 C 
ENDROOT
BRANCH   1   2
HETATM    2  C8  UNL     1      10.127   7.209  15.823  1.00  0.00     0.212 C 
HETATM    3  O1  UNL     1       9.135   7.252  15.070  1.00  0.00    -0.288 OA
BRANCH   2   4
HETATM    4  C7  UNL     1       9.932   7.129  17.280  1.00  0.00     0.224 C 
BRANCH   4   5
HETATM    5  N2  UNL     1      11.051   7.634  18.006  1.00  0.00    -0.219 N 
ATOM      6  H2  UNL     1      11.785   6.988  18.296  1.00  0.00     0.178 HD
BRANCH   5   7
HETATM    7  C6  UNL     1      11.164   8.874  18.303  1.00  0.00     0.678 A 
HETATM    8  N1  UNL     1      12.197   9.581  17.847  1.00  0.00    -0.196 N 
HETATM    9  C4  UNL     1      12.264  10.896  18.185  1.00  0.00     0.024 A 
ATOM     10  H1  UNL     1      12.914   9.150  17.264  1.00  0.00     0.184 HD
HETATM   11  C3  UNL     1      11.313  11.496  18.968  1.00  0.00     0.050 A 
HETATM   12  C5  UNL     1      13.414  11.703  17.684  1.00  0.00     0.068 C 
HETATM   13  C2  UNL     1      10.276  10.710  19.404  1.00  0.00     0.024 A 
HETATM   14  C1  UNL     1       9.231  11.352  20.255  1.00  0.00     0.068 C 
HETATM   15  N6  UNL     1      10.192   9.420  19.084  1.00  0.00    -0.196 N 
ATOM     16  H6  UNL     1       9.413   8.852  19.417  1.00  0.00     0.184 HD
ENDBRANCH   5   7
ENDBRANCH   4   5
ENDBRANCH   2   4
ENDBRANCH   1   2
BRANCH   1  17
HETATM   17  N3  UNL     1      12.230   6.312  15.490  1.00  0.00    -0.360 NA
HETATM   18  C10 UNL     1      13.050   5.274  15.453  1.00  0.00     0.332 C 
HETATM   19  O2  UNL     1      12.597   4.089  15.172  1.00  0.00    -0.253 OA
BRANCH  18  20
HETATM   20  C11 UNL     1      14.529   5.307  15.714  1.00  0.00     0.198 C 
HETATM   21  C12 UNL     1      15.267   4.166  15.101  1.00  0.00     0.064 C 
HETATM   22  F1  UNL     1      14.769   5.316  17.063  1.00  0.00    -0.231 F 
BRANCH  20  23
HETATM   23  C13 UNL     1      15.109   6.622  15.184  1.00  0.00     0.100 C 
BRANCH  23  24
HETATM   24  C14 UNL     1      15.988   7.175  16.259  1.00  0.00    -0.013 A 
HETATM   25  C15 UNL     1      17.297   6.881  16.543  1.00  0.00     0.034 A 
HETATM   26  C16 UNL     1      17.871   7.509  17.559  1.00  0.00     0.018 A 
HETATM   27 BR1  UNL     1      19.713   7.222  18.106  1.00  0.00    -0.051 Br
HETATM   28  C17 UNL     1      17.120   8.410  18.259  1.00  0.00     0.069 A 
HETATM   29  S1  UNL     1      15.605   8.350  17.459  1.00  0.00    -0.105 SA
ENDBRANCH  23  24
ENDBRANCH  20  23
ENDBRANCH  18  20
ENDBRANCH   1  17
BRANCH   1  30
HETATM   30  C18 UNL     1      11.851   8.401  14.472  1.00  0.00     0.283 C 
HETATM   31  O3  UNL     1      11.409   9.533  14.861  1.00  0.00    -0.279 OA
BRANCH  30  32
HETATM   32  C19 UNL     1      12.658   8.399  13.272  1.00  0.00     0.295 C 
HETATM   33  O4  UNL     1      13.518   9.260  12.978  1.00  0.00    -0.264 OA
HETATM   34  N4  UNL     1      12.518   7.351  12.283  1.00  0.00    -0.350 N 
ATOM     35  H4  UNL     1      11.837   6.612  12.454  1.00  0.00     0.163 HD
BRANCH  34  36
HETATM   36  C20 UNL     1      13.287   7.301  11.080  1.00  0.00     0.162 C 
BRANCH  36  37
HETATM   37  C21 UNL     1      14.405   6.312  11.197  1.00  0.00    -0.025 A 
HETATM   38  C22 UNL     1      14.274   4.991  10.843  1.00  0.00     0.011 A 
HETATM   39  C23 UNL     1      15.318   4.104  10.967  1.00  0.00     0.018 A 
HETATM   40  C24 UNL     1      16.511   4.560  11.453  1.00  0.00     0.087 A 
HETATM   41  N5  UNL     1      16.657   5.843  11.802  1.00  0.00    -0.375 N 
HETATM   42  C25 UNL     1      15.631   6.731  11.685  1.00  0.00     0.096 A 
ATOM     43  H5  UNL     1      17.556   6.164  12.162  1.00  0.00     0.164 HD
ENDBRANCH  36  37
ENDBRANCH  34  36
ENDBRANCH  30  32
ENDBRANCH   1  30
TORSDOF 12
ENDMDL
