MODEL 1
REMARK VINA RESULT: -6.706743133      0.000      0.000
REMARK  12 active torsions:
REMARK  status: ('A' for Active; 'I' for Inactive)
REMARK    1  A    between atoms: C2_2  and  C4_4 
REMARK    2  A    between atoms: C4_4  and  N1_5 
REMARK    3  A    between atoms: C4_4  and  C9_12 
REMARK       I    between atoms: N1_5  and  C5_7 
REMARK    4  A    between atoms: C5_7  and  C6_9 
REMARK       I    between atoms: C9_12  and  N2_14 
REMARK       I    between atoms: N3_17  and  C12_18 
REMARK    5  A    between atoms: C12_18  and  O4_20 
REMARK    6  A    between atoms: O4_20  and  C13_21 
REMARK    7  A    between atoms: C13_21  and  C14_22 
REMARK    8  A    between atoms: C16_27  and  C17_28 
REMARK       I    between atoms: C17_28  and  N6_30 
REMARK    9  A    between atoms: N6_30  and  C18_32 
REMARK   10  A    between atoms: C18_32  and  C21_35 
REMARK   11  A    between atoms: C21_35  and  O6_36 
REMARK   12  A    between atoms: O6_36  and  C22_37 
ROOT
HETATM    1  O4  UNL     1      17.550   4.466  18.802  1.00  0.00    -0.298 OA
ENDROOT
BRANCH   1   2
HETATM    2  C12 UNL     1      17.198   3.399  18.087  1.00  0.00     0.366 C 
HETATM    3  N3  UNL     1      15.977   3.336  17.369  1.00  0.00    -0.304 N 
HETATM    4  C11 UNL     1      15.223   4.603  17.215  1.00  0.00     0.153 C 
HETATM    5  C27 UNL     1      15.370   2.187  16.837  1.00  0.00     0.089 C 
HETATM    6  C10 UNL     1      15.354   4.806  15.657  1.00  0.00     0.146 C 
HETATM    7  N2  UNL     1      14.585   3.739  15.059  1.00  0.00    -0.344 N 
HETATM    8  C9  UNL     1      14.073   3.901  13.737  1.00  0.00     0.243 C 
HETATM    9  C28 UNL     1      14.392   2.486  15.716  1.00  0.00     0.170 C 
HETATM   10  O2  UNL     1      13.232   3.120  13.284  1.00  0.00    -0.271 OA
HETATM   11  O3  UNL     1      18.039   2.442  18.118  1.00  0.00    -0.238 OA
BRANCH   8  12
HETATM   12  C4  UNL     1      14.598   5.041  12.891  1.00  0.00     0.180 C 
BRANCH  12  13
HETATM   13  C2  UNL     1      15.107   4.381  11.603  1.00  0.00     0.009 C 
HETATM   14  C1  UNL     1      16.592   4.461  11.560  1.00  0.00     0.012 C 
HETATM   15  C3  UNL     1      14.496   5.089  10.408  1.00  0.00     0.012 C 
ENDBRANCH  12  13
BRANCH  12  16
HETATM   16  N1  UNL     1      13.698   6.107  12.673  1.00  0.00    -0.347 N 
HETATM   17  C5  UNL     1      13.895   7.454  13.016  1.00  0.00     0.222 C 
HETATM   18  O1  UNL     1      14.913   7.866  13.646  1.00  0.00    -0.273 OA
ATOM     19  H1  UNL     1      12.815   5.875  12.218  1.00  0.00     0.163 HD
BRANCH  17  20
HETATM   20  C6  UNL     1      12.883   8.491  12.642  1.00  0.00     0.078 A 
HETATM   21  C7  UNL     1      12.236   9.364  13.605  1.00  0.00     0.015 A 
HETATM   22  C8  UNL     1      11.437   8.213  13.036  1.00  0.00     0.015 A 
ENDBRANCH  17  20
ENDBRANCH  12  16
ENDBRANCH   8  12
ENDBRANCH   1   2
BRANCH   1  23
HETATM   23  C13 UNL     1      18.200   5.598  18.967  1.00  0.00     0.241 C 
BRANCH  23  24
HETATM   24  C14 UNL     1      17.349   6.778  19.385  1.00  0.00     0.074 A 
HETATM   25  N4  UNL     1      17.046   7.111  20.654  1.00  0.00    -0.299 N 
HETATM   26  N5  UNL     1      16.403   8.292  20.655  1.00  0.00    -0.290 N 
ATOM     27  H4  UNL     1      17.268   6.557  21.482  1.00  0.00     0.187 HD
HETATM   28  C15 UNL     1      16.029   9.000  21.842  1.00  0.00     0.178 C 
HETATM   29  C16 UNL     1      16.286   8.711  19.391  1.00  0.00     0.142 A 
HETATM   30  C26 UNL     1      16.892   7.772  18.551  1.00  0.00     0.094 A 
HETATM   31 CL1  UNL     1      17.092   7.792  16.822  1.00  0.00    -0.079 Cl
BRANCH  29  32
HETATM   32  C17 UNL     1      15.425   9.750  18.809  1.00  0.00     0.272 C 
HETATM   33  O5  UNL     1      15.938  10.786  18.288  1.00  0.00    -0.266 OA
HETATM   34  N6  UNL     1      14.032   9.568  18.813  1.00  0.00    -0.345 N 
ATOM     35  H6  UNL     1      13.702   8.728  19.289  1.00  0.00     0.163 HD
BRANCH  34  36
HETATM   36  C18 UNL     1      13.036  10.372  18.260  1.00  0.00     0.047 C 
HETATM   37  C19 UNL     1      13.024  11.763  18.914  1.00  0.00     0.040 C 
HETATM   38  C20 UNL     1      13.389  10.670  16.777  1.00  0.00     0.040 C 
BRANCH  36  39
HETATM   39  C21 UNL     1      11.611   9.827  18.285  1.00  0.00     0.199 C 
BRANCH  39  40
HETATM   40  O6  UNL     1      11.347   9.303  17.060  1.00  0.00    -0.379 OA
BRANCH  40  41
HETATM   41  C22 UNL     1      10.230   8.607  16.800  1.00  0.00     0.050 C 
HETATM   42  C23 UNL     1      10.418   7.123  16.487  1.00  0.00     0.045 C 
HETATM   43  C24 UNL     1       9.223   9.221  15.875  1.00  0.00     0.045 C 
HETATM   44  C25 UNL     1       9.484   8.545  18.179  1.00  0.00     0.045 C 
ENDBRANCH  40  41
ENDBRANCH  39  40
ENDBRANCH  36  39
ENDBRANCH  34  36
ENDBRANCH  29  32
ENDBRANCH  23  24
ENDBRANCH   1  23
TORSDOF 12
ENDMDL
MODEL 2
REMARK VINA RESULT: -6.625663326      3.501      5.992
REMARK  12 active torsions:
REMARK  status: ('A' for Active; 'I' for Inactive)
REMARK    1  A    between atoms: C2_2  and  C4_4 
REMARK    2  A    between atoms: C4_4  and  N1_5 
REMARK    3  A    between atoms: C4_4  and  C9_12 
REMARK       I    between atoms: N1_5  and  C5_7 
REMARK    4  A    between atoms: C5_7  and  C6_9 
REMARK       I    between atoms: C9_12  and  N2_14 
REMARK       I    between atoms: N3_17  and  C12_18 
REMARK    5  A    between atoms: C12_18  and  O4_20 
REMARK    6  A    between atoms: O4_20  and  C13_21 
REMARK    7  A    between atoms: C13_21  and  C14_22 
REMARK    8  A    between atoms: C16_27  and  C17_28 
REMARK       I    between atoms: C17_28  and  N6_30 
REMARK    9  A    between atoms: N6_30  and  C18_32 
REMARK   10  A    between atoms: C18_32  and  C21_35 
REMARK   11  A    between atoms: C21_35  and  O6_36 
REMARK   12  A    between atoms: O6_36  and  C22_37 
ROOT
HETATM    1  O4  UNL     1       8.383   4.488  18.591  1.00  0.00    -0.298 OA
ENDROOT
BRANCH   1   2
HETATM    2  C12 UNL     1       8.924   3.277  18.467  1.00  0.00     0.366 C 
HETATM    3  N3  UNL     1       9.425   2.793  17.232  1.00  0.00    -0.304 N 
HETATM    4  C11 UNL     1       9.577   3.780  16.137  1.00  0.00     0.153 C 
HETATM    5  C27 UNL     1       9.736   1.462  16.912  1.00  0.00     0.089 C 
HETATM    6  C10 UNL     1      11.148   3.793  16.003  1.00  0.00     0.146 C 
HETATM    7  N2  UNL     1      11.506   2.488  15.498  1.00  0.00    -0.344 N 
HETATM    8  C9  UNL     1      12.737   2.324  14.795  1.00  0.00     0.243 C 
HETATM    9  C28 UNL     1      10.707   1.332  15.753  1.00  0.00     0.170 C 
HETATM   10  O2  UNL     1      12.970   1.292  14.159  1.00  0.00    -0.271 OA
HETATM   11  O3  UNL     1       8.937   2.591  19.541  1.00  0.00    -0.238 OA
BRANCH   8  12
HETATM   12  C4  UNL     1      13.764   3.433  14.862  1.00  0.00     0.180 C 
BRANCH  12  13
HETATM   13  C2  UNL     1      14.502   3.216  16.189  1.00  0.00     0.009 C 
HETATM   14  C1  UNL     1      14.778   4.533  16.823  1.00  0.00     0.012 C 
HETATM   15  C3  UNL     1      15.794   2.467  15.921  1.00  0.00     0.012 C 
ENDBRANCH  12  13
BRANCH  12  16
HETATM   16  N1  UNL     1      14.618   3.546  13.742  1.00  0.00    -0.347 N 
HETATM   17  C5  UNL     1      14.228   3.656  12.398  1.00  0.00     0.222 C 
HETATM   18  O1  UNL     1      13.021   3.596  12.020  1.00  0.00    -0.273 OA
ATOM     19  H1  UNL     1      15.621   3.549  13.930  1.00  0.00     0.163 HD
BRANCH  17  20
HETATM   20  C6  UNL     1      15.249   3.857  11.323  1.00  0.00     0.078 A 
HETATM   21  C7  UNL     1      16.452   4.649  11.499  1.00  0.00     0.015 A 
HETATM   22  C8  UNL     1      15.319   5.243  10.693  1.00  0.00     0.015 A 
ENDBRANCH  17  20
ENDBRANCH  12  16
ENDBRANCH   8  12
ENDBRANCH   1   2
BRANCH   1  23
HETATM   23  C13 UNL     1       8.035   5.544  19.294  1.00  0.00     0.241 C 
BRANCH  23  24
HETATM   24  C14 UNL     1       8.543   6.868  18.766  1.00  0.00     0.074 A 
HETATM   25  N4  UNL     1       7.792   7.967  18.559  1.00  0.00    -0.299 N 
HETATM   26  N5  UNL     1       8.598   8.993  18.232  1.00  0.00    -0.290 N 
ATOM     27  H4  UNL     1       6.776   8.013  18.637  1.00  0.00     0.187 HD
HETATM   28  C15 UNL     1       8.146  10.339  18.050  1.00  0.00     0.178 C 
HETATM   29  C16 UNL     1       9.860   8.552  18.221  1.00  0.00     0.142 A 
HETATM   30  C26 UNL     1       9.865   7.199  18.571  1.00  0.00     0.094 A 
HETATM   31 CL1  UNL     1      11.204   6.105  18.766  1.00  0.00    -0.079 Cl
BRANCH  29  32
HETATM   32  C17 UNL     1      11.072   9.153  17.646  1.00  0.00     0.272 C 
HETATM   33  O5  UNL     1      12.127   9.253  18.342  1.00  0.00    -0.266 OA
HETATM   34  N6  UNL     1      11.054   9.590  16.311  1.00  0.00    -0.345 N 
ATOM     35  H6  UNL     1      10.154   9.512  15.837  1.00  0.00     0.163 HD
BRANCH  34  36
HETATM   36  C18 UNL     1      12.091  10.115  15.541  1.00  0.00     0.047 C 
HETATM   37  C19 UNL     1      11.562  10.669  14.208  1.00  0.00     0.040 C 
HETATM   38  C20 UNL     1      12.667  11.369  16.253  1.00  0.00     0.040 C 
BRANCH  36  39
HETATM   39  C21 UNL     1      13.264   9.189  15.234  1.00  0.00     0.199 C 
BRANCH  39  40
HETATM   40  O6  UNL     1      13.484   9.231  13.894  1.00  0.00    -0.379 OA
BRANCH  40  41
HETATM   41  C22 UNL     1      13.885   8.157  13.196  1.00  0.00     0.050 C 
HETATM   42  C23 UNL     1      12.820   7.472  12.340  1.00  0.00     0.045 C 
HETATM   43  C24 UNL     1      14.732   7.141  13.903  1.00  0.00     0.045 C 
HETATM   44  C25 UNL     1      14.840   8.745  12.099  1.00  0.00     0.045 C 
ENDBRANCH  40  41
ENDBRANCH  39  40
ENDBRANCH  36  39
ENDBRANCH  34  36
ENDBRANCH  29  32
ENDBRANCH  23  24
ENDBRANCH   1  23
TORSDOF 12
ENDMDL
MODEL 3
REMARK VINA RESULT: -6.612308765      5.690     10.030
REMARK  12 active torsions:
REMARK  status: ('A' for Active; 'I' for Inactive)
REMARK    1  A    between atoms: C2_2  and  C4_4 
REMARK    2  A    between atoms: C4_4  and  N1_5 
REMARK    3  A    between atoms: C4_4  and  C9_12 
REMARK       I    between atoms: N1_5  and  C5_7 
REMARK    4  A    between atoms: C5_7  and  C6_9 
REMARK       I    between atoms: C9_12  and  N2_14 
REMARK       I    between atoms: N3_17  and  C12_18 
REMARK    5  A    between atoms: C12_18  and  O4_20 
REMARK    6  A    between atoms: O4_20  and  C13_21 
REMARK    7  A    between atoms: C13_21  and  C14_22 
REMARK    8  A    between atoms: C16_27  and  C17_28 
REMARK       I    between atoms: C17_28  and  N6_30 
REMARK    9  A    between atoms: N6_30  and  C18_32 
REMARK   10  A    between atoms: C18_32  and  C21_35 
REMARK   11  A    between atoms: C21_35  and  O6_36 
REMARK   12  A    between atoms: O6_36  and  C22_37 
ROOT
HETATM    1  O4  UNL     1       9.117   3.797  17.591  1.00  0.00    -0.298 OA
ENDROOT
BRANCH   1   2
HETATM    2  C12 UNL     1       9.239   5.111  17.775  1.00  0.00     0.366 C 
HETATM    3  N3  UNL     1      10.499   5.762  17.779  1.00  0.00    -0.304 N 
HETATM    4  C11 UNL     1      11.662   4.976  17.302  1.00  0.00     0.153 C 
HETATM    5  C27 UNL     1      10.777   7.056  18.247  1.00  0.00     0.089 C 
HETATM    6  C10 UNL     1      12.004   5.777  15.986  1.00  0.00     0.146 C 
HETATM    7  N2  UNL     1      12.473   7.069  16.428  1.00  0.00    -0.344 N 
HETATM    8  C9  UNL     1      13.322   7.834  15.574  1.00  0.00     0.243 C 
HETATM    9  C28 UNL     1      12.045   7.649  17.661  1.00  0.00     0.170 C 
HETATM   10  O2  UNL     1      13.921   8.826  16.000  1.00  0.00    -0.271 OA
HETATM   11  O3  UNL     1       8.137   5.723  17.961  1.00  0.00    -0.238 OA
BRANCH   8  12
HETATM   12  C4  UNL     1      13.460   7.418  14.126  1.00  0.00     0.180 C 
BRANCH  12  13
HETATM   13  C2  UNL     1      13.183   8.692  13.315  1.00  0.00     0.009 C 
HETATM   14  C1  UNL     1      11.937   8.512  12.522  1.00  0.00     0.012 C 
HETATM   15  C3  UNL     1      14.366   8.966  12.405  1.00  0.00     0.012 C 
ENDBRANCH  12  13
BRANCH  12  16
HETATM   16  N1  UNL     1      14.668   6.773  13.785  1.00  0.00    -0.347 N 
HETATM   17  C5  UNL     1      14.812   5.459  13.310  1.00  0.00     0.222 C 
HETATM   18  O1  UNL     1      13.842   4.654  13.195  1.00  0.00    -0.273 OA
ATOM     19  H1  UNL     1      15.524   7.316  13.895  1.00  0.00     0.163 HD
BRANCH  17  20
HETATM   20  C6  UNL     1      16.156   4.938  12.907  1.00  0.00     0.078 A 
HETATM   21  C7  UNL     1      17.119   5.710  12.143  1.00  0.00     0.015 A 
HETATM   22  C8  UNL     1      16.354   4.617  11.431  1.00  0.00     0.015 A 
ENDBRANCH  17  20
ENDBRANCH  12  16
ENDBRANCH   8  12
ENDBRANCH   1   2
BRANCH   1  23
HETATM   23  C13 UNL     1       8.508   2.738  17.102  1.00  0.00     0.241 C 
BRANCH  23  24
HETATM   24  C14 UNL     1       9.204   2.074  15.934  1.00  0.00     0.074 A 
HETATM   25  N4  UNL     1      10.301   2.544  15.309  1.00  0.00    -0.299 N 
HETATM   26  N5  UNL     1      10.727   1.625  14.424  1.00  0.00    -0.290 N 
ATOM     27  H4  UNL     1      10.738   3.449  15.480  1.00  0.00     0.187 HD
HETATM   28  C15 UNL     1      11.933   1.746  13.662  1.00  0.00     0.178 C 
HETATM   29  C16 UNL     1       9.902   0.574  14.475  1.00  0.00     0.142 A 
HETATM   30  C26 UNL     1       8.921   0.821  15.440  1.00  0.00     0.094 A 
HETATM   31 CL1  UNL     1       7.611  -0.190  15.979  1.00  0.00    -0.079 Cl
BRANCH  29  32
HETATM   32  C17 UNL     1       9.723  -0.541  13.534  1.00  0.00     0.272 C 
HETATM   33  O5  UNL     1       9.983  -1.728  13.894  1.00  0.00    -0.266 OA
HETATM   34  N6  UNL     1       9.237  -0.277  12.242  1.00  0.00    -0.345 N 
ATOM     35  H6  UNL     1       9.094   0.708  12.021  1.00  0.00     0.163 HD
BRANCH  34  36
HETATM   36  C18 UNL     1       8.922  -1.171  11.220  1.00  0.00     0.047 C 
HETATM   37  C19 UNL     1       7.611  -1.916  11.523  1.00  0.00     0.040 C 
HETATM   38  C20 UNL     1       8.595  -0.371   9.929  1.00  0.00     0.040 C 
BRANCH  36  39
HETATM   39  C21 UNL     1       9.979  -2.208  10.855  1.00  0.00     0.199 C 
BRANCH  39  40
HETATM   40  O6  UNL     1       9.874  -2.455   9.523  1.00  0.00    -0.379 OA
BRANCH  40  41
HETATM   41  C22 UNL     1      10.013  -3.685   9.005  1.00  0.00     0.050 C 
HETATM   42  C23 UNL     1      11.433  -4.102   8.625  1.00  0.00     0.045 C 
HETATM   43  C24 UNL     1       9.035  -4.114   7.953  1.00  0.00     0.045 C 
HETATM   44  C25 UNL     1       9.714  -4.646  10.209  1.00  0.00     0.045 C 
ENDBRANCH  40  41
ENDBRANCH  39  40
ENDBRANCH  36  39
ENDBRANCH  34  36
ENDBRANCH  29  32
ENDBRANCH  23  24
ENDBRANCH   1  23
TORSDOF 12
ENDMDL
MODEL 4
REMARK VINA RESULT: -6.584980068      5.061      9.148
REMARK  12 active torsions:
REMARK  status: ('A' for Active; 'I' for Inactive)
REMARK    1  A    between atoms: C2_2  and  C4_4 
REMARK    2  A    between atoms: C4_4  and  N1_5 
REMARK    3  A    between atoms: C4_4  and  C9_12 
REMARK       I    between atoms: N1_5  and  C5_7 
REMARK    4  A    between atoms: C5_7  and  C6_9 
REMARK       I    between atoms: C9_12  and  N2_14 
REMARK       I    between atoms: N3_17  and  C12_18 
REMARK    5  A    between atoms: C12_18  and  O4_20 
REMARK    6  A    between atoms: O4_20  and  C13_21 
REMARK    7  A    between atoms: C13_21  and  C14_22 
REMARK    8  A    between atoms: C16_27  and  C17_28 
REMARK       I    between atoms: C17_28  and  N6_30 
REMARK    9  A    between atoms: N6_30  and  C18_32 
REMARK   10  A    between atoms: C18_32  and  C21_35 
REMARK   11  A    between atoms: C21_35  and  O6_36 
REMARK   12  A    between atoms: O6_36  and  C22_37 
ROOT
HETATM    1  O4  UNL     1       9.470   4.811  18.544  1.00  0.00    -0.298 OA
ENDROOT
BRANCH   1   2
HETATM    2  C12 UNL     1       9.460   6.107  18.234  1.00  0.00     0.366 C 
HETATM    3  N3  UNL     1      10.639   6.811  17.880  1.00  0.00    -0.304 N 
HETATM    4  C11 UNL     1      11.847   6.000  17.599  1.00  0.00     0.153 C 
HETATM    5  C27 UNL     1      10.803   8.204  17.826  1.00  0.00     0.089 C 
HETATM    6  C10 UNL     1      12.013   6.291  16.058  1.00  0.00     0.146 C 
HETATM    7  N2  UNL     1      12.366   7.688  15.962  1.00  0.00    -0.344 N 
HETATM    8  C9  UNL     1      13.069   8.153  14.810  1.00  0.00     0.243 C 
HETATM    9  C28 UNL     1      11.957   8.641  16.943  1.00  0.00     0.170 C 
HETATM   10  O2  UNL     1      13.582   9.276  14.793  1.00  0.00    -0.271 OA
HETATM   11  O3  UNL     1       8.312   6.656  18.300  1.00  0.00    -0.238 OA
BRANCH   8  12
HETATM   12  C4  UNL     1      13.156   7.251  13.599  1.00  0.00     0.180 C 
BRANCH  12  13
HETATM   13  C2  UNL     1      12.592   8.082  12.439  1.00  0.00     0.009 C 
HETATM   14  C1  UNL     1      11.165   8.405  12.709  1.00  0.00     0.012 C 
HETATM   15  C3  UNL     1      12.730   7.291  11.151  1.00  0.00     0.012 C 
ENDBRANCH  12  13
BRANCH  12  16
HETATM   16  N1  UNL     1      14.427   6.693  13.340  1.00  0.00    -0.347 N 
HETATM   17  C5  UNL     1      14.751   5.327  13.299  1.00  0.00     0.222 C 
HETATM   18  O1  UNL     1      13.919   4.410  13.566  1.00  0.00    -0.273 OA
ATOM     19  H1  UNL     1      15.188   7.349  13.165  1.00  0.00     0.163 HD
BRANCH  17  20
HETATM   20  C6  UNL     1      16.130   4.882  12.926  1.00  0.00     0.078 A 
HETATM   21  C7  UNL     1      17.074   5.717  12.206  1.00  0.00     0.015 A 
HETATM   22  C8  UNL     1      16.385   4.603  11.450  1.00  0.00     0.015 A 
ENDBRANCH  17  20
ENDBRANCH  12  16
ENDBRANCH   8  12
ENDBRANCH   1   2
BRANCH   1  23
HETATM   23  C13 UNL     1       9.128   3.558  18.335  1.00  0.00     0.241 C 
BRANCH  23  24
HETATM   24  C14 UNL     1       9.811   2.887  17.163  1.00  0.00     0.074 A 
HETATM   25  N4  UNL     1      11.116   2.560  17.103  1.00  0.00    -0.299 N 
HETATM   26  N5  UNL     1      11.338   1.848  15.983  1.00  0.00    -0.290 N 
ATOM     27  H4  UNL     1      11.822   2.812  17.794  1.00  0.00     0.187 HD
HETATM   28  C15 UNL     1      12.593   1.243  15.654  1.00  0.00     0.178 C 
HETATM   29  C16 UNL     1      10.181   1.726  15.324  1.00  0.00     0.142 A 
HETATM   30  C26 UNL     1       9.178   2.369  16.056  1.00  0.00     0.094 A 
HETATM   31 CL1  UNL     1       7.475   2.507  15.726  1.00  0.00    -0.079 Cl
BRANCH  29  32
HETATM   32  C17 UNL     1       9.916   1.328  13.934  1.00  0.00     0.272 C 
HETATM   33  O5  UNL     1      10.679   1.721  13.001  1.00  0.00    -0.266 OA
HETATM   34  N6  UNL     1       8.826   0.486  13.658  1.00  0.00    -0.345 N 
ATOM     35  H6  UNL     1       8.240   0.251  14.459  1.00  0.00     0.163 HD
BRANCH  34  36
HETATM   36  C18 UNL     1       8.430  -0.075  12.444  1.00  0.00     0.047 C 
HETATM   37  C19 UNL     1       7.256  -1.048  12.643  1.00  0.00     0.040 C 
HETATM   38  C20 UNL     1       7.831   1.039  11.542  1.00  0.00     0.040 C 
BRANCH  36  39
HETATM   39  C21 UNL     1       9.502  -0.790  11.628  1.00  0.00     0.199 C 
BRANCH  39  40
HETATM   40  O6  UNL     1       8.971  -1.958  11.180  1.00  0.00    -0.379 OA
BRANCH  40  41
HETATM   41  C22 UNL     1       8.986  -2.306   9.885  1.00  0.00     0.050 C 
HETATM   42  C23 UNL     1      10.221  -3.067   9.405  1.00  0.00     0.045 C 
HETATM   43  C24 UNL     1       8.576  -1.272   8.879  1.00  0.00     0.045 C 
HETATM   44  C25 UNL     1       7.873  -3.406   9.768  1.00  0.00     0.045 C 
ENDBRANCH  40  41
ENDBRANCH  39  40
ENDBRANCH  36  39
ENDBRANCH  34  36
ENDBRANCH  29  32
ENDBRANCH  23  24
ENDBRANCH   1  23
TORSDOF 12
ENDMDL
MODEL 5
REMARK VINA RESULT: -6.569922536      5.996     10.052
REMARK  12 active torsions:
REMARK  status: ('A' for Active; 'I' for Inactive)
REMARK    1  A    between atoms: C2_2  and  C4_4 
REMARK    2  A    between atoms: C4_4  and  N1_5 
REMARK    3  A    between atoms: C4_4  and  C9_12 
REMARK       I    between atoms: N1_5  and  C5_7 
REMARK    4  A    between atoms: C5_7  and  C6_9 
REMARK       I    between atoms: C9_12  and  N2_14 
REMARK       I    between atoms: N3_17  and  C12_18 
REMARK    5  A    between atoms: C12_18  and  O4_20 
REMARK    6  A    between atoms: O4_20  and  C13_21 
REMARK    7  A    between atoms: C13_21  and  C14_22 
REMARK    8  A    between atoms: C16_27  and  C17_28 
REMARK       I    between atoms: C17_28  and  N6_30 
REMARK    9  A    between atoms: N6_30  and  C18_32 
REMARK   10  A    between atoms: C18_32  and  C21_35 
REMARK   11  A    between atoms: C21_35  and  O6_36 
REMARK   12  A    between atoms: O6_36  and  C22_37 
ROOT
HETATM    1  O4  UNL     1       9.072   3.626  17.609  1.00  0.00    -0.298 OA
ENDROOT
BRANCH   1   2
HETATM    2  C12 UNL     1       9.122   4.952  17.733  1.00  0.00     0.366 C 
HETATM    3  N3  UNL     1      10.345   5.669  17.728  1.00  0.00    -0.304 N 
HETATM    4  C11 UNL     1      11.557   4.925  17.309  1.00  0.00     0.153 C 
HETATM    5  C27 UNL     1      10.545   6.996  18.140  1.00  0.00     0.089 C 
HETATM    6  C10 UNL     1      11.884   5.681  15.964  1.00  0.00     0.146 C 
HETATM    7  N2  UNL     1      12.275   7.016  16.353  1.00  0.00    -0.344 N 
HETATM    8  C9  UNL     1      13.100   7.785  15.479  1.00  0.00     0.243 C 
HETATM    9  C28 UNL     1      11.792   7.629  17.549  1.00  0.00     0.170 C 
HETATM   10  O2  UNL     1      13.637   8.826  15.868  1.00  0.00    -0.271 OA
HETATM   11  O3  UNL     1       7.986   5.512  17.870  1.00  0.00    -0.238 OA
BRANCH   8  12
HETATM   12  C4  UNL     1      13.289   7.311  14.054  1.00  0.00     0.180 C 
BRANCH  12  13
HETATM   13  C2  UNL     1      12.986   8.535  13.181  1.00  0.00     0.009 C 
HETATM   14  C1  UNL     1      11.852   8.224  12.268  1.00  0.00     0.012 C 
HETATM   15  C3  UNL     1      14.229   8.899  12.390  1.00  0.00     0.012 C 
ENDBRANCH  12  13
BRANCH  12  16
HETATM   16  N1  UNL     1      14.528   6.696  13.772  1.00  0.00    -0.347 N 
HETATM   17  C5  UNL     1      14.728   5.394  13.287  1.00  0.00     0.222 C 
HETATM   18  O1  UNL     1      13.783   4.570  13.106  1.00  0.00    -0.273 OA
ATOM     19  H1  UNL     1      15.365   7.257  13.936  1.00  0.00     0.163 HD
BRANCH  17  20
HETATM   20  C6  UNL     1      16.103   4.908  12.951  1.00  0.00     0.078 A 
HETATM   21  C7  UNL     1      17.088   5.713  12.253  1.00  0.00     0.015 A 
HETATM   22  C8  UNL     1      16.388   4.616  11.483  1.00  0.00     0.015 A 
ENDBRANCH  17  20
ENDBRANCH  12  16
ENDBRANCH   8  12
ENDBRANCH   1   2
BRANCH   1  23
HETATM   23  C13 UNL     1       8.534   2.515  17.154  1.00  0.00     0.241 C 
BRANCH  23  24
HETATM   24  C14 UNL     1       9.047   2.052  15.807  1.00  0.00     0.074 A 
HETATM   25  N4  UNL     1      10.306   2.207  15.356  1.00  0.00    -0.299 N 
HETATM   26  N5  UNL     1      10.439   1.545  14.193  1.00  0.00    -0.290 N 
ATOM     27  H4  UNL     1      11.041   2.740  15.822  1.00  0.00     0.187 HD
HETATM   28  C15 UNL     1      11.677   1.405  13.488  1.00  0.00     0.178 C 
HETATM   29  C16 UNL     1       9.267   0.975  13.895  1.00  0.00     0.142 A 
HETATM   30  C26 UNL     1       8.355   1.268  14.913  1.00  0.00     0.094 A 
HETATM   31 CL1  UNL     1       6.698   0.770  15.099  1.00  0.00    -0.079 Cl
BRANCH  29  32
HETATM   32  C17 UNL     1       8.778   0.414  12.628  1.00  0.00     0.272 C 
HETATM   33  O5  UNL     1       8.380   1.183  11.701  1.00  0.00    -0.266 OA
HETATM   34  N6  UNL     1       8.781  -0.979  12.447  1.00  0.00    -0.345 N 
ATOM     35  H6  UNL     1       9.077  -1.524  13.257  1.00  0.00     0.163 HD
BRANCH  34  36
HETATM   36  C18 UNL     1       8.438  -1.723  11.319  1.00  0.00     0.047 C 
HETATM   37  C19 UNL     1       9.586  -1.734  10.296  1.00  0.00     0.040 C 
HETATM   38  C20 UNL     1       8.295  -3.217  11.720  1.00  0.00     0.040 C 
BRANCH  36  39
HETATM   39  C21 UNL     1       7.160  -1.325  10.588  1.00  0.00     0.199 C 
BRANCH  39  40
HETATM   40  O6  UNL     1       7.475  -1.125   9.282  1.00  0.00    -0.379 OA
BRANCH  40  41
HETATM   41  C22 UNL     1       6.745  -1.636   8.279  1.00  0.00     0.050 C 
HETATM   42  C23 UNL     1       5.283  -1.195   8.214  1.00  0.00     0.045 C 
HETATM   43  C24 UNL     1       6.869  -3.105   8.002  1.00  0.00     0.045 C 
HETATM   44  C25 UNL     1       7.334  -0.961   6.991  1.00  0.00     0.045 C 
ENDBRANCH  40  41
ENDBRANCH  39  40
ENDBRANCH  36  39
ENDBRANCH  34  36
ENDBRANCH  29  32
ENDBRANCH  23  24
ENDBRANCH   1  23
TORSDOF 12
ENDMDL
