MODEL 1
REMARK VINA RESULT: -7.156912919      0.000      0.000
REMARK  14 active torsions:
REMARK  status: ('A' for Active; 'I' for Inactive)
REMARK    1  A    between atoms: C2_2  and  C4_4 
REMARK    2  A    between atoms: C4_4  and  N1_5 
REMARK    3  A    between atoms: C4_4  and  C18_29 
REMARK       I    between atoms: N1_5  and  C5_7 
REMARK    4  A    between atoms: C5_7  and  C6_9 
REMARK    5  A    between atoms: C6_9  and  N2_10 
REMARK    6  A    between atoms: C6_9  and  C15_26 
REMARK       I    between atoms: N2_10  and  C7_12 
REMARK    7  A    between atoms: C7_12  and  C8_14 
REMARK    8  A    between atoms: C8_14  and  S1_15 
REMARK    9  A    between atoms: S1_15  and  S2_16 
REMARK   10  A    between atoms: S2_16  and  C9_17 
REMARK   11  A    between atoms: C9_17  and  C10_18 
REMARK       I    between atoms: C10_18  and  N3_20 
REMARK   12  A    between atoms: C18_29  and  O5_30 
REMARK   13  A    between atoms: C18_29  and  N4_32 
REMARK   14  A    between atoms: N4_32  and  C19_34 
ROOT
HETATM    1  N1  UNL     1      23.439   6.406 -15.650  1.00  0.00    -0.347 N 
ATOM      2  H1  UNL     1      22.468   6.677 -15.494  1.00  0.00     0.163 HD
HETATM    3  C5  UNL     1      23.750   5.052 -15.676  1.00  0.00     0.241 C 
HETATM    4  O1  UNL     1      24.989   4.772 -15.884  1.00  0.00    -0.271 OA
ENDROOT
BRANCH   3   5
HETATM    5  C6  UNL     1      22.859   3.916 -15.500  1.00  0.00     0.180 C 
BRANCH   5   6
HETATM    6  N2  UNL     1      23.568   2.711 -15.194  1.00  0.00    -0.347 N 
HETATM    7  C7  UNL     1      23.951   2.169 -13.977  1.00  0.00     0.228 C 
HETATM    8  O2  UNL     1      23.695   2.745 -12.895  1.00  0.00    -0.273 OA
ATOM      9  H2  UNL     1      23.837   2.158 -16.008  1.00  0.00     0.163 HD
BRANCH   7  10
HETATM   10  C8  UNL     1      24.682   0.886 -13.870  1.00  0.00     0.188 C 
BRANCH  10  11
HETATM   11  S1  UNL     1      26.098   0.712 -14.932  1.00  0.00    -0.088 SA
BRANCH  11  12
HETATM   12  S2  UNL     1      27.962   0.769 -14.000  1.00  0.00    -0.088 SA
BRANCH  12  13
HETATM   13  C9  UNL     1      27.942   1.199 -12.272  1.00  0.00     0.189 C 
BRANCH  13  14
HETATM   14  C10 UNL     1      28.794   0.415 -11.385  1.00  0.00     0.230 C 
HETATM   15  O3  UNL     1      29.991   0.727 -11.204  1.00  0.00    -0.273 OA
HETATM   16  N3  UNL     1      28.273  -0.726 -10.706  1.00  0.00    -0.347 N 
HETATM   17  C11 UNL     1      26.875  -1.132 -10.925  1.00  0.00     0.152 C 
HETATM   18  C14 UNL     1      29.035  -1.532  -9.780  1.00  0.00     0.152 C 
HETATM   19  C12 UNL     1      26.602  -2.269  -9.954  1.00  0.00     0.187 C 
HETATM   20  O4  UNL     1      26.932  -1.933  -8.659  1.00  0.00    -0.388 OA
HETATM   21  C13 UNL     1      28.264  -1.637  -8.488  1.00  0.00     0.187 C 
ENDBRANCH  13  14
ENDBRANCH  12  13
ENDBRANCH  11  12
ENDBRANCH  10  11
ENDBRANCH   7  10
ENDBRANCH   5   6
BRANCH   5  22
HETATM   22  C15 UNL     1      21.777   3.778 -16.491  1.00  0.00     0.009 C 
HETATM   23  C16 UNL     1      20.745   2.782 -16.038  1.00  0.00     0.012 C 
HETATM   24  C17 UNL     1      22.322   3.307 -17.832  1.00  0.00     0.012 C 
ENDBRANCH   5  22
ENDBRANCH   3   5
BRANCH   1  25
HETATM   25  C4  UNL     1      24.439   7.470 -15.836  1.00  0.00     0.162 C 
BRANCH  25  26
HETATM   26  C2  UNL     1      23.818   8.680 -16.458  1.00  0.00     0.008 C 
HETATM   27  C1  UNL     1      24.342   8.849 -17.868  1.00  0.00     0.012 C 
HETATM   28  C3  UNL     1      22.312   8.677 -16.375  1.00  0.00     0.012 C 
ENDBRANCH  25  26
BRANCH  25  29
HETATM   29  C18 UNL     1      25.070   7.773 -14.494  1.00  0.00     0.140 C 
BRANCH  29  30
HETATM   30  O5  UNL     1      26.385   7.859 -14.505  1.00  0.00    -0.348 OA
ATOM     31  H5  UNL     1      26.728   8.714 -14.734  1.00  0.00     0.219 HD
ENDBRANCH  29  30
BRANCH  29  32
HETATM   32  N4  UNL     1      24.501   7.966 -13.300  1.00  0.00    -0.337 N 
ATOM     33  H4  UNL     1      25.278   8.275 -12.716  1.00  0.00     0.168 HD
BRANCH  32  34
HETATM   34  C19 UNL     1      23.550   7.972 -12.532  1.00  0.00     0.054 C 
HETATM   35  C20 UNL     1      22.198   8.588 -12.267  1.00  0.00     0.114 C 
HETATM   36  C21 UNL     1      21.698   7.191 -11.983  1.00  0.00     0.126 C 
HETATM   37  C22 UNL     1      20.416   7.112 -11.228  1.00  0.00     0.059 C 
HETATM   38  O6  UNL     1      21.702   6.301 -13.009  1.00  0.00    -0.303 OA
HETATM   39  S3  UNL     1      23.198   7.034 -10.973  1.00  0.00    -0.077 SA
HETATM   40  C23 UNL     1      19.555   6.243 -12.123  1.00  0.00     0.116 C 
HETATM   41  C24 UNL     1      20.459   5.782 -13.233  1.00  0.00     0.356 C 
HETATM   42  F1  UNL     1      19.987   6.140 -14.485  1.00  0.00    -0.176 F 
HETATM   43  F2  UNL     1      20.591   4.395 -13.244  1.00  0.00    -0.176 F 
ENDBRANCH  32  34
ENDBRANCH  29  32
ENDBRANCH  25  29
ENDBRANCH   1  25
TORSDOF 14
ENDMDL
MODEL 2
REMARK VINA RESULT: -7.139537579      1.246      1.807
REMARK  14 active torsions:
REMARK  status: ('A' for Active; 'I' for Inactive)
REMARK    1  A    between atoms: C2_2  and  C4_4 
REMARK    2  A    between atoms: C4_4  and  N1_5 
REMARK    3  A    between atoms: C4_4  and  C18_29 
REMARK       I    between atoms: N1_5  and  C5_7 
REMARK    4  A    between atoms: C5_7  and  C6_9 
REMARK    5  A    between atoms: C6_9  and  N2_10 
REMARK    6  A    between atoms: C6_9  and  C15_26 
REMARK       I    between atoms: N2_10  and  C7_12 
REMARK    7  A    between atoms: C7_12  and  C8_14 
REMARK    8  A    between atoms: C8_14  and  S1_15 
REMARK    9  A    between atoms: S1_15  and  S2_16 
REMARK   10  A    between atoms: S2_16  and  C9_17 
REMARK   11  A    between atoms: C9_17  and  C10_18 
REMARK       I    between atoms: C10_18  and  N3_20 
REMARK   12  A    between atoms: C18_29  and  O5_30 
REMARK   13  A    between atoms: C18_29  and  N4_32 
REMARK   14  A    between atoms: N4_32  and  C19_34 
ROOT
HETATM    1  N1  UNL     1      23.426   6.448 -15.662  1.00  0.00    -0.347 N 
ATOM      2  H1  UNL     1      22.458   6.725 -15.496  1.00  0.00     0.163 HD
HETATM    3  C5  UNL     1      23.732   5.092 -15.678  1.00  0.00     0.241 C 
HETATM    4  O1  UNL     1      24.966   4.805 -15.899  1.00  0.00    -0.271 OA
ENDROOT
BRANCH   3   5
HETATM    5  C6  UNL     1      22.838   3.962 -15.478  1.00  0.00     0.180 C 
BRANCH   5   6
HETATM    6  N2  UNL     1      23.548   2.744 -15.233  1.00  0.00    -0.347 N 
HETATM    7  C7  UNL     1      23.976   2.168 -14.046  1.00  0.00     0.228 C 
HETATM    8  O2  UNL     1      23.770   2.718 -12.941  1.00  0.00    -0.273 OA
ATOM      9  H2  UNL     1      23.779   2.210 -16.071  1.00  0.00     0.163 HD
BRANCH   7  10
HETATM   10  C8  UNL     1      24.699   0.877 -14.002  1.00  0.00     0.188 C 
BRANCH  10  11
HETATM   11  S1  UNL     1      26.074   0.799 -12.877  1.00  0.00    -0.088 SA
BRANCH  11  12
HETATM   12  S2  UNL     1      26.421  -1.047 -11.972  1.00  0.00    -0.088 SA
BRANCH  12  13
HETATM   13  C9  UNL     1      27.974  -1.200 -11.115  1.00  0.00     0.189 C 
BRANCH  13  14
HETATM   14  C10 UNL     1      27.924  -1.253  -9.658  1.00  0.00     0.230 C 
HETATM   15  O3  UNL     1      26.866  -1.550  -9.063  1.00  0.00    -0.273 OA
HETATM   16  N3  UNL     1      29.087  -0.965  -8.885  1.00  0.00    -0.347 N 
HETATM   17  C11 UNL     1      30.338  -0.583  -9.560  1.00  0.00     0.152 C 
HETATM   18  C14 UNL     1      29.135  -1.033  -7.443  1.00  0.00     0.152 C 
HETATM   19  C12 UNL     1      31.401  -0.496  -8.476  1.00  0.00     0.187 C 
HETATM   20  O4  UNL     1      31.458  -1.644  -7.716  1.00  0.00    -0.388 OA
HETATM   21  C13 UNL     1      30.290  -1.917  -7.042  1.00  0.00     0.187 C 
ENDBRANCH  13  14
ENDBRANCH  12  13
ENDBRANCH  11  12
ENDBRANCH  10  11
ENDBRANCH   7  10
ENDBRANCH   5   6
BRANCH   5  22
HETATM   22  C15 UNL     1      21.705   3.855 -16.415  1.00  0.00     0.009 C 
HETATM   23  C16 UNL     1      20.752   2.769 -15.998  1.00  0.00     0.012 C 
HETATM   24  C17 UNL     1      22.189   3.535 -17.823  1.00  0.00     0.012 C 
ENDBRANCH   5  22
ENDBRANCH   3   5
BRANCH   1  25
HETATM   25  C4  UNL     1      24.428   7.506 -15.871  1.00  0.00     0.162 C 
BRANCH  25  26
HETATM   26  C2  UNL     1      23.811   8.701 -16.524  1.00  0.00     0.008 C 
HETATM   27  C1  UNL     1      24.350   8.843 -17.932  1.00  0.00     0.012 C 
HETATM   28  C3  UNL     1      22.303   8.694 -16.459  1.00  0.00     0.012 C 
ENDBRANCH  25  26
BRANCH  25  29
HETATM   29  C18 UNL     1      25.056   7.841 -14.536  1.00  0.00     0.140 C 
BRANCH  29  30
HETATM   30  O5  UNL     1      26.368   7.968 -14.556  1.00  0.00    -0.348 OA
ATOM     31  H5  UNL     1      26.753   8.274 -13.742  1.00  0.00     0.219 HD
ENDBRANCH  29  30
BRANCH  29  32
HETATM   32  N4  UNL     1      24.489   8.027 -13.341  1.00  0.00    -0.337 N 
ATOM     33  H4  UNL     1      25.267   8.332 -12.755  1.00  0.00     0.168 HD
BRANCH  32  34
HETATM   34  C19 UNL     1      23.539   8.028 -12.572  1.00  0.00     0.054 C 
HETATM   35  C20 UNL     1      22.179   8.630 -12.312  1.00  0.00     0.114 C 
HETATM   36  C21 UNL     1      21.696   7.230 -12.015  1.00  0.00     0.126 C 
HETATM   37  C22 UNL     1      20.415   7.143 -11.259  1.00  0.00     0.059 C 
HETATM   38  O6  UNL     1      21.710   6.331 -13.033  1.00  0.00    -0.303 OA
HETATM   39  S3  UNL     1      23.199   7.099 -11.005  1.00  0.00    -0.077 SA
HETATM   40  C23 UNL     1      19.563   6.256 -12.145  1.00  0.00     0.116 C 
HETATM   41  C24 UNL     1      20.472   5.797 -13.252  1.00  0.00     0.356 C 
HETATM   42  F1  UNL     1      19.995   6.139 -14.507  1.00  0.00    -0.176 F 
HETATM   43  F2  UNL     1      20.620   4.411 -13.251  1.00  0.00    -0.176 F 
ENDBRANCH  32  34
ENDBRANCH  29  32
ENDBRANCH  25  29
ENDBRANCH   1  25
TORSDOF 14
ENDMDL
MODEL 3
REMARK VINA RESULT: -7.043211384      1.381      1.844
REMARK  14 active torsions:
REMARK  status: ('A' for Active; 'I' for Inactive)
REMARK    1  A    between atoms: C2_2  and  C4_4 
REMARK    2  A    between atoms: C4_4  and  N1_5 
REMARK    3  A    between atoms: C4_4  and  C18_29 
REMARK       I    between atoms: N1_5  and  C5_7 
REMARK    4  A    between atoms: C5_7  and  C6_9 
REMARK    5  A    between atoms: C6_9  and  N2_10 
REMARK    6  A    between atoms: C6_9  and  C15_26 
REMARK       I    between atoms: N2_10  and  C7_12 
REMARK    7  A    between atoms: C7_12  and  C8_14 
REMARK    8  A    between atoms: C8_14  and  S1_15 
REMARK    9  A    between atoms: S1_15  and  S2_16 
REMARK   10  A    between atoms: S2_16  and  C9_17 
REMARK   11  A    between atoms: C9_17  and  C10_18 
REMARK       I    between atoms: C10_18  and  N3_20 
REMARK   12  A    between atoms: C18_29  and  O5_30 
REMARK   13  A    between atoms: C18_29  and  N4_32 
REMARK   14  A    between atoms: N4_32  and  C19_34 
ROOT
HETATM    1  N1  UNL     1      23.475   6.484 -15.651  1.00  0.00    -0.347 N 
ATOM      2  H1  UNL     1      22.498   6.730 -15.491  1.00  0.00     0.163 HD
HETATM    3  C5  UNL     1      23.821   5.138 -15.675  1.00  0.00     0.241 C 
HETATM    4  O1  UNL     1      25.065   4.889 -15.888  1.00  0.00    -0.271 OA
ENDROOT
BRANCH   3   5
HETATM    5  C6  UNL     1      22.960   3.979 -15.491  1.00  0.00     0.180 C 
BRANCH   5   6
HETATM    6  N2  UNL     1      23.694   2.811 -15.110  1.00  0.00    -0.347 N 
HETATM    7  C7  UNL     1      23.958   2.276 -13.859  1.00  0.00     0.228 C 
HETATM    8  O2  UNL     1      23.543   2.822 -12.813  1.00  0.00    -0.273 OA
ATOM      9  H2  UNL     1      24.089   2.285 -15.890  1.00  0.00     0.163 HD
BRANCH   7  10
HETATM   10  C8  UNL     1      24.742   1.033 -13.674  1.00  0.00     0.188 C 
BRANCH  10  11
HETATM   11  S1  UNL     1      26.474   1.255 -13.336  1.00  0.00    -0.088 SA
BRANCH  11  12
HETATM   12  S2  UNL     1      27.256   0.137 -11.760  1.00  0.00    -0.088 SA
BRANCH  12  13
HETATM   13  C9  UNL     1      26.448  -1.419 -11.449  1.00  0.00     0.189 C 
BRANCH  13  14
HETATM   14  C10 UNL     1      26.717  -2.060 -10.166  1.00  0.00     0.230 C 
HETATM   15  O3  UNL     1      26.990  -1.380  -9.154  1.00  0.00    -0.273 OA
HETATM   16  N3  UNL     1      26.672  -3.480 -10.046  1.00  0.00    -0.347 N 
HETATM   17  C11 UNL     1      26.382  -4.306 -11.230  1.00  0.00     0.152 C 
HETATM   18  C14 UNL     1      26.885  -4.193  -8.808  1.00  0.00     0.152 C 
HETATM   19  C12 UNL     1      26.260  -5.738 -10.735  1.00  0.00     0.187 C 
HETATM   20  O4  UNL     1      25.364  -5.849  -9.694  1.00  0.00    -0.388 OA
HETATM   21  C13 UNL     1      25.718  -5.122  -8.582  1.00  0.00     0.187 C 
ENDBRANCH  13  14
ENDBRANCH  12  13
ENDBRANCH  11  12
ENDBRANCH  10  11
ENDBRANCH   7  10
ENDBRANCH   5   6
BRANCH   5  22
HETATM   22  C15 UNL     1      21.926   3.769 -16.520  1.00  0.00     0.009 C 
HETATM   23  C16 UNL     1      20.840   2.854 -16.024  1.00  0.00     0.012 C 
HETATM   24  C17 UNL     1      22.523   3.145 -17.775  1.00  0.00     0.012 C 
ENDBRANCH   5  22
ENDBRANCH   3   5
BRANCH   1  25
HETATM   25  C4  UNL     1      24.446   7.573 -15.844  1.00  0.00     0.162 C 
BRANCH  25  26
HETATM   26  C2  UNL     1      23.794   8.761 -16.475  1.00  0.00     0.008 C 
HETATM   27  C1  UNL     1      24.282   8.908 -17.901  1.00  0.00     0.012 C 
HETATM   28  C3  UNL     1      22.291   8.738 -16.357  1.00  0.00     0.012 C 
ENDBRANCH  25  26
BRANCH  25  29
HETATM   29  C18 UNL     1      25.068   7.902 -14.504  1.00  0.00     0.140 C 
BRANCH  29  30
HETATM   30  O5  UNL     1      26.376   8.057 -14.521  1.00  0.00    -0.348 OA
ATOM     31  H5  UNL     1      26.724   8.603 -13.826  1.00  0.00     0.219 HD
ENDBRANCH  29  30
BRANCH  29  32
HETATM   32  N4  UNL     1      24.496   8.060 -13.306  1.00  0.00    -0.337 N 
ATOM     33  H4  UNL     1      25.271   8.355 -12.712  1.00  0.00     0.168 HD
BRANCH  32  34
HETATM   34  C19 UNL     1      23.544   8.041 -12.540  1.00  0.00     0.054 C 
HETATM   35  C20 UNL     1      22.180   8.629 -12.273  1.00  0.00     0.114 C 
HETATM   36  C21 UNL     1      21.705   7.221 -12.002  1.00  0.00     0.126 C 
HETATM   37  C22 UNL     1      20.423   7.111 -11.251  1.00  0.00     0.059 C 
HETATM   38  O6  UNL     1      21.728   6.340 -13.036  1.00  0.00    -0.303 OA
HETATM   39  S3  UNL     1      23.206   7.082 -10.990  1.00  0.00    -0.077 SA
HETATM   40  C23 UNL     1      19.580   6.234 -12.156  1.00  0.00     0.116 C 
HETATM   41  C24 UNL     1      20.495   5.801 -13.268  1.00  0.00     0.356 C 
HETATM   42  F1  UNL     1      20.019   6.162 -14.518  1.00  0.00    -0.176 F 
HETATM   43  F2  UNL     1      20.653   4.416 -13.292  1.00  0.00    -0.176 F 
ENDBRANCH  32  34
ENDBRANCH  29  32
ENDBRANCH  25  29
ENDBRANCH   1  25
TORSDOF 14
ENDMDL
MODEL 4
REMARK VINA RESULT: -6.964699028      2.081      3.069
REMARK  14 active torsions:
REMARK  status: ('A' for Active; 'I' for Inactive)
REMARK    1  A    between atoms: C2_2  and  C4_4 
REMARK    2  A    between atoms: C4_4  and  N1_5 
REMARK    3  A    between atoms: C4_4  and  C18_29 
REMARK       I    between atoms: N1_5  and  C5_7 
REMARK    4  A    between atoms: C5_7  and  C6_9 
REMARK    5  A    between atoms: C6_9  and  N2_10 
REMARK    6  A    between atoms: C6_9  and  C15_26 
REMARK       I    between atoms: N2_10  and  C7_12 
REMARK    7  A    between atoms: C7_12  and  C8_14 
REMARK    8  A    between atoms: C8_14  and  S1_15 
REMARK    9  A    between atoms: S1_15  and  S2_16 
REMARK   10  A    between atoms: S2_16  and  C9_17 
REMARK   11  A    between atoms: C9_17  and  C10_18 
REMARK       I    between atoms: C10_18  and  N3_20 
REMARK   12  A    between atoms: C18_29  and  O5_30 
REMARK   13  A    between atoms: C18_29  and  N4_32 
REMARK   14  A    between atoms: N4_32  and  C19_34 
ROOT
HETATM    1  N1  UNL     1      24.407   8.153 -16.356  1.00  0.00    -0.347 N 
ATOM      2  H1  UNL     1      24.108   8.145 -17.331  1.00  0.00     0.163 HD
HETATM    3  C5  UNL     1      25.241   7.133 -15.912  1.00  0.00     0.241 C 
HETATM    4  O1  UNL     1      25.591   7.202 -14.676  1.00  0.00    -0.271 OA
ENDROOT
BRANCH   3   5
HETATM    5  C6  UNL     1      25.768   6.005 -16.665  1.00  0.00     0.180 C 
BRANCH   5   6
HETATM    6  N2  UNL     1      25.591   4.763 -15.976  1.00  0.00    -0.347 N 
HETATM    7  C7  UNL     1      24.562   3.836 -16.031  1.00  0.00     0.228 C 
HETATM    8  O2  UNL     1      23.563   4.010 -16.764  1.00  0.00    -0.273 OA
ATOM      9  H2  UNL     1      26.349   4.519 -15.338  1.00  0.00     0.163 HD
BRANCH   7  10
HETATM   10  C8  UNL     1      24.571   2.587 -15.234  1.00  0.00     0.188 C 
BRANCH  10  11
HETATM   11  S1  UNL     1      24.913   1.095 -16.139  1.00  0.00    -0.088 SA
BRANCH  11  12
HETATM   12  S2  UNL     1      25.345  -0.596 -14.999  1.00  0.00    -0.088 SA
BRANCH  12  13
HETATM   13  C9  UNL     1      25.219  -0.383 -13.235  1.00  0.00     0.189 C 
BRANCH  13  14
HETATM   14  C10 UNL     1      26.386   0.162 -12.550  1.00  0.00     0.230 C 
HETATM   15  O3  UNL     1      26.845   1.284 -12.857  1.00  0.00    -0.273 OA
HETATM   16  N3  UNL     1      27.024  -0.578 -11.512  1.00  0.00    -0.347 N 
HETATM   17  C11 UNL     1      26.522  -1.914 -11.150  1.00  0.00     0.152 C 
HETATM   18  C14 UNL     1      28.157  -0.097 -10.755  1.00  0.00     0.152 C 
HETATM   19  C12 UNL     1      27.314  -2.355  -9.930  1.00  0.00     0.187 C 
HETATM   20  O4  UNL     1      27.282  -1.412  -8.926  1.00  0.00    -0.388 OA
HETATM   21  C13 UNL     1      27.834  -0.204  -9.286  1.00  0.00     0.187 C 
ENDBRANCH  13  14
ENDBRANCH  12  13
ENDBRANCH  11  12
ENDBRANCH  10  11
ENDBRANCH   7  10
ENDBRANCH   5   6
BRANCH   5  22
HETATM   22  C15 UNL     1      27.089   6.199 -17.288  1.00  0.00     0.009 C 
HETATM   23  C16 UNL     1      27.000   7.103 -18.486  1.00  0.00     0.012 C 
HETATM   24  C17 UNL     1      27.676   4.872 -17.749  1.00  0.00     0.012 C 
ENDBRANCH   5  22
ENDBRANCH   3   5
BRANCH   1  25
HETATM   25  C4  UNL     1      23.932   9.244 -15.490  1.00  0.00     0.162 C 
BRANCH  25  26
HETATM   26  C2  UNL     1      24.021  10.559 -16.195  1.00  0.00     0.008 C 
HETATM   27  C1  UNL     1      24.163  11.671 -15.177  1.00  0.00     0.012 C 
HETATM   28  C3  UNL     1      25.089  10.585 -17.260  1.00  0.00     0.012 C 
ENDBRANCH  25  26
BRANCH  25  29
HETATM   29  C18 UNL     1      22.521   8.923 -15.046  1.00  0.00     0.140 C 
BRANCH  29  30
HETATM   30  O5  UNL     1      21.649   8.784 -16.025  1.00  0.00    -0.348 OA
ATOM     31  H5  UNL     1      21.094   9.540 -16.177  1.00  0.00     0.219 HD
ENDBRANCH  29  30
BRANCH  29  32
HETATM   32  N4  UNL     1      22.022   8.758 -13.818  1.00  0.00    -0.337 N 
ATOM     33  H4  UNL     1      21.224   9.394 -13.800  1.00  0.00     0.168 HD
BRANCH  32  34
HETATM   34  C19 UNL     1      22.008   8.255 -12.704  1.00  0.00     0.054 C 
HETATM   35  C20 UNL     1      21.108   7.765 -11.597  1.00  0.00     0.114 C 
HETATM   36  C21 UNL     1      21.986   6.538 -11.523  1.00  0.00     0.126 C 
HETATM   37  C22 UNL     1      21.867   5.740 -10.271  1.00  0.00     0.059 C 
HETATM   38  O6  UNL     1      22.014   5.720 -12.608  1.00  0.00    -0.303 OA
HETATM   39  S3  UNL     1      23.363   7.720 -11.558  1.00  0.00    -0.077 SA
HETATM   40  C23 UNL     1      21.552   4.351 -10.789  1.00  0.00     0.116 C 
HETATM   41  C24 UNL     1      21.660   4.441 -12.286  1.00  0.00     0.356 C 
HETATM   42  F1  UNL     1      20.489   4.071 -12.926  1.00  0.00    -0.176 F 
HETATM   43  F2  UNL     1      22.660   3.604 -12.779  1.00  0.00    -0.176 F 
ENDBRANCH  32  34
ENDBRANCH  29  32
ENDBRANCH  25  29
ENDBRANCH   1  25
TORSDOF 14
ENDMDL
MODEL 5
REMARK VINA RESULT: -6.951791861      5.191      8.422
REMARK  14 active torsions:
REMARK  status: ('A' for Active; 'I' for Inactive)
REMARK    1  A    between atoms: C2_2  and  C4_4 
REMARK    2  A    between atoms: C4_4  and  N1_5 
REMARK    3  A    between atoms: C4_4  and  C18_29 
REMARK       I    between atoms: N1_5  and  C5_7 
REMARK    4  A    between atoms: C5_7  and  C6_9 
REMARK    5  A    between atoms: C6_9  and  N2_10 
REMARK    6  A    between atoms: C6_9  and  C15_26 
REMARK       I    between atoms: N2_10  and  C7_12 
REMARK    7  A    between atoms: C7_12  and  C8_14 
REMARK    8  A    between atoms: C8_14  and  S1_15 
REMARK    9  A    between atoms: S1_15  and  S2_16 
REMARK   10  A    between atoms: S2_16  and  C9_17 
REMARK   11  A    between atoms: C9_17  and  C10_18 
REMARK       I    between atoms: C10_18  and  N3_20 
REMARK   12  A    between atoms: C18_29  and  O5_30 
REMARK   13  A    between atoms: C18_29  and  N4_32 
REMARK   14  A    between atoms: N4_32  and  C19_34 
ROOT
HETATM    1  N1  UNL     1      22.939   9.165 -16.382  1.00  0.00    -0.347 N 
ATOM      2  H1  UNL     1      22.242   9.699 -15.862  1.00  0.00     0.163 HD
HETATM    3  C5  UNL     1      22.496   8.199 -17.279  1.00  0.00     0.241 C 
HETATM    4  O1  UNL     1      23.421   7.565 -17.910  1.00  0.00    -0.271 OA
ENDROOT
BRANCH   3   5
HETATM    5  C6  UNL     1      21.129   7.817 -17.594  1.00  0.00     0.180 C 
BRANCH   5   6
HETATM    6  N2  UNL     1      20.619   8.512 -18.736  1.00  0.00    -0.347 N 
HETATM    7  C7  UNL     1      20.374   9.862 -18.939  1.00  0.00     0.228 C 
HETATM    8  O2  UNL     1      20.591  10.708 -18.043  1.00  0.00    -0.273 OA
ATOM      9  H2  UNL     1      20.398   7.915 -19.533  1.00  0.00     0.163 HD
BRANCH   7  10
HETATM   10  C8  UNL     1      19.845  10.392 -20.217  1.00  0.00     0.188 C 
BRANCH  10  11
HETATM   11  S1  UNL     1      21.059  10.755 -21.465  1.00  0.00    -0.088 SA
BRANCH  11  12
HETATM   12  S2  UNL     1      22.800  11.696 -20.811  1.00  0.00    -0.088 SA
BRANCH  12  13
HETATM   13  C9  UNL     1      23.986  10.640 -20.006  1.00  0.00     0.189 C 
BRANCH  13  14
HETATM   14  C10 UNL     1      25.230  11.259 -19.562  1.00  0.00     0.230 C 
HETATM   15  O3  UNL     1      25.342  12.503 -19.502  1.00  0.00    -0.273 OA
HETATM   16  N3  UNL     1      26.345  10.452 -19.188  1.00  0.00    -0.347 N 
HETATM   17  C11 UNL     1      26.249   8.986 -19.278  1.00  0.00     0.152 C 
HETATM   18  C14 UNL     1      27.598  10.981 -18.700  1.00  0.00     0.152 C 
HETATM   19  C12 UNL     1      27.529   8.434 -18.672  1.00  0.00     0.187 C 
HETATM   20  O4  UNL     1      27.765   8.942 -17.413  1.00  0.00    -0.388 OA
HETATM   21  C13 UNL     1      27.925  10.308 -17.390  1.00  0.00     0.187 C 
ENDBRANCH  13  14
ENDBRANCH  12  13
ENDBRANCH  11  12
ENDBRANCH  10  11
ENDBRANCH   7  10
ENDBRANCH   5   6
BRANCH   5  22
HETATM   22  C15 UNL     1      20.203   7.714 -16.451  1.00  0.00     0.009 C 
HETATM   23  C16 UNL     1      20.518   6.515 -15.599  1.00  0.00     0.012 C 
HETATM   24  C17 UNL     1      18.762   7.582 -16.926  1.00  0.00     0.012 C 
ENDBRANCH   5  22
ENDBRANCH   3   5
BRANCH   1  25
HETATM   25  C4  UNL     1      24.361   9.457 -16.143  1.00  0.00     0.162 C 
BRANCH  25  26
HETATM   26  C2  UNL     1      24.558  10.898 -15.798  1.00  0.00     0.008 C 
HETATM   27  C1  UNL     1      23.517  11.736 -16.510  1.00  0.00     0.012 C 
HETATM   28  C3  UNL     1      24.607  11.144 -14.310  1.00  0.00     0.012 C 
ENDBRANCH  25  26
BRANCH  25  29
HETATM   29  C18 UNL     1      24.864   8.531 -15.057  1.00  0.00     0.140 C 
BRANCH  29  30
HETATM   30  O5  UNL     1      26.165   8.321 -15.064  1.00  0.00    -0.348 OA
ATOM     31  H5  UNL     1      26.613   8.609 -15.850  1.00  0.00     0.219 HD
ENDBRANCH  29  30
BRANCH  29  32
HETATM   32  N4  UNL     1      24.194   7.894 -14.092  1.00  0.00    -0.337 N 
ATOM     33  H4  UNL     1      24.493   6.924 -14.198  1.00  0.00     0.168 HD
BRANCH  32  34
HETATM   34  C19 UNL     1      23.416   7.849 -13.151  1.00  0.00     0.054 C 
HETATM   35  C20 UNL     1      21.957   7.917 -12.768  1.00  0.00     0.114 C 
HETATM   36  C21 UNL     1      22.205   6.712 -11.891  1.00  0.00     0.126 C 
HETATM   37  C22 UNL     1      21.175   6.460 -10.844  1.00  0.00     0.059 C 
HETATM   38  O6  UNL     1      22.556   5.551 -12.504  1.00  0.00    -0.303 OA
HETATM   39  S3  UNL     1      23.670   7.625 -11.329  1.00  0.00    -0.077 SA
HETATM   40  C23 UNL     1      20.767   5.026 -11.116  1.00  0.00     0.116 C 
HETATM   41  C24 UNL     1      21.696   4.537 -12.193  1.00  0.00     0.356 C 
HETATM   42  F1  UNL     1      21.018   4.095 -13.317  1.00  0.00    -0.176 F 
HETATM   43  F2  UNL     1      22.471   3.465 -11.754  1.00  0.00    -0.176 F 
ENDBRANCH  32  34
ENDBRANCH  29  32
ENDBRANCH  25  29
ENDBRANCH   1  25
TORSDOF 14
ENDMDL
