MODEL 1
REMARK VINA RESULT: -7.807916244      0.000      0.000
REMARK  11 active torsions:
REMARK  status: ('A' for Active; 'I' for Inactive)
REMARK    1  A    between atoms: C2_2  and  C3_3 
REMARK    2  A    between atoms: C9_9  and  C10_10 
REMARK    3  A    between atoms: C10_10  and  C11_11 
REMARK    4  A    between atoms: C11_11  and  C12_12 
REMARK       I    between atoms: C12_12  and  N1_14 
REMARK    5  A    between atoms: C13_16  and  C15_18 
REMARK    6  A    between atoms: C23_31  and  C24_32 
REMARK    7  A    between atoms: C24_32  and  O7_33 
REMARK    8  A    between atoms: O7_33  and  C25_34 
REMARK       I    between atoms: C25_34  and  N2_36 
REMARK    9  A    between atoms: N2_36  and  C26_38 
REMARK   10  A    between atoms: C26_38  and  C28_41 
REMARK   11  A    between atoms: C28_41  and  C29_43 
ROOT
HETATM    1  C26 UNL     1      22.051   5.428 -13.052  1.00  0.00     0.269 C 
HETATM    2  C27 UNL     1      22.486   4.734 -14.289  1.00  0.00     0.092 C 
HETATM    3  N3  UNL     1      22.808   4.185 -15.255  1.00  0.00    -0.195 NA
ENDROOT
BRANCH   1   4
HETATM    4  N2  UNL     1      23.003   6.524 -12.885  1.00  0.00    -0.313 N 
HETATM    5  C25 UNL     1      22.492   7.855 -12.910  1.00  0.00     0.361 C 
HETATM    6  O8  UNL     1      21.260   8.093 -13.074  1.00  0.00    -0.238 OA
ATOM      7  H2  UNL     1      23.999   6.343 -12.756  1.00  0.00     0.166 HD
BRANCH   5   8
HETATM    8  O7  UNL     1      23.306   8.964 -12.758  1.00  0.00    -0.304 OA
BRANCH   8   9
HETATM    9  C24 UNL     1      24.478   9.182 -13.528  1.00  0.00     0.187 C 
BRANCH   9  10
HETATM   10  C23 UNL     1      24.013   9.181 -14.999  1.00  0.00     0.045 C 
HETATM   11  C3  UNL     1      24.944   8.506 -15.915  1.00  0.00     0.029 C 
HETATM   12  C4  UNL     1      24.644   7.992 -17.195  1.00  0.00     0.027 C 
HETATM   13  C22 UNL     1      25.754   9.791 -15.835  1.00  0.00     0.147 C 
HETATM   14  C5  UNL     1      23.460   8.076 -18.057  1.00  0.00    -0.036 C 
HETATM   15  C6  UNL     1      22.401   7.157 -17.346  1.00  0.00     0.015 C 
HETATM   16  C7  UNL     1      23.828   7.158 -19.225  1.00  0.00     0.015 C 
HETATM   17  C8  UNL     1      22.722   9.275 -18.382  1.00  0.00     0.062 C 
HETATM   18  C9  UNL     1      22.982  10.242 -19.455  1.00  0.00    -0.008 C 
HETATM   19  C19 UNL     1      22.686  10.102 -17.094  1.00  0.00     0.168 A 
HETATM   20  C16 UNL     1      24.358  10.767 -19.389  1.00  0.00     0.158 C 
HETATM   21  O4  UNL     1      25.041  10.860 -20.334  1.00  0.00    -0.293 OA
HETATM   22  C17 UNL     1      24.800  11.164 -18.033  1.00  0.00     0.125 C 
HETATM   23  C18 UNL     1      23.872  10.767 -16.940  1.00  0.00     0.110 A 
HETATM   24  O5  UNL     1      22.689  11.483 -17.094  1.00  0.00    -0.367 OA
HETATM   25  C20 UNL     1      24.459  10.477 -15.611  1.00  0.00     0.058 C 
HETATM   26  C21 UNL     1      24.476  11.678 -14.728  1.00  0.00     0.027 C 
HETATM   27  O6  UNL     1      26.896  10.171 -15.904  1.00  0.00    -0.296 OA
BRANCH  11  28
HETATM   28  C2  UNL     1      25.824   7.534 -15.074  1.00  0.00     0.013 C 
HETATM   29  C1  UNL     1      26.600   6.583 -15.897  1.00  0.00     0.006 C 
ENDBRANCH  11  28
BRANCH  18  30
HETATM   30  C10 UNL     1      22.321  10.192 -20.756  1.00  0.00    -0.006 C 
BRANCH  30  31
HETATM   31  C11 UNL     1      20.908  10.564 -20.966  1.00  0.00     0.131 C 
BRANCH  31  32
HETATM   32  C12 UNL     1      19.987   9.383 -20.761  1.00  0.00     0.225 C 
HETATM   33  O1  UNL     1      19.825   8.622 -21.722  1.00  0.00    -0.273 OA
HETATM   34  N1  UNL     1      19.362   9.187 -19.528  1.00  0.00    -0.325 N 
HETATM   35  C13 UNL     1      19.116   8.063 -18.955  1.00  0.00     0.085 C 
ATOM     36  H1  UNL     1      19.068  10.027 -19.028  1.00  0.00     0.169 HD
HETATM   37  C14 UNL     1      19.518   6.804 -19.629  1.00  0.00     0.076 C 
BRANCH  35  38
HETATM   38  C15 UNL     1      18.456   8.000 -17.675  1.00  0.00     0.222 C 
HETATM   39  O2  UNL     1      17.248   7.614 -17.582  1.00  0.00    -0.643 OA
HETATM   40  O3  UNL     1      19.065   8.341 -16.476  1.00  0.00    -0.643 OA
ENDBRANCH  35  38
ENDBRANCH  31  32
ENDBRANCH  30  31
ENDBRANCH  18  30
ENDBRANCH   9  10
ENDBRANCH   8   9
ENDBRANCH   5   8
ENDBRANCH   1   4
BRANCH   1  41
HETATM   41  C28 UNL     1      22.167   4.448 -11.943  1.00  0.00     0.227 C 
HETATM   42  O9  UNL     1      23.032   3.570 -11.930  1.00  0.00    -0.289 OA
BRANCH  41  43
HETATM   43  C29 UNL     1      21.227   4.503 -10.800  1.00  0.00     0.425 C 
HETATM   44  F1  UNL     1      21.549   5.640 -10.068  1.00  0.00    -0.206 F 
HETATM   45  F2  UNL     1      19.920   4.685 -11.257  1.00  0.00    -0.206 F 
ENDBRANCH  41  43
ENDBRANCH   1  41
TORSDOF 11
ENDMDL
MODEL 2
REMARK VINA RESULT: -7.460083216      3.241      6.218
REMARK  11 active torsions:
REMARK  status: ('A' for Active; 'I' for Inactive)
REMARK    1  A    between atoms: C2_2  and  C3_3 
REMARK    2  A    between atoms: C9_9  and  C10_10 
REMARK    3  A    between atoms: C10_10  and  C11_11 
REMARK    4  A    between atoms: C11_11  and  C12_12 
REMARK       I    between atoms: C12_12  and  N1_14 
REMARK    5  A    between atoms: C13_16  and  C15_18 
REMARK    6  A    between atoms: C23_31  and  C24_32 
REMARK    7  A    between atoms: C24_32  and  O7_33 
REMARK    8  A    between atoms: O7_33  and  C25_34 
REMARK       I    between atoms: C25_34  and  N2_36 
REMARK    9  A    between atoms: N2_36  and  C26_38 
REMARK   10  A    between atoms: C26_38  and  C28_41 
REMARK   11  A    between atoms: C28_41  and  C29_43 
ROOT
HETATM    1  C26 UNL     1      24.768   1.805 -13.874  1.00  0.00     0.269 C 
HETATM    2  C27 UNL     1      24.881   0.328 -13.818  1.00  0.00     0.092 C 
HETATM    3  N3  UNL     1      24.985  -0.824 -13.764  1.00  0.00    -0.195 NA
ENDROOT
BRANCH   1   4
HETATM    4  N2  UNL     1      23.364   2.060 -14.190  1.00  0.00    -0.313 N 
HETATM    5  C25 UNL     1      22.638   2.932 -13.326  1.00  0.00     0.361 C 
HETATM    6  O8  UNL     1      23.177   3.470 -12.315  1.00  0.00    -0.238 OA
ATOM      7  H2  UNL     1      22.919   1.629 -15.001  1.00  0.00     0.166 HD
BRANCH   5   8
HETATM    8  O7  UNL     1      21.306   3.243 -13.537  1.00  0.00    -0.304 OA
BRANCH   8   9
HETATM    9  C24 UNL     1      20.865   4.133 -14.551  1.00  0.00     0.187 C 
BRANCH   9  10
HETATM   10  C23 UNL     1      21.750   5.389 -14.414  1.00  0.00     0.045 C 
HETATM   11  C3  UNL     1      21.004   6.607 -14.070  1.00  0.00     0.029 C 
HETATM   12  C4  UNL     1      21.530   7.785 -13.497  1.00  0.00     0.027 C 
HETATM   13  C22 UNL     1      20.626   6.638 -15.543  1.00  0.00     0.147 C 
HETATM   14  C5  UNL     1      22.895   8.239 -13.212  1.00  0.00    -0.036 C 
HETATM   15  C6  UNL     1      23.353   7.344 -12.003  1.00  0.00     0.015 C 
HETATM   16  C7  UNL     1      22.665   9.552 -12.463  1.00  0.00     0.015 C 
HETATM   17  C8  UNL     1      24.017   8.199 -14.123  1.00  0.00     0.062 C 
HETATM   18  C9  UNL     1      24.408   9.192 -15.130  1.00  0.00    -0.008 C 
HETATM   19  C19 UNL     1      23.883   6.880 -14.889  1.00  0.00     0.168 A 
HETATM   20  C16 UNL     1      23.300   9.487 -16.058  1.00  0.00     0.158 C 
HETATM   21  O4  UNL     1      23.013  10.578 -16.366  1.00  0.00    -0.293 OA
HETATM   22  C17 UNL     1      22.589   8.293 -16.564  1.00  0.00     0.125 C 
HETATM   23  C18 UNL     1      22.961   7.020 -15.890  1.00  0.00     0.110 A 
HETATM   24  O5  UNL     1      24.287   6.736 -16.202  1.00  0.00    -0.367 OA
HETATM   25  C20 UNL     1      21.924   5.966 -15.789  1.00  0.00     0.058 C 
HETATM   26  C21 UNL     1      21.982   5.008 -16.929  1.00  0.00     0.027 C 
HETATM   27  O6  UNL     1      19.731   7.006 -16.261  1.00  0.00    -0.296 OA
BRANCH  11  28
HETATM   28  C2  UNL     1      19.658   6.176 -13.416  1.00  0.00     0.013 C 
HETATM   29  C1  UNL     1      19.638   6.342 -11.948  1.00  0.00     0.006 C 
ENDBRANCH  11  28
BRANCH  18  30
HETATM   30  C10 UNL     1      25.402  10.233 -14.884  1.00  0.00    -0.006 C 
BRANCH  30  31
HETATM   31  C11 UNL     1      26.810  10.132 -15.316  1.00  0.00     0.131 C 
BRANCH  31  32
HETATM   32  C12 UNL     1      26.915   9.775 -16.781  1.00  0.00     0.225 C 
HETATM   33  O1  UNL     1      27.513   8.730 -17.065  1.00  0.00    -0.273 OA
HETATM   34  N1  UNL     1      26.352  10.610 -17.748  1.00  0.00    -0.325 N 
HETATM   35  C13 UNL     1      25.781  10.250 -18.842  1.00  0.00     0.085 C 
ATOM     36  H1  UNL     1      26.398  11.612 -17.566  1.00  0.00     0.169 HD
HETATM   37  C14 UNL     1      25.681   8.806 -19.166  1.00  0.00     0.076 C 
BRANCH  35  38
HETATM   38  C15 UNL     1      25.239  11.220 -19.762  1.00  0.00     0.222 C 
HETATM   39  O2  UNL     1      24.923  10.887 -20.948  1.00  0.00    -0.643 OA
HETATM   40  O3  UNL     1      25.024  12.551 -19.440  1.00  0.00    -0.643 OA
ENDBRANCH  35  38
ENDBRANCH  31  32
ENDBRANCH  30  31
ENDBRANCH  18  30
ENDBRANCH   9  10
ENDBRANCH   8   9
ENDBRANCH   5   8
ENDBRANCH   1   4
BRANCH   1  41
HETATM   41  C28 UNL     1      25.653   2.265 -14.972  1.00  0.00     0.227 C 
HETATM   42  O9  UNL     1      26.792   1.820 -15.129  1.00  0.00    -0.289 OA
BRANCH  41  43
HETATM   43  C29 UNL     1      25.180   3.291 -15.930  1.00  0.00     0.425 C 
HETATM   44  F1  UNL     1      26.184   4.247 -16.025  1.00  0.00    -0.206 F 
HETATM   45  F2  UNL     1      25.042   2.736 -17.204  1.00  0.00    -0.206 F 
ENDBRANCH  41  43
ENDBRANCH   1  41
TORSDOF 11
ENDMDL
MODEL 3
REMARK VINA RESULT: -7.453522094      3.387      6.380
REMARK  11 active torsions:
REMARK  status: ('A' for Active; 'I' for Inactive)
REMARK    1  A    between atoms: C2_2  and  C3_3 
REMARK    2  A    between atoms: C9_9  and  C10_10 
REMARK    3  A    between atoms: C10_10  and  C11_11 
REMARK    4  A    between atoms: C11_11  and  C12_12 
REMARK       I    between atoms: C12_12  and  N1_14 
REMARK    5  A    between atoms: C13_16  and  C15_18 
REMARK    6  A    between atoms: C23_31  and  C24_32 
REMARK    7  A    between atoms: C24_32  and  O7_33 
REMARK    8  A    between atoms: O7_33  and  C25_34 
REMARK       I    between atoms: C25_34  and  N2_36 
REMARK    9  A    between atoms: N2_36  and  C26_38 
REMARK   10  A    between atoms: C26_38  and  C28_41 
REMARK   11  A    between atoms: C28_41  and  C29_43 
ROOT
HETATM    1  C26 UNL     1      24.779   1.805 -13.917  1.00  0.00     0.269 C 
HETATM    2  C27 UNL     1      24.848   0.326 -13.835  1.00  0.00     0.092 C 
HETATM    3  N3  UNL     1      24.919  -0.827 -13.762  1.00  0.00    -0.195 NA
ENDROOT
BRANCH   1   4
HETATM    4  N2  UNL     1      23.378   2.097 -14.214  1.00  0.00    -0.313 N 
HETATM    5  C25 UNL     1      22.672   2.944 -13.310  1.00  0.00     0.361 C 
HETATM    6  O8  UNL     1      23.226   3.430 -12.280  1.00  0.00    -0.238 OA
ATOM      7  H2  UNL     1      22.922   1.708 -15.040  1.00  0.00     0.166 HD
BRANCH   5   8
HETATM    8  O7  UNL     1      21.345   3.287 -13.500  1.00  0.00    -0.304 OA
BRANCH   8   9
HETATM    9  C24 UNL     1      20.899   4.120 -14.559  1.00  0.00     0.187 C 
BRANCH   9  10
HETATM   10  C23 UNL     1      21.767   5.392 -14.479  1.00  0.00     0.045 C 
HETATM   11  C3  UNL     1      21.008   6.609 -14.157  1.00  0.00     0.029 C 
HETATM   12  C4  UNL     1      21.527   7.813 -13.631  1.00  0.00     0.027 C 
HETATM   13  C22 UNL     1      20.602   6.589 -15.623  1.00  0.00     0.147 C 
HETATM   14  C5  UNL     1      22.890   8.296 -13.388  1.00  0.00    -0.036 C 
HETATM   15  C6  UNL     1      23.385   7.446 -12.162  1.00  0.00     0.015 C 
HETATM   16  C7  UNL     1      22.653   9.628 -12.676  1.00  0.00     0.015 C 
HETATM   17  C8  UNL     1      23.994   8.245 -14.319  1.00  0.00     0.062 C 
HETATM   18  C9  UNL     1      24.350   9.212 -15.364  1.00  0.00    -0.008 C 
HETATM   19  C19 UNL     1      23.866   6.900 -15.041  1.00  0.00     0.168 A 
HETATM   20  C16 UNL     1      23.220   9.461 -16.278  1.00  0.00     0.158 C 
HETATM   21  O4  UNL     1      22.910  10.537 -16.615  1.00  0.00    -0.293 OA
HETATM   22  C17 UNL     1      22.518   8.240 -16.733  1.00  0.00     0.125 C 
HETATM   23  C18 UNL     1      22.923   6.995 -16.028  1.00  0.00     0.110 A 
HETATM   24  O5  UNL     1      24.247   6.721 -16.356  1.00  0.00    -0.367 OA
HETATM   25  C20 UNL     1      21.905   5.929 -15.874  1.00  0.00     0.058 C 
HETATM   26  C21 UNL     1      21.956   4.936 -16.984  1.00  0.00     0.027 C 
HETATM   27  O6  UNL     1      19.687   6.920 -16.334  1.00  0.00    -0.296 OA
BRANCH  11  28
HETATM   28  C2  UNL     1      19.682   6.179 -13.464  1.00  0.00     0.013 C 
HETATM   29  C1  UNL     1      19.671   6.431 -12.008  1.00  0.00     0.006 C 
ENDBRANCH  11  28
BRANCH  18  30
HETATM   30  C10 UNL     1      25.332  10.274 -15.170  1.00  0.00    -0.006 C 
BRANCH  30  31
HETATM   31  C11 UNL     1      26.684  10.251 -15.761  1.00  0.00     0.131 C 
BRANCH  31  32
HETATM   32  C12 UNL     1      26.670   9.661 -17.153  1.00  0.00     0.225 C 
HETATM   33  O1  UNL     1      26.583  10.452 -18.099  1.00  0.00    -0.273 OA
HETATM   34  N1  UNL     1      26.753   8.278 -17.330  1.00  0.00    -0.325 N 
HETATM   35  C13 UNL     1      27.364   7.654 -18.272  1.00  0.00     0.085 C 
ATOM     36  H1  UNL     1      26.277   7.702 -16.635  1.00  0.00     0.169 HD
HETATM   37  C14 UNL     1      28.076   8.434 -19.314  1.00  0.00     0.076 C 
BRANCH  35  38
HETATM   38  C15 UNL     1      27.369   6.214 -18.341  1.00  0.00     0.222 C 
HETATM   39  O2  UNL     1      28.360   5.544 -17.906  1.00  0.00    -0.643 OA
HETATM   40  O3  UNL     1      26.329   5.464 -18.868  1.00  0.00    -0.643 OA
ENDBRANCH  35  38
ENDBRANCH  31  32
ENDBRANCH  30  31
ENDBRANCH  18  30
ENDBRANCH   9  10
ENDBRANCH   8   9
ENDBRANCH   5   8
ENDBRANCH   1   4
BRANCH   1  41
HETATM   41  C28 UNL     1      25.659   2.218 -15.039  1.00  0.00     0.227 C 
HETATM   42  O9  UNL     1      26.738   1.667 -15.264  1.00  0.00    -0.289 OA
BRANCH  41  43
HETATM   43  C29 UNL     1      25.252   3.324 -15.936  1.00  0.00     0.425 C 
HETATM   44  F1  UNL     1      26.189   4.338 -15.775  1.00  0.00    -0.206 F 
HETATM   45  F2  UNL     1      25.334   2.920 -17.270  1.00  0.00    -0.206 F 
ENDBRANCH  41  43
ENDBRANCH   1  41
TORSDOF 11
ENDMDL
MODEL 4
REMARK VINA RESULT: -7.298957844      3.300      6.234
REMARK  11 active torsions:
REMARK  status: ('A' for Active; 'I' for Inactive)
REMARK    1  A    between atoms: C2_2  and  C3_3 
REMARK    2  A    between atoms: C9_9  and  C10_10 
REMARK    3  A    between atoms: C10_10  and  C11_11 
REMARK    4  A    between atoms: C11_11  and  C12_12 
REMARK       I    between atoms: C12_12  and  N1_14 
REMARK    5  A    between atoms: C13_16  and  C15_18 
REMARK    6  A    between atoms: C23_31  and  C24_32 
REMARK    7  A    between atoms: C24_32  and  O7_33 
REMARK    8  A    between atoms: O7_33  and  C25_34 
REMARK       I    between atoms: C25_34  and  N2_36 
REMARK    9  A    between atoms: N2_36  and  C26_38 
REMARK   10  A    between atoms: C26_38  and  C28_41 
REMARK   11  A    between atoms: C28_41  and  C29_43 
ROOT
HETATM    1  C26 UNL     1      24.591   2.038 -13.981  1.00  0.00     0.269 C 
HETATM    2  C27 UNL     1      24.541   0.557 -13.914  1.00  0.00     0.092 C 
HETATM    3  N3  UNL     1      24.518  -0.599 -13.854  1.00  0.00    -0.195 NA
ENDROOT
BRANCH   1   4
HETATM    4  N2  UNL     1      23.196   2.453 -14.103  1.00  0.00    -0.313 N 
HETATM    5  C25 UNL     1      22.651   3.261 -13.062  1.00  0.00     0.361 C 
HETATM    6  O8  UNL     1      23.340   3.611 -12.060  1.00  0.00    -0.238 OA
ATOM      7  H2  UNL     1      22.630   2.174 -14.906  1.00  0.00     0.166 HD
BRANCH   5   8
HETATM    8  O7  UNL     1      21.343   3.712 -13.082  1.00  0.00    -0.304 OA
BRANCH   8   9
HETATM    9  C24 UNL     1      20.762   4.370 -14.197  1.00  0.00     0.187 C 
BRANCH   9  10
HETATM   10  C23 UNL     1      21.653   5.600 -14.463  1.00  0.00     0.045 C 
HETATM   11  C3  UNL     1      21.061   6.869 -14.017  1.00  0.00     0.029 C 
HETATM   12  C4  UNL     1      21.748   8.073 -13.750  1.00  0.00     0.027 C 
HETATM   13  C22 UNL     1      20.237   6.787 -15.293  1.00  0.00     0.147 C 
HETATM   14  C5  UNL     1      23.136   8.502 -13.953  1.00  0.00    -0.036 C 
HETATM   15  C6  UNL     1      23.948   7.699 -12.871  1.00  0.00     0.015 C 
HETATM   16  C7  UNL     1      23.162   9.882 -13.294  1.00  0.00     0.015 C 
HETATM   17  C8  UNL     1      23.912   8.345 -15.161  1.00  0.00     0.062 C 
HETATM   18  C9  UNL     1      23.971   9.233 -16.328  1.00  0.00    -0.008 C 
HETATM   19  C19 UNL     1      23.535   6.970 -15.721  1.00  0.00     0.168 A 
HETATM   20  C16 UNL     1      22.628   9.485 -16.884  1.00  0.00     0.158 C 
HETATM   21  O4  UNL     1      22.265  10.555 -17.187  1.00  0.00    -0.293 OA
HETATM   22  C17 UNL     1      21.786   8.277 -17.028  1.00  0.00     0.125 C 
HETATM   23  C18 UNL     1      22.345   7.055 -16.389  1.00  0.00     0.110 A 
HETATM   24  O5  UNL     1      23.503   6.699 -17.074  1.00  0.00    -0.367 OA
HETATM   25  C20 UNL     1      21.387   6.051 -15.871  1.00  0.00     0.058 C 
HETATM   26  C21 UNL     1      21.076   4.996 -16.877  1.00  0.00     0.027 C 
HETATM   27  O6  UNL     1      19.163   7.122 -15.724  1.00  0.00    -0.296 OA
BRANCH  11  28
HETATM   28  C2  UNL     1      19.988   6.544 -12.936  1.00  0.00     0.013 C 
HETATM   29  C1  UNL     1      20.394   6.932 -11.569  1.00  0.00     0.006 C 
ENDBRANCH  11  28
BRANCH  18  30
HETATM   30  C10 UNL     1      24.998  10.255 -16.505  1.00  0.00    -0.006 C 
BRANCH  30  31
HETATM   31  C11 UNL     1      26.208  10.060 -17.327  1.00  0.00     0.131 C 
BRANCH  31  32
HETATM   32  C12 UNL     1      26.933   8.788 -16.951  1.00  0.00     0.225 C 
HETATM   33  O1  UNL     1      27.514   8.772 -15.859  1.00  0.00    -0.273 OA
HETATM   34  N1  UNL     1      26.929   7.695 -17.820  1.00  0.00    -0.325 N 
HETATM   35  C13 UNL     1      26.886   6.452 -17.499  1.00  0.00     0.085 C 
ATOM     36  H1  UNL     1      26.964   7.907 -18.817  1.00  0.00     0.169 HD
HETATM   37  C14 UNL     1      26.833   6.076 -16.064  1.00  0.00     0.076 C 
BRANCH  35  38
HETATM   38  C15 UNL     1      26.890   5.415 -18.501  1.00  0.00     0.222 C 
HETATM   39  O2  UNL     1      25.850   5.169 -19.190  1.00  0.00    -0.643 OA
HETATM   40  O3  UNL     1      27.994   4.626 -18.789  1.00  0.00    -0.643 OA
ENDBRANCH  35  38
ENDBRANCH  31  32
ENDBRANCH  30  31
ENDBRANCH  18  30
ENDBRANCH   9  10
ENDBRANCH   8   9
ENDBRANCH   5   8
ENDBRANCH   1   4
BRANCH   1  41
HETATM   41  C28 UNL     1      25.361   2.389 -15.200  1.00  0.00     0.227 C 
HETATM   42  O9  UNL     1      26.579   2.576 -15.177  1.00  0.00    -0.289 OA
BRANCH  41  43
HETATM   43  C29 UNL     1      24.670   2.527 -16.503  1.00  0.00     0.425 C 
HETATM   44  F1  UNL     1      24.334   3.868 -16.641  1.00  0.00    -0.206 F 
HETATM   45  F2  UNL     1      25.546   2.229 -17.549  1.00  0.00    -0.206 F 
ENDBRANCH  41  43
ENDBRANCH   1  41
TORSDOF 11
ENDMDL
MODEL 5
REMARK VINA RESULT: -7.279172095      2.423      3.203
REMARK  11 active torsions:
REMARK  status: ('A' for Active; 'I' for Inactive)
REMARK    1  A    between atoms: C2_2  and  C3_3 
REMARK    2  A    between atoms: C9_9  and  C10_10 
REMARK    3  A    between atoms: C10_10  and  C11_11 
REMARK    4  A    between atoms: C11_11  and  C12_12 
REMARK       I    between atoms: C12_12  and  N1_14 
REMARK    5  A    between atoms: C13_16  and  C15_18 
REMARK    6  A    between atoms: C23_31  and  C24_32 
REMARK    7  A    between atoms: C24_32  and  O7_33 
REMARK    8  A    between atoms: O7_33  and  C25_34 
REMARK       I    between atoms: C25_34  and  N2_36 
REMARK    9  A    between atoms: N2_36  and  C26_38 
REMARK   10  A    between atoms: C26_38  and  C28_41 
REMARK   11  A    between atoms: C28_41  and  C29_43 
ROOT
HETATM    1  C26 UNL     1      21.957   5.319 -13.116  1.00  0.00     0.269 C 
HETATM    2  C27 UNL     1      22.238   4.535 -14.344  1.00  0.00     0.092 C 
HETATM    3  N3  UNL     1      22.440   3.917 -15.301  1.00  0.00    -0.195 NA
ENDROOT
BRANCH   1   4
HETATM    4  N2  UNL     1      22.982   6.360 -13.096  1.00  0.00    -0.313 N 
HETATM    5  C25 UNL     1      22.586   7.672 -12.702  1.00  0.00     0.361 C 
HETATM    6  O8  UNL     1      21.391   7.940 -12.382  1.00  0.00    -0.238 OA
ATOM      7  H2  UNL     1      23.947   6.156 -13.355  1.00  0.00     0.166 HD
BRANCH   5   8
HETATM    8  O7  UNL     1      23.477   8.729 -12.645  1.00  0.00    -0.304 OA
BRANCH   8   9
HETATM    9  C24 UNL     1      24.645   8.808 -13.447  1.00  0.00     0.187 C 
BRANCH   9  10
HETATM   10  C23 UNL     1      24.153   9.175 -14.862  1.00  0.00     0.045 C 
HETATM   11  C3  UNL     1      24.868   8.477 -15.939  1.00  0.00     0.029 C 
HETATM   12  C4  UNL     1      24.417   8.282 -17.263  1.00  0.00     0.027 C 
HETATM   13  C22 UNL     1      25.965   9.503 -15.704  1.00  0.00     0.147 C 
HETATM   14  C5  UNL     1      23.265   8.789 -18.015  1.00  0.00    -0.036 C 
HETATM   15  C6  UNL     1      22.037   8.029 -17.394  1.00  0.00     0.015 C 
HETATM   16  C7  UNL     1      23.368   8.033 -19.341  1.00  0.00     0.015 C 
HETATM   17  C8  UNL     1      22.828  10.165 -18.084  1.00  0.00     0.062 C 
HETATM   18  C9  UNL     1      23.282  11.220 -18.997  1.00  0.00    -0.008 C 
HETATM   19  C19 UNL     1      23.028  10.736 -16.677  1.00  0.00     0.168 A 
HETATM   20  C16 UNL     1      24.746  11.391 -18.941  1.00  0.00     0.158 C 
HETATM   21  O4  UNL     1      25.404  11.490 -19.903  1.00  0.00    -0.293 OA
HETATM   22  C17 UNL     1      25.308  11.428 -17.573  1.00  0.00     0.125 C 
HETATM   23  C18 UNL     1      24.343  11.069 -16.499  1.00  0.00     0.110 A 
HETATM   24  O5  UNL     1      23.363  12.056 -16.449  1.00  0.00    -0.367 OA
HETATM   25  C20 UNL     1      24.880  10.420 -15.280  1.00  0.00     0.058 C 
HETATM   26  C21 UNL     1      25.209  11.408 -14.214  1.00  0.00     0.027 C 
HETATM   27  O6  UNL     1      27.162   9.614 -15.788  1.00  0.00    -0.296 OA
BRANCH  11  28
HETATM   28  C2  UNL     1      25.511   7.194 -15.334  1.00  0.00     0.013 C 
HETATM   29  C1  UNL     1      25.499   6.039 -16.256  1.00  0.00     0.006 C 
ENDBRANCH  11  28
BRANCH  18  30
HETATM   30  C10 UNL     1      22.592  11.556 -20.240  1.00  0.00    -0.006 C 
BRANCH  30  31
HETATM   31  C11 UNL     1      21.337  12.331 -20.289  1.00  0.00     0.131 C 
BRANCH  31  32
HETATM   32  C12 UNL     1      21.452  13.621 -19.510  1.00  0.00     0.225 C 
HETATM   33  O1  UNL     1      22.501  14.264 -19.636  1.00  0.00    -0.273 OA
HETATM   34  N1  UNL     1      20.402  14.041 -18.691  1.00  0.00    -0.325 N 
HETATM   35  C13 UNL     1      20.014  15.250 -18.490  1.00  0.00     0.085 C 
ATOM     36  H1  UNL     1      19.888  13.310 -18.200  1.00  0.00     0.169 HD
HETATM   37  C14 UNL     1      20.720  16.361 -19.176  1.00  0.00     0.076 C 
BRANCH  35  38
HETATM   38  C15 UNL     1      18.911  15.550 -17.612  1.00  0.00     0.222 C 
HETATM   39  O2  UNL     1      18.958  16.546 -16.822  1.00  0.00    -0.643 OA
HETATM   40  O3  UNL     1      17.745  14.802 -17.557  1.00  0.00    -0.643 OA
ENDBRANCH  35  38
ENDBRANCH  31  32
ENDBRANCH  30  31
ENDBRANCH  18  30
ENDBRANCH   9  10
ENDBRANCH   8   9
ENDBRANCH   5   8
ENDBRANCH   1   4
BRANCH   1  41
HETATM   41  C28 UNL     1      22.115   4.394 -11.967  1.00  0.00     0.227 C 
HETATM   42  O9  UNL     1      23.013   3.551 -11.920  1.00  0.00    -0.289 OA
BRANCH  41  43
HETATM   43  C29 UNL     1      21.178   4.462 -10.822  1.00  0.00     0.425 C 
HETATM   44  F1  UNL     1      21.547   5.568 -10.065  1.00  0.00    -0.206 F 
HETATM   45  F2  UNL     1      19.880   4.708 -11.273  1.00  0.00    -0.206 F 
ENDBRANCH  41  43
ENDBRANCH   1  41
TORSDOF 11
ENDMDL
