MODEL 1
REMARK VINA RESULT: -7.555658435      0.000      0.000
REMARK  11 active torsions:
REMARK  status: ('A' for Active; 'I' for Inactive)
REMARK    1  A    between atoms: C5_5  and  C6_6 
REMARK       I    between atoms: C6_6  and  N1_8 
REMARK    2  A    between atoms: N1_8  and  C7_10 
REMARK    3  A    between atoms: C7_10  and  C8_11 
REMARK    4  A    between atoms: C7_10  and  C12_19 
REMARK    5  A    between atoms: C8_11  and  N2_12 
REMARK    6  A    between atoms: C12_19  and  C13_21 
REMARK       I    between atoms: C13_21  and  N4_23 
REMARK    7  A    between atoms: C18_29  and  C19_30 
REMARK       I    between atoms: C19_30  and  N5_32 
REMARK    8  A    between atoms: N5_32  and  C20_34 
REMARK    9  A    between atoms: C20_34  and  C21_35 
REMARK   10  A    between atoms: C20_34  and  C25_41 
REMARK   11  A    between atoms: C21_35  and  C22_37 
ROOT
HETATM    1  C13 UNL     1      25.379   6.182 -17.283  1.00  0.00     0.293 C 
HETATM    2  O3  UNL     1      24.402   6.230 -18.123  1.00  0.00    -0.264 OA
HETATM    3  N4  UNL     1      25.392   7.240 -16.345  1.00  0.00    -0.322 N 
HETATM    4  C14 UNL     1      26.376   7.401 -15.299  1.00  0.00     0.202 C 
HETATM    5  S1  UNL     1      26.771   9.187 -15.569  1.00  0.00    -0.137 SA
HETATM    6  C15 UNL     1      25.071   9.636 -16.117  1.00  0.00     0.032 C 
HETATM    7  C16 UNL     1      24.553  10.553 -15.052  1.00  0.00     0.029 C 
HETATM    8  C17 UNL     1      25.274  10.370 -17.435  1.00  0.00     0.029 C 
HETATM    9  C18 UNL     1      24.420   8.335 -16.277  1.00  0.00     0.198 C 
ENDROOT
BRANCH   1  10
HETATM   10  C12 UNL     1      26.272   5.088 -17.439  1.00  0.00     0.240 C 
HETATM   11  O2  UNL     1      27.148   5.079 -18.341  1.00  0.00    -0.285 OA
BRANCH  10  12
HETATM   12  C7  UNL     1      26.266   3.862 -16.569  1.00  0.00     0.182 C 
BRANCH  12  13
HETATM   13  N1  UNL     1      27.607   3.319 -16.449  1.00  0.00    -0.347 N 
HETATM   14  C6  UNL     1      28.054   2.420 -15.484  1.00  0.00     0.222 C 
HETATM   15  O1  UNL     1      27.260   1.992 -14.606  1.00  0.00    -0.273 OA
ATOM     16  H1  UNL     1      28.290   3.627 -17.141  1.00  0.00     0.163 HD
BRANCH  14  17
HETATM   17  C5  UNL     1      29.461   1.952 -15.469  1.00  0.00     0.078 C 
HETATM   18  C4  UNL     1      30.424   2.927 -16.084  1.00  0.00     0.014 C 
HETATM   19  C3  UNL     1      31.296   3.507 -14.980  1.00  0.00     0.005 C 
HETATM   20  C2  UNL     1      32.203   2.398 -14.490  1.00  0.00    -0.019 C 
HETATM   21  C1  UNL     1      32.949   2.879 -13.241  1.00  0.00     0.010 C 
HETATM   22  C29 UNL     1      31.377   1.182 -14.177  1.00  0.00     0.005 C 
HETATM   23  C28 UNL     1      29.908   1.496 -14.106  1.00  0.00     0.014 C 
ENDBRANCH  14  17
ENDBRANCH  12  13
BRANCH  12  24
HETATM   24  C8  UNL     1      25.376   2.816 -17.144  1.00  0.00     0.162 C 
BRANCH  24  25
HETATM   25  N2  UNL     1      24.107   2.679 -16.465  1.00  0.00    -0.346 N 
HETATM   26  C9  UNL     1      23.824   2.091 -15.300  1.00  0.00     0.185 A 
HETATM   27  N3  UNL     1      22.517   2.201 -15.029  1.00  0.00    -0.328 N 
HETATM   28  C10 UNL     1      21.946   2.875 -16.041  1.00  0.00     0.204 A 
ATOM     29  H3  UNL     1      22.041   1.839 -14.202  1.00  0.00     0.169 HD
HETATM   30  F1  UNL     1      20.629   3.159 -16.085  1.00  0.00    -0.185 F 
HETATM   31  C11 UNL     1      22.954   3.170 -16.937  1.00  0.00     0.153 A 
ENDBRANCH  24  25
ENDBRANCH  12  24
ENDBRANCH  10  12
ENDBRANCH   1  10
BRANCH   9  32
HETATM   32  C19 UNL     1      23.373   8.038 -15.326  1.00  0.00     0.242 C 
HETATM   33  O4  UNL     1      22.191   8.455 -15.588  1.00  0.00    -0.271 OA
HETATM   34  N5  UNL     1      23.490   7.332 -14.109  1.00  0.00    -0.347 N 
ATOM     35  H5  UNL     1      24.410   6.970 -13.858  1.00  0.00     0.163 HD
BRANCH  34  36
HETATM   36  C20 UNL     1      22.398   7.087 -13.193  1.00  0.00     0.161 C 
BRANCH  36  37
HETATM   37  C21 UNL     1      22.059   5.694 -12.947  1.00  0.00     0.188 C 
HETATM   38  O5  UNL     1      22.917   4.879 -13.383  1.00  0.00    -0.292 OA
BRANCH  37  39
HETATM   39  C22 UNL     1      20.928   5.070 -12.294  1.00  0.00     0.158 C 
HETATM   40  C23 UNL     1      21.062   4.589 -10.901  1.00  0.00     0.060 C 
HETATM   41  C24 UNL     1      19.689   5.999 -12.287  1.00  0.00     0.060 C 
HETATM   42  F2  UNL     1      20.483   3.988 -13.072  1.00  0.00    -0.235 F 
ENDBRANCH  37  39
ENDBRANCH  36  37
BRANCH  36  43
HETATM   43  C25 UNL     1      22.587   7.855 -11.902  1.00  0.00     0.008 C 
HETATM   44  C26 UNL     1      21.793   9.180 -11.978  1.00  0.00     0.012 C 
HETATM   45  C27 UNL     1      24.026   8.130 -11.573  1.00  0.00     0.012 C 
ENDBRANCH  36  43
ENDBRANCH  34  36
ENDBRANCH   9  32
TORSDOF 11
ENDMDL
MODEL 2
REMARK VINA RESULT: -7.544756095      3.309      6.331
REMARK  11 active torsions:
REMARK  status: ('A' for Active; 'I' for Inactive)
REMARK    1  A    between atoms: C5_5  and  C6_6 
REMARK       I    between atoms: C6_6  and  N1_8 
REMARK    2  A    between atoms: N1_8  and  C7_10 
REMARK    3  A    between atoms: C7_10  and  C8_11 
REMARK    4  A    between atoms: C7_10  and  C12_19 
REMARK    5  A    between atoms: C8_11  and  N2_12 
REMARK    6  A    between atoms: C12_19  and  C13_21 
REMARK       I    between atoms: C13_21  and  N4_23 
REMARK    7  A    between atoms: C18_29  and  C19_30 
REMARK       I    between atoms: C19_30  and  N5_32 
REMARK    8  A    between atoms: N5_32  and  C20_34 
REMARK    9  A    between atoms: C20_34  and  C21_35 
REMARK   10  A    between atoms: C20_34  and  C25_41 
REMARK   11  A    between atoms: C21_35  and  C22_37 
ROOT
HETATM    1  C13 UNL     1      23.787   4.338 -17.424  1.00  0.00     0.293 C 
HETATM    2  O3  UNL     1      22.674   4.573 -18.030  1.00  0.00    -0.264 OA
HETATM    3  N4  UNL     1      24.352   5.467 -16.787  1.00  0.00    -0.322 N 
HETATM    4  C14 UNL     1      25.585   5.456 -16.035  1.00  0.00     0.202 C 
HETATM    5  S1  UNL     1      26.381   6.942 -16.796  1.00  0.00    -0.137 SA
HETATM    6  C15 UNL     1      24.796   7.837 -17.071  1.00  0.00     0.032 C 
HETATM    7  C16 UNL     1      24.867   9.031 -16.171  1.00  0.00     0.029 C 
HETATM    8  C17 UNL     1      24.833   8.241 -18.539  1.00  0.00     0.029 C 
HETATM    9  C18 UNL     1      23.785   6.819 -16.780  1.00  0.00     0.198 C 
ENDROOT
BRANCH   1  10
HETATM   10  C12 UNL     1      24.256   2.999 -17.497  1.00  0.00     0.240 C 
HETATM   11  O2  UNL     1      25.163   2.665 -18.300  1.00  0.00    -0.285 OA
BRANCH  10  12
HETATM   12  C7  UNL     1      23.735   1.874 -16.647  1.00  0.00     0.182 C 
BRANCH  12  13
HETATM   13  N1  UNL     1      22.307   2.021 -16.434  1.00  0.00    -0.347 N 
HETATM   14  C6  UNL     1      21.291   1.460 -17.206  1.00  0.00     0.222 C 
HETATM   15  O1  UNL     1      21.579   0.738 -18.195  1.00  0.00    -0.273 OA
ATOM     16  H1  UNL     1      22.017   2.591 -15.639  1.00  0.00     0.163 HD
BRANCH  14  17
HETATM   17  C5  UNL     1      19.865   1.701 -16.884  1.00  0.00     0.078 C 
HETATM   18  C4  UNL     1      19.246   2.807 -17.689  1.00  0.00     0.014 C 
HETATM   19  C3  UNL     1      18.242   2.196 -18.657  1.00  0.00     0.005 C 
HETATM   20  C2  UNL     1      17.078   1.681 -17.838  1.00  0.00    -0.019 C 
HETATM   21  C1  UNL     1      16.145   0.876 -18.748  1.00  0.00     0.010 C 
HETATM   22  C29 UNL     1      17.598   0.823 -16.720  1.00  0.00     0.005 C 
HETATM   23  C28 UNL     1      19.039   0.442 -16.919  1.00  0.00     0.014 C 
ENDBRANCH  14  17
ENDBRANCH  12  13
BRANCH  12  24
HETATM   24  C8  UNL     1      24.417   1.859 -15.323  1.00  0.00     0.162 C 
BRANCH  24  25
HETATM   25  N2  UNL     1      24.643   0.535 -14.788  1.00  0.00    -0.346 N 
HETATM   26  C9  UNL     1      24.513  -0.655 -15.379  1.00  0.00     0.185 A 
HETATM   27  N3  UNL     1      24.837  -1.636 -14.526  1.00  0.00    -0.328 N 
HETATM   28  C10 UNL     1      25.184  -1.064 -13.360  1.00  0.00     0.204 A 
ATOM     29  H3  UNL     1      24.823  -2.636 -14.725  1.00  0.00     0.169 HD
HETATM   30  F1  UNL     1      25.565  -1.772 -12.279  1.00  0.00    -0.185 F 
HETATM   31  C11 UNL     1      25.058   0.299 -13.537  1.00  0.00     0.153 A 
ENDBRANCH  24  25
ENDBRANCH  12  24
ENDBRANCH  10  12
ENDBRANCH   1  10
BRANCH   9  32
HETATM   32  C19 UNL     1      22.995   7.043 -15.592  1.00  0.00     0.242 C 
HETATM   33  O4  UNL     1      21.853   7.605 -15.729  1.00  0.00    -0.271 OA
HETATM   34  N5  UNL     1      23.332   6.718 -14.260  1.00  0.00    -0.347 N 
ATOM     35  H5  UNL     1      24.229   6.259 -14.096  1.00  0.00     0.163 HD
BRANCH  34  36
HETATM   36  C20 UNL     1      22.496   6.990 -13.111  1.00  0.00     0.161 C 
BRANCH  36  37
HETATM   37  C21 UNL     1      22.159   5.852 -12.271  1.00  0.00     0.188 C 
HETATM   38  O5  UNL     1      22.983   4.900 -12.353  1.00  0.00    -0.292 OA
BRANCH  37  39
HETATM   39  C22 UNL     1      21.062   5.608 -11.359  1.00  0.00     0.158 C 
HETATM   40  C23 UNL     1      19.670   5.655 -11.861  1.00  0.00     0.060 C 
HETATM   41  C24 UNL     1      21.197   4.233 -10.659  1.00  0.00     0.060 C 
HETATM   42  F2  UNL     1      21.150   6.501 -10.278  1.00  0.00    -0.235 F 
ENDBRANCH  37  39
ENDBRANCH  36  37
BRANCH  36  43
HETATM   43  C25 UNL     1      23.046   8.143 -12.299  1.00  0.00     0.008 C 
HETATM   44  C26 UNL     1      22.195   9.407 -12.570  1.00  0.00     0.012 C 
HETATM   45  C27 UNL     1      24.496   8.427 -12.564  1.00  0.00     0.012 C 
ENDBRANCH  36  43
ENDBRANCH  34  36
ENDBRANCH   9  32
TORSDOF 11
ENDMDL
MODEL 3
REMARK VINA RESULT: -7.422359838      3.525      6.856
REMARK  11 active torsions:
REMARK  status: ('A' for Active; 'I' for Inactive)
REMARK    1  A    between atoms: C5_5  and  C6_6 
REMARK       I    between atoms: C6_6  and  N1_8 
REMARK    2  A    between atoms: N1_8  and  C7_10 
REMARK    3  A    between atoms: C7_10  and  C8_11 
REMARK    4  A    between atoms: C7_10  and  C12_19 
REMARK    5  A    between atoms: C8_11  and  N2_12 
REMARK    6  A    between atoms: C12_19  and  C13_21 
REMARK       I    between atoms: C13_21  and  N4_23 
REMARK    7  A    between atoms: C18_29  and  C19_30 
REMARK       I    between atoms: C19_30  and  N5_32 
REMARK    8  A    between atoms: N5_32  and  C20_34 
REMARK    9  A    between atoms: C20_34  and  C21_35 
REMARK   10  A    between atoms: C20_34  and  C25_41 
REMARK   11  A    between atoms: C21_35  and  C22_37 
ROOT
HETATM    1  C13 UNL     1      21.415   4.706 -17.380  1.00  0.00     0.293 C 
HETATM    2  O3  UNL     1      20.145   4.845 -17.205  1.00  0.00    -0.264 OA
HETATM    3  N4  UNL     1      22.165   5.883 -17.153  1.00  0.00    -0.322 N 
HETATM    4  C14 UNL     1      23.601   5.980 -17.272  1.00  0.00     0.202 C 
HETATM    5  S1  UNL     1      23.687   7.518 -18.296  1.00  0.00    -0.137 SA
HETATM    6  C15 UNL     1      22.186   8.278 -17.548  1.00  0.00     0.032 C 
HETATM    7  C16 UNL     1      22.690   9.483 -16.815  1.00  0.00     0.029 C 
HETATM    8  C17 UNL     1      21.321   8.670 -18.739  1.00  0.00     0.029 C 
HETATM    9  C18 UNL     1      21.617   7.184 -16.759  1.00  0.00     0.198 C 
ENDROOT
BRANCH   1  10
HETATM   10  C12 UNL     1      21.844   3.409 -17.770  1.00  0.00     0.240 C 
HETATM   11  O2  UNL     1      22.060   3.124 -18.974  1.00  0.00    -0.285 OA
BRANCH  10  12
HETATM   12  C7  UNL     1      22.080   2.275 -16.812  1.00  0.00     0.182 C 
BRANCH  12  13
HETATM   13  N1  UNL     1      20.913   1.413 -16.750  1.00  0.00    -0.347 N 
HETATM   14  C6  UNL     1      20.692   0.261 -17.502  1.00  0.00     0.222 C 
HETATM   15  O1  UNL     1      21.559  -0.127 -18.327  1.00  0.00    -0.273 OA
ATOM     16  H1  UNL     1      20.182   1.678 -16.090  1.00  0.00     0.163 HD
BRANCH  14  17
HETATM   17  C5  UNL     1      19.444  -0.523 -17.348  1.00  0.00     0.078 C 
HETATM   18  C4  UNL     1      18.431   0.130 -16.452  1.00  0.00     0.014 C 
HETATM   19  C3  UNL     1      17.257   0.591 -17.305  1.00  0.00     0.005 C 
HETATM   20  C2  UNL     1      16.534  -0.648 -17.787  1.00  0.00    -0.019 C 
HETATM   21  C1  UNL     1      15.474  -0.239 -18.815  1.00  0.00     0.010 C 
HETATM   22  C29 UNL     1      17.526  -1.597 -18.398  1.00  0.00     0.005 C 
HETATM   23  C28 UNL     1      18.851  -0.937 -18.668  1.00  0.00     0.014 C 
ENDBRANCH  14  17
ENDBRANCH  12  13
BRANCH  12  24
HETATM   24  C8  UNL     1      22.364   2.794 -15.445  1.00  0.00     0.162 C 
BRANCH  24  25
HETATM   25  N2  UNL     1      23.710   2.541 -14.983  1.00  0.00    -0.346 N 
HETATM   26  C9  UNL     1      24.878   2.858 -15.548  1.00  0.00     0.185 A 
HETATM   27  N3  UNL     1      25.895   2.449 -14.778  1.00  0.00    -0.328 N 
HETATM   28  C10 UNL     1      25.369   1.856 -13.692  1.00  0.00     0.204 A 
ATOM     29  H3  UNL     1      26.888   2.567 -14.978  1.00  0.00     0.169 HD
HETATM   30  F1  UNL     1      26.123   1.325 -12.708  1.00  0.00    -0.185 F 
HETATM   31  C11 UNL     1      23.998   1.920 -13.832  1.00  0.00     0.153 A 
ENDBRANCH  24  25
ENDBRANCH  12  24
ENDBRANCH  10  12
ENDBRANCH   1  10
BRANCH   9  32
HETATM   32  C19 UNL     1      21.667   7.355 -15.326  1.00  0.00     0.242 C 
HETATM   33  O4  UNL     1      20.607   7.761 -14.733  1.00  0.00    -0.271 OA
HETATM   34  N5  UNL     1      22.768   7.130 -14.470  1.00  0.00    -0.347 N 
ATOM     35  H5  UNL     1      23.635   6.797 -14.891  1.00  0.00     0.163 HD
BRANCH  34  36
HETATM   36  C20 UNL     1      22.751   7.341 -13.039  1.00  0.00     0.161 C 
BRANCH  36  37
HETATM   37  C21 UNL     1      22.298   6.224 -12.225  1.00  0.00     0.188 C 
HETATM   38  O5  UNL     1      22.969   5.168 -12.394  1.00  0.00    -0.292 OA
BRANCH  37  39
HETATM   39  C22 UNL     1      21.229   6.097 -11.258  1.00  0.00     0.158 C 
HETATM   40  C23 UNL     1      20.226   7.179 -11.130  1.00  0.00     0.060 C 
HETATM   41  C24 UNL     1      20.406   4.804 -11.484  1.00  0.00     0.060 C 
HETATM   42  F2  UNL     1      21.778   5.880  -9.984  1.00  0.00    -0.235 F 
ENDBRANCH  37  39
ENDBRANCH  36  37
BRANCH  36  43
HETATM   43  C25 UNL     1      24.078   7.886 -12.554  1.00  0.00     0.008 C 
HETATM   44  C26 UNL     1      23.981   8.186 -11.039  1.00  0.00     0.012 C 
HETATM   45  C27 UNL     1      24.532   9.109 -13.298  1.00  0.00     0.012 C 
ENDBRANCH  36  43
ENDBRANCH  34  36
ENDBRANCH   9  32
TORSDOF 11
ENDMDL
MODEL 4
REMARK VINA RESULT: -7.421891847      2.157      4.975
REMARK  11 active torsions:
REMARK  status: ('A' for Active; 'I' for Inactive)
REMARK    1  A    between atoms: C5_5  and  C6_6 
REMARK       I    between atoms: C6_6  and  N1_8 
REMARK    2  A    between atoms: N1_8  and  C7_10 
REMARK    3  A    between atoms: C7_10  and  C8_11 
REMARK    4  A    between atoms: C7_10  and  C12_19 
REMARK    5  A    between atoms: C8_11  and  N2_12 
REMARK    6  A    between atoms: C12_19  and  C13_21 
REMARK       I    between atoms: C13_21  and  N4_23 
REMARK    7  A    between atoms: C18_29  and  C19_30 
REMARK       I    between atoms: C19_30  and  N5_32 
REMARK    8  A    between atoms: N5_32  and  C20_34 
REMARK    9  A    between atoms: C20_34  and  C21_35 
REMARK   10  A    between atoms: C20_34  and  C25_41 
REMARK   11  A    between atoms: C21_35  and  C22_37 
ROOT
HETATM    1  C13 UNL     1      25.724   6.220 -17.071  1.00  0.00     0.293 C 
HETATM    2  O3  UNL     1      24.794   6.193 -17.964  1.00  0.00    -0.264 OA
HETATM    3  N4  UNL     1      25.652   7.325 -16.191  1.00  0.00    -0.322 N 
HETATM    4  C14 UNL     1      26.571   7.571 -15.103  1.00  0.00     0.202 C 
HETATM    5  S1  UNL     1      26.928   9.353 -15.445  1.00  0.00    -0.137 SA
HETATM    6  C15 UNL     1      25.248   9.717 -16.107  1.00  0.00     0.032 C 
HETATM    7  C16 UNL     1      24.645  10.670 -15.122  1.00  0.00     0.029 C 
HETATM    8  C17 UNL     1      25.503  10.389 -17.450  1.00  0.00     0.029 C 
HETATM    9  C18 UNL     1      24.646   8.389 -16.233  1.00  0.00     0.198 C 
ENDROOT
BRANCH   1  10
HETATM   10  C12 UNL     1      26.656   5.149 -17.120  1.00  0.00     0.240 C 
HETATM   11  O2  UNL     1      27.866   5.345 -17.394  1.00  0.00    -0.285 OA
BRANCH  10  12
HETATM   12  C7  UNL     1      26.304   3.711 -16.857  1.00  0.00     0.182 C 
BRANCH  12  13
HETATM   13  N1  UNL     1      24.910   3.594 -16.469  1.00  0.00    -0.347 N 
HETATM   14  C6  UNL     1      23.920   2.879 -17.139  1.00  0.00     0.222 C 
HETATM   15  O1  UNL     1      24.203   2.243 -18.187  1.00  0.00    -0.273 OA
ATOM     16  H1  UNL     1      24.627   4.085 -15.621  1.00  0.00     0.163 HD
BRANCH  14  17
HETATM   17  C5  UNL     1      22.525   2.852 -16.638  1.00  0.00     0.078 C 
HETATM   18  C4  UNL     1      21.849   4.193 -16.673  1.00  0.00     0.014 C 
HETATM   19  C3  UNL     1      20.767   4.160 -17.744  1.00  0.00     0.005 C 
HETATM   20  C2  UNL     1      19.670   3.241 -17.253  1.00  0.00    -0.019 C 
HETATM   21  C1  UNL     1      18.663   3.016 -18.385  1.00  0.00     0.010 C 
HETATM   22  C29 UNL     1      20.275   1.937 -16.814  1.00  0.00     0.005 C 
HETATM   23  C28 UNL     1      21.693   1.779 -17.289  1.00  0.00     0.014 C 
ENDBRANCH  14  17
ENDBRANCH  12  13
BRANCH  12  24
HETATM   24  C8  UNL     1      27.152   3.156 -15.767  1.00  0.00     0.162 C 
BRANCH  24  25
HETATM   25  N2  UNL     1      26.703   1.878 -15.259  1.00  0.00    -0.346 N 
HETATM   26  C9  UNL     1      26.673   0.686 -15.861  1.00  0.00     0.185 A 
HETATM   27  N3  UNL     1      26.192  -0.244 -15.025  1.00  0.00    -0.328 N 
HETATM   28  C10 UNL     1      25.907   0.363 -13.861  1.00  0.00     0.204 A 
ATOM     29  H3  UNL     1      26.065  -1.234 -15.235  1.00  0.00     0.169 HD
HETATM   30  F1  UNL     1      25.399  -0.291 -12.797  1.00  0.00    -0.185 F 
HETATM   31  C11 UNL     1      26.232   1.694 -14.020  1.00  0.00     0.153 A 
ENDBRANCH  24  25
ENDBRANCH  12  24
ENDBRANCH  10  12
ENDBRANCH   1  10
BRANCH   9  32
HETATM   32  C19 UNL     1      23.556   8.108 -15.327  1.00  0.00     0.242 C 
HETATM   33  O4  UNL     1      22.406   8.598 -15.603  1.00  0.00    -0.271 OA
HETATM   34  N5  UNL     1      23.600   7.344 -14.140  1.00  0.00    -0.347 N 
ATOM     35  H5  UNL     1      24.492   6.923 -13.880  1.00  0.00     0.163 HD
BRANCH  34  36
HETATM   36  C20 UNL     1      22.468   7.118 -13.267  1.00  0.00     0.161 C 
BRANCH  36  37
HETATM   37  C21 UNL     1      22.081   5.732 -13.056  1.00  0.00     0.188 C 
HETATM   38  O5  UNL     1      22.973   4.901 -13.378  1.00  0.00    -0.292 OA
BRANCH  37  39
HETATM   39  C22 UNL     1      20.869   5.130 -12.542  1.00  0.00     0.158 C 
HETATM   40  C23 UNL     1      20.832   4.637 -11.146  1.00  0.00     0.060 C 
HETATM   41  C24 UNL     1      19.658   6.088 -12.668  1.00  0.00     0.060 C 
HETATM   42  F2  UNL     1      20.492   4.064 -13.375  1.00  0.00    -0.235 F 
ENDBRANCH  37  39
ENDBRANCH  36  37
BRANCH  36  43
HETATM   43  C25 UNL     1      22.634   7.861 -11.958  1.00  0.00     0.008 C 
HETATM   44  C26 UNL     1      21.813   9.171 -12.010  1.00  0.00     0.012 C 
HETATM   45  C27 UNL     1      24.065   8.158 -11.614  1.00  0.00     0.012 C 
ENDBRANCH  36  43
ENDBRANCH  34  36
ENDBRANCH   9  32
TORSDOF 11
ENDMDL
MODEL 5
REMARK VINA RESULT: -7.402943582      3.355      7.159
REMARK  11 active torsions:
REMARK  status: ('A' for Active; 'I' for Inactive)
REMARK    1  A    between atoms: C5_5  and  C6_6 
REMARK       I    between atoms: C6_6  and  N1_8 
REMARK    2  A    between atoms: N1_8  and  C7_10 
REMARK    3  A    between atoms: C7_10  and  C8_11 
REMARK    4  A    between atoms: C7_10  and  C12_19 
REMARK    5  A    between atoms: C8_11  and  N2_12 
REMARK    6  A    between atoms: C12_19  and  C13_21 
REMARK       I    between atoms: C13_21  and  N4_23 
REMARK    7  A    between atoms: C18_29  and  C19_30 
REMARK       I    between atoms: C19_30  and  N5_32 
REMARK    8  A    between atoms: N5_32  and  C20_34 
REMARK    9  A    between atoms: C20_34  and  C21_35 
REMARK   10  A    between atoms: C20_34  and  C25_41 
REMARK   11  A    between atoms: C21_35  and  C22_37 
ROOT
HETATM    1  C13 UNL     1      25.054   6.054 -16.023  1.00  0.00     0.293 C 
HETATM    2  O3  UNL     1      26.291   6.065 -15.659  1.00  0.00    -0.264 OA
HETATM    3  N4  UNL     1      24.348   7.241 -15.718  1.00  0.00    -0.322 N 
HETATM    4  C14 UNL     1      22.958   7.476 -16.034  1.00  0.00     0.202 C 
HETATM    5  S1  UNL     1      22.408   8.110 -14.386  1.00  0.00    -0.137 SA
HETATM    6  C15 UNL     1      24.017   8.914 -13.990  1.00  0.00     0.032 C 
HETATM    7  C16 UNL     1      23.717  10.381 -13.959  1.00  0.00     0.029 C 
HETATM    8  C17 UNL     1      24.377   8.389 -12.607  1.00  0.00     0.029 C 
HETATM    9  C18 UNL     1      24.904   8.418 -15.044  1.00  0.00     0.198 C 
ENDROOT
BRANCH   1  10
HETATM   10  C12 UNL     1      24.610   4.864 -16.659  1.00  0.00     0.240 C 
HETATM   11  O2  UNL     1      24.411   4.819 -17.899  1.00  0.00    -0.285 OA
BRANCH  10  12
HETATM   12  C7  UNL     1      24.340   3.573 -15.939  1.00  0.00     0.182 C 
BRANCH  12  13
HETATM   13  N1  UNL     1      23.535   3.812 -14.755  1.00  0.00    -0.347 N 
HETATM   14  C6  UNL     1      22.212   3.421 -14.559  1.00  0.00     0.222 C 
HETATM   15  O1  UNL     1      21.603   2.786 -15.459  1.00  0.00    -0.273 OA
ATOM     16  H1  UNL     1      23.982   4.317 -13.990  1.00  0.00     0.163 HD
BRANCH  14  17
HETATM   17  C5  UNL     1      21.499   3.742 -13.300  1.00  0.00     0.078 C 
HETATM   18  C4  UNL     1      22.414   3.938 -12.125  1.00  0.00     0.014 C 
HETATM   19  C3  UNL     1      22.397   5.410 -11.738  1.00  0.00     0.005 C 
HETATM   20  C2  UNL     1      21.032   5.710 -11.157  1.00  0.00    -0.019 C 
HETATM   21  C1  UNL     1      20.900   7.221 -10.948  1.00  0.00     0.010 C 
HETATM   22  C29 UNL     1      19.972   5.210 -12.097  1.00  0.00     0.005 C 
HETATM   23  C28 UNL     1      20.525   4.881 -13.456  1.00  0.00     0.014 C 
ENDBRANCH  14  17
ENDBRANCH  12  13
BRANCH  12  24
HETATM   24  C8  UNL     1      25.616   2.926 -15.526  1.00  0.00     0.162 C 
BRANCH  24  25
HETATM   25  N2  UNL     1      25.445   1.750 -14.703  1.00  0.00    -0.346 N 
HETATM   26  C9  UNL     1      24.718   0.653 -14.927  1.00  0.00     0.185 A 
HETATM   27  N3  UNL     1      24.849  -0.208 -13.909  1.00  0.00    -0.328 N 
HETATM   28  C10 UNL     1      25.679   0.348 -13.010  1.00  0.00     0.204 A 
ATOM     29  H3  UNL     1      24.400  -1.121 -13.830  1.00  0.00     0.169 HD
HETATM   30  F1  UNL     1      26.025  -0.258 -11.856  1.00  0.00    -0.185 F 
HETATM   31  C11 UNL     1      26.047   1.577 -13.520  1.00  0.00     0.153 A 
ENDBRANCH  24  25
ENDBRANCH  12  24
ENDBRANCH  10  12
ENDBRANCH   1  10
BRANCH   9  32
HETATM   32  C19 UNL     1      25.348   9.403 -16.003  1.00  0.00     0.242 C 
HETATM   33  O4  UNL     1      26.507   9.921 -15.835  1.00  0.00    -0.271 OA
HETATM   34  N5  UNL     1      24.646   9.885 -17.129  1.00  0.00    -0.347 N 
ATOM     35  H5  UNL     1      23.721   9.497 -17.313  1.00  0.00     0.163 HD
BRANCH  34  36
HETATM   36  C20 UNL     1      25.148  10.891 -18.040  1.00  0.00     0.161 C 
BRANCH  36  37
HETATM   37  C21 UNL     1      25.846  10.405 -19.220  1.00  0.00     0.188 C 
HETATM   38  O5  UNL     1      25.567   9.212 -19.519  1.00  0.00    -0.292 OA
BRANCH  37  39
HETATM   39  C22 UNL     1      26.794  11.033 -20.115  1.00  0.00     0.158 C 
HETATM   40  C23 UNL     1      28.015  10.300 -20.519  1.00  0.00     0.060 C 
HETATM   41  C24 UNL     1      26.124  11.470 -21.441  1.00  0.00     0.060 C 
HETATM   42  F2  UNL     1      27.203  12.262 -19.570  1.00  0.00    -0.235 F 
ENDBRANCH  37  39
ENDBRANCH  36  37
BRANCH  36  43
HETATM   43  C25 UNL     1      24.066  11.888 -18.399  1.00  0.00     0.008 C 
HETATM   44  C26 UNL     1      23.456  12.464 -17.100  1.00  0.00     0.012 C 
HETATM   45  C27 UNL     1      22.986  11.314 -19.270  1.00  0.00     0.012 C 
ENDBRANCH  36  43
ENDBRANCH  34  36
ENDBRANCH   9  32
TORSDOF 11
ENDMDL
