MODEL 1
REMARK VINA RESULT: -5.995792714      0.000      0.000
REMARK  7 active torsions:
REMARK  status: ('A' for Active; 'I' for Inactive)
REMARK    1  A    between atoms: C3_3  and  N1_4 
REMARK    2  A    between atoms: N1_4  and  C4_7 
REMARK    3  A    between atoms: C4_7  and  C5_8 
REMARK    4  A    between atoms: C8_11  and  C9_12 
REMARK    5  A    between atoms: C9_12  and  N2_13 
REMARK    6  A    between atoms: C12_16  and  C13_17 
REMARK    7  A    between atoms: N3_18  and  O1_20 
ROOT
HETATM    1  C1  UNL     1      18.103 -23.377 -20.734  1.00  0.00     0.013 C 
HETATM    2  C2  UNL     1      18.934 -22.998 -19.950  1.00  0.00    -0.090 C 
HETATM    3  C3  UNL     1      19.934 -22.556 -18.987  1.00  0.00     0.325 C 
ENDROOT
BRANCH   3   4
HETATM    4  N1  UNL     1      21.233 -23.097 -19.343  1.00  0.00    -0.060 N 
ATOM      5  H12 UNL     1      21.265 -23.372 -20.325  1.00  0.00     0.278 HD
ATOM      6  H11 UNL     1      21.948 -22.370 -19.359  1.00  0.00     0.278 HD
BRANCH   4   7
HETATM    7  C4  UNL     1      21.610 -24.193 -18.474  1.00  0.00     0.289 C 
BRANCH   7   8
HETATM    8  C5  UNL     1      21.627 -25.468 -19.237  1.00  0.00     0.035 A 
HETATM    9  C6  UNL     1      22.146 -26.675 -18.834  1.00  0.00     0.028 A 
HETATM   10  C7  UNL     1      21.964 -27.608 -19.839  1.00  0.00     0.028 A 
HETATM   11  C8  UNL     1      21.321 -26.944 -20.870  1.00  0.00     0.028 A 
HETATM   12  N4  UNL     1      21.142 -25.688 -20.470  1.00  0.00    -0.360 N 
ATOM     13  H4  UNL     1      20.688 -24.972 -21.037  1.00  0.00     0.165 HD
BRANCH  11  14
HETATM   14  C9  UNL     1      20.895 -27.494 -22.184  1.00  0.00     0.184 C 
BRANCH  14  15
HETATM   15  N2  UNL     1      19.586 -27.004 -22.595  1.00  0.00    -0.361 N 
HETATM   16  C10 UNL     1      19.424 -26.141 -23.583  1.00  0.00     0.091 A 
HETATM   17  C11 UNL     1      18.177 -25.664 -23.988  1.00  0.00     0.030 A 
HETATM   18  C12 UNL     1      17.077 -26.123 -23.319  1.00  0.00    -0.016 A 
HETATM   19  C14 UNL     1      17.286 -27.027 -22.288  1.00  0.00     0.030 A 
HETATM   20  C15 UNL     1      18.531 -27.471 -21.922  1.00  0.00     0.091 A 
BRANCH  18  21
HETATM   21  C13 UNL     1      15.755 -25.696 -23.659  1.00  0.00     0.125 C 
HETATM   22  N3  UNL     1      15.292 -24.543 -23.522  1.00  0.00    -0.280 N 
ATOM     23  H3  UNL     1      14.323 -24.494 -23.838  1.00  0.00     0.193 HD
BRANCH  22  24
HETATM   24  O1  UNL     1      15.710 -23.372 -23.081  1.00  0.00    -0.290 OA
ATOM     25  H1  UNL     1      15.713 -22.471 -23.381  1.00  0.00     0.244 HD
ENDBRANCH  22  24
ENDBRANCH  18  21
ENDBRANCH  14  15
ENDBRANCH  11  14
ENDBRANCH   7   8
ENDBRANCH   4   7
ENDBRANCH   3   4
TORSDOF 7
ENDMDL
MODEL 2
REMARK VINA RESULT: -5.886846486      0.125      1.050
REMARK  7 active torsions:
REMARK  status: ('A' for Active; 'I' for Inactive)
REMARK    1  A    between atoms: C3_3  and  N1_4 
REMARK    2  A    between atoms: N1_4  and  C4_7 
REMARK    3  A    between atoms: C4_7  and  C5_8 
REMARK    4  A    between atoms: C8_11  and  C9_12 
REMARK    5  A    between atoms: C9_12  and  N2_13 
REMARK    6  A    between atoms: C12_16  and  C13_17 
REMARK    7  A    between atoms: N3_18  and  O1_20 
ROOT
HETATM    1  C1  UNL     1      18.011 -23.348 -20.650  1.00  0.00     0.013 C 
HETATM    2  C2  UNL     1      18.842 -22.954 -19.871  1.00  0.00    -0.090 C 
HETATM    3  C3  UNL     1      19.841 -22.496 -18.915  1.00  0.00     0.325 C 
ENDROOT
BRANCH   3   4
HETATM    4  N1  UNL     1      21.139 -23.046 -19.259  1.00  0.00    -0.060 N 
ATOM      5  H12 UNL     1      21.182 -23.315 -20.242  1.00  0.00     0.278 HD
ATOM      6  H11 UNL     1      21.861 -22.325 -19.261  1.00  0.00     0.278 HD
BRANCH   4   7
HETATM    7  C4  UNL     1      21.496 -24.150 -18.392  1.00  0.00     0.289 C 
BRANCH   7   8
HETATM    8  C5  UNL     1      21.557 -25.413 -19.172  1.00  0.00     0.035 A 
HETATM    9  C6  UNL     1      22.121 -26.607 -18.786  1.00  0.00     0.028 A 
HETATM   10  C7  UNL     1      21.970 -27.532 -19.802  1.00  0.00     0.028 A 
HETATM   11  C8  UNL     1      21.299 -26.878 -20.823  1.00  0.00     0.028 A 
HETATM   12  N4  UNL     1      21.077 -25.635 -20.406  1.00  0.00    -0.360 N 
ATOM     13  H4  UNL     1      20.595 -24.928 -20.962  1.00  0.00     0.165 HD
BRANCH  11  14
HETATM   14  C9  UNL     1      20.890 -27.426 -22.143  1.00  0.00     0.184 C 
BRANCH  14  15
HETATM   15  N2  UNL     1      19.534 -27.039 -22.510  1.00  0.00    -0.361 N 
HETATM   16  C10 UNL     1      18.466 -27.494 -21.879  1.00  0.00     0.091 A 
HETATM   17  C11 UNL     1      17.162 -27.130 -22.218  1.00  0.00     0.030 A 
HETATM   18  C12 UNL     1      16.999 -26.258 -23.258  1.00  0.00    -0.016 A 
HETATM   19  C14 UNL     1      18.143 -25.802 -23.896  1.00  0.00     0.030 A 
HETATM   20  C15 UNL     1      19.408 -26.186 -23.530  1.00  0.00     0.091 A 
BRANCH  18  21
HETATM   21  C13 UNL     1      15.704 -25.823 -23.681  1.00  0.00     0.125 C 
HETATM   22  N3  UNL     1      15.244 -24.665 -23.586  1.00  0.00    -0.280 N 
ATOM     23  H3  UNL     1      14.296 -24.612 -23.960  1.00  0.00     0.193 HD
BRANCH  22  24
HETATM   24  O1  UNL     1      15.646 -23.492 -23.134  1.00  0.00    -0.290 OA
ATOM     25  H1  UNL     1      15.254 -22.657 -22.907  1.00  0.00     0.244 HD
ENDBRANCH  22  24
ENDBRANCH  18  21
ENDBRANCH  14  15
ENDBRANCH  11  14
ENDBRANCH   7   8
ENDBRANCH   4   7
ENDBRANCH   3   4
TORSDOF 7
ENDMDL
MODEL 3
REMARK VINA RESULT: -5.759466376      2.419      5.112
REMARK  7 active torsions:
REMARK  status: ('A' for Active; 'I' for Inactive)
REMARK    1  A    between atoms: C3_3  and  N1_4 
REMARK    2  A    between atoms: N1_4  and  C4_7 
REMARK    3  A    between atoms: C4_7  and  C5_8 
REMARK    4  A    between atoms: C8_11  and  C9_12 
REMARK    5  A    between atoms: C9_12  and  N2_13 
REMARK    6  A    between atoms: C12_16  and  C13_17 
REMARK    7  A    between atoms: N3_18  and  O1_20 
ROOT
HETATM    1  C1  UNL     1      21.877 -27.327 -19.421  1.00  0.00     0.013 C 
HETATM    2  C2  UNL     1      21.555 -26.490 -20.225  1.00  0.00    -0.090 C 
HETATM    3  C3  UNL     1      21.184 -25.466 -21.193  1.00  0.00     0.325 C 
ENDROOT
BRANCH   3   4
HETATM    4  N1  UNL     1      21.661 -25.840 -22.511  1.00  0.00    -0.060 N 
ATOM      5  H12 UNL     1      21.692 -25.035 -23.138  1.00  0.00     0.278 HD
ATOM      6  H11 UNL     1      22.656 -26.066 -22.497  1.00  0.00     0.278 HD
BRANCH   4   7
HETATM    7  C4  UNL     1      20.880 -26.921 -23.075  1.00  0.00     0.289 C 
BRANCH   7   8
HETATM    8  C5  UNL     1      19.617 -26.391 -23.653  1.00  0.00     0.035 A 
HETATM    9  C6  UNL     1      19.435 -25.848 -24.903  1.00  0.00     0.028 A 
HETATM   10  C7  UNL     1      18.112 -25.474 -25.048  1.00  0.00     0.028 A 
HETATM   11  C8  UNL     1      17.485 -25.799 -23.856  1.00  0.00     0.028 A 
HETATM   12  N4  UNL     1      18.411 -26.338 -23.066  1.00  0.00    -0.360 N 
ATOM     13  H4  UNL     1      18.224 -26.672 -22.121  1.00  0.00     0.165 HD
BRANCH  11  14
HETATM   14  C9  UNL     1      16.057 -25.601 -23.492  1.00  0.00     0.184 C 
BRANCH  14  15
HETATM   15  N2  UNL     1      15.897 -24.832 -22.265  1.00  0.00    -0.361 N 
HETATM   16  C10 UNL     1      15.700 -25.399 -21.087  1.00  0.00     0.091 A 
HETATM   17  C11 UNL     1      15.548 -24.675 -19.904  1.00  0.00     0.030 A 
HETATM   18  C12 UNL     1      15.608 -23.312 -19.984  1.00  0.00    -0.016 A 
HETATM   19  C14 UNL     1      15.815 -22.754 -21.237  1.00  0.00     0.030 A 
HETATM   20  C15 UNL     1      15.960 -23.503 -22.377  1.00  0.00     0.091 A 
BRANCH  18  21
HETATM   21  C13 UNL     1      15.464 -22.482 -18.829  1.00  0.00     0.125 C 
HETATM   22  N3  UNL     1      16.340 -21.737 -18.339  1.00  0.00    -0.280 N 
ATOM     23  H3  UNL     1      15.991 -21.248 -17.514  1.00  0.00     0.193 HD
BRANCH  22  24
HETATM   24  O1  UNL     1      17.592 -21.408 -18.594  1.00  0.00    -0.290 OA
ATOM     25  H1  UNL     1      18.070 -20.939 -19.268  1.00  0.00     0.244 HD
ENDBRANCH  22  24
ENDBRANCH  18  21
ENDBRANCH  14  15
ENDBRANCH  11  14
ENDBRANCH   7   8
ENDBRANCH   4   7
ENDBRANCH   3   4
TORSDOF 7
ENDMDL
MODEL 4
REMARK VINA RESULT: -5.746448851      2.565      6.311
REMARK  7 active torsions:
REMARK  status: ('A' for Active; 'I' for Inactive)
REMARK    1  A    between atoms: C3_3  and  N1_4 
REMARK    2  A    between atoms: N1_4  and  C4_7 
REMARK    3  A    between atoms: C4_7  and  C5_8 
REMARK    4  A    between atoms: C8_11  and  C9_12 
REMARK    5  A    between atoms: C9_12  and  N2_13 
REMARK    6  A    between atoms: C12_16  and  C13_17 
REMARK    7  A    between atoms: N3_18  and  O1_20 
ROOT
HETATM    1  C1  UNL     1      22.257 -26.631 -22.670  1.00  0.00     0.013 C 
HETATM    2  C2  UNL     1      21.096 -26.640 -22.986  1.00  0.00    -0.090 C 
HETATM    3  C3  UNL     1      19.684 -26.640 -23.349  1.00  0.00     0.325 C 
ENDROOT
BRANCH   3   4
HETATM    4  N1  UNL     1      19.391 -25.490 -24.184  1.00  0.00    -0.060 N 
ATOM      5  H12 UNL     1      19.545 -24.616 -23.681  1.00  0.00     0.278 HD
ATOM      6  H11 UNL     1      20.089 -25.375 -24.919  1.00  0.00     0.278 HD
BRANCH   4   7
HETATM    7  C4  UNL     1      18.052 -25.557 -24.731  1.00  0.00     0.289 C 
BRANCH   7   8
HETATM    8  C5  UNL     1      17.050 -25.543 -23.633  1.00  0.00     0.035 A 
HETATM    9  C6  UNL     1      15.852 -26.216 -23.587  1.00  0.00     0.028 A 
HETATM   10  C7  UNL     1      15.215 -25.932 -22.393  1.00  0.00     0.028 A 
HETATM   11  C8  UNL     1      16.050 -25.067 -21.707  1.00  0.00     0.028 A 
HETATM   12  N4  UNL     1      17.118 -24.867 -22.475  1.00  0.00    -0.360 N 
ATOM     13  H4  UNL     1      17.901 -24.268 -22.213  1.00  0.00     0.165 HD
BRANCH  11  14
HETATM   14  C9  UNL     1      15.831 -24.457 -20.368  1.00  0.00     0.184 C 
BRANCH  14  15
HETATM   15  N2  UNL     1      17.082 -24.148 -19.686  1.00  0.00    -0.361 N 
HETATM   16  C10 UNL     1      17.824 -25.073 -19.102  1.00  0.00     0.091 A 
HETATM   17  C11 UNL     1      19.024 -24.791 -18.447  1.00  0.00     0.030 A 
HETATM   18  C12 UNL     1      19.438 -23.490 -18.418  1.00  0.00    -0.016 A 
HETATM   19  C14 UNL     1      18.634 -22.548 -19.041  1.00  0.00     0.030 A 
HETATM   20  C15 UNL     1      17.459 -22.867 -19.675  1.00  0.00     0.091 A 
BRANCH  18  21
HETATM   21  C13 UNL     1      20.654 -23.100 -17.774  1.00  0.00     0.125 C 
HETATM   22  N3  UNL     1      21.749 -22.875 -18.332  1.00  0.00    -0.280 N 
ATOM     23  H3  UNL     1      22.464 -22.612 -17.653  1.00  0.00     0.193 HD
BRANCH  22  24
HETATM   24  O1  UNL     1      22.236 -22.883 -19.558  1.00  0.00    -0.290 OA
ATOM     25  H1  UNL     1      22.146 -22.369 -20.351  1.00  0.00     0.244 HD
ENDBRANCH  22  24
ENDBRANCH  18  21
ENDBRANCH  14  15
ENDBRANCH  11  14
ENDBRANCH   7   8
ENDBRANCH   4   7
ENDBRANCH   3   4
TORSDOF 7
ENDMDL
MODEL 5
REMARK VINA RESULT: -5.683327415      3.178      5.608
REMARK  7 active torsions:
REMARK  status: ('A' for Active; 'I' for Inactive)
REMARK    1  A    between atoms: C3_3  and  N1_4 
REMARK    2  A    between atoms: N1_4  and  C4_7 
REMARK    3  A    between atoms: C4_7  and  C5_8 
REMARK    4  A    between atoms: C8_11  and  C9_12 
REMARK    5  A    between atoms: C9_12  and  N2_13 
REMARK    6  A    between atoms: C12_16  and  C13_17 
REMARK    7  A    between atoms: N3_18  and  O1_20 
ROOT
HETATM    1  C1  UNL     1      21.843 -27.347 -19.790  1.00  0.00     0.013 C 
HETATM    2  C2  UNL     1      22.161 -27.168 -20.937  1.00  0.00    -0.090 C 
HETATM    3  C3  UNL     1      22.533 -26.968 -22.332  1.00  0.00     0.325 C 
ENDROOT
BRANCH   3   4
HETATM    4  N1  UNL     1      21.670 -25.968 -22.933  1.00  0.00    -0.060 N 
ATOM      5  H12 UNL     1      21.325 -25.306 -22.237  1.00  0.00     0.278 HD
ATOM      6  H11 UNL     1      22.200 -25.322 -23.517  1.00  0.00     0.278 HD
BRANCH   4   7
HETATM    7  C4  UNL     1      20.582 -26.577 -23.669  1.00  0.00     0.289 C 
BRANCH   7   8
HETATM    8  C5  UNL     1      19.281 -26.227 -23.041  1.00  0.00     0.035 A 
HETATM    9  C6  UNL     1      18.532 -26.999 -22.185  1.00  0.00     0.028 A 
HETATM   10  C7  UNL     1      17.387 -26.308 -21.832  1.00  0.00     0.028 A 
HETATM   11  C8  UNL     1      17.451 -25.092 -22.492  1.00  0.00     0.028 A 
HETATM   12  N4  UNL     1      18.583 -25.089 -23.191  1.00  0.00    -0.360 N 
ATOM     13  H4  UNL     1      18.887 -24.310 -23.774  1.00  0.00     0.165 HD
BRANCH  11  14
HETATM   14  C9  UNL     1      16.464 -23.980 -22.454  1.00  0.00     0.184 C 
BRANCH  14  15
HETATM   15  N2  UNL     1      16.000 -23.695 -21.102  1.00  0.00    -0.361 N 
HETATM   16  C10 UNL     1      14.759 -23.927 -20.709  1.00  0.00     0.091 A 
HETATM   17  C11 UNL     1      14.302 -23.661 -19.418  1.00  0.00     0.030 A 
HETATM   18  C12 UNL     1      15.194 -23.133 -18.527  1.00  0.00    -0.016 A 
HETATM   19  C14 UNL     1      16.486 -22.903 -18.976  1.00  0.00     0.030 A 
HETATM   20  C15 UNL     1      16.895 -23.180 -20.256  1.00  0.00     0.091 A 
BRANCH  18  21
HETATM   21  C13 UNL     1      14.823 -22.826 -17.181  1.00  0.00     0.125 C 
HETATM   22  N3  UNL     1      14.296 -21.765 -16.781  1.00  0.00    -0.280 N 
ATOM     23  H3  UNL     1      14.129 -21.791 -15.775  1.00  0.00     0.193 HD
BRANCH  22  24
HETATM   24  O1  UNL     1      13.897 -20.620 -17.302  1.00  0.00    -0.290 OA
ATOM     25  H1  UNL     1      14.141 -19.704 -17.250  1.00  0.00     0.244 HD
ENDBRANCH  22  24
ENDBRANCH  18  21
ENDBRANCH  14  15
ENDBRANCH  11  14
ENDBRANCH   7   8
ENDBRANCH   4   7
ENDBRANCH   3   4
TORSDOF 7
ENDMDL
