MODEL 1
REMARK VINA RESULT: -6.455492931      0.000      0.000
REMARK  8 active torsions:
REMARK  status: ('A' for Active; 'I' for Inactive)
REMARK    1  A    between atoms: O1_2  and  C2_3 
REMARK    2  A    between atoms: C2_3  and  C3_4 
REMARK    3  A    between atoms: C3_4  and  N1_5 
REMARK    4  A    between atoms: N1_5  and  C4_7 
REMARK    5  A    between atoms: C5_12  and  N4_13 
REMARK    6  A    between atoms: N4_13  and  C6_15 
REMARK    7  A    between atoms: C9_18  and  C10_19 
REMARK    8  A    between atoms: C10_19  and  C11_20 
ROOT
HETATM    1  C11 UNL     1      14.717 -23.215 -17.544  1.00  0.00     0.128 C 
HETATM    2  C12 UNL     1      13.525 -22.406 -17.304  1.00  0.00     0.059 C 
HETATM    3  N5  UNL     1      12.569 -21.765 -17.095  1.00  0.00    -0.197 NA
ENDROOT
BRANCH   1   4
HETATM    4  C10 UNL     1      15.575 -22.552 -18.604  1.00  0.00     0.052 C 
BRANCH   4   5
HETATM    5  C9  UNL     1      15.698 -23.400 -19.819  1.00  0.00    -0.057 A 
HETATM    6  C8  UNL     1      15.782 -24.775 -19.746  1.00  0.00     0.009 A 
HETATM    7  C7  UNL     1      15.896 -25.583 -20.857  1.00  0.00     0.030 A 
HETATM    8  C6  UNL     1      15.934 -25.033 -22.116  1.00  0.00     0.049 A 
HETATM    9  C14 UNL     1      15.853 -23.659 -22.213  1.00  0.00     0.030 A 
HETATM   10  C13 UNL     1      15.738 -22.856 -21.098  1.00  0.00     0.009 A 
BRANCH   8  11
HETATM   11  N4  UNL     1      16.053 -25.824 -23.296  1.00  0.00    -0.190 N 
ATOM     12  H4  UNL     1      15.296 -26.435 -23.604  1.00  0.00     0.184 HD
BRANCH  11  13
HETATM   13  C5  UNL     1      17.157 -25.734 -23.959  1.00  0.00     0.712 A 
HETATM   14  N3  UNL     1      17.424 -25.226 -25.158  1.00  0.00    -0.117 N 
HETATM   15  N2  UNL     1      18.700 -25.340 -25.459  1.00  0.00    -0.117 N 
ATOM     16  H3  UNL     1      16.727 -24.800 -25.769  1.00  0.00     0.206 HD
HETATM   17  C4  UNL     1      19.270 -25.949 -24.402  1.00  0.00     0.707 A 
ATOM     18  H2  UNL     1      19.161 -25.031 -26.315  1.00  0.00     0.206 HD
HETATM   19  N6  UNL     1      18.328 -26.196 -23.473  1.00  0.00    -0.020 N 
ATOM     20  H6  UNL     1      18.472 -26.647 -22.570  1.00  0.00     0.203 HD
BRANCH  17  21
HETATM   21  N1  UNL     1      20.507 -26.272 -24.240  1.00  0.00    -0.222 N 
ATOM     22  H1  UNL     1      21.200 -26.082 -24.964  1.00  0.00     0.177 HD
BRANCH  21  23
HETATM   23  C3  UNL     1      20.883 -26.917 -22.983  1.00  0.00     0.164 C 
BRANCH  23  24
HETATM   24  C2  UNL     1      22.328 -26.544 -22.755  1.00  0.00     0.187 C 
BRANCH  24  25
HETATM   25  O1  UNL     1      22.760 -27.005 -21.536  1.00  0.00    -0.394 OA
HETATM   26  C1  UNL     1      21.746 -27.219 -20.634  1.00  0.00     0.201 C 
ENDBRANCH  24  25
ENDBRANCH  23  24
ENDBRANCH  21  23
ENDBRANCH  17  21
ENDBRANCH  11  13
ENDBRANCH   8  11
ENDBRANCH   4   5
ENDBRANCH   1   4
TORSDOF 8
ENDMDL
MODEL 2
REMARK VINA RESULT: -6.422739087      3.234      7.368
REMARK  8 active torsions:
REMARK  status: ('A' for Active; 'I' for Inactive)
REMARK    1  A    between atoms: O1_2  and  C2_3 
REMARK    2  A    between atoms: C2_3  and  C3_4 
REMARK    3  A    between atoms: C3_4  and  N1_5 
REMARK    4  A    between atoms: N1_5  and  C4_7 
REMARK    5  A    between atoms: C5_12  and  N4_13 
REMARK    6  A    between atoms: N4_13  and  C6_15 
REMARK    7  A    between atoms: C9_18  and  C10_19 
REMARK    8  A    between atoms: C10_19  and  C11_20 
ROOT
HETATM    1  C11 UNL     1      22.152 -27.008 -22.038  1.00  0.00     0.128 C 
HETATM    2  C12 UNL     1      22.407 -26.998 -20.600  1.00  0.00     0.059 C 
HETATM    3  N5  UNL     1      22.619 -26.973 -19.450  1.00  0.00    -0.197 NA
ENDROOT
BRANCH   1   4
HETATM    4  C10 UNL     1      21.017 -27.966 -22.345  1.00  0.00     0.052 C 
BRANCH   4   5
HETATM    5  C9  UNL     1      19.763 -27.243 -22.682  1.00  0.00    -0.057 A 
HETATM    6  C8  UNL     1      19.720 -26.274 -23.664  1.00  0.00     0.009 A 
HETATM    7  C7  UNL     1      18.571 -25.589 -23.996  1.00  0.00     0.030 A 
HETATM    8  C6  UNL     1      17.391 -25.851 -23.341  1.00  0.00     0.049 A 
HETATM    9  C14 UNL     1      17.411 -26.815 -22.354  1.00  0.00     0.030 A 
HETATM   10  C13 UNL     1      18.563 -27.498 -22.028  1.00  0.00     0.009 A 
BRANCH   8  11
HETATM   11  N4  UNL     1      16.176 -25.170 -23.646  1.00  0.00    -0.190 N 
ATOM     12  H4  UNL     1      15.678 -25.337 -24.520  1.00  0.00     0.184 HD
BRANCH  11  13
HETATM   13  C5  UNL     1      15.732 -24.334 -22.768  1.00  0.00     0.712 A 
HETATM   14  N3  UNL     1      15.831 -23.010 -22.685  1.00  0.00    -0.117 N 
HETATM   15  N2  UNL     1      15.225 -22.545 -21.614  1.00  0.00    -0.117 N 
ATOM     16  H3  UNL     1      16.318 -22.428 -23.367  1.00  0.00     0.206 HD
HETATM   17  C4  UNL     1      14.715 -23.624 -20.987  1.00  0.00     0.707 A 
ATOM     18  H2  UNL     1      15.155 -21.571 -21.319  1.00  0.00     0.206 HD
HETATM   19  N6  UNL     1      15.022 -24.730 -21.691  1.00  0.00    -0.020 N 
ATOM     20  H6  UNL     1      14.766 -25.688 -21.454  1.00  0.00     0.203 HD
BRANCH  17  21
HETATM   21  N1  UNL     1      14.036 -23.662 -19.893  1.00  0.00    -0.222 N 
ATOM     22  H1  UNL     1      13.036 -23.463 -19.887  1.00  0.00     0.177 HD
BRANCH  21  23
HETATM   23  C3  UNL     1      14.749 -24.000 -18.662  1.00  0.00     0.164 C 
BRANCH  23  24
HETATM   24  C2  UNL     1      14.422 -22.892 -17.690  1.00  0.00     0.187 C 
BRANCH  24  25
HETATM   25  O1  UNL     1      13.101 -22.535 -17.788  1.00  0.00    -0.394 OA
HETATM   26  C1  UNL     1      12.539 -22.157 -16.593  1.00  0.00     0.201 C 
ENDBRANCH  24  25
ENDBRANCH  23  24
ENDBRANCH  21  23
ENDBRANCH  17  21
ENDBRANCH  11  13
ENDBRANCH   8  11
ENDBRANCH   4   5
ENDBRANCH   1   4
TORSDOF 8
ENDMDL
MODEL 3
REMARK VINA RESULT: -6.415043312      1.707      1.918
REMARK  8 active torsions:
REMARK  status: ('A' for Active; 'I' for Inactive)
REMARK    1  A    between atoms: O1_2  and  C2_3 
REMARK    2  A    between atoms: C2_3  and  C3_4 
REMARK    3  A    between atoms: C3_4  and  N1_5 
REMARK    4  A    between atoms: N1_5  and  C4_7 
REMARK    5  A    between atoms: C5_12  and  N4_13 
REMARK    6  A    between atoms: N4_13  and  C6_15 
REMARK    7  A    between atoms: C9_18  and  C10_19 
REMARK    8  A    between atoms: C10_19  and  C11_20 
ROOT
HETATM    1  C11 UNL     1      16.856 -23.344 -18.011  1.00  0.00     0.128 C 
HETATM    2  C12 UNL     1      18.091 -22.668 -18.399  1.00  0.00     0.059 C 
HETATM    3  N5  UNL     1      19.090 -22.140 -18.702  1.00  0.00    -0.197 NA
ENDROOT
BRANCH   1   4
HETATM    4  C10 UNL     1      15.734 -22.921 -18.939  1.00  0.00     0.052 C 
BRANCH   4   5
HETATM    5  C9  UNL     1      15.828 -23.600 -20.258  1.00  0.00    -0.057 A 
HETATM    6  C8  UNL     1      15.648 -24.961 -20.395  1.00  0.00     0.009 A 
HETATM    7  C7  UNL     1      15.730 -25.614 -21.606  1.00  0.00     0.030 A 
HETATM    8  C6  UNL     1      16.005 -24.914 -22.756  1.00  0.00     0.049 A 
HETATM    9  C14 UNL     1      16.190 -23.551 -22.644  1.00  0.00     0.030 A 
HETATM   10  C13 UNL     1      16.106 -22.904 -21.430  1.00  0.00     0.009 A 
BRANCH   8  11
HETATM   11  N4  UNL     1      16.101 -25.542 -24.033  1.00  0.00    -0.190 N 
ATOM     12  H4  UNL     1      15.280 -25.932 -24.497  1.00  0.00     0.184 HD
BRANCH  11  13
HETATM   13  C5  UNL     1      17.270 -25.596 -24.578  1.00  0.00     0.712 A 
HETATM   14  N3  UNL     1      17.693 -25.245 -25.789  1.00  0.00    -0.117 N 
HETATM   15  N2  UNL     1      18.981 -25.470 -25.936  1.00  0.00    -0.117 N 
ATOM     16  H3  UNL     1      17.093 -24.851 -26.514  1.00  0.00     0.206 HD
HETATM   17  C4  UNL     1      19.396 -25.987 -24.763  1.00  0.00     0.707 A 
ATOM     18  H2  UNL     1      19.548 -25.290 -26.765  1.00  0.00     0.206 HD
HETATM   19  N6  UNL     1      18.349 -26.068 -23.921  1.00  0.00    -0.020 N 
ATOM     20  H6  UNL     1      18.369 -26.421 -22.964  1.00  0.00     0.203 HD
BRANCH  17  21
HETATM   21  N1  UNL     1      20.584 -26.363 -24.435  1.00  0.00    -0.222 N 
ATOM     22  H1  UNL     1      21.322 -26.449 -25.134  1.00  0.00     0.177 HD
BRANCH  21  23
HETATM   23  C3  UNL     1      20.838 -26.661 -23.026  1.00  0.00     0.164 C 
BRANCH  23  24
HETATM   24  C2  UNL     1      22.304 -26.376 -22.811  1.00  0.00     0.187 C 
BRANCH  24  25
HETATM   25  O1  UNL     1      22.796 -27.125 -21.771  1.00  0.00    -0.394 OA
HETATM   26  C1  UNL     1      21.904 -27.295 -20.741  1.00  0.00     0.201 C 
ENDBRANCH  24  25
ENDBRANCH  23  24
ENDBRANCH  21  23
ENDBRANCH  17  21
ENDBRANCH  11  13
ENDBRANCH   8  11
ENDBRANCH   4   5
ENDBRANCH   1   4
TORSDOF 8
ENDMDL
MODEL 4
REMARK VINA RESULT: -6.405760897      3.203      7.118
REMARK  8 active torsions:
REMARK  status: ('A' for Active; 'I' for Inactive)
REMARK    1  A    between atoms: O1_2  and  C2_3 
REMARK    2  A    between atoms: C2_3  and  C3_4 
REMARK    3  A    between atoms: C3_4  and  N1_5 
REMARK    4  A    between atoms: N1_5  and  C4_7 
REMARK    5  A    between atoms: C5_12  and  N4_13 
REMARK    6  A    between atoms: N4_13  and  C6_15 
REMARK    7  A    between atoms: C9_18  and  C10_19 
REMARK    8  A    between atoms: C10_19  and  C11_20 
ROOT
HETATM    1  C11 UNL     1      22.237 -27.055 -21.966  1.00  0.00     0.128 C 
HETATM    2  C12 UNL     1      22.437 -27.024 -20.520  1.00  0.00     0.059 C 
HETATM    3  N5  UNL     1      22.604 -26.981 -19.363  1.00  0.00    -0.197 NA
ENDROOT
BRANCH   1   4
HETATM    4  C10 UNL     1      21.200 -28.107 -22.311  1.00  0.00     0.052 C 
BRANCH   4   5
HETATM    5  C9  UNL     1      19.845 -27.513 -22.462  1.00  0.00    -0.057 A 
HETATM    6  C8  UNL     1      19.617 -26.405 -23.252  1.00  0.00     0.009 A 
HETATM    7  C7  UNL     1      18.371 -25.836 -23.408  1.00  0.00     0.030 A 
HETATM    8  C6  UNL     1      17.279 -26.365 -22.764  1.00  0.00     0.049 A 
HETATM    9  C14 UNL     1      17.484 -27.473 -21.968  1.00  0.00     0.030 A 
HETATM   10  C13 UNL     1      18.732 -28.038 -21.816  1.00  0.00     0.009 A 
BRANCH   8  11
HETATM   11  N4  UNL     1      15.970 -25.813 -22.892  1.00  0.00    -0.190 N 
ATOM     12  H4  UNL     1      15.204 -26.351 -23.299  1.00  0.00     0.184 HD
BRANCH  11  13
HETATM   13  C5  UNL     1      15.794 -24.606 -22.472  1.00  0.00     0.712 A 
HETATM   14  N3  UNL     1      15.623 -23.462 -23.128  1.00  0.00    -0.117 N 
HETATM   15  N2  UNL     1      15.476 -22.447 -22.303  1.00  0.00    -0.117 N 
ATOM     16  H3  UNL     1      15.607 -23.381 -24.145  1.00  0.00     0.206 HD
HETATM   17  C4  UNL     1      15.558 -22.971 -21.064  1.00  0.00     0.707 A 
ATOM     18  H2  UNL     1      15.331 -21.468 -22.550  1.00  0.00     0.206 HD
HETATM   19  N6  UNL     1      15.754 -24.299 -21.158  1.00  0.00    -0.020 N 
ATOM     20  H6  UNL     1      15.853 -24.953 -20.381  1.00  0.00     0.203 HD
BRANCH  17  21
HETATM   21  N1  UNL     1      15.472 -22.359 -19.934  1.00  0.00    -0.222 N 
ATOM     22  H1  UNL     1      14.808 -21.597 -19.797  1.00  0.00     0.177 HD
BRANCH  21  23
HETATM   23  C3  UNL     1      16.358 -22.794 -18.855  1.00  0.00     0.164 C 
BRANCH  23  24
HETATM   24  C2  UNL     1      16.160 -21.795 -17.742  1.00  0.00     0.187 C 
BRANCH  24  25
HETATM   25  O1  UNL     1      15.091 -20.976 -18.010  1.00  0.00    -0.394 OA
HETATM   26  C1  UNL     1      15.086 -19.815 -17.277  1.00  0.00     0.201 C 
ENDBRANCH  24  25
ENDBRANCH  23  24
ENDBRANCH  21  23
ENDBRANCH  17  21
ENDBRANCH  11  13
ENDBRANCH   8  11
ENDBRANCH   4   5
ENDBRANCH   1   4
TORSDOF 8
ENDMDL
MODEL 5
REMARK VINA RESULT: -6.351199989      2.811      6.449
REMARK  8 active torsions:
REMARK  status: ('A' for Active; 'I' for Inactive)
REMARK    1  A    between atoms: O1_2  and  C2_3 
REMARK    2  A    between atoms: C2_3  and  C3_4 
REMARK    3  A    between atoms: C3_4  and  N1_5 
REMARK    4  A    between atoms: N1_5  and  C4_7 
REMARK    5  A    between atoms: C5_12  and  N4_13 
REMARK    6  A    between atoms: N4_13  and  C6_15 
REMARK    7  A    between atoms: C9_18  and  C10_19 
REMARK    8  A    between atoms: C10_19  and  C11_20 
ROOT
HETATM    1  C11 UNL     1      22.236 -27.051 -21.981  1.00  0.00     0.128 C 
HETATM    2  C12 UNL     1      22.241 -26.776 -20.546  1.00  0.00     0.059 C 
HETATM    3  N5  UNL     1      22.253 -26.538 -19.401  1.00  0.00    -0.197 NA
ENDROOT
BRANCH   1   4
HETATM    4  C10 UNL     1      21.190 -28.104 -22.291  1.00  0.00     0.052 C 
BRANCH   4   5
HETATM    5  C9  UNL     1      19.837 -27.507 -22.438  1.00  0.00    -0.057 A 
HETATM    6  C8  UNL     1      18.729 -28.045 -21.816  1.00  0.00     0.009 A 
HETATM    7  C7  UNL     1      17.464 -27.510 -21.936  1.00  0.00     0.030 A 
HETATM    8  C6  UNL     1      17.252 -26.390 -22.704  1.00  0.00     0.049 A 
HETATM    9  C14 UNL     1      18.346 -25.836 -23.337  1.00  0.00     0.030 A 
HETATM   10  C13 UNL     1      19.609 -26.374 -23.211  1.00  0.00     0.009 A 
BRANCH   8  11
HETATM   11  N4  UNL     1      15.964 -25.799 -22.862  1.00  0.00    -0.190 N 
ATOM     12  H4  UNL     1      15.201 -26.300 -23.317  1.00  0.00     0.184 HD
BRANCH  11  13
HETATM   13  C5  UNL     1      15.803 -24.603 -22.403  1.00  0.00     0.712 A 
HETATM   14  N3  UNL     1      15.566 -23.449 -23.020  1.00  0.00    -0.117 N 
HETATM   15  N2  UNL     1      15.468 -22.454 -22.165  1.00  0.00    -0.117 N 
ATOM     16  H3  UNL     1      15.471 -23.348 -24.031  1.00  0.00     0.206 HD
HETATM   17  C4  UNL     1      15.652 -23.001 -20.947  1.00  0.00     0.707 A 
ATOM     18  H2  UNL     1      15.290 -21.472 -22.379  1.00  0.00     0.206 HD
HETATM   19  N6  UNL     1      15.859 -24.324 -21.084  1.00  0.00    -0.020 N 
ATOM     20  H6  UNL     1      16.026 -24.991 -20.331  1.00  0.00     0.203 HD
BRANCH  17  21
HETATM   21  N1  UNL     1      15.643 -22.414 -19.801  1.00  0.00    -0.222 N 
ATOM     22  H1  UNL     1      15.175 -21.516 -19.672  1.00  0.00     0.177 HD
BRANCH  21  23
HETATM   23  C3  UNL     1      16.326 -23.077 -18.691  1.00  0.00     0.164 C 
BRANCH  23  24
HETATM   24  C2  UNL     1      17.162 -22.006 -18.034  1.00  0.00     0.187 C 
BRANCH  24  25
HETATM   25  O1  UNL     1      18.366 -21.868 -18.678  1.00  0.00    -0.394 OA
HETATM   26  C1  UNL     1      19.080 -23.037 -18.774  1.00  0.00     0.201 C 
ENDBRANCH  24  25
ENDBRANCH  23  24
ENDBRANCH  21  23
ENDBRANCH  17  21
ENDBRANCH  11  13
ENDBRANCH   8  11
ENDBRANCH   4   5
ENDBRANCH   1   4
TORSDOF 8
ENDMDL
