MODEL 1
REMARK VINA RESULT: -5.822536239      0.000      0.000
REMARK  6 active torsions:
REMARK  status: ('A' for Active; 'I' for Inactive)
REMARK    1  A    between atoms: N2_8  and  C6_10 
REMARK    2  A    between atoms: C6_10  and  C7_11 
REMARK    3  A    between atoms: C7_11  and  N3_12 
REMARK    4  A    between atoms: N3_12  and  C8_15 
REMARK    5  A    between atoms: C8_15  and  C9_16 
REMARK    6  A    between atoms: C9_16  and  N4_17 
ROOT
HETATM    1  N3  UNL     1      21.328 -24.905 -20.846  1.00  0.00    -0.069 N 
ATOM      2  H31 UNL     1      20.489 -24.855 -21.424  1.00  0.00     0.277 HD
ATOM      3  H32 UNL     1      21.959 -24.340 -21.414  1.00  0.00     0.277 HD
ENDROOT
BRANCH   1   4
HETATM    4  C7  UNL     1      21.800 -26.251 -20.753  1.00  0.00     0.252 C 
BRANCH   4   5
HETATM    5  C6  UNL     1      21.145 -27.031 -21.897  1.00  0.00     0.148 C 
BRANCH   5   6
HETATM    6  N2  UNL     1      19.722 -27.073 -21.756  1.00  0.00    -0.375 N 
HETATM    7  C5  UNL     1      18.937 -26.581 -22.651  1.00  0.00     0.101 A 
HETATM    8  N1  UNL     1      19.388 -25.991 -23.785  1.00  0.00    -0.353 N 
HETATM    9  C13 UNL     1      17.559 -26.627 -22.495  1.00  0.00     0.054 A 
HETATM   10  C4  UNL     1      18.533 -25.476 -24.714  1.00  0.00     0.090 A 
ATOM     11  H1  UNL     1      20.393 -25.931 -23.948  1.00  0.00     0.166 HD
HETATM   12  C3  UNL     1      17.172 -25.522 -24.558  1.00  0.00     0.024 A 
HETATM   13  C2  UNL     1      16.680 -26.110 -23.423  1.00  0.00    -0.057 A 
HETATM   14  C1  UNL     1      15.202 -26.173 -23.230  1.00  0.00     0.048 C 
ATOM     15  H2  UNL     1      19.319 -27.504 -20.924  1.00  0.00     0.161 HD
ENDBRANCH   5   6
ENDBRANCH   4   5
ENDBRANCH   1   4
BRANCH   1  16
HETATM   16  C8  UNL     1      21.100 -24.281 -19.558  1.00  0.00     0.276 C 
BRANCH  16  17
HETATM   17  C9  UNL     1      19.700 -23.826 -19.355  1.00  0.00     0.089 C 
BRANCH  17  18
HETATM   18  N4  UNL     1      19.081 -23.362 -20.493  1.00  0.00    -0.361 N 
HETATM   19  C10 UNL     1      17.936 -23.162 -20.998  1.00  0.00     0.091 A 
HETATM   20  C11 UNL     1      16.653 -23.349 -20.561  1.00  0.00     0.056 A 
HETATM   21  S1  UNL     1      17.633 -22.507 -22.598  1.00  0.00     0.003 SA
HETATM   22  C12 UNL     1      15.649 -23.013 -21.391  1.00  0.00     0.099 A 
HETATM   23  N5  UNL     1      15.964 -22.521 -22.586  1.00  0.00    -0.335 N 
ATOM     24  H5  UNL     1      15.330 -22.221 -23.326  1.00  0.00     0.173 HD
ATOM     25  H4  UNL     1      19.794 -23.081 -21.165  1.00  0.00     0.165 HD
ENDBRANCH  17  18
ENDBRANCH  16  17
ENDBRANCH   1  16
TORSDOF 6
ENDMDL
MODEL 2
REMARK VINA RESULT: -5.704895582      1.836      4.413
REMARK  6 active torsions:
REMARK  status: ('A' for Active; 'I' for Inactive)
REMARK    1  A    between atoms: N2_8  and  C6_10 
REMARK    2  A    between atoms: C6_10  and  C7_11 
REMARK    3  A    between atoms: C7_11  and  N3_12 
REMARK    4  A    between atoms: N3_12  and  C8_15 
REMARK    5  A    between atoms: C8_15  and  C9_16 
REMARK    6  A    between atoms: C9_16  and  N4_17 
ROOT
HETATM    1  N3  UNL     1      15.784 -23.870 -23.091  1.00  0.00    -0.069 N 
ATOM      2  H31 UNL     1      14.993 -23.444 -23.574  1.00  0.00     0.277 HD
ATOM      3  H32 UNL     1      16.422 -23.983 -23.878  1.00  0.00     0.277 HD
ENDROOT
BRANCH   1   4
HETATM    4  C7  UNL     1      15.419 -25.141 -22.547  1.00  0.00     0.252 C 
BRANCH   4   5
HETATM    5  C6  UNL     1      16.054 -26.207 -23.447  1.00  0.00     0.148 C 
BRANCH   5   6
HETATM    6  N2  UNL     1      17.420 -25.900 -23.738  1.00  0.00    -0.375 N 
HETATM    7  C5  UNL     1      18.391 -26.465 -23.107  1.00  0.00     0.101 A 
HETATM    8  N1  UNL     1      18.200 -27.383 -22.128  1.00  0.00    -0.353 N 
HETATM    9  C13 UNL     1      19.711 -26.153 -23.400  1.00  0.00     0.054 A 
HETATM   10  C4  UNL     1      19.248 -27.962 -21.474  1.00  0.00     0.090 A 
ATOM     11  H1  UNL     1      17.249 -27.648 -21.873  1.00  0.00     0.166 HD
HETATM   12  C3  UNL     1      20.550 -27.653 -21.765  1.00  0.00     0.024 A 
HETATM   13  C2  UNL     1      20.782 -26.728 -22.749  1.00  0.00    -0.057 A 
HETATM   14  C1  UNL     1      22.192 -26.372 -23.084  1.00  0.00     0.048 C 
ATOM     15  H2  UNL     1      17.631 -25.217 -24.465  1.00  0.00     0.161 HD
ENDBRANCH   5   6
ENDBRANCH   4   5
ENDBRANCH   1   4
BRANCH   1  16
HETATM   16  C8  UNL     1      16.336 -22.958 -22.109  1.00  0.00     0.276 C 
BRANCH  16  17
HETATM   17  C9  UNL     1      17.731 -22.539 -22.404  1.00  0.00     0.089 C 
BRANCH  17  18
HETATM   18  N4  UNL     1      18.682 -23.108 -21.589  1.00  0.00    -0.361 N 
HETATM   19  C10 UNL     1      18.815 -23.898 -20.607  1.00  0.00     0.091 A 
HETATM   20  C11 UNL     1      17.943 -24.621 -19.838  1.00  0.00     0.056 A 
HETATM   21  S1  UNL     1      20.340 -24.347 -19.864  1.00  0.00     0.003 SA
HETATM   22  C12 UNL     1      18.454 -25.379 -18.850  1.00  0.00     0.099 A 
HETATM   23  N5  UNL     1      19.773 -25.379 -18.680  1.00  0.00    -0.335 N 
ATOM     24  H5  UNL     1      20.315 -25.892 -17.985  1.00  0.00     0.173 HD
ATOM     25  H4  UNL     1      19.603 -22.778 -21.875  1.00  0.00     0.165 HD
ENDBRANCH  17  18
ENDBRANCH  16  17
ENDBRANCH   1  16
TORSDOF 6
ENDMDL
MODEL 3
REMARK VINA RESULT: -5.636792503      1.796      3.651
REMARK  6 active torsions:
REMARK  status: ('A' for Active; 'I' for Inactive)
REMARK    1  A    between atoms: N2_8  and  C6_10 
REMARK    2  A    between atoms: C6_10  and  C7_11 
REMARK    3  A    between atoms: C7_11  and  N3_12 
REMARK    4  A    between atoms: N3_12  and  C8_15 
REMARK    5  A    between atoms: C8_15  and  C9_16 
REMARK    6  A    between atoms: C9_16  and  N4_17 
ROOT
HETATM    1  N3  UNL     1      21.315 -26.554 -20.762  1.00  0.00    -0.069 N 
ATOM      2  H31 UNL     1      20.413 -27.028 -20.721  1.00  0.00     0.277 HD
ATOM      3  H32 UNL     1      21.934 -27.359 -20.665  1.00  0.00     0.277 HD
ENDROOT
BRANCH   1   4
HETATM    4  C7  UNL     1      21.468 -25.662 -19.655  1.00  0.00     0.252 C 
BRANCH   4   5
HETATM    5  C6  UNL     1      20.732 -24.369 -20.021  1.00  0.00     0.148 C 
BRANCH   5   6
HETATM    6  N2  UNL     1      19.333 -24.466 -19.743  1.00  0.00    -0.375 N 
HETATM    7  C5  UNL     1      18.450 -23.916 -20.504  1.00  0.00     0.101 A 
HETATM    8  N1  UNL     1      18.771 -23.209 -21.615  1.00  0.00    -0.353 N 
HETATM    9  C13 UNL     1      17.096 -24.018 -20.217  1.00  0.00     0.054 A 
HETATM   10  C4  UNL     1      17.815 -22.634 -22.400  1.00  0.00     0.090 A 
ATOM     11  H1  UNL     1      19.753 -23.103 -21.870  1.00  0.00     0.166 HD
HETATM   12  C3  UNL     1      16.479 -22.736 -22.115  1.00  0.00     0.024 A 
HETATM   13  C2  UNL     1      16.117 -23.444 -20.999  1.00  0.00    -0.057 A 
HETATM   14  C1  UNL     1      14.668 -23.569 -20.666  1.00  0.00     0.048 C 
ATOM     15  H2  UNL     1      19.025 -24.986 -18.921  1.00  0.00     0.161 HD
ENDBRANCH   5   6
ENDBRANCH   4   5
ENDBRANCH   1   4
BRANCH   1  16
HETATM   16  C8  UNL     1      21.500 -25.915 -22.049  1.00  0.00     0.276 C 
BRANCH  16  17
HETATM   17  C9  UNL     1      20.611 -26.451 -23.114  1.00  0.00     0.089 C 
BRANCH  17  18
HETATM   18  N4  UNL     1      19.340 -26.760 -22.692  1.00  0.00    -0.361 N 
HETATM   19  C10 UNL     1      18.118 -26.553 -22.959  1.00  0.00     0.091 A 
HETATM   20  C11 UNL     1      17.459 -25.832 -23.919  1.00  0.00     0.056 A 
HETATM   21  S1  UNL     1      16.758 -27.213 -22.069  1.00  0.00     0.003 SA
HETATM   22  C12 UNL     1      16.114 -25.840 -23.900  1.00  0.00     0.099 A 
HETATM   23  N5  UNL     1      15.506 -26.547 -22.951  1.00  0.00    -0.335 N 
ATOM     24  H5  UNL     1      14.504 -26.658 -22.798  1.00  0.00     0.173 HD
ATOM     25  H4  UNL     1      19.401 -27.372 -21.878  1.00  0.00     0.165 HD
ENDBRANCH  17  18
ENDBRANCH  16  17
ENDBRANCH   1  16
TORSDOF 6
ENDMDL
MODEL 4
REMARK VINA RESULT: -5.541782393      2.324      5.416
REMARK  6 active torsions:
REMARK  status: ('A' for Active; 'I' for Inactive)
REMARK    1  A    between atoms: N2_8  and  C6_10 
REMARK    2  A    between atoms: C6_10  and  C7_11 
REMARK    3  A    between atoms: C7_11  and  N3_12 
REMARK    4  A    between atoms: N3_12  and  C8_15 
REMARK    5  A    between atoms: C8_15  and  C9_16 
REMARK    6  A    between atoms: C9_16  and  N4_17 
ROOT
HETATM    1  N3  UNL     1      15.849 -24.411 -23.306  1.00  0.00    -0.069 N 
ATOM      2  H31 UNL     1      16.609 -24.611 -23.955  1.00  0.00     0.277 HD
ATOM      3  H32 UNL     1      15.254 -23.846 -23.912  1.00  0.00     0.277 HD
ENDROOT
BRANCH   1   4
HETATM    4  C7  UNL     1      16.320 -23.641 -22.197  1.00  0.00     0.252 C 
BRANCH   4   5
HETATM    5  C6  UNL     1      17.745 -23.194 -22.540  1.00  0.00     0.148 C 
BRANCH   5   6
HETATM    6  N2  UNL     1      18.709 -23.822 -21.690  1.00  0.00    -0.375 N 
HETATM    7  C5  UNL     1      19.416 -24.823 -22.090  1.00  0.00     0.101 A 
HETATM    8  N1  UNL     1      19.304 -25.357 -23.331  1.00  0.00    -0.353 N 
HETATM    9  C13 UNL     1      20.344 -25.422 -21.250  1.00  0.00     0.054 A 
HETATM   10  C4  UNL     1      20.063 -26.419 -23.725  1.00  0.00     0.090 A 
ATOM     11  H1  UNL     1      18.635 -24.954 -23.987  1.00  0.00     0.166 HD
HETATM   12  C3  UNL     1      20.979 -27.009 -22.894  1.00  0.00     0.024 A 
HETATM   13  C2  UNL     1      21.119 -26.497 -21.632  1.00  0.00    -0.057 A 
HETATM   14  C1  UNL     1      22.109 -27.122 -20.708  1.00  0.00     0.048 C 
ATOM     15  H2  UNL     1      18.841 -23.468 -20.743  1.00  0.00     0.161 HD
ENDBRANCH   5   6
ENDBRANCH   4   5
ENDBRANCH   1   4
BRANCH   1  16
HETATM   16  C8  UNL     1      15.172 -25.632 -22.917  1.00  0.00     0.276 C 
BRANCH  16  17
HETATM   17  C9  UNL     1      16.022 -26.846 -23.029  1.00  0.00     0.089 C 
BRANCH  17  18
HETATM   18  N4  UNL     1      16.752 -27.137 -21.901  1.00  0.00    -0.361 N 
HETATM   19  C10 UNL     1      17.533 -28.007 -21.411  1.00  0.00     0.091 A 
HETATM   20  C11 UNL     1      18.052 -29.190 -21.866  1.00  0.00     0.056 A 
HETATM   21  S1  UNL     1      18.262 -27.934 -19.816  1.00  0.00     0.003 SA
HETATM   22  C12 UNL     1      18.875 -29.872 -21.049  1.00  0.00     0.099 A 
HETATM   23  N5  UNL     1      19.135 -29.357 -19.851  1.00  0.00    -0.335 N 
ATOM     24  H5  UNL     1      19.732 -29.743 -19.119  1.00  0.00     0.173 HD
ATOM     25  H4  UNL     1      16.618 -26.391 -21.219  1.00  0.00     0.165 HD
ENDBRANCH  17  18
ENDBRANCH  16  17
ENDBRANCH   1  16
TORSDOF 6
ENDMDL
MODEL 5
REMARK VINA RESULT: -5.528059179      2.016      6.000
REMARK  6 active torsions:
REMARK  status: ('A' for Active; 'I' for Inactive)
REMARK    1  A    between atoms: N2_8  and  C6_10 
REMARK    2  A    between atoms: C6_10  and  C7_11 
REMARK    3  A    between atoms: C7_11  and  N3_12 
REMARK    4  A    between atoms: N3_12  and  C8_15 
REMARK    5  A    between atoms: C8_15  and  C9_16 
REMARK    6  A    between atoms: C9_16  and  N4_17 
ROOT
HETATM    1  N3  UNL     1      16.261 -24.630 -23.490  1.00  0.00    -0.069 N 
ATOM      2  H31 UNL     1      16.417 -24.113 -24.355  1.00  0.00     0.277 HD
ATOM      3  H32 UNL     1      15.375 -25.079 -23.720  1.00  0.00     0.277 HD
ENDROOT
BRANCH   1   4
HETATM    4  C7  UNL     1      16.102 -23.733 -22.387  1.00  0.00     0.252 C 
BRANCH   4   5
HETATM    5  C6  UNL     1      17.339 -22.829 -22.368  1.00  0.00     0.148 C 
BRANCH   5   6
HETATM    6  N2  UNL     1      17.683 -22.442 -21.035  1.00  0.00    -0.375 N 
HETATM    7  C5  UNL     1      18.691 -22.956 -20.418  1.00  0.00     0.101 A 
HETATM    8  N1  UNL     1      19.496 -23.894 -20.974  1.00  0.00    -0.353 N 
HETATM    9  C13 UNL     1      19.008 -22.571 -19.124  1.00  0.00     0.054 A 
HETATM   10  C4  UNL     1      20.554 -24.424 -20.295  1.00  0.00     0.090 A 
ATOM     11  H1  UNL     1      19.305 -24.213 -21.924  1.00  0.00     0.166 HD
HETATM   12  C3  UNL     1      20.866 -24.042 -19.017  1.00  0.00     0.024 A 
HETATM   13  C2  UNL     1      20.073 -23.096 -18.423  1.00  0.00    -0.057 A 
HETATM   14  C1  UNL     1      20.391 -22.664 -17.030  1.00  0.00     0.048 C 
ATOM     15  H2  UNL     1      17.116 -21.739 -20.560  1.00  0.00     0.161 HD
ENDBRANCH   5   6
ENDBRANCH   4   5
ENDBRANCH   1   4
BRANCH   1  16
HETATM   16  C8  UNL     1      17.301 -25.617 -23.286  1.00  0.00     0.276 C 
BRANCH  16  17
HETATM   17  C9  UNL     1      18.272 -25.700 -24.409  1.00  0.00     0.089 C 
BRANCH  17  18
HETATM   18  N4  UNL     1      19.585 -25.823 -24.019  1.00  0.00    -0.361 N 
HETATM   19  C10 UNL     1      20.354 -26.534 -23.304  1.00  0.00     0.091 A 
HETATM   20  C11 UNL     1      20.175 -27.634 -22.509  1.00  0.00     0.056 A 
HETATM   21  S1  UNL     1      22.079 -26.279 -23.108  1.00  0.00     0.003 SA
HETATM   22  C12 UNL     1      21.252 -28.140 -21.882  1.00  0.00     0.099 A 
HETATM   23  N5  UNL     1      22.424 -27.542 -22.072  1.00  0.00    -0.335 N 
ATOM     24  H5  UNL     1      23.329 -27.796 -21.674  1.00  0.00     0.173 HD
ATOM     25  H4  UNL     1      20.131 -25.083 -24.459  1.00  0.00     0.165 HD
ENDBRANCH  17  18
ENDBRANCH  16  17
ENDBRANCH   1  16
TORSDOF 6
ENDMDL
