MODEL 1
REMARK VINA RESULT: -9.719872348      0.000      0.000
REMARK  7 active torsions:
REMARK  status: ('A' for Active; 'I' for Inactive)
REMARK    1  A    between atoms: C5_5  and  O1_6 
REMARK    2  A    between atoms: C8_11  and  C9_12 
REMARK    3  A    between atoms: C15_19  and  C16_20 
REMARK    4  A    between atoms: C16_20  and  C17_21 
REMARK    5  A    between atoms: C17_21  and  C18_22 
REMARK    6  A    between atoms: C18_22  and  C19_23 
REMARK    7  A    between atoms: C19_23  and  O4_24 
ROOT
HETATM    1  C1  UNL     1      12.824 153.849  36.127  1.00  0.00     0.016 C 
HETATM    2  C2  UNL     1      12.658 155.308  35.713  1.00  0.00    -0.026 C 
HETATM    3  C3  UNL     1      13.456 155.543  34.484  1.00  0.00     0.040 C 
HETATM    4  C4  UNL     1      14.899 155.755  34.665  1.00  0.00     0.014 C 
HETATM    5  C5  UNL     1      15.419 155.956  35.851  1.00  0.00     0.108 C 
HETATM    6  C6  UNL     1      14.582 155.974  37.026  1.00  0.00     0.187 C 
HETATM    7  O2  UNL     1      15.165 155.823  38.142  1.00  0.00    -0.290 OA
HETATM    8  C7  UNL     1      13.140 156.162  36.876  1.00  0.00     0.080 C 
HETATM    9  C8  UNL     1      12.367 155.891  38.130  1.00  0.00     0.033 C 
HETATM   10  C13 UNL     1      11.131 155.100  38.008  1.00  0.00     0.010 C 
HETATM   11  C14 UNL     1      10.411 155.156  36.712  1.00  0.00     0.006 C 
HETATM   12  C15 UNL     1      11.195 155.671  35.556  1.00  0.00    -0.005 C 
ENDROOT
BRANCH  12  13
HETATM   13  C16 UNL     1      10.654 155.193  34.225  1.00  0.00     0.006 C 
BRANCH  13  14
HETATM   14  C17 UNL     1       9.200 154.918  34.251  1.00  0.00     0.012 C 
BRANCH  14  15
HETATM   15  C18 UNL     1       8.809 153.475  34.167  1.00  0.00    -0.019 C 
HETATM   16  C20 UNL     1       7.868 153.378  32.953  1.00  0.00     0.011 C 
HETATM   17  C21 UNL     1       6.422 153.428  33.389  1.00  0.00     0.001 C 
HETATM   18  C22 UNL     1       6.145 152.148  34.149  1.00  0.00     0.000 C 
HETATM   19  C23 UNL     1       7.135 151.962  35.271  1.00  0.00     0.001 C 
HETATM   20  C24 UNL     1       7.992 153.176  35.409  1.00  0.00     0.011 C 
BRANCH  15  21
HETATM   21  C19 UNL     1       9.892 152.506  33.924  1.00  0.00     0.173 C 
BRANCH  21  22
HETATM   22  O4  UNL     1      10.076 151.996  32.690  1.00  0.00    -0.400 OA
ATOM     23  H4  UNL     1      10.129 151.055  32.568  1.00  0.00     0.209 HD
ENDBRANCH  21  22
ENDBRANCH  15  21
ENDBRANCH  14  15
ENDBRANCH  13  14
ENDBRANCH  12  13
BRANCH   9  24
HETATM   24  C9  UNL     1      12.131 157.189  38.817  1.00  0.00    -0.029 A 
HETATM   25  C10 UNL     1      11.505 157.342  40.050  1.00  0.00     0.034 A 
HETATM   26  C11 UNL     1      11.504 158.696  40.294  1.00  0.00     0.142 A 
HETATM   27  O3  UNL     1      12.073 159.350  39.312  1.00  0.00    -0.334 OA
HETATM   28  C12 UNL     1      12.452 158.464  38.424  1.00  0.00     0.148 A 
ENDBRANCH   9  24
BRANCH   5  29
HETATM   29  O1  UNL     1      16.804 156.158  36.014  1.00  0.00    -0.357 OA
ATOM     30  H1  UNL     1      17.340 155.532  36.487  1.00  0.00     0.217 HD
ENDBRANCH   5  29
TORSDOF 7
ENDMDL
MODEL 2
REMARK VINA RESULT: -9.539797078      0.766      1.144
REMARK  7 active torsions:
REMARK  status: ('A' for Active; 'I' for Inactive)
REMARK    1  A    between atoms: C5_5  and  O1_6 
REMARK    2  A    between atoms: C8_11  and  C9_12 
REMARK    3  A    between atoms: C15_19  and  C16_20 
REMARK    4  A    between atoms: C16_20  and  C17_21 
REMARK    5  A    between atoms: C17_21  and  C18_22 
REMARK    6  A    between atoms: C18_22  and  C19_23 
REMARK    7  A    between atoms: C19_23  and  O4_24 
ROOT
HETATM    1  C1  UNL     1      12.596 154.014  36.502  1.00  0.00     0.016 C 
HETATM    2  C2  UNL     1      12.850 155.267  35.670  1.00  0.00    -0.026 C 
HETATM    3  C3  UNL     1      13.752 154.910  34.546  1.00  0.00     0.040 C 
HETATM    4  C4  UNL     1      15.186 154.818  34.854  1.00  0.00     0.014 C 
HETATM    5  C5  UNL     1      15.672 155.249  35.992  1.00  0.00     0.108 C 
HETATM    6  C6  UNL     1      14.804 155.832  36.987  1.00  0.00     0.187 C 
HETATM    7  O2  UNL     1      15.259 155.902  38.168  1.00  0.00    -0.290 OA
HETATM    8  C7  UNL     1      13.475 156.300  36.594  1.00  0.00     0.080 C 
HETATM    9  C8  UNL     1      12.587 156.626  37.755  1.00  0.00     0.033 C 
HETATM   10  C13 UNL     1      11.194 156.154  37.697  1.00  0.00     0.010 C 
HETATM   11  C14 UNL     1      10.591 155.972  36.354  1.00  0.00     0.006 C 
HETATM   12  C15 UNL     1      11.550 155.899  35.217  1.00  0.00    -0.005 C 
ENDROOT
BRANCH  12  13
HETATM   13  C16 UNL     1      10.978 155.173  34.017  1.00  0.00     0.006 C 
BRANCH  13  14
HETATM   14  C17 UNL     1       9.521 154.939  34.117  1.00  0.00     0.012 C 
BRANCH  14  15
HETATM   15  C18 UNL     1       9.091 153.506  34.148  1.00  0.00    -0.019 C 
HETATM   16  C20 UNL     1       8.174 153.328  32.924  1.00  0.00     0.011 C 
HETATM   17  C21 UNL     1       6.721 153.453  33.320  1.00  0.00     0.001 C 
HETATM   18  C22 UNL     1       6.392 152.251  34.180  1.00  0.00     0.000 C 
HETATM   19  C23 UNL     1       7.351 152.138  35.338  1.00  0.00     0.001 C 
HETATM   20  C24 UNL     1       8.238 153.337  35.391  1.00  0.00     0.011 C 
BRANCH  15  21
HETATM   21  C19 UNL     1      10.151 152.491  34.016  1.00  0.00     0.173 C 
BRANCH  21  22
HETATM   22  O4  UNL     1      10.309 151.829  32.853  1.00  0.00    -0.400 OA
ATOM     23  H4  UNL     1       9.557 151.445  32.419  1.00  0.00     0.209 HD
ENDBRANCH  21  22
ENDBRANCH  15  21
ENDBRANCH  14  15
ENDBRANCH  13  14
ENDBRANCH  12  13
BRANCH   9  24
HETATM   24  C9  UNL     1      12.668 158.091  38.003  1.00  0.00    -0.029 A 
HETATM   25  C10 UNL     1      13.242 159.020  37.141  1.00  0.00     0.034 A 
HETATM   26  C11 UNL     1      13.095 160.237  37.765  1.00  0.00     0.142 A 
HETATM   27  O3  UNL     1      12.487 160.103  38.917  1.00  0.00    -0.334 OA
HETATM   28  C12 UNL     1      12.226 158.828  39.072  1.00  0.00     0.148 A 
ENDBRANCH   9  24
BRANCH   5  29
HETATM   29  O1  UNL     1      17.048 155.157  36.278  1.00  0.00    -0.357 OA
ATOM     30  H1  UNL     1      17.388 155.385  37.135  1.00  0.00     0.217 HD
ENDBRANCH   5  29
TORSDOF 7
ENDMDL
MODEL 3
REMARK VINA RESULT: -9.235560610      3.361      8.083
REMARK  7 active torsions:
REMARK  status: ('A' for Active; 'I' for Inactive)
REMARK    1  A    between atoms: C5_5  and  O1_6 
REMARK    2  A    between atoms: C8_11  and  C9_12 
REMARK    3  A    between atoms: C15_19  and  C16_20 
REMARK    4  A    between atoms: C16_20  and  C17_21 
REMARK    5  A    between atoms: C17_21  and  C18_22 
REMARK    6  A    between atoms: C18_22  and  C19_23 
REMARK    7  A    between atoms: C19_23  and  O4_24 
ROOT
HETATM    1  C1  UNL     1      13.600 157.023  38.892  1.00  0.00     0.016 C 
HETATM    2  C2  UNL     1      12.230 157.570  38.502  1.00  0.00    -0.026 C 
HETATM    3  C3  UNL     1      11.567 158.089  39.724  1.00  0.00     0.040 C 
HETATM    4  C4  UNL     1      10.926 157.096  40.599  1.00  0.00     0.014 C 
HETATM    5  C5  UNL     1      10.748 155.857  40.214  1.00  0.00     0.108 C 
HETATM    6  C6  UNL     1      11.180 155.425  38.907  1.00  0.00     0.187 C 
HETATM    7  O2  UNL     1      11.299 154.174  38.732  1.00  0.00    -0.290 OA
HETATM    8  C7  UNL     1      11.452 156.424  37.874  1.00  0.00     0.080 C 
HETATM    9  C8  UNL     1      12.145 155.867  36.669  1.00  0.00     0.033 C 
HETATM   10  C13 UNL     1      13.267 156.641  36.114  1.00  0.00     0.010 C 
HETATM   11  C14 UNL     1      13.255 158.109  36.328  1.00  0.00     0.006 C 
HETATM   12  C15 UNL     1      12.344 158.601  37.398  1.00  0.00    -0.005 C 
ENDROOT
BRANCH  12  13
HETATM   13  C16 UNL     1      12.767 159.947  37.950  1.00  0.00     0.006 C 
BRANCH  13  14
HETATM   14  C17 UNL     1      13.496 160.778  36.966  1.00  0.00     0.012 C 
BRANCH  14  15
HETATM   15  C18 UNL     1      13.373 162.259  37.145  1.00  0.00    -0.019 C 
HETATM   16  C20 UNL     1      12.507 162.742  35.968  1.00  0.00     0.011 C 
HETATM   17  C21 UNL     1      13.372 163.258  34.842  1.00  0.00     0.001 C 
HETATM   18  C22 UNL     1      14.029 164.530  35.336  1.00  0.00     0.000 C 
HETATM   19  C23 UNL     1      14.761 164.289  36.632  1.00  0.00     0.001 C 
HETATM   20  C24 UNL     1      14.765 162.833  36.960  1.00  0.00     0.011 C 
BRANCH  15  21
HETATM   21  C19 UNL     1      12.699 162.727  38.369  1.00  0.00     0.173 C 
BRANCH  21  22
HETATM   22  O4  UNL     1      11.632 163.545  38.280  1.00  0.00    -0.400 OA
ATOM     23  H4  UNL     1      10.848 163.361  38.784  1.00  0.00     0.209 HD
ENDBRANCH  21  22
ENDBRANCH  15  21
ENDBRANCH  14  15
ENDBRANCH  13  14
ENDBRANCH  12  13
BRANCH   9  24
HETATM   24  C9  UNL     1      11.113 155.567  35.641  1.00  0.00    -0.029 A 
HETATM   25  C10 UNL     1       9.857 156.160  35.566  1.00  0.00     0.034 A 
HETATM   26  C11 UNL     1       9.247 155.588  34.474  1.00  0.00     0.142 A 
HETATM   27  O3  UNL     1      10.035 154.711  33.902  1.00  0.00    -0.334 OA
HETATM   28  C12 UNL     1      11.152 154.688  34.587  1.00  0.00     0.148 A 
ENDBRANCH   9  24
BRANCH   5  29
HETATM   29  O1  UNL     1      10.133 154.913  41.061  1.00  0.00    -0.357 OA
ATOM     30  H1  UNL     1       9.841 155.151  41.932  1.00  0.00     0.217 HD
ENDBRANCH   5  29
TORSDOF 7
ENDMDL
MODEL 4
REMARK VINA RESULT: -8.541844745      3.677      7.381
REMARK  7 active torsions:
REMARK  status: ('A' for Active; 'I' for Inactive)
REMARK    1  A    between atoms: C5_5  and  O1_6 
REMARK    2  A    between atoms: C8_11  and  C9_12 
REMARK    3  A    between atoms: C15_19  and  C16_20 
REMARK    4  A    between atoms: C16_20  and  C17_21 
REMARK    5  A    between atoms: C17_21  and  C18_22 
REMARK    6  A    between atoms: C18_22  and  C19_23 
REMARK    7  A    between atoms: C19_23  and  O4_24 
ROOT
HETATM    1  C1  UNL     1      13.483 157.459  35.423  1.00  0.00     0.016 C 
HETATM    2  C2  UNL     1      13.903 157.448  36.889  1.00  0.00    -0.026 C 
HETATM    3  C3  UNL     1      15.381 157.565  36.956  1.00  0.00     0.040 C 
HETATM    4  C4  UNL     1      16.151 156.335  36.722  1.00  0.00     0.014 C 
HETATM    5  C5  UNL     1      15.572 155.160  36.685  1.00  0.00     0.108 C 
HETATM    6  C6  UNL     1      14.147 155.038  36.875  1.00  0.00     0.187 C 
HETATM    7  O2  UNL     1      13.612 153.955  36.489  1.00  0.00    -0.290 OA
HETATM    8  C7  UNL     1      13.407 156.141  37.488  1.00  0.00     0.080 C 
HETATM    9  C8  UNL     1      11.921 156.000  37.378  1.00  0.00     0.033 C 
HETATM   10  C13 UNL     1      11.152 157.196  36.995  1.00  0.00     0.010 C 
HETATM   11  C14 UNL     1      11.729 158.517  37.342  1.00  0.00     0.006 C 
HETATM   12  C15 UNL     1      13.181 158.523  37.676  1.00  0.00    -0.005 C 
ENDROOT
BRANCH  12  13
HETATM   13  C16 UNL     1      13.822 159.879  37.464  1.00  0.00     0.006 C 
BRANCH  13  14
HETATM   14  C17 UNL     1      12.890 160.885  36.910  1.00  0.00     0.012 C 
BRANCH  14  15
HETATM   15  C18 UNL     1      13.235 162.316  37.187  1.00  0.00    -0.019 C 
HETATM   16  C20 UNL     1      12.600 163.118  36.037  1.00  0.00     0.011 C 
HETATM   17  C21 UNL     1      13.616 163.403  34.955  1.00  0.00     0.001 C 
HETATM   18  C22 UNL     1      14.625 164.368  35.540  1.00  0.00     0.000 C 
HETATM   19  C23 UNL     1      15.206 163.830  36.823  1.00  0.00     0.001 C 
HETATM   20  C24 UNL     1      14.741 162.430  37.052  1.00  0.00     0.011 C 
BRANCH  15  21
HETATM   21  C19 UNL     1      12.707 162.897  38.433  1.00  0.00     0.173 C 
BRANCH  21  22
HETATM   22  O4  UNL     1      11.605 163.673  38.401  1.00  0.00    -0.400 OA
ATOM     23  H4  UNL     1      10.746 163.275  38.318  1.00  0.00     0.209 HD
ENDBRANCH  21  22
ENDBRANCH  15  21
ENDBRANCH  14  15
ENDBRANCH  13  14
ENDBRANCH  12  13
BRANCH   9  24
HETATM   24  C9  UNL     1      11.418 155.397  38.641  1.00  0.00    -0.029 A 
HETATM   25  C10 UNL     1      11.518 155.977  39.902  1.00  0.00     0.034 A 
HETATM   26  C11 UNL     1      10.929 155.081  40.764  1.00  0.00     0.142 A 
HETATM   27  O3  UNL     1      10.493 154.027  40.120  1.00  0.00    -0.334 OA
HETATM   28  C12 UNL     1      10.778 154.202  38.853  1.00  0.00     0.148 A 
ENDBRANCH   9  24
BRANCH   5  29
HETATM   29  O1  UNL     1      16.319 153.987  36.460  1.00  0.00    -0.357 OA
ATOM     30  H1  UNL     1      16.864 153.892  35.688  1.00  0.00     0.217 HD
ENDBRANCH   5  29
TORSDOF 7
ENDMDL
MODEL 5
REMARK VINA RESULT: -8.267161314      3.326      7.984
REMARK  7 active torsions:
REMARK  status: ('A' for Active; 'I' for Inactive)
REMARK    1  A    between atoms: C5_5  and  O1_6 
REMARK    2  A    between atoms: C8_11  and  C9_12 
REMARK    3  A    between atoms: C15_19  and  C16_20 
REMARK    4  A    between atoms: C16_20  and  C17_21 
REMARK    5  A    between atoms: C17_21  and  C18_22 
REMARK    6  A    between atoms: C18_22  and  C19_23 
REMARK    7  A    between atoms: C19_23  and  O4_24 
ROOT
HETATM    1  C1  UNL     1      13.818 156.687  38.657  1.00  0.00     0.016 C 
HETATM    2  C2  UNL     1      12.530 157.404  38.268  1.00  0.00    -0.026 C 
HETATM    3  C3  UNL     1      11.996 158.095  39.468  1.00  0.00     0.040 C 
HETATM    4  C4  UNL     1      11.250 157.269  40.428  1.00  0.00     0.014 C 
HETATM    5  C5  UNL     1      10.878 156.047  40.137  1.00  0.00     0.108 C 
HETATM    6  C6  UNL     1      11.192 155.470  38.852  1.00  0.00     0.187 C 
HETATM    7  O2  UNL     1      11.121 154.207  38.763  1.00  0.00    -0.290 OA
HETATM    8  C7  UNL     1      11.569 156.347  37.744  1.00  0.00     0.080 C 
HETATM    9  C8  UNL     1      12.127 155.616  36.563  1.00  0.00     0.033 C 
HETATM   10  C13 UNL     1      13.329 156.177  35.923  1.00  0.00     0.010 C 
HETATM   11  C14 UNL     1      13.539 157.641  36.033  1.00  0.00     0.006 C 
HETATM   12  C15 UNL     1      12.751 158.332  37.091  1.00  0.00    -0.005 C 
ENDROOT
BRANCH  12  13
HETATM   13  C16 UNL     1      13.386 159.634  37.534  1.00  0.00     0.006 C 
BRANCH  13  14
HETATM   14  C17 UNL     1      12.584 160.825  37.179  1.00  0.00     0.012 C 
BRANCH  14  15
HETATM   15  C18 UNL     1      13.354 162.092  36.972  1.00  0.00    -0.019 C 
HETATM   16  C20 UNL     1      13.008 162.981  38.180  1.00  0.00     0.011 C 
HETATM   17  C21 UNL     1      11.907 163.955  37.832  1.00  0.00     0.001 C 
HETATM   18  C22 UNL     1      12.482 164.934  36.831  1.00  0.00     0.000 C 
HETATM   19  C23 UNL     1      13.078 164.211  35.650  1.00  0.00     0.001 C 
HETATM   20  C24 UNL     1      12.777 162.751  35.734  1.00  0.00     0.011 C 
BRANCH  15  21
HETATM   21  C19 UNL     1      14.823 161.981  36.952  1.00  0.00     0.173 C 
BRANCH  21  22
HETATM   22  O4  UNL     1      15.584 163.039  37.298  1.00  0.00    -0.400 OA
ATOM     23  H4  UNL     1      15.645 163.303  38.208  1.00  0.00     0.209 HD
ENDBRANCH  21  22
ENDBRANCH  15  21
ENDBRANCH  14  15
ENDBRANCH  13  14
ENDBRANCH  12  13
BRANCH   9  24
HETATM   24  C9  UNL     1      11.025 155.405  35.587  1.00  0.00    -0.029 A 
HETATM   25  C10 UNL     1       9.835 156.125  35.551  1.00  0.00     0.034 A 
HETATM   26  C11 UNL     1       9.120 155.599  34.501  1.00  0.00     0.142 A 
HETATM   27  O3  UNL     1       9.785 154.633  33.918  1.00  0.00    -0.334 OA
HETATM   28  C12 UNL     1      10.923 154.506  34.555  1.00  0.00     0.148 A 
ENDBRANCH   9  24
BRANCH   5  29
HETATM   29  O1  UNL     1      10.164 155.263  41.065  1.00  0.00    -0.357 OA
ATOM     30  H1  UNL     1       9.311 155.534  41.384  1.00  0.00     0.217 HD
ENDBRANCH   5  29
TORSDOF 7
ENDMDL
