MODEL 1
REMARK VINA RESULT: -7.728404813      0.000      0.000
REMARK  7 active torsions:
REMARK  status: ('A' for Active; 'I' for Inactive)
REMARK    1  A    between atoms: C2_2  and  C3_3 
REMARK    2  A    between atoms: C3_3  and  C4_4 
REMARK    3  A    between atoms: C4_4  and  C5_5 
REMARK    4  A    between atoms: C5_5  and  C6_6 
REMARK    5  A    between atoms: C6_6  and  C7_7 
REMARK    6  A    between atoms: C7_7  and  O1_8 
REMARK    7  A    between atoms: C15_18  and  O3_19 
ROOT
HETATM    1  C7  UNL     1       4.068 153.060  34.700  1.00  0.00     0.165 C 
HETATM    2  C8  UNL     1       3.559 152.092  33.695  1.00  0.00     0.074 C 
HETATM    3  C9  UNL     1       2.109 151.704  33.777  1.00  0.00     0.007 A 
HETATM    4  C10 UNL     1       0.978 152.487  33.425  1.00  0.00     0.005 A 
HETATM    5  C11 UNL     1      -0.398 152.680  33.714  1.00  0.00     0.044 C 
HETATM    6  C12 UNL     1      -0.772 153.073  35.152  1.00  0.00     0.062 C 
HETATM    7  C13 UNL     1      -2.107 153.756  35.195  1.00  0.00     0.046 C 
HETATM    8  O2  UNL     1       0.168 153.834  35.806  1.00  0.00    -0.369 OA
HETATM    9  C14 UNL     1       1.487 153.627  35.352  1.00  0.00     0.187 C 
HETATM   10  C15 UNL     1       2.575 153.854  36.311  1.00  0.00     0.290 C 
HETATM   11  O4  UNL     1       3.604 152.943  35.978  1.00  0.00    -0.323 OA
HETATM   12  C16 UNL     1       1.508 152.242  34.882  1.00  0.00     0.003 A 
HETATM   13  C17 UNL     1       0.724 151.411  35.768  1.00  0.00     0.008 C 
HETATM   14  C18 UNL     1       0.835 149.958  35.877  1.00  0.00    -0.013 C 
HETATM   15  C19 UNL     1       0.210 149.098  34.848  1.00  0.00     0.010 C 
HETATM   16  C20 UNL     1       0.206 149.559  37.220  1.00  0.00     0.005 C 
HETATM   17  C21 UNL     1      -0.420 150.668  37.969  1.00  0.00     0.001 C 
HETATM   18  C22 UNL     1      -1.285 151.614  37.183  1.00  0.00     0.008 C 
HETATM   19  C23 UNL     1      -0.781 151.721  35.821  1.00  0.00     0.025 C 
ENDROOT
BRANCH   1  20
HETATM   20  C6  UNL     1       5.595 152.838  34.804  1.00  0.00     0.068 C 
BRANCH  20  21
HETATM   21  C5  UNL     1       6.130 152.752  33.400  1.00  0.00     0.005 C 
BRANCH  21  22
HETATM   22  C4  UNL     1       7.598 152.755  33.288  1.00  0.00     0.000 C 
BRANCH  22  23
HETATM   23  C3  UNL     1       8.167 153.406  34.532  1.00  0.00    -0.000 C 
BRANCH  23  24
HETATM   24  C2  UNL     1       9.407 154.214  34.215  1.00  0.00    -0.005 C 
HETATM   25  C1  UNL     1       9.284 155.543  34.906  1.00  0.00     0.005 C 
ENDBRANCH  23  24
ENDBRANCH  22  23
ENDBRANCH  21  22
ENDBRANCH  20  21
ENDBRANCH   1  20
BRANCH   1  26
HETATM   26  O1  UNL     1       3.966 154.344  34.168  1.00  0.00    -0.365 OA
ATOM     27  H1  UNL     1       3.029 154.501  34.153  1.00  0.00     0.213 HD
ENDBRANCH   1  26
BRANCH  10  28
HETATM   28  O3  UNL     1       2.282 153.733  37.643  1.00  0.00    -0.368 OA
ATOM     29  H3  UNL     1       2.198 154.532  38.150  1.00  0.00     0.212 HD
ENDBRANCH  10  28
TORSDOF 7
ENDMDL
MODEL 2
REMARK VINA RESULT: -7.174116278      2.082      3.487
REMARK  7 active torsions:
REMARK  status: ('A' for Active; 'I' for Inactive)
REMARK    1  A    between atoms: C2_2  and  C3_3 
REMARK    2  A    between atoms: C3_3  and  C4_4 
REMARK    3  A    between atoms: C4_4  and  C5_5 
REMARK    4  A    between atoms: C5_5  and  C6_6 
REMARK    5  A    between atoms: C6_6  and  C7_7 
REMARK    6  A    between atoms: C7_7  and  O1_8 
REMARK    7  A    between atoms: C15_18  and  O3_19 
ROOT
HETATM    1  C7  UNL     1       3.702 152.969  34.568  1.00  0.00     0.165 C 
HETATM    2  C8  UNL     1       3.436 154.015  33.549  1.00  0.00     0.074 C 
HETATM    3  C9  UNL     1       2.164 153.904  32.755  1.00  0.00     0.007 A 
HETATM    4  C10 UNL     1       0.839 154.160  33.195  1.00  0.00     0.005 A 
HETATM    5  C11 UNL     1      -0.516 153.807  32.967  1.00  0.00     0.044 C 
HETATM    6  C12 UNL     1      -0.907 152.333  33.160  1.00  0.00     0.062 C 
HETATM    7  C13 UNL     1      -2.376 152.194  33.425  1.00  0.00     0.046 C 
HETATM    8  O2  UNL     1      -0.189 151.666  34.124  1.00  0.00    -0.369 OA
HETATM    9  C14 UNL     1       1.107 152.183  34.331  1.00  0.00     0.187 C 
HETATM   10  C15 UNL     1       2.136 151.253  34.812  1.00  0.00     0.290 C 
HETATM   11  O4  UNL     1       3.363 151.685  34.256  1.00  0.00    -0.323 OA
HETATM   12  C16 UNL     1       1.497 152.744  33.038  1.00  0.00     0.003 A 
HETATM   13  C17 UNL     1       1.033 151.885  31.971  1.00  0.00     0.008 C 
HETATM   14  C18 UNL     1       1.561 151.877  30.608  1.00  0.00    -0.013 C 
HETATM   15  C19 UNL     1       1.153 152.936  29.659  1.00  0.00     0.010 C 
HETATM   16  C20 UNL     1       1.148 150.540  29.975  1.00  0.00     0.005 C 
HETATM   17  C21 UNL     1       0.274 149.697  30.815  1.00  0.00     0.001 C 
HETATM   18  C22 UNL     1      -0.867 150.385  31.510  1.00  0.00     0.008 C 
HETATM   19  C23 UNL     1      -0.492 151.755  31.829  1.00  0.00     0.025 C 
ENDROOT
BRANCH   1  20
HETATM   20  C6  UNL     1       5.232 152.938  34.792  1.00  0.00     0.068 C 
BRANCH  20  21
HETATM   21  C5  UNL     1       5.868 152.577  33.477  1.00  0.00     0.005 C 
BRANCH  21  22
HETATM   22  C4  UNL     1       7.297 152.913  33.359  1.00  0.00     0.000 C 
BRANCH  22  23
HETATM   23  C3  UNL     1       7.703 153.697  34.590  1.00  0.00    -0.000 C 
BRANCH  23  24
HETATM   24  C2  UNL     1       9.166 154.082  34.545  1.00  0.00    -0.005 C 
HETATM   25  C1  UNL     1       9.273 155.542  34.882  1.00  0.00     0.005 C 
ENDBRANCH  23  24
ENDBRANCH  22  23
ENDBRANCH  21  22
ENDBRANCH  20  21
ENDBRANCH   1  20
BRANCH   1  26
HETATM   26  O1  UNL     1       3.208 153.411  35.795  1.00  0.00    -0.365 OA
ATOM     27  H1  UNL     1       3.481 152.730  36.398  1.00  0.00     0.213 HD
ENDBRANCH   1  26
BRANCH  10  28
HETATM   28  O3  UNL     1       1.964 149.922  34.542  1.00  0.00    -0.368 OA
ATOM     29  H3  UNL     1       1.297 149.684  33.908  1.00  0.00     0.212 HD
ENDBRANCH  10  28
TORSDOF 7
ENDMDL
MODEL 3
REMARK VINA RESULT: -7.041814385      1.273      1.550
REMARK  7 active torsions:
REMARK  status: ('A' for Active; 'I' for Inactive)
REMARK    1  A    between atoms: C2_2  and  C3_3 
REMARK    2  A    between atoms: C3_3  and  C4_4 
REMARK    3  A    between atoms: C4_4  and  C5_5 
REMARK    4  A    between atoms: C5_5  and  C6_6 
REMARK    5  A    between atoms: C6_6  and  C7_7 
REMARK    6  A    between atoms: C7_7  and  O1_8 
REMARK    7  A    between atoms: C15_18  and  O3_19 
ROOT
HETATM    1  C7  UNL     1       4.150 153.115  34.347  1.00  0.00     0.165 C 
HETATM    2  C8  UNL     1       3.888 152.648  32.961  1.00  0.00     0.074 C 
HETATM    3  C9  UNL     1       2.458 152.403  32.570  1.00  0.00     0.007 A 
HETATM    4  C10 UNL     1       1.449 153.368  32.310  1.00  0.00     0.005 A 
HETATM    5  C11 UNL     1       0.046 153.574  32.344  1.00  0.00     0.044 C 
HETATM    6  C12 UNL     1      -0.658 153.437  33.704  1.00  0.00     0.062 C 
HETATM    7  C13 UNL     1      -1.959 154.183  33.716  1.00  0.00     0.046 C 
HETATM    8  O2  UNL     1       0.104 153.802  34.788  1.00  0.00    -0.369 OA
HETATM    9  C14 UNL     1       1.492 153.650  34.589  1.00  0.00     0.187 C 
HETATM   10  C15 UNL     1       2.321 153.393  35.772  1.00  0.00     0.290 C 
HETATM   11  O4  UNL     1       3.393 152.576  35.346  1.00  0.00    -0.323 OA
HETATM   12  C16 UNL     1       1.615 152.545  33.637  1.00  0.00     0.003 A 
HETATM   13  C17 UNL     1       0.635 151.526  33.940  1.00  0.00     0.008 C 
HETATM   14  C18 UNL     1       0.706 150.134  33.501  1.00  0.00    -0.013 C 
HETATM   15  C19 UNL     1       0.339 149.786  32.110  1.00  0.00     0.010 C 
HETATM   16  C20 UNL     1      -0.228 149.327  34.414  1.00  0.00     0.005 C 
HETATM   17  C21 UNL     1      -1.007 150.132  35.376  1.00  0.00     0.001 C 
HETATM   18  C22 UNL     1      -1.652 151.383  34.849  1.00  0.00     0.008 C 
HETATM   19  C23 UNL     1      -0.837 151.941  33.780  1.00  0.00     0.025 C 
ENDROOT
BRANCH   1  20
HETATM   20  C6  UNL     1       5.606 152.720  34.686  1.00  0.00     0.068 C 
BRANCH  20  21
HETATM   21  C5  UNL     1       6.389 152.755  33.401  1.00  0.00     0.005 C 
BRANCH  21  22
HETATM   22  C4  UNL     1       7.833 153.003  33.554  1.00  0.00     0.000 C 
BRANCH  22  23
HETATM   23  C3  UNL     1       8.064 153.635  34.911  1.00  0.00    -0.000 C 
BRANCH  23  24
HETATM   24  C2  UNL     1       8.839 154.929  34.794  1.00  0.00    -0.005 C 
HETATM   25  C1  UNL     1       9.819 154.989  35.931  1.00  0.00     0.005 C 
ENDBRANCH  23  24
ENDBRANCH  22  23
ENDBRANCH  21  22
ENDBRANCH  20  21
ENDBRANCH   1  20
BRANCH   1  26
HETATM   26  O1  UNL     1       4.187 154.508  34.343  1.00  0.00    -0.365 OA
ATOM     27  H1  UNL     1       4.113 154.726  33.422  1.00  0.00     0.213 HD
ENDBRANCH   1  26
BRANCH  10  28
HETATM   28  O3  UNL     1       1.717 152.814  36.855  1.00  0.00    -0.368 OA
ATOM     29  H3  UNL     1       0.824 153.072  37.052  1.00  0.00     0.212 HD
ENDBRANCH  10  28
TORSDOF 7
ENDMDL
MODEL 4
REMARK VINA RESULT: -6.864183315      1.871      3.569
REMARK  7 active torsions:
REMARK  status: ('A' for Active; 'I' for Inactive)
REMARK    1  A    between atoms: C2_2  and  C3_3 
REMARK    2  A    between atoms: C3_3  and  C4_4 
REMARK    3  A    between atoms: C4_4  and  C5_5 
REMARK    4  A    between atoms: C5_5  and  C6_6 
REMARK    5  A    between atoms: C6_6  and  C7_7 
REMARK    6  A    between atoms: C7_7  and  O1_8 
REMARK    7  A    between atoms: C15_18  and  O3_19 
ROOT
HETATM    1  C7  UNL     1       4.818 152.665  33.857  1.00  0.00     0.165 C 
HETATM    2  C8  UNL     1       4.218 153.701  34.736  1.00  0.00     0.074 C 
HETATM    3  C9  UNL     1       2.750 153.588  35.040  1.00  0.00     0.007 A 
HETATM    4  C10 UNL     1       2.109 152.655  35.896  1.00  0.00     0.005 A 
HETATM    5  C11 UNL     1       0.881 151.976  36.112  1.00  0.00     0.044 C 
HETATM    6  C12 UNL     1       0.375 151.055  34.991  1.00  0.00     0.062 C 
HETATM    7  C13 UNL     1      -0.575 150.025  35.527  1.00  0.00     0.046 C 
HETATM    8  O2  UNL     1       1.362 150.446  34.253  1.00  0.00    -0.369 OA
HETATM    9  C14 UNL     1       2.569 151.172  34.204  1.00  0.00     0.187 C 
HETATM   10  C15 UNL     1       3.419 150.992  33.021  1.00  0.00     0.290 C 
HETATM   11  O4  UNL     1       4.073 152.227  32.801  1.00  0.00    -0.323 OA
HETATM   12  C16 UNL     1       2.168 152.574  34.330  1.00  0.00     0.003 A 
HETATM   13  C17 UNL     1       0.952 152.805  33.583  1.00  0.00     0.008 C 
HETATM   14  C18 UNL     1       0.478 154.111  33.131  1.00  0.00    -0.013 C 
HETATM   15  C19 UNL     1      -0.180 155.023  34.093  1.00  0.00     0.010 C 
HETATM   16  C20 UNL     1      -0.537 153.856  32.007  1.00  0.00     0.005 C 
HETATM   17  C21 UNL     1      -0.846 152.433  31.758  1.00  0.00     0.001 C 
HETATM   18  C22 UNL     1      -1.090 151.571  32.965  1.00  0.00     0.008 C 
HETATM   19  C23 UNL     1      -0.295 152.057  34.083  1.00  0.00     0.025 C 
ENDROOT
BRANCH   1  20
HETATM   20  C6  UNL     1       6.083 153.292  33.225  1.00  0.00     0.068 C 
BRANCH  20  21
HETATM   21  C5  UNL     1       7.268 152.518  33.737  1.00  0.00     0.005 C 
BRANCH  21  22
HETATM   22  C4  UNL     1       8.525 153.281  33.820  1.00  0.00     0.000 C 
BRANCH  22  23
HETATM   23  C3  UNL     1       8.492 154.114  35.085  1.00  0.00    -0.000 C 
BRANCH  23  24
HETATM   24  C2  UNL     1       9.208 155.433  34.898  1.00  0.00    -0.005 C 
HETATM   25  C1  UNL     1      10.299 155.521  35.928  1.00  0.00     0.005 C 
ENDBRANCH  23  24
ENDBRANCH  22  23
ENDBRANCH  21  22
ENDBRANCH  20  21
ENDBRANCH   1  20
BRANCH   1  26
HETATM   26  O1  UNL     1       5.331 151.648  34.660  1.00  0.00    -0.365 OA
ATOM     27  H1  UNL     1       6.257 151.855  34.710  1.00  0.00     0.213 HD
ENDBRANCH   1  26
BRANCH  10  28
HETATM   28  O3  UNL     1       2.814 150.592  31.861  1.00  0.00    -0.368 OA
ATOM     29  H3  UNL     1       2.119 149.946  31.927  1.00  0.00     0.212 HD
ENDBRANCH  10  28
TORSDOF 7
ENDMDL
MODEL 5
REMARK VINA RESULT: -6.847209241      1.944      3.533
REMARK  7 active torsions:
REMARK  status: ('A' for Active; 'I' for Inactive)
REMARK    1  A    between atoms: C2_2  and  C3_3 
REMARK    2  A    between atoms: C3_3  and  C4_4 
REMARK    3  A    between atoms: C4_4  and  C5_5 
REMARK    4  A    between atoms: C5_5  and  C6_6 
REMARK    5  A    between atoms: C6_6  and  C7_7 
REMARK    6  A    between atoms: C7_7  and  O1_8 
REMARK    7  A    between atoms: C15_18  and  O3_19 
ROOT
HETATM    1  C7  UNL     1       4.261 152.686  33.989  1.00  0.00     0.165 C 
HETATM    2  C8  UNL     1       3.654 152.777  35.342  1.00  0.00     0.074 C 
HETATM    3  C9  UNL     1       2.177 152.524  35.458  1.00  0.00     0.007 A 
HETATM    4  C10 UNL     1       1.497 151.281  35.363  1.00  0.00     0.005 A 
HETATM    5  C11 UNL     1       0.253 150.697  35.010  1.00  0.00     0.044 C 
HETATM    6  C12 UNL     1      -0.238 150.895  33.567  1.00  0.00     0.062 C 
HETATM    7  C13 UNL     1      -1.219 149.828  33.180  1.00  0.00     0.046 C 
HETATM    8  O2  UNL     1       0.759 150.983  32.624  1.00  0.00    -0.369 OA
HETATM    9  C14 UNL     1       1.979 151.479  33.127  1.00  0.00     0.187 C 
HETATM   10  C15 UNL     1       2.858 152.188  32.190  1.00  0.00     0.290 C 
HETATM   11  O4  UNL     1       3.538 153.175  32.941  1.00  0.00    -0.323 OA
HETATM   12  C16 UNL     1       1.598 152.362  34.230  1.00  0.00     0.003 A 
HETATM   13  C17 UNL     1       0.406 153.101  33.877  1.00  0.00     0.008 C 
HETATM   14  C18 UNL     1      -0.034 154.340  34.513  1.00  0.00    -0.013 C 
HETATM   15  C19 UNL     1      -0.703 154.288  35.831  1.00  0.00     0.010 C 
HETATM   16  C20 UNL     1      -1.022 155.014  33.549  1.00  0.00     0.005 C 
HETATM   17  C21 UNL     1      -1.347 154.228  32.342  1.00  0.00     0.001 C 
HETATM   18  C22 UNL     1      -1.639 152.767  32.542  1.00  0.00     0.008 C 
HETATM   19  C23 UNL     1      -0.866 152.263  33.668  1.00  0.00     0.025 C 
ENDROOT
BRANCH   1  20
HETATM   20  C6  UNL     1       5.552 153.536  34.019  1.00  0.00     0.068 C 
BRANCH  20  21
HETATM   21  C5  UNL     1       6.622 152.748  33.312  1.00  0.00     0.005 C 
BRANCH  21  22
HETATM   22  C4  UNL     1       8.000 153.033  33.747  1.00  0.00     0.000 C 
BRANCH  22  23
HETATM   23  C3  UNL     1       7.953 153.538  35.174  1.00  0.00    -0.000 C 
BRANCH  23  24
HETATM   24  C2  UNL     1       9.188 154.343  35.517  1.00  0.00    -0.005 C 
HETATM   25  C1  UNL     1       9.134 155.630  34.743  1.00  0.00     0.005 C 
ENDBRANCH  23  24
ENDBRANCH  22  23
ENDBRANCH  21  22
ENDBRANCH  20  21
ENDBRANCH   1  20
BRANCH   1  26
HETATM   26  O1  UNL     1       4.735 151.388  33.804  1.00  0.00    -0.365 OA
ATOM     27  H1  UNL     1       4.632 151.250  32.870  1.00  0.00     0.213 HD
ENDBRANCH   1  26
BRANCH  10  28
HETATM   28  O3  UNL     1       2.278 152.775  31.098  1.00  0.00    -0.368 OA
ATOM     29  H3  UNL     1       2.838 152.977  30.357  1.00  0.00     0.212 HD
ENDBRANCH  10  28
TORSDOF 7
ENDMDL
