MODEL 1
REMARK VINA RESULT: -4.295353311      0.000      0.000
REMARK  0 active torsions:
REMARK  status: ('A' for Active; 'I' for Inactive)
ROOT
HETATM    1  C1  UNL     1     -15.575 -50.884 -34.050  1.00  0.00     0.040 C 
HETATM    2  C2  UNL     1     -16.747 -51.355 -34.925  1.00  0.00     0.093 C 
HETATM    3  C3  UNL     1     -17.931 -51.486 -34.063  1.00  0.00     0.040 C 
HETATM    4  N1  UNL     1     -16.357 -52.668 -35.401  1.00  0.00    -0.115 NA
HETATM    5  N2  UNL     1     -16.548 -52.715 -36.753  1.00  0.00    -0.036 NA
HETATM    6  N3  UNL     1     -16.947 -51.486 -37.218  1.00  0.00    -0.084 NA
HETATM    7  C4  UNL     1     -16.853 -50.543 -36.135  1.00  0.00     0.208 C 
HETATM    8  C5  UNL     1     -17.942 -49.530 -36.185  1.00  0.00     0.075 C 
HETATM    9  F1  UNL     1     -15.644 -49.856 -36.317  1.00  0.00    -0.221 F 
ENDROOT
TORSDOF 0
ENDMDL
MODEL 2
REMARK VINA RESULT: -4.156904298      1.328      1.448
REMARK  0 active torsions:
REMARK  status: ('A' for Active; 'I' for Inactive)
ROOT
HETATM    1  C1  UNL     1     -15.944 -49.992 -35.657  1.00  0.00     0.040 C 
HETATM    2  C2  UNL     1     -16.953 -51.136 -35.839  1.00  0.00     0.093 C 
HETATM    3  C3  UNL     1     -18.092 -50.881 -34.945  1.00  0.00     0.040 C 
HETATM    4  N1  UNL     1     -16.255 -52.327 -35.395  1.00  0.00    -0.115 NA
HETATM    5  N2  UNL     1     -16.400 -53.296 -36.347  1.00  0.00    -0.036 NA
HETATM    6  N3  UNL     1     -17.066 -52.794 -37.438  1.00  0.00    -0.084 NA
HETATM    7  C4  UNL     1     -17.220 -51.375 -37.256  1.00  0.00     0.208 C 
HETATM    8  C5  UNL     1     -18.514 -50.882 -37.800  1.00  0.00     0.075 C 
HETATM    9  F1  UNL     1     -16.202 -50.770 -38.008  1.00  0.00    -0.221 F 
ENDROOT
TORSDOF 0
ENDMDL
MODEL 3
REMARK VINA RESULT: -4.060851239      1.043      1.043
REMARK  0 active torsions:
REMARK  status: ('A' for Active; 'I' for Inactive)
ROOT
HETATM    1  C1  UNL     1     -15.518 -50.454 -34.379  1.00  0.00     0.040 C 
HETATM    2  C2  UNL     1     -16.728 -51.319 -34.763  1.00  0.00     0.093 C 
HETATM    3  C3  UNL     1     -17.197 -52.005 -33.550  1.00  0.00     0.040 C 
HETATM    4  N1  UNL     1     -16.208 -52.301 -35.695  1.00  0.00    -0.115 NA
HETATM    5  N2  UNL     1     -17.018 -52.330 -36.794  1.00  0.00    -0.036 NA
HETATM    6  N3  UNL     1     -17.987 -51.362 -36.695  1.00  0.00    -0.084 NA
HETATM    7  C4  UNL     1     -17.693 -50.549 -35.545  1.00  0.00     0.208 C 
HETATM    8  C5  UNL     1     -18.931 -50.099 -34.851  1.00  0.00     0.075 C 
HETATM    9  F1  UNL     1     -17.054 -49.398 -36.031  1.00  0.00    -0.221 F 
ENDROOT
TORSDOF 0
ENDMDL
MODEL 4
REMARK VINA RESULT: -4.054805779      1.965      2.884
REMARK  0 active torsions:
REMARK  status: ('A' for Active; 'I' for Inactive)
ROOT
HETATM    1  C1  UNL     1     -16.741 -51.088 -37.554  1.00  0.00     0.040 C 
HETATM    2  C2  UNL     1     -17.063 -50.727 -36.096  1.00  0.00     0.093 C 
HETATM    3  C3  UNL     1     -18.228 -49.830 -36.098  1.00  0.00     0.040 C 
HETATM    4  N1  UNL     1     -15.901 -49.999 -35.624  1.00  0.00    -0.115 NA
HETATM    5  N2  UNL     1     -15.511 -50.530 -34.427  1.00  0.00    -0.036 NA
HETATM    6  N3  UNL     1     -16.279 -51.627 -34.122  1.00  0.00    -0.084 NA
HETATM    7  C4  UNL     1     -17.107 -51.925 -35.260  1.00  0.00     0.208 C 
HETATM    8  C5  UNL     1     -18.449 -52.426 -34.855  1.00  0.00     0.075 C 
HETATM    9  F1  UNL     1     -16.470 -52.970 -35.946  1.00  0.00    -0.221 F 
ENDROOT
TORSDOF 0
ENDMDL
MODEL 5
REMARK VINA RESULT: -4.037646338      1.650      2.477
REMARK  0 active torsions:
REMARK  status: ('A' for Active; 'I' for Inactive)
ROOT
HETATM    1  C1  UNL     1     -18.852 -50.694 -33.724  1.00  0.00     0.040 C 
HETATM    2  C2  UNL     1     -17.990 -50.910 -34.977  1.00  0.00     0.093 C 
HETATM    3  C3  UNL     1     -18.182 -49.753 -35.863  1.00  0.00     0.040 C 
HETATM    4  N1  UNL     1     -18.541 -52.093 -35.612  1.00  0.00    -0.115 NA
HETATM    5  N2  UNL     1     -17.516 -52.949 -35.899  1.00  0.00    -0.036 NA
HETATM    6  N3  UNL     1     -16.332 -52.455 -35.407  1.00  0.00    -0.084 NA
HETATM    7  C4  UNL     1     -16.627 -51.292 -34.613  1.00  0.00     0.208 C 
HETATM    8  C5  UNL     1     -15.571 -50.251 -34.738  1.00  0.00     0.075 C 
HETATM    9  F1  UNL     1     -16.627 -51.719 -33.277  1.00  0.00    -0.221 F 
ENDROOT
TORSDOF 0
ENDMDL
