MODEL 1
REMARK VINA RESULT: -4.098378888      0.000      0.000
REMARK  2 active torsions:
REMARK  status: ('A' for Active; 'I' for Inactive)
REMARK    1  A    between atoms: C2_2  and  N2_6 
REMARK    2  A    between atoms: N2_6  and  N3_8 
ROOT
HETATM    1  N2  UNL     1     -15.469 -50.772 -34.169  1.00  0.00    -0.289 N 
ATOM      2  H2  UNL     1     -15.323 -49.777 -33.996  1.00  0.00     0.188 HD
ENDROOT
BRANCH   1   3
HETATM    3  C2  UNL     1     -15.575 -51.625 -33.054  1.00  0.00     0.085 C 
HETATM    4  C1  UNL     1     -16.793 -52.426 -32.864  1.00  0.00     0.090 C 
HETATM    5  N1  UNL     1     -14.624 -51.702 -32.214  1.00  0.00    -0.388 N 
ATOM      6  H12 UNL     1     -14.701 -52.320 -31.406  1.00  0.00     0.157 HD
ATOM      7  H11 UNL     1     -13.778 -51.147 -32.346  1.00  0.00     0.157 HD
ENDBRANCH   1   3
BRANCH   1   8
HETATM    8  N3  UNL     1     -15.548 -51.200 -35.492  1.00  0.00    -0.292 N 
HETATM    9  C3  UNL     1     -16.435 -50.691 -36.247  1.00  0.00     0.091 C 
HETATM   10  C4  UNL     1     -17.356 -49.667 -35.730  1.00  0.00     0.083 C 
HETATM   11 CL1  UNL     1     -16.564 -51.201 -37.906  1.00  0.00    -0.068 Cl
ATOM     12  H3  UNL     1     -14.907 -51.909 -35.848  1.00  0.00     0.187 HD
ENDBRANCH   1   8
TORSDOF 2
ENDMDL
MODEL 2
REMARK VINA RESULT: -3.892556602      1.204      1.444
REMARK  2 active torsions:
REMARK  status: ('A' for Active; 'I' for Inactive)
REMARK    1  A    between atoms: C2_2  and  N2_6 
REMARK    2  A    between atoms: N2_6  and  N3_8 
ROOT
HETATM    1  N2  UNL     1     -15.502 -51.207 -34.187  1.00  0.00    -0.289 N 
ATOM      2  H2  UNL     1     -14.684 -51.403 -34.765  1.00  0.00     0.188 HD
ENDROOT
BRANCH   1   3
HETATM    3  C2  UNL     1     -15.605 -51.864 -32.947  1.00  0.00     0.085 C 
HETATM    4  C1  UNL     1     -16.791 -52.682 -32.652  1.00  0.00     0.090 C 
HETATM    5  N1  UNL     1     -14.678 -51.752 -32.084  1.00  0.00    -0.388 N 
ATOM      6  H12 UNL     1     -14.752 -52.229 -31.185  1.00  0.00     0.157 HD
ATOM      7  H11 UNL     1     -13.854 -51.185 -32.288  1.00  0.00     0.157 HD
ENDBRANCH   1   3
BRANCH   1   8
HETATM    8  N3  UNL     1     -16.445 -50.305 -34.676  1.00  0.00    -0.292 N 
HETATM    9  C3  UNL     1     -17.012 -50.555 -35.785  1.00  0.00     0.091 C 
HETATM   10  C4  UNL     1     -16.678 -51.775 -36.535  1.00  0.00     0.083 C 
HETATM   11 CL1  UNL     1     -18.194 -49.452 -36.427  1.00  0.00    -0.068 Cl
ATOM     12  H3  UNL     1     -16.675 -49.460 -34.152  1.00  0.00     0.187 HD
ENDBRANCH   1   8
TORSDOF 2
ENDMDL
MODEL 3
REMARK VINA RESULT: -3.522568487      1.831      2.142
REMARK  2 active torsions:
REMARK  status: ('A' for Active; 'I' for Inactive)
REMARK    1  A    between atoms: C2_2  and  N2_6 
REMARK    2  A    between atoms: N2_6  and  N3_8 
ROOT
HETATM    1  N2  UNL     1     -16.118 -50.525 -35.766  1.00  0.00    -0.289 N 
ATOM      2  H2  UNL     1     -15.271 -50.317 -36.295  1.00  0.00     0.188 HD
ENDROOT
BRANCH   1   3
HETATM    3  C2  UNL     1     -15.983 -51.233 -34.557  1.00  0.00     0.085 C 
HETATM    4  C1  UNL     1     -16.902 -52.339 -34.255  1.00  0.00     0.090 C 
HETATM    5  N1  UNL     1     -15.071 -50.917 -33.729  1.00  0.00    -0.388 N 
ATOM      6  H12 UNL     1     -14.973 -51.430 -32.853  1.00  0.00     0.157 HD
ATOM      7  H11 UNL     1     -14.433 -50.149 -33.939  1.00  0.00     0.157 HD
ENDBRANCH   1   3
BRANCH   1   8
HETATM    8  N3  UNL     1     -17.334 -50.090 -36.287  1.00  0.00    -0.292 N 
HETATM    9  C3  UNL     1     -17.702 -50.521 -37.424  1.00  0.00     0.091 C 
HETATM   10  C4  UNL     1     -16.858 -51.463 -38.173  1.00  0.00     0.083 C 
HETATM   11 CL1  UNL     1     -19.215 -49.999 -38.106  1.00  0.00    -0.068 Cl
ATOM     12  H3  UNL     1     -17.919 -49.437 -35.764  1.00  0.00     0.187 HD
ENDBRANCH   1   8
TORSDOF 2
ENDMDL
MODEL 4
REMARK VINA RESULT: -3.494341211      3.026      3.470
REMARK  2 active torsions:
REMARK  status: ('A' for Active; 'I' for Inactive)
REMARK    1  A    between atoms: C2_2  and  N2_6 
REMARK    2  A    between atoms: N2_6  and  N3_8 
ROOT
HETATM    1  N2  UNL     1     -18.873 -49.771 -35.233  1.00  0.00    -0.289 N 
ATOM      2  H2  UNL     1     -18.621 -48.794 -35.079  1.00  0.00     0.188 HD
ENDROOT
BRANCH   1   3
HETATM    3  C2  UNL     1     -19.610 -50.427 -34.230  1.00  0.00     0.085 C 
HETATM    4  C1  UNL     1     -18.904 -51.154 -33.165  1.00  0.00     0.090 C 
HETATM    5  N1  UNL     1     -20.881 -50.392 -34.243  1.00  0.00    -0.388 N 
ATOM      6  H12 UNL     1     -21.416 -50.867 -33.516  1.00  0.00     0.157 HD
ATOM      7  H11 UNL     1     -21.371 -49.887 -34.982  1.00  0.00     0.157 HD
ENDBRANCH   1   3
BRANCH   1   8
HETATM    8  N3  UNL     1     -18.466 -50.369 -36.423  1.00  0.00    -0.292 N 
HETATM    9  C3  UNL     1     -17.222 -50.475 -36.660  1.00  0.00     0.091 C 
HETATM   10  C4  UNL     1     -16.233 -49.976 -35.692  1.00  0.00     0.083 C 
HETATM   11 CL1  UNL     1     -16.676 -51.216 -38.137  1.00  0.00    -0.068 Cl
ATOM     12  H3  UNL     1     -19.154 -50.715 -37.092  1.00  0.00     0.187 HD
ENDBRANCH   1   8
TORSDOF 2
ENDMDL
MODEL 5
REMARK VINA RESULT: -3.487491281      3.588      4.082
REMARK  2 active torsions:
REMARK  status: ('A' for Active; 'I' for Inactive)
REMARK    1  A    between atoms: C2_2  and  N2_6 
REMARK    2  A    between atoms: N2_6  and  N3_8 
ROOT
HETATM    1  N2  UNL     1     -19.443 -50.194 -34.049  1.00  0.00    -0.289 N 
ATOM      2  H2  UNL     1     -19.555 -49.180 -34.049  1.00  0.00     0.188 HD
ENDROOT
BRANCH   1   3
HETATM    3  C2  UNL     1     -20.607 -50.984 -34.010  1.00  0.00     0.085 C 
HETATM    4  C1  UNL     1     -20.494 -52.449 -34.040  1.00  0.00     0.090 C 
HETATM    5  N1  UNL     1     -21.752 -50.434 -33.950  1.00  0.00    -0.388 N 
ATOM      6  H12 UNL     1     -22.596 -51.007 -33.921  1.00  0.00     0.157 HD
ATOM      7  H11 UNL     1     -21.831 -49.417 -33.929  1.00  0.00     0.157 HD
ENDBRANCH   1   3
BRANCH   1   8
HETATM    8  N3  UNL     1     -18.149 -50.708 -34.089  1.00  0.00    -0.292 N 
HETATM    9  C3  UNL     1     -17.408 -50.422 -35.080  1.00  0.00     0.091 C 
HETATM   10  C4  UNL     1     -17.909 -49.563 -36.163  1.00  0.00     0.083 C 
HETATM   11 CL1  UNL     1     -15.785 -51.046 -35.164  1.00  0.00    -0.068 Cl
ATOM     12  H3  UNL     1     -17.803 -51.302 -33.335  1.00  0.00     0.187 HD
ENDBRANCH   1   8
TORSDOF 2
ENDMDL
