MODEL 1
REMARK VINA RESULT: -4.172541465      0.000      0.000
REMARK  2 active torsions:
REMARK  status: ('A' for Active; 'I' for Inactive)
REMARK    1  A    between atoms: C2_2  and  C3_3 
REMARK    2  A    between atoms: C3_3  and  N1_4 
ROOT
HETATM    1  C1  UNL     1     -18.640 -49.841 -36.718  1.00  0.00     0.023 C 
HETATM    2  C2  UNL     1     -17.630 -50.361 -35.725  1.00  0.00     0.045 C 
HETATM    3  C4  UNL     1     -16.437 -49.462 -35.491  1.00  0.00     0.023 C 
HETATM    4  C5  UNL     1     -15.625 -50.754 -35.310  1.00  0.00     0.081 C 
HETATM    5  C6  UNL     1     -16.627 -51.342 -36.309  1.00  0.00     0.252 C 
HETATM    6  F1  UNL     1     -16.908 -52.653 -36.150  1.00  0.00    -0.205 F 
HETATM    7  F2  UNL     1     -16.256 -50.944 -37.578  1.00  0.00    -0.205 F 
ENDROOT
BRANCH   2   8
HETATM    8  C3  UNL     1     -18.315 -50.816 -34.472  1.00  0.00     0.244 C 
BRANCH   8   9
HETATM    9  N1  UNL     1     -19.473 -49.927 -34.283  1.00  0.00    -0.078 N 
ATOM     10  H13 UNL     1     -19.944 -49.688 -35.155  1.00  0.00     0.274 HD
ATOM     11  H12 UNL     1     -20.264 -50.386 -33.832  1.00  0.00     0.274 HD
ATOM     12  H11 UNL     1     -19.132 -49.113 -33.772  1.00  0.00     0.274 HD
ENDBRANCH   8   9
ENDBRANCH   2   8
TORSDOF 2
ENDMDL
MODEL 2
REMARK VINA RESULT: -4.167017303      2.849      3.550
REMARK  2 active torsions:
REMARK  status: ('A' for Active; 'I' for Inactive)
REMARK    1  A    between atoms: C2_2  and  C3_3 
REMARK    2  A    between atoms: C3_3  and  N1_4 
ROOT
HETATM    1  C1  UNL     1     -15.503 -50.484 -34.301  1.00  0.00     0.023 C 
HETATM    2  C2  UNL     1     -16.525 -51.554 -34.002  1.00  0.00     0.045 C 
HETATM    3  C4  UNL     1     -16.869 -52.456 -35.165  1.00  0.00     0.023 C 
HETATM    4  C5  UNL     1     -18.290 -52.500 -34.581  1.00  0.00     0.081 C 
HETATM    5  C6  UNL     1     -17.967 -51.084 -34.092  1.00  0.00     0.252 C 
HETATM    6  F1  UNL     1     -18.553 -50.720 -32.931  1.00  0.00    -0.205 F 
HETATM    7  F2  UNL     1     -18.119 -50.215 -35.155  1.00  0.00    -0.205 F 
ENDROOT
BRANCH   2   8
HETATM    8  C3  UNL     1     -16.166 -52.282 -32.742  1.00  0.00     0.244 C 
BRANCH   8   9
HETATM    9  N1  UNL     1     -14.854 -51.766 -32.321  1.00  0.00    -0.078 N 
ATOM     10  H13 UNL     1     -14.599 -50.890 -32.777  1.00  0.00     0.274 HD
ATOM     11  H12 UNL     1     -14.847 -51.416 -31.362  1.00  0.00     0.274 HD
ATOM     12  H11 UNL     1     -14.183 -52.516 -32.483  1.00  0.00     0.274 HD
ENDBRANCH   8   9
ENDBRANCH   2   8
TORSDOF 2
ENDMDL
MODEL 3
REMARK VINA RESULT: -4.156678882      2.431      2.977
REMARK  2 active torsions:
REMARK  status: ('A' for Active; 'I' for Inactive)
REMARK    1  A    between atoms: C2_2  and  C3_3 
REMARK    2  A    between atoms: C3_3  and  N1_4 
ROOT
HETATM    1  C1  UNL     1     -16.958 -51.161 -37.902  1.00  0.00     0.023 C 
HETATM    2  C2  UNL     1     -17.220 -51.320 -36.425  1.00  0.00     0.045 C 
HETATM    3  C4  UNL     1     -18.672 -51.223 -36.015  1.00  0.00     0.023 C 
HETATM    4  C5  UNL     1     -18.160 -50.569 -34.722  1.00  0.00     0.081 C 
HETATM    5  C6  UNL     1     -17.029 -50.048 -35.615  1.00  0.00     0.252 C 
HETATM    6  F1  UNL     1     -15.831 -49.896 -35.010  1.00  0.00    -0.205 F 
HETATM    7  F2  UNL     1     -17.503 -48.960 -36.321  1.00  0.00    -0.205 F 
ENDROOT
BRANCH   2   8
HETATM    8  C3  UNL     1     -16.508 -52.528 -35.895  1.00  0.00     0.244 C 
BRANCH   8   9
HETATM    9  N1  UNL     1     -16.426 -53.486 -37.009  1.00  0.00    -0.078 N 
ATOM     10  H13 UNL     1     -16.339 -54.455 -36.703  1.00  0.00     0.274 HD
ATOM     11  H12 UNL     1     -17.305 -53.591 -37.516  1.00  0.00     0.274 HD
ATOM     12  H11 UNL     1     -15.653 -53.178 -37.598  1.00  0.00     0.274 HD
ENDBRANCH   8   9
ENDBRANCH   2   8
TORSDOF 2
ENDMDL
MODEL 4
REMARK VINA RESULT: -4.132945541      1.493      2.338
REMARK  2 active torsions:
REMARK  status: ('A' for Active; 'I' for Inactive)
REMARK    1  A    between atoms: C2_2  and  C3_3 
REMARK    2  A    between atoms: C3_3  and  N1_4 
ROOT
HETATM    1  C1  UNL     1     -17.576 -51.265 -33.767  1.00  0.00     0.023 C 
HETATM    2  C2  UNL     1     -17.578 -50.810 -35.205  1.00  0.00     0.045 C 
HETATM    3  C4  UNL     1     -17.365 -51.904 -36.226  1.00  0.00     0.023 C 
HETATM    4  C5  UNL     1     -16.618 -50.848 -37.056  1.00  0.00     0.081 C 
HETATM    5  C6  UNL     1     -16.247 -50.260 -35.690  1.00  0.00     0.252 C 
HETATM    6  F1  UNL     1     -16.102 -48.918 -35.652  1.00  0.00    -0.205 F 
HETATM    7  F2  UNL     1     -15.207 -51.004 -35.168  1.00  0.00    -0.205 F 
ENDROOT
BRANCH   2   8
HETATM    8  C3  UNL     1     -18.767 -49.938 -35.476  1.00  0.00     0.244 C 
BRANCH   8   9
HETATM    9  N1  UNL     1     -19.589 -49.964 -34.256  1.00  0.00    -0.078 N 
ATOM     10  H13 UNL     1     -20.587 -49.853 -34.439  1.00  0.00     0.274 HD
ATOM     11  H12 UNL     1     -19.641 -50.886 -33.823  1.00  0.00     0.274 HD
ATOM     12  H11 UNL     1     -19.211 -49.247 -33.637  1.00  0.00     0.274 HD
ENDBRANCH   8   9
ENDBRANCH   2   8
TORSDOF 2
ENDMDL
MODEL 5
REMARK VINA RESULT: -4.129912302      2.274      2.872
REMARK  2 active torsions:
REMARK  status: ('A' for Active; 'I' for Inactive)
REMARK    1  A    between atoms: C2_2  and  C3_3 
REMARK    2  A    between atoms: C3_3  and  N1_4 
ROOT
HETATM    1  C1  UNL     1     -15.747 -49.448 -35.409  1.00  0.00     0.023 C 
HETATM    2  C2  UNL     1     -16.694 -50.599 -35.641  1.00  0.00     0.045 C 
HETATM    3  C4  UNL     1     -16.847 -51.025 -37.084  1.00  0.00     0.023 C 
HETATM    4  C5  UNL     1     -18.307 -51.349 -36.729  1.00  0.00     0.081 C 
HETATM    5  C6  UNL     1     -18.157 -50.199 -35.727  1.00  0.00     0.252 C 
HETATM    6  F1  UNL     1     -18.879 -50.317 -34.592  1.00  0.00    -0.205 F 
HETATM    7  F2  UNL     1     -18.285 -49.008 -36.415  1.00  0.00    -0.205 F 
ENDROOT
BRANCH   2   8
HETATM    8  C3  UNL     1     -16.392 -51.723 -34.695  1.00  0.00     0.244 C 
BRANCH   8   9
HETATM    9  N1  UNL     1     -15.368 -51.221 -33.766  1.00  0.00    -0.078 N 
ATOM     10  H13 UNL     1     -14.569 -51.848 -33.668  1.00  0.00     0.274 HD
ATOM     11  H12 UNL     1     -14.855 -50.417 -34.126  1.00  0.00     0.274 HD
ATOM     12  H11 UNL     1     -15.844 -51.034 -32.884  1.00  0.00     0.274 HD
ENDBRANCH   8   9
ENDBRANCH   2   8
TORSDOF 2
ENDMDL
