MODEL 1
REMARK VINA RESULT: -4.000198999      0.000      0.000
REMARK  1 active torsions:
REMARK  status: ('A' for Active; 'I' for Inactive)
REMARK    1  A    between atoms: C4_7  and  N2_8 
ROOT
HETATM    1  N1  UNL     1     -18.217 -49.427 -36.240  1.00  0.00    -0.404 N 
ATOM      2  H11 UNL     1     -19.231 -49.393 -36.137  1.00  0.00     0.155 HD
ATOM      3  H12 UNL     1     -17.980 -48.690 -36.905  1.00  0.00     0.155 HD
HETATM    4  C1  UNL     1     -17.429 -50.223 -35.658  1.00  0.00     0.000 C 
HETATM    5  C2  UNL     1     -15.958 -50.271 -35.807  1.00  0.00     0.055 C 
HETATM    6  C3  UNL     1     -15.565 -50.581 -34.376  1.00  0.00     0.040 C 
HETATM    7  C4  UNL     1     -16.454 -51.815 -34.158  1.00  0.00     0.207 C 
HETATM    8  C5  UNL     1     -17.773 -51.291 -34.694  1.00  0.00     0.157 C 
HETATM    9 CL1  UNL     1     -18.855 -50.750 -33.416  1.00  0.00    -0.117 Cl
ENDROOT
BRANCH   7  10
HETATM   10  N2  UNL     1     -16.525 -52.200 -32.785  1.00  0.00    -0.073 N 
ATOM     11  H23 UNL     1     -15.596 -52.250 -32.369  1.00  0.00     0.274 HD
ATOM     12  H22 UNL     1     -16.921 -51.453 -32.214  1.00  0.00     0.274 HD
ATOM     13  H21 UNL     1     -17.035 -53.073 -32.651  1.00  0.00     0.274 HD
ENDBRANCH   7  10
TORSDOF 1
ENDMDL
MODEL 2
REMARK VINA RESULT: -3.709797626      2.033      3.120
REMARK  1 active torsions:
REMARK  status: ('A' for Active; 'I' for Inactive)
REMARK    1  A    between atoms: C4_7  and  N2_8 
ROOT
HETATM    1  N1  UNL     1     -14.909 -51.936 -32.111  1.00  0.00    -0.404 N 
ATOM      2  H11 UNL     1     -15.087 -52.524 -31.297  1.00  0.00     0.155 HD
ATOM      3  H12 UNL     1     -13.938 -51.634 -32.030  1.00  0.00     0.155 HD
HETATM    4  C1  UNL     1     -15.730 -51.651 -33.026  1.00  0.00     0.000 C 
HETATM    5  C2  UNL     1     -15.472 -50.800 -34.207  1.00  0.00     0.055 C 
HETATM    6  C3  UNL     1     -16.266 -51.561 -35.250  1.00  0.00     0.040 C 
HETATM    7  C4  UNL     1     -17.610 -51.628 -34.510  1.00  0.00     0.207 C 
HETATM    8  C5  UNL     1     -17.139 -52.091 -33.144  1.00  0.00     0.157 C 
HETATM    9 CL1  UNL     1     -17.348 -53.821 -32.906  1.00  0.00    -0.117 Cl
ENDROOT
BRANCH   7  10
HETATM   10  N2  UNL     1     -18.525 -52.539 -35.120  1.00  0.00    -0.073 N 
ATOM     11  H23 UNL     1     -18.888 -52.163 -35.995  1.00  0.00     0.274 HD
ATOM     12  H22 UNL     1     -18.039 -53.359 -35.482  1.00  0.00     0.274 HD
ATOM     13  H21 UNL     1     -19.283 -52.809 -34.493  1.00  0.00     0.274 HD
ENDBRANCH   7  10
TORSDOF 1
ENDMDL
MODEL 3
REMARK VINA RESULT: -3.663856240      1.726      3.389
REMARK  1 active torsions:
REMARK  status: ('A' for Active; 'I' for Inactive)
REMARK    1  A    between atoms: C4_7  and  N2_8 
ROOT
HETATM    1  N1  UNL     1     -15.210 -51.539 -33.217  1.00  0.00    -0.404 N 
ATOM      2  H11 UNL     1     -14.322 -51.260 -33.633  1.00  0.00     0.155 HD
ATOM      3  H12 UNL     1     -14.989 -51.854 -32.273  1.00  0.00     0.155 HD
HETATM    4  C1  UNL     1     -16.345 -51.496 -33.769  1.00  0.00     0.000 C 
HETATM    5  C2  UNL     1     -17.633 -51.900 -33.165  1.00  0.00     0.055 C 
HETATM    6  C3  UNL     1     -18.535 -50.828 -33.745  1.00  0.00     0.040 C 
HETATM    7  C4  UNL     1     -18.180 -51.010 -35.228  1.00  0.00     0.207 C 
HETATM    8  C5  UNL     1     -16.666 -51.038 -35.139  1.00  0.00     0.157 C 
HETATM    9 CL1  UNL     1     -15.937 -49.488 -35.540  1.00  0.00    -0.117 Cl
ENDROOT
BRANCH   7  10
HETATM   10  N2  UNL     1     -18.670 -49.944 -36.042  1.00  0.00    -0.073 N 
ATOM     11  H23 UNL     1     -19.422 -50.263 -36.652  1.00  0.00     0.274 HD
ATOM     12  H22 UNL     1     -19.188 -49.265 -35.484  1.00  0.00     0.274 HD
ATOM     13  H21 UNL     1     -17.930 -49.491 -36.578  1.00  0.00     0.274 HD
ENDBRANCH   7  10
TORSDOF 1
ENDMDL
MODEL 4
REMARK VINA RESULT: -3.639945542      1.293      1.437
REMARK  1 active torsions:
REMARK  status: ('A' for Active; 'I' for Inactive)
REMARK    1  A    between atoms: C4_7  and  N2_8 
ROOT
HETATM    1  N1  UNL     1     -19.363 -51.162 -35.978  1.00  0.00    -0.404 N 
ATOM      2  H11 UNL     1     -20.045 -51.647 -35.396  1.00  0.00     0.155 HD
ATOM      3  H12 UNL     1     -19.901 -50.700 -36.712  1.00  0.00     0.155 HD
HETATM    4  C1  UNL     1     -18.112 -51.144 -35.813  1.00  0.00     0.000 C 
HETATM    5  C2  UNL     1     -17.122 -50.440 -36.656  1.00  0.00     0.055 C 
HETATM    6  C3  UNL     1     -16.160 -49.968 -35.584  1.00  0.00     0.040 C 
HETATM    7  C4  UNL     1     -15.906 -51.318 -34.896  1.00  0.00     0.207 C 
HETATM    8  C5  UNL     1     -17.332 -51.814 -34.748  1.00  0.00     0.157 C 
HETATM    9 CL1  UNL     1     -17.980 -51.538 -33.136  1.00  0.00    -0.117 Cl
ENDROOT
BRANCH   7  10
HETATM   10  N2  UNL     1     -15.235 -51.175 -33.644  1.00  0.00    -0.073 N 
ATOM     11  H23 UNL     1     -15.266 -52.042 -33.110  1.00  0.00     0.274 HD
ATOM     12  H22 UNL     1     -14.226 -51.098 -33.776  1.00  0.00     0.274 HD
ATOM     13  H21 UNL     1     -15.593 -50.392 -33.097  1.00  0.00     0.274 HD
ENDBRANCH   7  10
TORSDOF 1
ENDMDL
MODEL 5
REMARK VINA RESULT: -3.636278564      1.488      2.784
REMARK  1 active torsions:
REMARK  status: ('A' for Active; 'I' for Inactive)
REMARK    1  A    between atoms: C4_7  and  N2_8 
ROOT
HETATM    1  N1  UNL     1     -15.098 -51.186 -33.575  1.00  0.00    -0.404 N 
ATOM      2  H11 UNL     1     -15.206 -51.840 -32.800  1.00  0.00     0.155 HD
ATOM      3  H12 UNL     1     -14.113 -50.919 -33.578  1.00  0.00     0.155 HD
HETATM    4  C1  UNL     1     -16.004 -50.797 -34.362  1.00  0.00     0.000 C 
HETATM    5  C2  UNL     1     -15.848 -49.849 -35.486  1.00  0.00     0.055 C 
HETATM    6  C3  UNL     1     -16.779 -50.491 -36.495  1.00  0.00     0.040 C 
HETATM    7  C4  UNL     1     -18.034 -50.590 -35.615  1.00  0.00     0.207 C 
HETATM    8  C5  UNL     1     -17.432 -51.187 -34.357  1.00  0.00     0.157 C 
HETATM    9 CL1  UNL     1     -17.677 -52.925 -34.250  1.00  0.00    -0.117 Cl
ENDROOT
BRANCH   7  10
HETATM   10  N2  UNL     1     -19.044 -51.416 -36.195  1.00  0.00    -0.073 N 
ATOM     11  H23 UNL     1     -19.791 -50.854 -36.600  1.00  0.00     0.274 HD
ATOM     12  H22 UNL     1     -18.703 -51.872 -37.042  1.00  0.00     0.274 HD
ATOM     13  H21 UNL     1     -19.414 -52.100 -35.535  1.00  0.00     0.274 HD
ENDBRANCH   7  10
TORSDOF 1
ENDMDL
