MODEL 1
REMARK VINA RESULT: -3.687150154      0.000      0.000
REMARK  1 active torsions:
REMARK  status: ('A' for Active; 'I' for Inactive)
REMARK    1  A    between atoms: N2_4  and  N3_6 
ROOT
HETATM    1  C1  UNL     1     -18.726 -51.165 -40.086  1.00  0.00     0.086 C 
HETATM    2  C2  UNL     1     -17.336 -51.373 -39.621  1.00  0.00     0.103 C 
HETATM    3  N1  UNL     1     -16.329 -51.816 -40.521  1.00  0.00    -0.087 NA
HETATM    4  N2  UNL     1     -16.968 -51.167 -38.403  1.00  0.00    -0.291 N 
ATOM      5  H2  UNL     1     -15.997 -51.326 -38.135  1.00  0.00     0.188 HD
ENDROOT
BRANCH   4   6
HETATM    6  N3  UNL     1     -17.881 -50.733 -37.454  1.00  0.00    -0.293 N 
HETATM    7  C3  UNL     1     -17.556 -50.252 -36.306  1.00  0.00     0.091 C 
HETATM    8  C4  UNL     1     -18.663 -49.832 -35.403  1.00  0.00     0.083 C 
HETATM    9 CL1  UNL     1     -15.893 -50.081 -35.782  1.00  0.00    -0.068 Cl
ATOM     10  H3  UNL     1     -18.873 -50.798 -37.680  1.00  0.00     0.187 HD
ENDBRANCH   4   6
TORSDOF 1
ENDMDL
MODEL 2
REMARK VINA RESULT: -3.655266057      3.195      4.772
REMARK  1 active torsions:
REMARK  status: ('A' for Active; 'I' for Inactive)
REMARK    1  A    between atoms: N2_4  and  N3_6 
ROOT
HETATM    1  C1  UNL     1     -17.826 -53.524 -34.273  1.00  0.00     0.086 C 
HETATM    2  C2  UNL     1     -16.895 -52.491 -33.764  1.00  0.00     0.103 C 
HETATM    3  N1  UNL     1     -16.736 -52.285 -32.367  1.00  0.00    -0.087 NA
HETATM    4  N2  UNL     1     -16.194 -51.739 -34.540  1.00  0.00    -0.291 N 
ATOM      5  H2  UNL     1     -15.567 -51.042 -34.137  1.00  0.00     0.188 HD
ENDROOT
BRANCH   4   6
HETATM    6  N3  UNL     1     -16.283 -51.868 -35.918  1.00  0.00    -0.293 N 
HETATM    7  C3  UNL     1     -16.813 -50.990 -36.693  1.00  0.00     0.091 C 
HETATM    8  C4  UNL     1     -16.827 -51.286 -38.153  1.00  0.00     0.083 C 
HETATM    9 CL1  UNL     1     -17.504 -49.491 -36.103  1.00  0.00    -0.068 Cl
ATOM     10  H3  UNL     1     -15.903 -52.714 -36.344  1.00  0.00     0.187 HD
ENDBRANCH   4   6
TORSDOF 1
ENDMDL
MODEL 3
REMARK VINA RESULT: -3.605978275      1.627      1.861
REMARK  1 active torsions:
REMARK  status: ('A' for Active; 'I' for Inactive)
REMARK    1  A    between atoms: N2_4  and  N3_6 
ROOT
HETATM    1  C1  UNL     1     -17.280 -53.202 -37.658  1.00  0.00     0.086 C 
HETATM    2  C2  UNL     1     -17.014 -51.798 -38.045  1.00  0.00     0.103 C 
HETATM    3  N1  UNL     1     -16.373 -51.496 -39.278  1.00  0.00    -0.087 NA
HETATM    4  N2  UNL     1     -17.341 -50.795 -37.306  1.00  0.00    -0.291 N 
ATOM      5  H2  UNL     1     -17.134 -49.847 -37.620  1.00  0.00     0.188 HD
ENDROOT
BRANCH   4   6
HETATM    6  N3  UNL     1     -17.970 -50.993 -36.085  1.00  0.00    -0.293 N 
HETATM    7  C3  UNL     1     -17.412 -50.795 -34.944  1.00  0.00     0.091 C 
HETATM    8  C4  UNL     1     -18.231 -51.056 -33.728  1.00  0.00     0.083 C 
HETATM    9 CL1  UNL     1     -15.757 -50.242 -34.776  1.00  0.00    -0.068 Cl
ATOM     10  H3  UNL     1     -18.938 -51.315 -36.094  1.00  0.00     0.187 HD
ENDBRANCH   4   6
TORSDOF 1
ENDMDL
MODEL 4
REMARK VINA RESULT: -3.596659536      1.620      1.662
REMARK  1 active torsions:
REMARK  status: ('A' for Active; 'I' for Inactive)
REMARK    1  A    between atoms: N2_4  and  N3_6 
ROOT
HETATM    1  C1  UNL     1     -18.620 -50.570 -38.343  1.00  0.00     0.086 C 
HETATM    2  C2  UNL     1     -17.328 -51.260 -38.130  1.00  0.00     0.103 C 
HETATM    3  N1  UNL     1     -16.430 -51.466 -39.213  1.00  0.00    -0.087 NA
HETATM    4  N2  UNL     1     -16.953 -51.703 -36.980  1.00  0.00    -0.291 N 
ATOM      5  H2  UNL     1     -16.051 -52.172 -36.888  1.00  0.00     0.188 HD
ENDROOT
BRANCH   4   6
HETATM    6  N3  UNL     1     -17.763 -51.548 -35.865  1.00  0.00    -0.293 N 
HETATM    7  C3  UNL     1     -17.377 -51.019 -34.759  1.00  0.00     0.091 C 
HETATM    8  C4  UNL     1     -18.376 -50.929 -33.658  1.00  0.00     0.083 C 
HETATM    9 CL1  UNL     1     -15.750 -50.416 -34.509  1.00  0.00    -0.068 Cl
ATOM     10  H3  UNL     1     -18.728 -51.874 -35.927  1.00  0.00     0.187 HD
ENDBRANCH   4   6
TORSDOF 1
ENDMDL
MODEL 5
REMARK VINA RESULT: -3.578126113      3.034      4.819
REMARK  1 active torsions:
REMARK  status: ('A' for Active; 'I' for Inactive)
REMARK    1  A    between atoms: N2_4  and  N3_6 
ROOT
HETATM    1  C1  UNL     1     -15.576 -50.598 -34.302  1.00  0.00     0.086 C 
HETATM    2  C2  UNL     1     -16.422 -51.785 -34.043  1.00  0.00     0.103 C 
HETATM    3  N1  UNL     1     -16.793 -52.135 -32.716  1.00  0.00    -0.087 NA
HETATM    4  N2  UNL     1     -16.859 -52.550 -34.983  1.00  0.00    -0.291 N 
ATOM      5  H2  UNL     1     -17.439 -53.356 -34.750  1.00  0.00     0.188 HD
ENDROOT
BRANCH   4   6
HETATM    6  N3  UNL     1     -16.549 -52.287 -36.309  1.00  0.00    -0.293 N 
HETATM    7  C3  UNL     1     -17.334 -51.684 -37.129  1.00  0.00     0.091 C 
HETATM    8  C4  UNL     1     -16.845 -51.481 -38.521  1.00  0.00     0.083 C 
HETATM    9 CL1  UNL     1     -18.925 -51.106 -36.674  1.00  0.00    -0.068 Cl
ATOM     10  H3  UNL     1     -15.639 -52.590 -36.656  1.00  0.00     0.187 HD
ENDBRANCH   4   6
TORSDOF 1
ENDMDL
