MODEL 1
REMARK VINA RESULT: -7.077027375      0.000      0.000
REMARK  4 active torsions:
REMARK  status: ('A' for Active; 'I' for Inactive)
REMARK    1  A    between atoms: C2_2  and  C3_6 
REMARK    2  A    between atoms: C15_18  and  O1_19 
REMARK    3  A    between atoms: C20_25  and  O2_26 
REMARK    4  A    between atoms: O2_26  and  C21_27 
ROOT
HETATM    1  C3  UNL     1      13.819  -3.758 -10.035  1.00  0.00     0.060 C 
HETATM    2  C4  UNL     1      14.467  -2.921  -8.972  1.00  0.00     0.014 C 
HETATM    3  C5  UNL     1      15.402  -3.622  -8.076  1.00  0.00     0.011 C 
HETATM    4  C6  UNL     1      14.901  -4.929  -7.569  1.00  0.00    -0.030 C 
HETATM    5  C7  UNL     1      13.725  -4.666  -6.668  1.00  0.00     0.016 C 
HETATM    6  C8  UNL     1      14.547  -5.800  -8.744  1.00  0.00     0.025 C 
HETATM    7  C9  UNL     1      14.067  -7.163  -8.331  1.00  0.00     0.008 C 
HETATM    8  C10 UNL     1      14.828  -7.825  -7.252  1.00  0.00     0.007 C 
HETATM    9  C11 UNL     1      15.312  -6.875  -6.189  1.00  0.00     0.005 C 
HETATM   10  C12 UNL     1      16.069  -7.534  -5.092  1.00  0.00    -0.017 C 
HETATM   11  C13 UNL     1      17.179  -8.420  -5.480  1.00  0.00     0.018 C 
HETATM   12  C14 UNL     1      15.050  -8.400  -4.323  1.00  0.00     0.018 C 
HETATM   13  C15 UNL     1      16.465  -6.447  -4.094  1.00  0.00     0.126 C 
HETATM   14  C16 UNL     1      17.411  -5.507  -4.759  1.00  0.00     0.033 C 
HETATM   15  C17 UNL     1      16.622  -4.768  -5.838  1.00  0.00     0.013 C 
HETATM   16  C18 UNL     1      15.994  -5.697  -6.819  1.00  0.00    -0.032 C 
HETATM   17  C19 UNL     1      17.082  -6.146  -7.755  1.00  0.00     0.016 C 
HETATM   18  C20 UNL     1      13.565  -5.167  -9.684  1.00  0.00     0.146 C 
ENDROOT
BRANCH   1  19
HETATM   19  C2  UNL     1      14.615  -3.550 -11.271  1.00  0.00    -0.018 C 
HETATM   20  C1  UNL     1      15.882  -2.794 -11.212  1.00  0.00     0.063 C 
HETATM   21  N1  UNL     1      14.231  -4.012 -12.389  1.00  0.00    -0.405 N 
ATOM     22  H12 UNL     1      14.778  -3.870 -13.239  1.00  0.00     0.155 HD
ATOM     23  H11 UNL     1      13.356  -4.534 -12.430  1.00  0.00     0.155 HD
ENDBRANCH   1  19
BRANCH  18  24
HETATM   24  O2  UNL     1      13.442  -5.953 -10.855  1.00  0.00    -0.315 OA
BRANCH  24  25
HETATM   25  C21 UNL     1      12.304  -6.591 -11.259  1.00  0.00     0.255 C 
HETATM   26  C22 UNL     1      11.131  -5.788 -11.677  1.00  0.00     0.126 C 
HETATM   27  O3  UNL     1      12.277  -7.840 -11.264  1.00  0.00    -0.266 OA
ENDBRANCH  24  25
ENDBRANCH  18  24
BRANCH  13  28
HETATM   28  O1  UNL     1      16.946  -6.995  -2.912  1.00  0.00    -0.395 OA
ATOM     29  H1  UNL     1      16.643  -6.507  -2.156  1.00  0.00     0.210 HD
ENDBRANCH  13  28
TORSDOF 4
ENDMDL
MODEL 2
REMARK VINA RESULT: -6.850060038      2.742      4.420
REMARK  4 active torsions:
REMARK  status: ('A' for Active; 'I' for Inactive)
REMARK    1  A    between atoms: C2_2  and  C3_6 
REMARK    2  A    between atoms: C15_18  and  O1_19 
REMARK    3  A    between atoms: C20_25  and  O2_26 
REMARK    4  A    between atoms: O2_26  and  C21_27 
ROOT
HETATM    1  C3  UNL     1      15.467  -6.445  -8.828  1.00  0.00     0.060 C 
HETATM    2  C4  UNL     1      16.354  -6.582  -7.626  1.00  0.00     0.014 C 
HETATM    3  C5  UNL     1      15.852  -5.978  -6.380  1.00  0.00     0.011 C 
HETATM    4  C6  UNL     1      15.294  -4.609  -6.544  1.00  0.00    -0.030 C 
HETATM    5  C7  UNL     1      16.419  -3.683  -6.921  1.00  0.00     0.016 C 
HETATM    6  C8  UNL     1      14.206  -4.651  -7.582  1.00  0.00     0.025 C 
HETATM    7  C9  UNL     1      13.551  -3.314  -7.789  1.00  0.00     0.008 C 
HETATM    8  C10 UNL     1      13.240  -2.542  -6.569  1.00  0.00     0.007 C 
HETATM    9  C11 UNL     1      14.282  -2.678  -5.491  1.00  0.00     0.005 C 
HETATM   10  C12 UNL     1      13.983  -1.895  -4.262  1.00  0.00    -0.017 C 
HETATM   11  C13 UNL     1      12.650  -2.070  -3.662  1.00  0.00     0.018 C 
HETATM   12  C14 UNL     1      14.107  -0.409  -4.656  1.00  0.00     0.018 C 
HETATM   13  C15 UNL     1      15.137  -2.121  -3.286  1.00  0.00     0.126 C 
HETATM   14  C16 UNL     1      15.149  -3.556  -2.883  1.00  0.00     0.033 C 
HETATM   15  C17 UNL     1      15.532  -4.364  -4.122  1.00  0.00     0.013 C 
HETATM   16  C18 UNL     1      14.605  -4.126  -5.264  1.00  0.00    -0.032 C 
HETATM   17  C19 UNL     1      13.357  -4.916  -4.987  1.00  0.00     0.016 C 
HETATM   18  C20 UNL     1      14.653  -5.218  -8.896  1.00  0.00     0.146 C 
ENDROOT
BRANCH   1  19
HETATM   19  C2  UNL     1      14.704  -7.714  -8.930  1.00  0.00    -0.018 C 
HETATM   20  C1  UNL     1      14.857  -8.571 -10.123  1.00  0.00     0.063 C 
HETATM   21  N1  UNL     1      13.916  -8.087  -8.007  1.00  0.00    -0.405 N 
ATOM     22  H12 UNL     1      13.391  -8.959  -8.077  1.00  0.00     0.155 HD
ATOM     23  H11 UNL     1      13.810  -7.495  -7.184  1.00  0.00     0.155 HD
ENDBRANCH   1  19
BRANCH  18  24
HETATM   24  O2  UNL     1      13.536  -5.413  -9.743  1.00  0.00    -0.315 OA
BRANCH  24  25
HETATM   25  C21 UNL     1      13.467  -5.035 -11.054  1.00  0.00     0.255 C 
HETATM   26  C22 UNL     1      14.354  -3.955 -11.546  1.00  0.00     0.126 C 
HETATM   27  O3  UNL     1      12.655  -5.609 -11.810  1.00  0.00    -0.266 OA
ENDBRANCH  24  25
ENDBRANCH  18  24
BRANCH  13  28
HETATM   28  O1  UNL     1      15.078  -1.233  -2.220  1.00  0.00    -0.395 OA
ATOM     29  H1  UNL     1      15.783  -1.388  -1.602  1.00  0.00     0.210 HD
ENDBRANCH  13  28
TORSDOF 4
ENDMDL
MODEL 3
REMARK VINA RESULT: -6.727135085      2.295      4.214
REMARK  4 active torsions:
REMARK  status: ('A' for Active; 'I' for Inactive)
REMARK    1  A    between atoms: C2_2  and  C3_6 
REMARK    2  A    between atoms: C15_18  and  O1_19 
REMARK    3  A    between atoms: C20_25  and  O2_26 
REMARK    4  A    between atoms: O2_26  and  C21_27 
ROOT
HETATM    1  C3  UNL     1      14.107  -6.230 -10.466  1.00  0.00     0.060 C 
HETATM    2  C4  UNL     1      14.127  -7.007  -9.183  1.00  0.00     0.014 C 
HETATM    3  C5  UNL     1      13.940  -6.224  -7.949  1.00  0.00     0.011 C 
HETATM    4  C6  UNL     1      14.745  -4.974  -7.890  1.00  0.00    -0.030 C 
HETATM    5  C7  UNL     1      16.200  -5.352  -7.816  1.00  0.00     0.016 C 
HETATM    6  C8  UNL     1      14.425  -4.135  -9.097  1.00  0.00     0.025 C 
HETATM    7  C9  UNL     1      15.164  -2.826  -9.104  1.00  0.00     0.008 C 
HETATM    8  C10 UNL     1      15.221  -2.100  -7.819  1.00  0.00     0.007 C 
HETATM    9  C11 UNL     1      15.365  -3.005  -6.625  1.00  0.00     0.005 C 
HETATM   10  C12 UNL     1      15.435  -2.282  -5.327  1.00  0.00    -0.017 C 
HETATM   11  C13 UNL     1      14.380  -1.293  -5.051  1.00  0.00     0.018 C 
HETATM   12  C14 UNL     1      16.777  -1.522  -5.329  1.00  0.00     0.018 C 
HETATM   13  C15 UNL     1      15.602  -3.332  -4.230  1.00  0.00     0.126 C 
HETATM   14  C16 UNL     1      14.373  -4.174  -4.181  1.00  0.00     0.033 C 
HETATM   15  C17 UNL     1      14.333  -4.979  -5.478  1.00  0.00     0.013 C 
HETATM   16  C18 UNL     1      14.351  -4.110  -6.688  1.00  0.00    -0.032 C 
HETATM   17  C19 UNL     1      12.963  -3.554  -6.849  1.00  0.00     0.016 C 
HETATM   18  C20 UNL     1      14.630  -4.853 -10.397  1.00  0.00     0.146 C 
ENDROOT
BRANCH   1  19
HETATM   19  C2  UNL     1      12.731  -6.355 -11.008  1.00  0.00    -0.018 C 
HETATM   20  C1  UNL     1      12.092  -7.683 -11.095  1.00  0.00     0.063 C 
HETATM   21  N1  UNL     1      12.081  -5.338 -11.401  1.00  0.00    -0.405 N 
ATOM     22  H12 UNL     1      11.134  -5.424 -11.773  1.00  0.00     0.155 HD
ATOM     23  H11 UNL     1      12.522  -4.420 -11.341  1.00  0.00     0.155 HD
ENDBRANCH   1  19
BRANCH  18  24
HETATM   24  O2  UNL     1      14.118  -4.077 -11.464  1.00  0.00    -0.315 OA
BRANCH  24  25
HETATM   25  C21 UNL     1      14.856  -3.576 -12.498  1.00  0.00     0.255 C 
HETATM   26  C22 UNL     1      14.930  -2.110 -12.695  1.00  0.00     0.126 C 
HETATM   27  O3  UNL     1      15.452  -4.369 -13.258  1.00  0.00    -0.266 OA
ENDBRANCH  24  25
ENDBRANCH  18  24
BRANCH  13  28
HETATM   28  O1  UNL     1      15.937  -2.746  -3.016  1.00  0.00    -0.395 OA
ATOM     29  H1  UNL     1      16.102  -3.403  -2.349  1.00  0.00     0.210 HD
ENDBRANCH  13  28
TORSDOF 4
ENDMDL
MODEL 4
REMARK VINA RESULT: -6.709617091      1.251      1.559
REMARK  4 active torsions:
REMARK  status: ('A' for Active; 'I' for Inactive)
REMARK    1  A    between atoms: C2_2  and  C3_6 
REMARK    2  A    between atoms: C15_18  and  O1_19 
REMARK    3  A    between atoms: C20_25  and  O2_26 
REMARK    4  A    between atoms: O2_26  and  C21_27 
ROOT
HETATM    1  C3  UNL     1      13.710  -4.814  -9.135  1.00  0.00     0.060 C 
HETATM    2  C4  UNL     1      14.067  -3.956  -7.958  1.00  0.00     0.014 C 
HETATM    3  C5  UNL     1      15.257  -4.368  -7.194  1.00  0.00     0.011 C 
HETATM    4  C6  UNL     1      15.320  -5.825  -6.899  1.00  0.00    -0.030 C 
HETATM    5  C7  UNL     1      14.197  -6.165  -5.956  1.00  0.00     0.016 C 
HETATM    6  C8  UNL     1      15.239  -6.586  -8.194  1.00  0.00     0.025 C 
HETATM    7  C9  UNL     1      15.336  -8.073  -8.000  1.00  0.00     0.008 C 
HETATM    8  C10 UNL     1      16.364  -8.542  -7.048  1.00  0.00     0.007 C 
HETATM    9  C11 UNL     1      16.527  -7.644  -5.851  1.00  0.00     0.005 C 
HETATM   10  C12 UNL     1      17.551  -8.115  -4.880  1.00  0.00    -0.017 C 
HETATM   11  C13 UNL     1      18.882  -8.443  -5.415  1.00  0.00     0.018 C 
HETATM   12  C14 UNL     1      16.988  -9.405  -4.250  1.00  0.00     0.018 C 
HETATM   13  C15 UNL     1      17.576  -7.115  -3.725  1.00  0.00     0.126 C 
HETATM   14  C16 UNL     1      18.052  -5.799  -4.239  1.00  0.00     0.033 C 
HETATM   15  C17 UNL     1      16.970  -5.271  -5.179  1.00  0.00     0.013 C 
HETATM   16  C18 UNL     1      16.671  -6.217  -6.291  1.00  0.00    -0.032 C 
HETATM   17  C19 UNL     1      17.781  -6.076  -7.296  1.00  0.00     0.016 C 
HETATM   18  C20 UNL     1      14.028  -6.248  -9.013  1.00  0.00     0.146 C 
ENDROOT
BRANCH   1  19
HETATM   19  C2  UNL     1      14.281  -4.142 -10.330  1.00  0.00    -0.018 C 
HETATM   20  C1  UNL     1      15.405  -3.197 -10.175  1.00  0.00     0.063 C 
HETATM   21  N1  UNL     1      13.825  -4.363 -11.494  1.00  0.00    -0.405 N 
ATOM     22  H12 UNL     1      14.218  -3.901 -12.314  1.00  0.00     0.155 HD
ATOM     23  H11 UNL     1      13.048  -5.015 -11.600  1.00  0.00     0.155 HD
ENDBRANCH   1  19
BRANCH  18  24
HETATM   24  O2  UNL     1      14.129  -6.843 -10.293  1.00  0.00    -0.315 OA
BRANCH  24  25
HETATM   25  C21 UNL     1      13.178  -7.637 -10.868  1.00  0.00     0.255 C 
HETATM   26  C22 UNL     1      13.450  -9.083 -11.045  1.00  0.00     0.126 C 
HETATM   27  O3  UNL     1      12.100  -7.125 -11.235  1.00  0.00    -0.266 OA
ENDBRANCH  24  25
ENDBRANCH  18  24
BRANCH  13  28
HETATM   28  O1  UNL     1      18.310  -7.602  -2.651  1.00  0.00    -0.395 OA
ATOM     29  H1  UNL     1      17.869  -7.432  -1.826  1.00  0.00     0.210 HD
ENDBRANCH  13  28
TORSDOF 4
ENDMDL
MODEL 5
REMARK VINA RESULT: -6.600755025      1.370      1.522
REMARK  4 active torsions:
REMARK  status: ('A' for Active; 'I' for Inactive)
REMARK    1  A    between atoms: C2_2  and  C3_6 
REMARK    2  A    between atoms: C15_18  and  O1_19 
REMARK    3  A    between atoms: C20_25  and  O2_26 
REMARK    4  A    between atoms: O2_26  and  C21_27 
ROOT
HETATM    1  C3  UNL     1      14.198  -2.999  -8.953  1.00  0.00     0.060 C 
HETATM    2  C4  UNL     1      14.359  -2.484  -7.554  1.00  0.00     0.014 C 
HETATM    3  C5  UNL     1      15.170  -3.314  -6.648  1.00  0.00     0.011 C 
HETATM    4  C6  UNL     1      14.858  -4.768  -6.705  1.00  0.00    -0.030 C 
HETATM    5  C7  UNL     1      13.466  -4.972  -6.171  1.00  0.00     0.016 C 
HETATM    6  C8  UNL     1      15.009  -5.240  -8.125  1.00  0.00     0.025 C 
HETATM    7  C9  UNL     1      14.751  -6.713  -8.276  1.00  0.00     0.008 C 
HETATM    8  C10 UNL     1      15.345  -7.590  -7.246  1.00  0.00     0.007 C 
HETATM    9  C11 UNL     1      15.327  -6.990  -5.865  1.00  0.00     0.005 C 
HETATM   10  C12 UNL     1      15.911  -7.870  -4.819  1.00  0.00    -0.017 C 
HETATM   11  C13 UNL     1      17.249  -8.426  -5.080  1.00  0.00     0.018 C 
HETATM   12  C14 UNL     1      14.948  -9.065  -4.672  1.00  0.00     0.018 C 
HETATM   13  C15 UNL     1      15.796  -7.131  -3.486  1.00  0.00     0.126 C 
HETATM   14  C16 UNL     1      16.649  -5.911  -3.539  1.00  0.00     0.033 C 
HETATM   15  C17 UNL     1      16.012  -4.966  -4.557  1.00  0.00     0.013 C 
HETATM   16  C18 UNL     1      15.869  -5.592  -5.902  1.00  0.00    -0.032 C 
HETATM   17  C19 UNL     1      17.228  -5.562  -6.545  1.00  0.00     0.016 C 
HETATM   18  C20 UNL     1      14.179  -4.466  -9.105  1.00  0.00     0.146 C 
ENDROOT
BRANCH   1  19
HETATM   19  C2  UNL     1      15.211  -2.294  -9.777  1.00  0.00    -0.018 C 
HETATM   20  C1  UNL     1      16.425  -1.746  -9.139  1.00  0.00     0.063 C 
HETATM   21  N1  UNL     1      15.061  -2.150 -11.029  1.00  0.00    -0.405 N 
ATOM     22  H12 UNL     1      15.758  -1.665 -11.595  1.00  0.00     0.155 HD
ATOM     23  H11 UNL     1      14.223  -2.528 -11.469  1.00  0.00     0.155 HD
ENDBRANCH   1  19
BRANCH  18  24
HETATM   24  O2  UNL     1      14.528  -4.830 -10.427  1.00  0.00    -0.315 OA
BRANCH  24  25
HETATM   25  C21 UNL     1      13.641  -5.145 -11.417  1.00  0.00     0.255 C 
HETATM   26  C22 UNL     1      12.448  -5.962 -11.090  1.00  0.00     0.126 C 
HETATM   27  O3  UNL     1      13.856  -4.738 -12.578  1.00  0.00    -0.266 OA
ENDBRANCH  24  25
ENDBRANCH  18  24
BRANCH  13  28
HETATM   28  O1  UNL     1      16.075  -7.972  -2.416  1.00  0.00    -0.395 OA
ATOM     29  H1  UNL     1      16.617  -8.705  -2.685  1.00  0.00     0.210 HD
ENDBRANCH  13  28
TORSDOF 4
ENDMDL
