MODEL 1
REMARK VINA RESULT: -7.028126517      0.000      0.000
REMARK  5 active torsions:
REMARK  status: ('A' for Active; 'I' for Inactive)
REMARK    1  A    between atoms: C5_6  and  O2_7 
REMARK    2  A    between atoms: O2_7  and  C6_8 
REMARK    3  A    between atoms: C14_16  and  O3_17 
REMARK    4  A    between atoms: C20_24  and  C21_25 
REMARK    5  A    between atoms: C21_25  and  O4_26 
ROOT
HETATM    1  O1  UNL     1      17.352  -3.957  -6.570  1.00  0.00    -0.297 OA
HETATM    2  C1  UNL     1      16.568  -4.903  -6.404  1.00  0.00     0.135 C 
HETATM    3  C2  UNL     1      15.099  -4.586  -6.448  1.00  0.00     0.057 C 
HETATM    4  C3  UNL     1      14.732  -4.206  -7.813  1.00  0.00     0.015 C 
HETATM    5  C4  UNL     1      13.496  -4.664  -8.492  1.00  0.00     0.034 C 
HETATM    6  C5  UNL     1      13.719  -5.243  -9.882  1.00  0.00     0.133 C 
HETATM    7  C12 UNL     1      13.840  -6.708 -10.012  1.00  0.00     0.021 A 
HETATM    8  C13 UNL     1      13.565  -7.612  -8.885  1.00  0.00     0.045 A 
HETATM    9  C14 UNL     1      14.984  -8.096  -8.788  1.00  0.00     0.062 A 
HETATM   10  C15 UNL     1      15.293  -7.222  -9.921  1.00  0.00     0.045 A 
HETATM   11  C16 UNL     1      15.694  -7.986  -7.491  1.00  0.00     0.021 C 
HETATM   12  C17 UNL     1      16.895  -7.112  -7.408  1.00  0.00     0.020 C 
HETATM   13  C18 UNL     1      17.084  -6.285  -6.175  1.00  0.00     0.057 C 
HETATM   14  C19 UNL     1      16.397  -6.766  -4.959  1.00  0.00     0.024 C 
HETATM   15  C20 UNL     1      14.936  -6.857  -5.314  1.00  0.00    -0.017 C 
HETATM   16  C22 UNL     1      14.300  -5.558  -5.672  1.00  0.00     0.024 C 
HETATM   17  C23 UNL     1      14.804  -7.986  -6.265  1.00  0.00     0.019 C 
ENDROOT
BRANCH   6  18
HETATM   18  O2  UNL     1      14.832  -4.668 -10.490  1.00  0.00    -0.345 OA
BRANCH  18  19
HETATM   19  C6  UNL     1      14.957  -3.737 -11.472  1.00  0.00     0.069 A 
HETATM   20  C7  UNL     1      14.987  -4.096 -12.827  1.00  0.00     0.037 A 
HETATM   21  C8  UNL     1      15.114  -3.155 -13.819  1.00  0.00     0.003 A 
HETATM   22  C9  UNL     1      15.217  -1.818 -13.527  1.00  0.00     0.000 A 
HETATM   23  C10 UNL     1      15.191  -1.435 -12.207  1.00  0.00     0.003 A 
HETATM   24  C11 UNL     1      15.061  -2.404 -11.199  1.00  0.00     0.037 A 
ENDBRANCH  18  19
ENDBRANCH   6  18
BRANCH   9  25
HETATM   25  O3  UNL     1      14.971  -9.458  -9.248  1.00  0.00    -0.389 OA
ATOM     26  H3  UNL     1      15.666  -9.524  -9.893  1.00  0.00     0.210 HD
ENDBRANCH   9  25
BRANCH  15  27
HETATM   27  C21 UNL     1      14.280  -7.337  -3.993  1.00  0.00     0.173 C 
BRANCH  27  28
HETATM   28  O4  UNL     1      13.170  -6.583  -3.693  1.00  0.00    -0.400 OA
ATOM     29  H4  UNL     1      12.627  -7.019  -3.047  1.00  0.00     0.209 HD
ENDBRANCH  27  28
ENDBRANCH  15  27
TORSDOF 5
ENDMDL
MODEL 2
REMARK VINA RESULT: -6.741868046      0.884      1.018
REMARK  5 active torsions:
REMARK  status: ('A' for Active; 'I' for Inactive)
REMARK    1  A    between atoms: C5_6  and  O2_7 
REMARK    2  A    between atoms: O2_7  and  C6_8 
REMARK    3  A    between atoms: C14_16  and  O3_17 
REMARK    4  A    between atoms: C20_24  and  C21_25 
REMARK    5  A    between atoms: C21_25  and  O4_26 
ROOT
HETATM    1  O1  UNL     1      17.348  -4.033  -5.403  1.00  0.00    -0.297 OA
HETATM    2  C1  UNL     1      16.562  -4.992  -5.410  1.00  0.00     0.135 C 
HETATM    3  C2  UNL     1      15.096  -4.671  -5.501  1.00  0.00     0.057 C 
HETATM    4  C3  UNL     1      14.809  -4.115  -6.824  1.00  0.00     0.015 C 
HETATM    5  C4  UNL     1      13.620  -4.480  -7.630  1.00  0.00     0.034 C 
HETATM    6  C5  UNL     1      13.930  -4.872  -9.068  1.00  0.00     0.133 C 
HETATM    7  C12 UNL     1      14.068  -6.307  -9.381  1.00  0.00     0.021 A 
HETATM    8  C13 UNL     1      13.733  -7.351  -8.401  1.00  0.00     0.045 A 
HETATM    9  C14 UNL     1      15.147  -7.844  -8.281  1.00  0.00     0.062 A 
HETATM   10  C15 UNL     1      15.517  -6.830  -9.270  1.00  0.00     0.045 A 
HETATM   11  C16 UNL     1      15.777  -7.905  -6.940  1.00  0.00     0.021 C 
HETATM   12  C17 UNL     1      16.964  -7.051  -6.672  1.00  0.00     0.020 C 
HETATM   13  C18 UNL     1      17.073  -6.393  -5.332  1.00  0.00     0.057 C 
HETATM   14  C19 UNL     1      16.318  -7.027  -4.233  1.00  0.00     0.024 C 
HETATM   15  C20 UNL     1      14.882  -7.070  -4.684  1.00  0.00    -0.017 C 
HETATM   16  C22 UNL     1      14.259  -5.735  -4.908  1.00  0.00     0.024 C 
HETATM   17  C23 UNL     1      14.815  -8.065  -5.781  1.00  0.00     0.019 C 
ENDROOT
BRANCH   6  18
HETATM   18  O2  UNL     1      15.073  -4.223  -9.527  1.00  0.00    -0.345 OA
BRANCH  18  19
HETATM   19  C6  UNL     1      15.252  -3.186 -10.388  1.00  0.00     0.069 A 
HETATM   20  C7  UNL     1      14.655  -3.172 -11.657  1.00  0.00     0.037 A 
HETATM   21  C8  UNL     1      14.836  -2.125 -12.526  1.00  0.00     0.003 A 
HETATM   22  C9  UNL     1      15.611  -1.043 -12.191  1.00  0.00     0.000 A 
HETATM   23  C10 UNL     1      16.209  -1.029 -10.954  1.00  0.00     0.003 A 
HETATM   24  C11 UNL     1      16.019  -2.104 -10.071  1.00  0.00     0.037 A 
ENDBRANCH  18  19
ENDBRANCH   6  18
BRANCH   9  25
HETATM   25  O3  UNL     1      15.172  -9.134  -8.916  1.00  0.00    -0.389 OA
ATOM     26  H3  UNL     1      16.025  -9.505  -8.724  1.00  0.00     0.210 HD
ENDBRANCH   9  25
BRANCH  15  27
HETATM   27  C21 UNL     1      14.151  -7.718  -3.480  1.00  0.00     0.173 C 
BRANCH  27  28
HETATM   28  O4  UNL     1      12.990  -7.042  -3.188  1.00  0.00    -0.400 OA
ATOM     29  H4  UNL     1      12.236  -7.485  -3.558  1.00  0.00     0.209 HD
ENDBRANCH  27  28
ENDBRANCH  15  27
TORSDOF 5
ENDMDL
MODEL 3
REMARK VINA RESULT: -6.649427947      2.776      5.146
REMARK  5 active torsions:
REMARK  status: ('A' for Active; 'I' for Inactive)
REMARK    1  A    between atoms: C5_6  and  O2_7 
REMARK    2  A    between atoms: O2_7  and  C6_8 
REMARK    3  A    between atoms: C14_16  and  O3_17 
REMARK    4  A    between atoms: C20_24  and  C21_25 
REMARK    5  A    between atoms: C21_25  and  O4_26 
ROOT
HETATM    1  O1  UNL     1      12.994  -6.714  -3.598  1.00  0.00    -0.297 OA
HETATM    2  C1  UNL     1      13.676  -5.717  -3.877  1.00  0.00     0.135 C 
HETATM    3  C2  UNL     1      15.136  -5.947  -4.156  1.00  0.00     0.057 C 
HETATM    4  C3  UNL     1      15.273  -6.690  -5.409  1.00  0.00     0.015 C 
HETATM    5  C4  UNL     1      16.288  -6.380  -6.444  1.00  0.00     0.034 C 
HETATM    6  C5  UNL     1      15.731  -6.251  -7.855  1.00  0.00     0.133 C 
HETATM    7  C12 UNL     1      15.413  -4.899  -8.353  1.00  0.00     0.021 A 
HETATM    8  C13 UNL     1      15.791  -3.688  -7.609  1.00  0.00     0.045 A 
HETATM    9  C14 UNL     1      14.371  -3.281  -7.337  1.00  0.00     0.062 A 
HETATM   10  C15 UNL     1      13.954  -4.466  -8.087  1.00  0.00     0.045 A 
HETATM   11  C16 UNL     1      13.946  -3.046  -5.935  1.00  0.00     0.021 C 
HETATM   12  C17 UNL     1      12.898  -3.924  -5.352  1.00  0.00     0.020 C 
HETATM   13  C18 UNL     1      13.053  -4.361  -3.929  1.00  0.00     0.057 C 
HETATM   14  C19 UNL     1      13.901  -3.505  -3.075  1.00  0.00     0.024 C 
HETATM   15  C20 UNL     1      15.243  -3.437  -3.756  1.00  0.00    -0.017 C 
HETATM   16  C22 UNL     1      15.948  -4.745  -3.874  1.00  0.00     0.024 C 
HETATM   17  C23 UNL     1      15.051  -2.633  -4.986  1.00  0.00     0.019 C 
ENDROOT
BRANCH   6  18
HETATM   18  O2  UNL     1      14.598  -7.043  -8.019  1.00  0.00    -0.345 OA
BRANCH  18  19
HETATM   19  C6  UNL     1      14.155  -7.801  -9.058  1.00  0.00     0.069 A 
HETATM   20  C7  UNL     1      14.865  -8.925  -9.503  1.00  0.00     0.037 A 
HETATM   21  C8  UNL     1      14.418  -9.690 -10.551  1.00  0.00     0.003 A 
HETATM   22  C9  UNL     1      13.254  -9.387 -11.212  1.00  0.00     0.000 A 
HETATM   23  C10 UNL     1      12.537  -8.289 -10.799  1.00  0.00     0.003 A 
HETATM   24  C11 UNL     1      13.001  -7.513  -9.725  1.00  0.00     0.037 A 
ENDBRANCH  18  19
ENDBRANCH   6  18
BRANCH   9  25
HETATM   25  O3  UNL     1      14.131  -2.117  -8.145  1.00  0.00    -0.389 OA
ATOM     26  H3  UNL     1      13.621  -1.523  -7.605  1.00  0.00     0.210 HD
ENDBRANCH   9  25
BRANCH  15  27
HETATM   27  C21 UNL     1      16.082  -2.552  -2.798  1.00  0.00     0.173 C 
BRANCH  27  28
HETATM   28  O4  UNL     1      15.435  -1.372  -2.524  1.00  0.00    -0.400 OA
ATOM     29  H4  UNL     1      15.323  -1.254  -1.588  1.00  0.00     0.209 HD
ENDBRANCH  27  28
ENDBRANCH  15  27
TORSDOF 5
ENDMDL
MODEL 4
REMARK VINA RESULT: -6.497573272      2.881      5.094
REMARK  5 active torsions:
REMARK  status: ('A' for Active; 'I' for Inactive)
REMARK    1  A    between atoms: C5_6  and  O2_7 
REMARK    2  A    between atoms: O2_7  and  C6_8 
REMARK    3  A    between atoms: C14_16  and  O3_17 
REMARK    4  A    between atoms: C20_24  and  C21_25 
REMARK    5  A    between atoms: C21_25  and  O4_26 
ROOT
HETATM    1  O1  UNL     1      13.021  -7.283  -3.547  1.00  0.00    -0.297 OA
HETATM    2  C1  UNL     1      13.814  -6.339  -3.673  1.00  0.00     0.135 C 
HETATM    3  C2  UNL     1      15.235  -6.685  -4.024  1.00  0.00     0.057 C 
HETATM    4  C3  UNL     1      15.276  -7.216  -5.387  1.00  0.00     0.015 C 
HETATM    5  C4  UNL     1      16.314  -6.855  -6.381  1.00  0.00     0.034 C 
HETATM    6  C5  UNL     1      15.768  -6.425  -7.736  1.00  0.00     0.133 C 
HETATM    7  C12 UNL     1      15.608  -4.981  -7.992  1.00  0.00     0.021 A 
HETATM    8  C13 UNL     1      16.131  -3.966  -7.066  1.00  0.00     0.045 A 
HETATM    9  C14 UNL     1      14.771  -3.449  -6.693  1.00  0.00     0.062 A 
HETATM   10  C15 UNL     1      14.212  -4.435  -7.620  1.00  0.00     0.045 A 
HETATM   11  C16 UNL     1      14.384  -3.407  -5.261  1.00  0.00     0.021 C 
HETATM   12  C17 UNL     1      13.244  -4.245  -4.806  1.00  0.00     0.020 C 
HETATM   13  C18 UNL     1      13.355  -4.932  -3.481  1.00  0.00     0.057 C 
HETATM   14  C19 UNL     1      14.303  -4.335  -2.518  1.00  0.00     0.024 C 
HETATM   15  C20 UNL     1      15.639  -4.308  -3.212  1.00  0.00    -0.017 C 
HETATM   16  C22 UNL     1      16.185  -5.650  -3.566  1.00  0.00     0.024 C 
HETATM   17  C23 UNL     1      15.536  -3.291  -4.285  1.00  0.00     0.019 C 
ENDROOT
BRANCH   6  18
HETATM   18  O2  UNL     1      14.548  -7.042  -8.001  1.00  0.00    -0.345 OA
BRANCH  18  19
HETATM   19  C6  UNL     1      14.104  -7.771  -9.059  1.00  0.00     0.069 A 
HETATM   20  C7  UNL     1      14.781  -8.917  -9.499  1.00  0.00     0.037 A 
HETATM   21  C8  UNL     1      14.332  -9.652 -10.568  1.00  0.00     0.003 A 
HETATM   22  C9  UNL     1      13.198  -9.296 -11.255  1.00  0.00     0.000 A 
HETATM   23  C10 UNL     1      12.514  -8.176 -10.847  1.00  0.00     0.003 A 
HETATM   24  C11 UNL     1      12.980  -7.431  -9.753  1.00  0.00     0.037 A 
ENDBRANCH  18  19
ENDBRANCH   6  18
BRANCH   9  25
HETATM   25  O3  UNL     1      14.664  -2.145  -7.288  1.00  0.00    -0.389 OA
ATOM     26  H3  UNL     1      13.742  -1.918  -7.261  1.00  0.00     0.210 HD
ENDBRANCH   9  25
BRANCH  15  27
HETATM   27  C21 UNL     1      16.583  -3.701  -2.141  1.00  0.00     0.173 C 
BRANCH  27  28
HETATM   28  O4  UNL     1      16.783  -4.582  -1.105  1.00  0.00    -0.400 OA
ATOM     29  H4  UNL     1      17.228  -4.159  -0.381  1.00  0.00     0.209 HD
ENDBRANCH  27  28
ENDBRANCH  15  27
TORSDOF 5
ENDMDL
MODEL 5
REMARK VINA RESULT: -6.470079819      4.471      9.065
REMARK  5 active torsions:
REMARK  status: ('A' for Active; 'I' for Inactive)
REMARK    1  A    between atoms: C5_6  and  O2_7 
REMARK    2  A    between atoms: O2_7  and  C6_8 
REMARK    3  A    between atoms: C14_16  and  O3_17 
REMARK    4  A    between atoms: C20_24  and  C21_25 
REMARK    5  A    between atoms: C21_25  and  O4_26 
ROOT
HETATM    1  O1  UNL     1      19.174   0.326  -9.298  1.00  0.00    -0.297 OA
HETATM    2  C1  UNL     1      19.151   0.731 -10.469  1.00  0.00     0.135 C 
HETATM    3  C2  UNL     1      19.644  -0.215 -11.528  1.00  0.00     0.057 C 
HETATM    4  C3  UNL     1      18.709  -1.336 -11.642  1.00  0.00     0.015 C 
HETATM    5  C4  UNL     1      18.270  -1.914 -12.935  1.00  0.00     0.034 C 
HETATM    6  C5  UNL     1      16.762  -2.065 -13.078  1.00  0.00     0.133 C 
HETATM    7  C12 UNL     1      16.022  -0.997 -13.777  1.00  0.00     0.021 A 
HETATM    8  C13 UNL     1      16.714   0.088 -14.489  1.00  0.00     0.045 A 
HETATM    9  C14 UNL     1      16.213   1.160 -13.563  1.00  0.00     0.062 A 
HETATM   10  C15 UNL     1      15.495   0.110 -12.839  1.00  0.00     0.045 A 
HETATM   11  C16 UNL     1      17.194   2.049 -12.894  1.00  0.00     0.021 C 
HETATM   12  C17 UNL     1      17.290   2.015 -11.411  1.00  0.00     0.020 C 
HETATM   13  C18 UNL     1      18.649   2.101 -10.788  1.00  0.00     0.057 C 
HETATM   14  C19 UNL     1      19.703   2.725 -11.613  1.00  0.00     0.024 C 
HETATM   15  C20 UNL     1      19.758   1.929 -12.891  1.00  0.00    -0.017 C 
HETATM   16  C22 UNL     1      20.146   0.500 -12.719  1.00  0.00     0.024 C 
HETATM   17  C23 UNL     1      18.507   2.229 -13.628  1.00  0.00     0.019 C 
ENDROOT
BRANCH   6  18
HETATM   18  O2  UNL     1      16.160  -2.259 -11.838  1.00  0.00    -0.345 OA
BRANCH  18  19
HETATM   19  C6  UNL     1      15.282  -3.194 -11.385  1.00  0.00     0.069 A 
HETATM   20  C7  UNL     1      14.674  -4.113 -12.252  1.00  0.00     0.037 A 
HETATM   21  C8  UNL     1      13.788  -5.056 -11.793  1.00  0.00     0.003 A 
HETATM   22  C9  UNL     1      13.459  -5.142 -10.464  1.00  0.00     0.000 A 
HETATM   23  C10 UNL     1      14.039  -4.253  -9.590  1.00  0.00     0.003 A 
HETATM   24  C11 UNL     1      14.944  -3.292 -10.067  1.00  0.00     0.037 A 
ENDBRANCH  18  19
ENDBRANCH   6  18
BRANCH   9  25
HETATM   25  O3  UNL     1      15.263   1.928 -14.321  1.00  0.00    -0.389 OA
ATOM     26  H3  UNL     1      14.910   2.575 -13.722  1.00  0.00     0.210 HD
ENDBRANCH   9  25
BRANCH  15  27
HETATM   27  C21 UNL     1      20.895   2.618 -13.689  1.00  0.00     0.173 C 
BRANCH  27  28
HETATM   28  O4  UNL     1      22.005   2.807 -12.901  1.00  0.00    -0.400 OA
ATOM     29  H4  UNL     1      22.375   3.671 -13.037  1.00  0.00     0.209 HD
ENDBRANCH  27  28
ENDBRANCH  15  27
TORSDOF 5
ENDMDL
