MODEL 1
REMARK VINA RESULT: -6.918053970      0.000      0.000
REMARK  6 active torsions:
REMARK  status: ('A' for Active; 'I' for Inactive)
REMARK    1  A    between atoms: C2_2  and  C3_3 
REMARK    2  A    between atoms: C5_5  and  C6_6 
REMARK    3  A    between atoms: C9_9  and  O1_10 
REMARK    4  A    between atoms: C11_13  and  O2_14 
REMARK    5  A    between atoms: C14_18  and  C16_20 
REMARK    6  A    between atoms: C16_20  and  O4_22 
ROOT
HETATM    1  C3  UNL     1      16.747  -7.714  -7.205  1.00  0.00     0.023 A 
HETATM    2  C4  UNL     1      15.981  -6.645  -7.835  1.00  0.00    -0.069 A 
HETATM    3  C5  UNL     1      15.140  -6.602  -8.853  1.00  0.00     0.004 C 
HETATM    4  C13 UNL     1      16.567  -5.682  -6.922  1.00  0.00     0.042 A 
HETATM    5  C14 UNL     1      15.756  -4.822  -6.045  1.00  0.00     0.052 C 
HETATM    6  C15 UNL     1      15.677  -3.451  -6.774  1.00  0.00     0.027 C 
HETATM    7  C18 UNL     1      16.466  -4.464  -4.736  1.00  0.00     0.020 C 
HETATM    8  C19 UNL     1      17.064  -5.622  -4.033  1.00  0.00     0.002 C 
HETATM    9  C20 UNL     1      16.904  -6.941  -4.799  1.00  0.00     0.010 C 
HETATM   10  C21 UNL     1      17.335  -6.757  -6.241  1.00  0.00    -0.028 A 
HETATM   11  C22 UNL     1      18.854  -6.613  -6.334  1.00  0.00     0.016 C 
ENDROOT
BRANCH   1  12
HETATM   12  C2  UNL     1      16.009  -8.891  -6.614  1.00  0.00     0.005 C 
HETATM   13  C1  UNL     1      17.038 -10.033  -6.550  1.00  0.00     0.006 C 
ENDBRANCH   1  12
BRANCH   3  14
HETATM   14  C6  UNL     1      14.751  -7.732  -9.663  1.00  0.00     0.003 C 
HETATM   15  C7  UNL     1      13.768  -7.612 -10.550  1.00  0.00    -0.075 C 
HETATM   16  C8  UNL     1      13.406  -8.788 -11.352  1.00  0.00     0.066 C 
HETATM   17  C12 UNL     1      13.101  -6.294 -10.668  1.00  0.00     0.066 C 
HETATM   18  C9  UNL     1      11.932  -8.887 -11.638  1.00  0.00     0.124 C 
HETATM   19  C10 UNL     1      11.177  -7.626 -11.336  1.00  0.00     0.064 C 
HETATM   20  C11 UNL     1      12.008  -6.429 -11.708  1.00  0.00     0.124 C 
BRANCH  18  21
HETATM   21  O1  UNL     1      11.410  -9.883 -10.780  1.00  0.00    -0.395 OA
ATOM     22  H1  UNL     1      10.741 -10.347 -11.268  1.00  0.00     0.210 HD
ENDBRANCH  18  21
BRANCH  20  23
HETATM   23  O2  UNL     1      11.199  -5.306 -11.758  1.00  0.00    -0.395 OA
ATOM     24  H2  UNL     1      11.488  -4.680 -11.104  1.00  0.00     0.210 HD
ENDBRANCH  20  23
ENDBRANCH   3  14
BRANCH   5  25
HETATM   25  C16 UNL     1      14.387  -5.190  -5.751  1.00  0.00     0.267 C 
HETATM   26  O3  UNL     1      13.936  -6.233  -5.239  1.00  0.00    -0.264 OA
BRANCH  25  27
HETATM   27  O4  UNL     1      13.400  -4.238  -6.092  1.00  0.00    -0.326 OA
HETATM   28  C17 UNL     1      12.485  -3.747  -5.157  1.00  0.00     0.213 C 
ENDBRANCH  25  27
ENDBRANCH   5  25
TORSDOF 6
ENDMDL
MODEL 2
REMARK VINA RESULT: -6.840491923      3.715      5.927
REMARK  6 active torsions:
REMARK  status: ('A' for Active; 'I' for Inactive)
REMARK    1  A    between atoms: C2_2  and  C3_3 
REMARK    2  A    between atoms: C5_5  and  C6_6 
REMARK    3  A    between atoms: C9_9  and  O1_10 
REMARK    4  A    between atoms: C11_13  and  O2_14 
REMARK    5  A    between atoms: C14_18  and  C16_20 
REMARK    6  A    between atoms: C16_20  and  O4_22 
ROOT
HETATM    1  C3  UNL     1      14.507  -2.485  -7.049  1.00  0.00     0.023 A 
HETATM    2  C4  UNL     1      14.707  -3.419  -8.151  1.00  0.00    -0.069 A 
HETATM    3  C5  UNL     1      15.207  -3.301  -9.369  1.00  0.00     0.004 C 
HETATM    4  C13 UNL     1      14.092  -4.477  -7.372  1.00  0.00     0.042 A 
HETATM    5  C14 UNL     1      14.776  -5.744  -7.070  1.00  0.00     0.052 C 
HETATM    6  C15 UNL     1      14.227  -6.764  -8.107  1.00  0.00     0.027 C 
HETATM    7  C18 UNL     1      14.341  -6.357  -5.736  1.00  0.00     0.020 C 
HETATM    8  C19 UNL     1      14.342  -5.404  -4.601  1.00  0.00     0.002 C 
HETATM    9  C20 UNL     1      14.719  -3.977  -5.013  1.00  0.00     0.010 C 
HETATM   10  C21 UNL     1      13.905  -3.554  -6.221  1.00  0.00    -0.028 A 
HETATM   11  C22 UNL     1      12.448  -3.311  -5.829  1.00  0.00     0.016 C 
ENDROOT
BRANCH   1  12
HETATM   12  C2  UNL     1      15.706  -1.780  -6.463  1.00  0.00     0.005 C 
HETATM   13  C1  UNL     1      15.134  -0.701  -5.528  1.00  0.00     0.006 C 
ENDBRANCH   1  12
BRANCH   3  14
HETATM   14  C6  UNL     1      15.722  -2.082  -9.946  1.00  0.00     0.003 C 
HETATM   15  C7  UNL     1      15.559  -1.836 -11.241  1.00  0.00    -0.075 C 
HETATM   16  C8  UNL     1      16.099  -0.582 -11.785  1.00  0.00     0.066 C 
HETATM   17  C12 UNL     1      14.842  -2.847 -12.053  1.00  0.00     0.066 C 
HETATM   18  C9  UNL     1      16.639  -0.720 -13.183  1.00  0.00     0.124 C 
HETATM   19  C10 UNL     1      16.235  -1.998 -13.858  1.00  0.00     0.064 C 
HETATM   20  C11 UNL     1      14.821  -2.351 -13.484  1.00  0.00     0.124 C 
BRANCH  18  21
HETATM   21  O1  UNL     1      18.049  -0.748 -13.082  1.00  0.00    -0.395 OA
ATOM     22  H1  UNL     1      18.389  -0.219 -13.792  1.00  0.00     0.210 HD
ENDBRANCH  18  21
BRANCH  20  23
HETATM   23  O2  UNL     1      14.341  -3.312 -14.358  1.00  0.00    -0.395 OA
ATOM     24  H2  UNL     1      13.393  -3.342 -14.305  1.00  0.00     0.210 HD
ENDBRANCH  20  23
ENDBRANCH   3  14
BRANCH   5  25
HETATM   25  C16 UNL     1      16.219  -5.819  -7.173  1.00  0.00     0.267 C 
HETATM   26  O3  UNL     1      17.081  -4.967  -6.884  1.00  0.00    -0.264 OA
BRANCH  25  27
HETATM   27  O4  UNL     1      16.746  -7.030  -7.676  1.00  0.00    -0.326 OA
HETATM   28  C17 UNL     1      17.596  -7.841  -6.921  1.00  0.00     0.213 C 
ENDBRANCH  25  27
ENDBRANCH   5  25
TORSDOF 6
ENDMDL
MODEL 3
REMARK VINA RESULT: -6.576385065      3.834      5.563
REMARK  6 active torsions:
REMARK  status: ('A' for Active; 'I' for Inactive)
REMARK    1  A    between atoms: C2_2  and  C3_3 
REMARK    2  A    between atoms: C5_5  and  C6_6 
REMARK    3  A    between atoms: C9_9  and  O1_10 
REMARK    4  A    between atoms: C11_13  and  O2_14 
REMARK    5  A    between atoms: C14_18  and  C16_20 
REMARK    6  A    between atoms: C16_20  and  O4_22 
ROOT
HETATM    1  C3  UNL     1      15.189  -5.164  -8.797  1.00  0.00     0.023 A 
HETATM    2  C4  UNL     1      15.398  -3.810  -8.299  1.00  0.00    -0.069 A 
HETATM    3  C5  UNL     1      15.284  -2.610  -8.841  1.00  0.00     0.004 C 
HETATM    4  C13 UNL     1      15.820  -4.341  -7.016  1.00  0.00     0.042 A 
HETATM    5  C14 UNL     1      15.166  -3.977  -5.750  1.00  0.00     0.052 C 
HETATM    6  C15 UNL     1      16.074  -2.882  -5.120  1.00  0.00     0.027 C 
HETATM    7  C18 UNL     1      15.218  -5.095  -4.706  1.00  0.00     0.020 C 
HETATM    8  C19 UNL     1      14.807  -6.423  -5.218  1.00  0.00     0.002 C 
HETATM    9  C20 UNL     1      14.474  -6.416  -6.715  1.00  0.00     0.010 C 
HETATM   10  C21 UNL     1      15.584  -5.732  -7.488  1.00  0.00    -0.028 A 
HETATM   11  C22 UNL     1      16.833  -6.612  -7.528  1.00  0.00     0.016 C 
ENDROOT
BRANCH   1  12
HETATM   12  C2  UNL     1      13.822  -5.551  -9.308  1.00  0.00     0.005 C 
HETATM   13  C1  UNL     1      14.023  -5.907 -10.792  1.00  0.00     0.006 C 
ENDBRANCH   1  12
BRANCH   3  14
HETATM   14  C6  UNL     1      14.885  -2.343 -10.202  1.00  0.00     0.003 C 
HETATM   15  C7  UNL     1      15.706  -1.698 -11.025  1.00  0.00    -0.075 C 
HETATM   16  C8  UNL     1      15.259  -1.448 -12.402  1.00  0.00     0.066 C 
HETATM   17  C12 UNL     1      17.023  -1.272 -10.495  1.00  0.00     0.066 C 
HETATM   18  C9  UNL     1      15.728  -0.130 -12.954  1.00  0.00     0.124 C 
HETATM   19  C10 UNL     1      16.807   0.513 -12.133  1.00  0.00     0.064 C 
HETATM   20  C11 UNL     1      17.745  -0.537 -11.605  1.00  0.00     0.124 C 
BRANCH  18  21
HETATM   21  O1  UNL     1      14.621   0.750 -12.922  1.00  0.00    -0.395 OA
ATOM     22  H1  UNL     1      14.866   1.522 -13.417  1.00  0.00     0.210 HD
ENDBRANCH  18  21
BRANCH  20  23
HETATM   23  O2  UNL     1      18.907   0.068 -11.154  1.00  0.00    -0.395 OA
ATOM     24  H2  UNL     1      18.863   0.171 -10.211  1.00  0.00     0.210 HD
ENDBRANCH  20  23
ENDBRANCH   3  14
BRANCH   5  25
HETATM   25  C16 UNL     1      13.831  -3.415  -5.771  1.00  0.00     0.267 C 
HETATM   26  O3  UNL     1      12.728  -3.991  -5.829  1.00  0.00    -0.264 OA
BRANCH  25  27
HETATM   27  O4  UNL     1      13.748  -2.005  -5.721  1.00  0.00    -0.326 OA
HETATM   28  C17 UNL     1      12.698  -1.344  -5.080  1.00  0.00     0.213 C 
ENDBRANCH  25  27
ENDBRANCH   5  25
TORSDOF 6
ENDMDL
MODEL 4
REMARK VINA RESULT: -6.573778428      1.193      1.345
REMARK  6 active torsions:
REMARK  status: ('A' for Active; 'I' for Inactive)
REMARK    1  A    between atoms: C2_2  and  C3_3 
REMARK    2  A    between atoms: C5_5  and  C6_6 
REMARK    3  A    between atoms: C9_9  and  O1_10 
REMARK    4  A    between atoms: C11_13  and  O2_14 
REMARK    5  A    between atoms: C14_18  and  C16_20 
REMARK    6  A    between atoms: C16_20  and  O4_22 
ROOT
HETATM    1  C3  UNL     1      16.711  -7.575  -6.992  1.00  0.00     0.023 A 
HETATM    2  C4  UNL     1      15.975  -6.353  -7.295  1.00  0.00    -0.069 A 
HETATM    3  C5  UNL     1      14.883  -6.094  -7.991  1.00  0.00     0.004 C 
HETATM    4  C13 UNL     1      16.962  -5.574  -6.569  1.00  0.00     0.042 A 
HETATM    5  C14 UNL     1      16.610  -4.698  -5.441  1.00  0.00     0.052 C 
HETATM    6  C15 UNL     1      16.538  -3.265  -6.042  1.00  0.00     0.027 C 
HETATM    7  C18 UNL     1      17.733  -4.571  -4.408  1.00  0.00     0.020 C 
HETATM    8  C19 UNL     1      18.319  -5.865  -3.987  1.00  0.00     0.002 C 
HETATM    9  C20 UNL     1      17.719  -7.067  -4.724  1.00  0.00     0.010 C 
HETATM   10  C21 UNL     1      17.713  -6.808  -6.218  1.00  0.00    -0.028 A 
HETATM   11  C22 UNL     1      19.134  -6.871  -6.780  1.00  0.00     0.016 C 
ENDROOT
BRANCH   1  12
HETATM   12  C2  UNL     1      16.006  -8.688  -6.254  1.00  0.00     0.005 C 
HETATM   13  C1  UNL     1      16.736  -9.980  -6.661  1.00  0.00     0.006 C 
ENDBRANCH   1  12
BRANCH   3  14
HETATM   14  C6  UNL     1      14.085  -7.074  -8.689  1.00  0.00     0.003 C 
HETATM   15  C7  UNL     1      13.693  -6.850  -9.939  1.00  0.00    -0.075 C 
HETATM   16  C8  UNL     1      12.883  -7.875 -10.610  1.00  0.00     0.066 C 
HETATM   17  C12 UNL     1      14.100  -5.573 -10.573  1.00  0.00     0.066 C 
HETATM   18  C9  UNL     1      11.840  -7.305 -11.532  1.00  0.00     0.124 C 
HETATM   19  C10 UNL     1      12.037  -5.848 -11.833  1.00  0.00     0.064 C 
HETATM   20  C11 UNL     1      13.505  -5.545 -11.965  1.00  0.00     0.124 C 
BRANCH  18  21
HETATM   21  O1  UNL     1      10.596  -7.412 -10.867  1.00  0.00    -0.395 OA
ATOM     22  H1  UNL     1       9.942  -7.600 -11.529  1.00  0.00     0.210 HD
ENDBRANCH  18  21
BRANCH  20  23
HETATM   23  O2  UNL     1      13.667  -4.312 -12.573  1.00  0.00    -0.395 OA
ATOM     24  H2  UNL     1      14.331  -3.816 -12.108  1.00  0.00     0.210 HD
ENDBRANCH  20  23
ENDBRANCH   3  14
BRANCH   5  25
HETATM   25  C16 UNL     1      15.354  -4.896  -4.747  1.00  0.00     0.267 C 
HETATM   26  O3  UNL     1      14.992  -5.834  -4.011  1.00  0.00    -0.264 OA
BRANCH  25  27
HETATM   27  O4  UNL     1      14.381  -3.886  -4.920  1.00  0.00    -0.326 OA
HETATM   28  C17 UNL     1      13.015  -4.171  -4.982  1.00  0.00     0.213 C 
ENDBRANCH  25  27
ENDBRANCH   5  25
TORSDOF 6
ENDMDL
MODEL 5
REMARK VINA RESULT: -6.520369636      1.427      2.377
REMARK  6 active torsions:
REMARK  status: ('A' for Active; 'I' for Inactive)
REMARK    1  A    between atoms: C2_2  and  C3_3 
REMARK    2  A    between atoms: C5_5  and  C6_6 
REMARK    3  A    between atoms: C9_9  and  O1_10 
REMARK    4  A    between atoms: C11_13  and  O2_14 
REMARK    5  A    between atoms: C14_18  and  C16_20 
REMARK    6  A    between atoms: C16_20  and  O4_22 
ROOT
HETATM    1  C3  UNL     1      16.548  -5.851  -6.625  1.00  0.00     0.023 A 
HETATM    2  C4  UNL     1      15.091  -5.890  -6.634  1.00  0.00    -0.069 A 
HETATM    3  C5  UNL     1      14.201  -6.614  -7.291  1.00  0.00     0.004 C 
HETATM    4  C13 UNL     1      15.050  -4.794  -5.685  1.00  0.00     0.042 A 
HETATM    5  C14 UNL     1      14.367  -4.892  -4.385  1.00  0.00     0.052 C 
HETATM    6  C15 UNL     1      12.987  -4.205  -4.595  1.00  0.00     0.027 C 
HETATM    7  C18 UNL     1      15.011  -4.023  -3.302  1.00  0.00     0.020 C 
HETATM    8  C19 UNL     1      16.482  -4.167  -3.204  1.00  0.00     0.002 C 
HETATM    9  C20 UNL     1      17.067  -5.115  -4.258  1.00  0.00     0.010 C 
HETATM   10  C21 UNL     1      16.536  -4.754  -5.631  1.00  0.00    -0.028 A 
HETATM   11  C22 UNL     1      17.156  -3.445  -6.120  1.00  0.00     0.016 C 
ENDROOT
BRANCH   1  12
HETATM   12  C2  UNL     1      17.310  -7.095  -6.238  1.00  0.00     0.005 C 
HETATM   13  C1  UNL     1      18.628  -7.035  -7.027  1.00  0.00     0.006 C 
ENDBRANCH   1  12
BRANCH   3  14
HETATM   14  C6  UNL     1      14.510  -7.640  -8.258  1.00  0.00     0.003 C 
HETATM   15  C7  UNL     1      14.045  -7.550  -9.500  1.00  0.00    -0.075 C 
HETATM   16  C8  UNL     1      14.384  -8.618 -10.450  1.00  0.00     0.066 C 
HETATM   17  C12 UNL     1      13.212  -6.374  -9.843  1.00  0.00     0.066 C 
HETATM   18  C9  UNL     1      13.277  -8.931 -11.419  1.00  0.00     0.124 C 
HETATM   19  C10 UNL     1      12.190  -7.897 -11.441  1.00  0.00     0.064 C 
HETATM   20  C11 UNL     1      12.784  -6.524 -11.288  1.00  0.00     0.124 C 
BRANCH  18  21
HETATM   21  O1  UNL     1      12.676 -10.136 -10.986  1.00  0.00    -0.395 OA
ATOM     22  H1  UNL     1      13.306 -10.830 -11.136  1.00  0.00     0.210 HD
ENDBRANCH  18  21
BRANCH  20  23
HETATM   23  O2  UNL     1      11.845  -5.573 -11.652  1.00  0.00    -0.395 OA
ATOM     24  H2  UNL     1      11.991  -5.314 -12.554  1.00  0.00     0.210 HD
ENDBRANCH  20  23
ENDBRANCH   3  14
BRANCH   5  25
HETATM   25  C16 UNL     1      14.075  -6.197  -3.828  1.00  0.00     0.267 C 
HETATM   26  O3  UNL     1      12.975  -6.720  -3.564  1.00  0.00    -0.264 OA
BRANCH  25  27
HETATM   27  O4  UNL     1      15.190  -7.012  -3.532  1.00  0.00    -0.326 OA
HETATM   28  C17 UNL     1      15.117  -8.407  -3.547  1.00  0.00     0.213 C 
ENDBRANCH  25  27
ENDBRANCH   5  25
TORSDOF 6
ENDMDL
