MODEL 1
REMARK VINA RESULT: -7.134019217      0.000      0.000
REMARK  14 active torsions:
REMARK  status: ('A' for Active; 'I' for Inactive)
REMARK    1  A    between atoms: N1_1  and  C1_5 
REMARK    2  A    between atoms: C1_5  and  C2_6 
REMARK    3  A    between atoms: C2_6  and  O1_7 
REMARK    4  A    between atoms: O1_7  and  C3_8 
REMARK    5  A    between atoms: C3_8  and  C4_9 
REMARK    6  A    between atoms: C4_9  and  N2_10 
REMARK    7  A    between atoms: C6_16  and  N5_17 
REMARK    8  A    between atoms: C11_26  and  C12_27 
REMARK    9  A    between atoms: C12_27  and  N8_28 
REMARK   10  A    between atoms: N8_28  and  C13_30 
REMARK   11  A    between atoms: C16_33  and  P1_34 
REMARK   12  A    between atoms: P1_34  and  O3_35 
REMARK   13  A    between atoms: P1_34  and  O4_37 
REMARK   14  A    between atoms: O4_37  and  O5_38 
ROOT
HETATM    1  C3  UNL     1      13.385 -29.996  15.325  1.00  0.00     0.090 C 
HETATM    2  C8  UNL     1      12.795 -30.903  16.375  1.00  0.00     0.067 C 
HETATM    3  C9  UNL     1      13.785 -31.697  17.151  1.00  0.00     0.170 C 
HETATM    4  O2  UNL     1      14.842 -32.212  16.397  1.00  0.00    -0.390 OA
HETATM    5  C10 UNL     1      15.538 -31.199  15.750  1.00  0.00     0.180 C 
HETATM    6  C11 UNL     1      14.558 -30.653  14.704  1.00  0.00     0.084 C 
ENDROOT
BRANCH   1   7
HETATM    7  O1  UNL     1      12.396 -29.805  14.344  1.00  0.00    -0.376 OA
BRANCH   7   8
HETATM    8  C2  UNL     1      11.135 -30.153  14.723  1.00  0.00     0.196 C 
BRANCH   8   9
HETATM    9  C1  UNL     1      10.110 -29.085  14.318  1.00  0.00     0.255 C 
BRANCH   9  10
HETATM   10  N1  UNL     1       9.932 -28.983  12.932  1.00  0.00    -0.077 N 
ATOM     11  H13 UNL     1      10.732 -28.524  12.496  1.00  0.00     0.274 HD
ATOM     12  H12 UNL     1      10.002 -29.899  12.490  1.00  0.00     0.274 HD
ATOM     13  H11 UNL     1       9.062 -28.520  12.669  1.00  0.00     0.274 HD
ENDBRANCH   9  10
ENDBRANCH   8   9
ENDBRANCH   7   8
ENDBRANCH   1   7
BRANCH   1  14
HETATM   14  C4  UNL     1      13.747 -28.690  15.980  1.00  0.00     0.187 C 
BRANCH  14  15
HETATM   15  N2  UNL     1      14.637 -27.823  15.307  1.00  0.00    -0.174 N 
HETATM   16  C5  UNL     1      15.972 -27.579  15.463  1.00  0.00     0.218 A 
HETATM   17  N3  UNL     1      16.427 -26.702  14.560  1.00  0.00    -0.281 N 
HETATM   18  N4  UNL     1      15.429 -26.363  13.818  1.00  0.00    -0.131 N 
ATOM     19  H3  UNL     1      17.386 -26.365  14.475  1.00  0.00     0.188 HD
HETATM   20  C6  UNL     1      14.322 -27.015  14.233  1.00  0.00     0.702 A 
ATOM     21  H4  UNL     1      15.469 -25.704  13.040  1.00  0.00     0.205 HD
BRANCH  20  22
HETATM   22  N5  UNL     1      13.032 -26.835  13.678  1.00  0.00    -0.164 N 
HETATM   23  C7  UNL     1      12.811 -26.913  12.429  1.00  0.00     0.215 C 
HETATM   24  N6  UNL     1      13.856 -27.190  11.525  1.00  0.00    -0.066 NA
HETATM   25  N7  UNL     1      11.481 -26.722  11.909  1.00  0.00    -0.066 NA
ATOM     26  H5  UNL     1      12.251 -26.634  14.304  1.00  0.00     0.186 HD
ENDBRANCH  20  22
ENDBRANCH  14  15
ENDBRANCH   1  14
BRANCH   6  27
HETATM   27  C12 UNL     1      14.370 -31.642  13.652  1.00  0.00     0.071 C 
BRANCH  27  28
HETATM   28  N8  UNL     1      13.885 -31.320  12.365  1.00  0.00    -0.369 N 
ATOM     29  H8  UNL     1      14.132 -30.425  11.943  1.00  0.00     0.165 HD
BRANCH  28  30
HETATM   30  C13 UNL     1      13.033 -32.255  11.631  1.00  0.00     0.031 A 
HETATM   31  C14 UNL     1      12.595 -33.375  12.289  1.00  0.00     0.030 A 
HETATM   32  C15 UNL     1      11.791 -34.264  11.596  1.00  0.00     0.019 A 
HETATM   33  C16 UNL     1      11.442 -34.027  10.283  1.00  0.00     0.025 A 
HETATM   34  C17 UNL     1      11.898 -32.889   9.646  1.00  0.00     0.019 A 
HETATM   35  C18 UNL     1      12.691 -32.020  10.338  1.00  0.00     0.030 A 
BRANCH  33  36
HETATM   36  P1  UNL     1      10.382 -35.200   9.373  1.00  0.00     0.239 P 
BRANCH  36  37
HETATM   37  O3  UNL     1       9.245 -35.927  10.495  1.00  0.00    -0.344 OA
ATOM     38  H3  UNL     1       8.766 -36.613  10.045  1.00  0.00     0.217 HD
ENDBRANCH  36  37
BRANCH  36  39
HETATM   39  O4  UNL     1      11.285 -36.401   8.552  1.00  0.00    -0.181 OA
BRANCH  39  40
HETATM   40  O5  UNL     1      12.218 -35.903   7.772  1.00  0.00    -0.244 OA
ATOM     41  H5  UNL     1      12.707 -36.570   7.303  1.00  0.00     0.254 HD
ENDBRANCH  39  40
ENDBRANCH  36  39
ENDBRANCH  33  36
ENDBRANCH  28  30
ENDBRANCH  27  28
ENDBRANCH   6  27
TORSDOF 14
ENDMDL
MODEL 2
REMARK VINA RESULT: -7.078045280      3.141      5.292
REMARK  14 active torsions:
REMARK  status: ('A' for Active; 'I' for Inactive)
REMARK    1  A    between atoms: N1_1  and  C1_5 
REMARK    2  A    between atoms: C1_5  and  C2_6 
REMARK    3  A    between atoms: C2_6  and  O1_7 
REMARK    4  A    between atoms: O1_7  and  C3_8 
REMARK    5  A    between atoms: C3_8  and  C4_9 
REMARK    6  A    between atoms: C4_9  and  N2_10 
REMARK    7  A    between atoms: C6_16  and  N5_17 
REMARK    8  A    between atoms: C11_26  and  C12_27 
REMARK    9  A    between atoms: C12_27  and  N8_28 
REMARK   10  A    between atoms: N8_28  and  C13_30 
REMARK   11  A    between atoms: C16_33  and  P1_34 
REMARK   12  A    between atoms: P1_34  and  O3_35 
REMARK   13  A    between atoms: P1_34  and  O4_37 
REMARK   14  A    between atoms: O4_37  and  O5_38 
ROOT
HETATM    1  C3  UNL     1      11.484 -31.532  12.564  1.00  0.00     0.090 C 
HETATM    2  C8  UNL     1      10.228 -31.984  11.862  1.00  0.00     0.067 C 
HETATM    3  C9  UNL     1      10.291 -33.349  11.277  1.00  0.00     0.170 C 
HETATM    4  O2  UNL     1      11.504 -33.667  10.661  1.00  0.00    -0.390 OA
HETATM    5  C10 UNL     1      12.565 -33.549  11.549  1.00  0.00     0.180 C 
HETATM    6  C11 UNL     1      12.669 -32.047  11.839  1.00  0.00     0.084 C 
ENDROOT
BRANCH   1   7
HETATM    7  O1  UNL     1      11.496 -30.127  12.519  1.00  0.00    -0.376 OA
BRANCH   7   8
HETATM    8  C2  UNL     1      10.347 -29.527  12.940  1.00  0.00     0.196 C 
BRANCH   8   9
HETATM    9  C1  UNL     1      10.581 -28.053  13.301  1.00  0.00     0.255 C 
BRANCH   9  10
HETATM   10  N1  UNL     1       9.518 -27.481  14.013  1.00  0.00    -0.077 N 
ATOM     11  H13 UNL     1       8.826 -28.188  14.261  1.00  0.00     0.274 HD
ATOM     12  H12 UNL     1       9.817 -27.202  14.947  1.00  0.00     0.274 HD
ATOM     13  H11 UNL     1       9.080 -26.699  13.525  1.00  0.00     0.274 HD
ENDBRANCH   9  10
ENDBRANCH   8   9
ENDBRANCH   7   8
ENDBRANCH   1   7
BRANCH   1  14
HETATM   14  C4  UNL     1      11.432 -32.020  13.987  1.00  0.00     0.187 C 
BRANCH  14  15
HETATM   15  N2  UNL     1      12.476 -31.651  14.864  1.00  0.00    -0.174 N 
HETATM   16  C5  UNL     1      12.773 -30.475  15.492  1.00  0.00     0.218 A 
HETATM   17  N3  UNL     1      13.845 -30.591  16.284  1.00  0.00    -0.281 N 
HETATM   18  N4  UNL     1      14.261 -31.807  16.193  1.00  0.00    -0.131 N 
ATOM     19  H3  UNL     1      14.257 -29.852  16.856  1.00  0.00     0.188 HD
HETATM   20  C6  UNL     1      13.464 -32.488  15.342  1.00  0.00     0.702 A 
ATOM     21  H4  UNL     1      15.066 -32.194  16.685  1.00  0.00     0.205 HD
BRANCH  20  22
HETATM   22  N5  UNL     1      13.666 -33.837  14.963  1.00  0.00    -0.164 N 
HETATM   23  C7  UNL     1      14.609 -34.191  14.186  1.00  0.00     0.215 C 
HETATM   24  N6  UNL     1      15.509 -33.243  13.661  1.00  0.00    -0.066 NA
HETATM   25  N7  UNL     1      14.777 -35.576  13.827  1.00  0.00    -0.066 NA
ATOM     26  H5  UNL     1      13.034 -34.551  15.325  1.00  0.00     0.186 HD
ENDBRANCH  20  22
ENDBRANCH  14  15
ENDBRANCH   1  14
BRANCH   6  27
HETATM   27  C12 UNL     1      13.159 -31.355  10.655  1.00  0.00     0.071 C 
BRANCH  27  28
HETATM   28  N8  UNL     1      12.551 -31.467   9.386  1.00  0.00    -0.369 N 
ATOM     29  H8  UNL     1      11.626 -31.064   9.234  1.00  0.00     0.165 HD
BRANCH  28  30
HETATM   30  C13 UNL     1      13.231 -32.153   8.288  1.00  0.00     0.031 A 
HETATM   31  C14 UNL     1      12.587 -33.208   7.696  1.00  0.00     0.030 A 
HETATM   32  C15 UNL     1      13.230 -33.862   6.658  1.00  0.00     0.019 A 
HETATM   33  C16 UNL     1      14.479 -33.462   6.234  1.00  0.00     0.025 A 
HETATM   34  C17 UNL     1      15.104 -32.393   6.849  1.00  0.00     0.019 A 
HETATM   35  C18 UNL     1      14.462 -31.756   7.872  1.00  0.00     0.030 A 
BRANCH  33  36
HETATM   36  P1  UNL     1      15.322 -34.325   4.866  1.00  0.00     0.239 P 
BRANCH  36  37
HETATM   37  O3  UNL     1      14.123 -34.837   3.692  1.00  0.00    -0.344 OA
ATOM     38  H3  UNL     1      13.378 -35.203   4.153  1.00  0.00     0.217 HD
ENDBRANCH  36  37
BRANCH  36  39
HETATM   39  O4  UNL     1      16.258 -35.653   5.405  1.00  0.00    -0.181 OA
BRANCH  39  40
HETATM   40  O5  UNL     1      15.633 -36.401   6.288  1.00  0.00    -0.244 OA
ATOM     41  H5  UNL     1      15.791 -37.330   6.168  1.00  0.00     0.254 HD
ENDBRANCH  39  40
ENDBRANCH  36  39
ENDBRANCH  33  36
ENDBRANCH  28  30
ENDBRANCH  27  28
ENDBRANCH   6  27
TORSDOF 14
ENDMDL
MODEL 3
REMARK VINA RESULT: -7.062363854      4.606      7.032
REMARK  14 active torsions:
REMARK  status: ('A' for Active; 'I' for Inactive)
REMARK    1  A    between atoms: N1_1  and  C1_5 
REMARK    2  A    between atoms: C1_5  and  C2_6 
REMARK    3  A    between atoms: C2_6  and  O1_7 
REMARK    4  A    between atoms: O1_7  and  C3_8 
REMARK    5  A    between atoms: C3_8  and  C4_9 
REMARK    6  A    between atoms: C4_9  and  N2_10 
REMARK    7  A    between atoms: C6_16  and  N5_17 
REMARK    8  A    between atoms: C11_26  and  C12_27 
REMARK    9  A    between atoms: C12_27  and  N8_28 
REMARK   10  A    between atoms: N8_28  and  C13_30 
REMARK   11  A    between atoms: C16_33  and  P1_34 
REMARK   12  A    between atoms: P1_34  and  O3_35 
REMARK   13  A    between atoms: P1_34  and  O4_37 
REMARK   14  A    between atoms: O4_37  and  O5_38 
ROOT
HETATM    1  C3  UNL     1      14.280 -30.433  13.152  1.00  0.00     0.090 C 
HETATM    2  C8  UNL     1      13.551 -29.122  13.311  1.00  0.00     0.067 C 
HETATM    3  C9  UNL     1      13.790 -28.133  12.226  1.00  0.00     0.170 C 
HETATM    4  O2  UNL     1      15.110 -28.068  11.774  1.00  0.00    -0.390 OA
HETATM    5  C10 UNL     1      15.545 -29.303  11.312  1.00  0.00     0.180 C 
HETATM    6  C11 UNL     1      15.616 -30.188  12.562  1.00  0.00     0.084 C 
ENDROOT
BRANCH   1   7
HETATM    7  O1  UNL     1      14.441 -30.971  14.441  1.00  0.00    -0.376 OA
BRANCH   7   8
HETATM    8  C2  UNL     1      13.893 -30.232  15.446  1.00  0.00     0.196 C 
BRANCH   8   9
HETATM    9  C1  UNL     1      13.197 -31.124  16.485  1.00  0.00     0.255 C 
BRANCH   9  10
HETATM   10  N1  UNL     1      14.061 -32.038  17.101  1.00  0.00    -0.077 N 
ATOM     11  H13 UNL     1      14.569 -32.584  16.403  1.00  0.00     0.274 HD
ATOM     12  H12 UNL     1      14.845 -31.556  17.540  1.00  0.00     0.274 HD
ATOM     13  H11 UNL     1      13.593 -32.650  17.769  1.00  0.00     0.274 HD
ENDBRANCH   9  10
ENDBRANCH   8   9
ENDBRANCH   7   8
ENDBRANCH   1   7
BRANCH   1  14
HETATM   14  C4  UNL     1      13.438 -31.340  12.297  1.00  0.00     0.187 C 
BRANCH  14  15
HETATM   15  N2  UNL     1      12.439 -32.119  12.922  1.00  0.00    -0.174 N 
HETATM   16  C5  UNL     1      11.201 -31.805  13.405  1.00  0.00     0.218 A 
HETATM   17  N3  UNL     1      10.563 -32.883  13.878  1.00  0.00    -0.281 N 
HETATM   18  N4  UNL     1      11.347 -33.894  13.720  1.00  0.00    -0.131 N 
ATOM     19  H3  UNL     1       9.628 -32.901  14.287  1.00  0.00     0.188 HD
HETATM   20  C6  UNL     1      12.497 -33.480  13.146  1.00  0.00     0.702 A 
ATOM     21  H4  UNL     1      11.133 -34.855  13.988  1.00  0.00     0.205 HD
BRANCH  20  22
HETATM   22  N5  UNL     1      13.606 -34.320  12.881  1.00  0.00    -0.164 N 
HETATM   23  C7  UNL     1      14.384 -34.729  13.800  1.00  0.00     0.215 C 
HETATM   24  N6  UNL     1      14.174 -34.361  15.144  1.00  0.00    -0.066 NA
HETATM   25  N7  UNL     1      15.501 -35.583  13.484  1.00  0.00    -0.066 NA
ATOM     26  H5  UNL     1      13.787 -34.607  11.919  1.00  0.00     0.186 HD
ENDBRANCH  20  22
ENDBRANCH  14  15
ENDBRANCH   1  14
BRANCH   6  27
HETATM   27  C12 UNL     1      16.719 -29.751  13.406  1.00  0.00     0.071 C 
BRANCH  27  28
HETATM   28  N8  UNL     1      17.455 -30.626  14.234  1.00  0.00    -0.369 N 
ATOM     29  H8  UNL     1      17.391 -30.534  15.248  1.00  0.00     0.165 HD
BRANCH  28  30
HETATM   30  C13 UNL     1      18.310 -31.661  13.654  1.00  0.00     0.031 A 
HETATM   31  C14 UNL     1      19.661 -31.432  13.619  1.00  0.00     0.030 A 
HETATM   32  C15 UNL     1      20.473 -32.409  13.069  1.00  0.00     0.019 A 
HETATM   33  C16 UNL     1      19.937 -33.578  12.572  1.00  0.00     0.025 A 
HETATM   34  C17 UNL     1      18.571 -33.783  12.622  1.00  0.00     0.019 A 
HETATM   35  C18 UNL     1      17.779 -32.812  13.166  1.00  0.00     0.030 A 
BRANCH  33  36
HETATM   36  P1  UNL     1      21.009 -34.863  11.848  1.00  0.00     0.239 P 
BRANCH  36  37
HETATM   37  O3  UNL     1      22.120 -34.107  10.719  1.00  0.00    -0.344 OA
ATOM     38  H3  UNL     1      22.128 -34.609   9.913  1.00  0.00     0.217 HD
ENDBRANCH  36  37
BRANCH  36  39
HETATM   39  O4  UNL     1      20.118 -36.110  11.085  1.00  0.00    -0.181 OA
BRANCH  39  40
HETATM   40  O5  UNL     1      19.925 -37.155  11.860  1.00  0.00    -0.244 OA
ATOM     41  H5  UNL     1      19.119 -37.620  11.666  1.00  0.00     0.254 HD
ENDBRANCH  39  40
ENDBRANCH  36  39
ENDBRANCH  33  36
ENDBRANCH  28  30
ENDBRANCH  27  28
ENDBRANCH   6  27
TORSDOF 14
ENDMDL
MODEL 4
REMARK VINA RESULT: -7.054760593      2.423      3.879
REMARK  14 active torsions:
REMARK  status: ('A' for Active; 'I' for Inactive)
REMARK    1  A    between atoms: N1_1  and  C1_5 
REMARK    2  A    between atoms: C1_5  and  C2_6 
REMARK    3  A    between atoms: C2_6  and  O1_7 
REMARK    4  A    between atoms: O1_7  and  C3_8 
REMARK    5  A    between atoms: C3_8  and  C4_9 
REMARK    6  A    between atoms: C4_9  and  N2_10 
REMARK    7  A    between atoms: C6_16  and  N5_17 
REMARK    8  A    between atoms: C11_26  and  C12_27 
REMARK    9  A    between atoms: C12_27  and  N8_28 
REMARK   10  A    between atoms: N8_28  and  C13_30 
REMARK   11  A    between atoms: C16_33  and  P1_34 
REMARK   12  A    between atoms: P1_34  and  O3_35 
REMARK   13  A    between atoms: P1_34  and  O4_37 
REMARK   14  A    between atoms: O4_37  and  O5_38 
ROOT
HETATM    1  C3  UNL     1      15.108 -31.014  13.792  1.00  0.00     0.090 C 
HETATM    2  C8  UNL     1      16.348 -31.537  13.112  1.00  0.00     0.067 C 
HETATM    3  C9  UNL     1      17.293 -30.493  12.635  1.00  0.00     0.170 C 
HETATM    4  O2  UNL     1      16.686 -29.373  12.061  1.00  0.00    -0.390 OA
HETATM    5  C10 UNL     1      15.811 -28.764  12.949  1.00  0.00     0.180 C 
HETATM    6  C11 UNL     1      14.665 -29.768  13.124  1.00  0.00     0.084 C 
ENDROOT
BRANCH   1   7
HETATM    7  O1  UNL     1      14.111 -31.993  13.639  1.00  0.00    -0.376 OA
BRANCH   7   8
HETATM    8  C2  UNL     1      14.570 -33.238  13.328  1.00  0.00     0.196 C 
BRANCH   8   9
HETATM    9  C1  UNL     1      13.747 -34.331  14.022  1.00  0.00     0.255 C 
BRANCH   9  10
HETATM   10  N1  UNL     1      12.481 -33.895  14.437  1.00  0.00    -0.077 N 
ATOM     11  H13 UNL     1      12.194 -34.374  15.291  1.00  0.00     0.274 HD
ATOM     12  H12 UNL     1      12.526 -32.938  14.788  1.00  0.00     0.274 HD
ATOM     13  H11 UNL     1      11.767 -33.983  13.715  1.00  0.00     0.274 HD
ENDBRANCH   9  10
ENDBRANCH   8   9
ENDBRANCH   7   8
ENDBRANCH   1   7
BRANCH   1  14
HETATM   14  C4  UNL     1      15.423 -30.796  15.247  1.00  0.00     0.187 C 
BRANCH  14  15
HETATM   15  N2  UNL     1      14.526 -31.305  16.214  1.00  0.00    -0.174 N 
HETATM   16  C5  UNL     1      14.599 -32.379  17.055  1.00  0.00     0.218 A 
HETATM   17  N3  UNL     1      13.526 -32.460  17.851  1.00  0.00    -0.281 N 
HETATM   18  N4  UNL     1      12.752 -31.473  17.555  1.00  0.00    -0.131 N 
ATOM     19  H3  UNL     1      13.353 -33.172  18.562  1.00  0.00     0.188 HD
HETATM   20  C6  UNL     1      13.315 -30.746  16.567  1.00  0.00     0.702 A 
ATOM     21  H4  UNL     1      11.854 -31.273  17.997  1.00  0.00     0.205 HD
BRANCH  20  22
HETATM   22  N5  UNL     1      12.709 -29.621  15.956  1.00  0.00    -0.164 N 
HETATM   23  C7  UNL     1      11.704 -29.725  15.185  1.00  0.00     0.215 C 
HETATM   24  N6  UNL     1      11.138 -30.984  14.900  1.00  0.00    -0.066 NA
HETATM   25  N7  UNL     1      11.119 -28.553  14.585  1.00  0.00    -0.066 NA
ATOM     26  H5  UNL     1      13.092 -28.694  16.142  1.00  0.00     0.186 HD
ENDBRANCH  20  22
ENDBRANCH  14  15
ENDBRANCH   1  14
BRANCH   6  27
HETATM   27  C12 UNL     1      13.886 -29.835  11.896  1.00  0.00     0.071 C 
BRANCH  27  28
HETATM   28  N8  UNL     1      12.505 -30.128  11.869  1.00  0.00    -0.369 N 
ATOM     29  H8  UNL     1      11.846 -29.488  12.312  1.00  0.00     0.165 HD
BRANCH  28  30
HETATM   30  C13 UNL     1      12.009 -31.338  11.214  1.00  0.00     0.031 A 
HETATM   31  C14 UNL     1      10.905 -31.949  11.748  1.00  0.00     0.030 A 
HETATM   32  C15 UNL     1      10.434 -33.097  11.133  1.00  0.00     0.019 A 
HETATM   33  C16 UNL     1      11.060 -33.608  10.015  1.00  0.00     0.025 A 
HETATM   34  C17 UNL     1      12.171 -32.970   9.498  1.00  0.00     0.019 A 
HETATM   35  C18 UNL     1      12.627 -31.839  10.113  1.00  0.00     0.030 A 
BRANCH  33  36
HETATM   36  P1  UNL     1      10.438 -35.120   9.207  1.00  0.00     0.239 P 
BRANCH  36  37
HETATM   37  O3  UNL     1       9.711 -36.157  10.422  1.00  0.00    -0.344 OA
ATOM     38  H3  UNL     1       8.956 -36.590  10.044  1.00  0.00     0.217 HD
ENDBRANCH  36  37
BRANCH  36  39
HETATM   39  O4  UNL     1      11.658 -35.953   8.343  1.00  0.00    -0.181 OA
BRANCH  39  40
HETATM   40  O5  UNL     1      12.075 -35.302   7.279  1.00  0.00    -0.244 OA
ATOM     41  H5  UNL     1      11.562 -35.491   6.501  1.00  0.00     0.254 HD
ENDBRANCH  39  40
ENDBRANCH  36  39
ENDBRANCH  33  36
ENDBRANCH  28  30
ENDBRANCH  27  28
ENDBRANCH   6  27
TORSDOF 14
ENDMDL
MODEL 5
REMARK VINA RESULT: -6.984105360      1.361      1.574
REMARK  14 active torsions:
REMARK  status: ('A' for Active; 'I' for Inactive)
REMARK    1  A    between atoms: N1_1  and  C1_5 
REMARK    2  A    between atoms: C1_5  and  C2_6 
REMARK    3  A    between atoms: C2_6  and  O1_7 
REMARK    4  A    between atoms: O1_7  and  C3_8 
REMARK    5  A    between atoms: C3_8  and  C4_9 
REMARK    6  A    between atoms: C4_9  and  N2_10 
REMARK    7  A    between atoms: C6_16  and  N5_17 
REMARK    8  A    between atoms: C11_26  and  C12_27 
REMARK    9  A    between atoms: C12_27  and  N8_28 
REMARK   10  A    between atoms: N8_28  and  C13_30 
REMARK   11  A    between atoms: C16_33  and  P1_34 
REMARK   12  A    between atoms: P1_34  and  O3_35 
REMARK   13  A    between atoms: P1_34  and  O4_37 
REMARK   14  A    between atoms: O4_37  and  O5_38 
ROOT
HETATM    1  C3  UNL     1      14.107 -29.305  14.680  1.00  0.00     0.090 C 
HETATM    2  C8  UNL     1      14.509 -30.441  15.587  1.00  0.00     0.067 C 
HETATM    3  C9  UNL     1      15.957 -30.780  15.568  1.00  0.00     0.170 C 
HETATM    4  O2  UNL     1      16.550 -30.745  14.303  1.00  0.00    -0.390 OA
HETATM    5  C10 UNL     1      16.410 -29.495  13.716  1.00  0.00     0.180 C 
HETATM    6  C11 UNL     1      14.908 -29.358  13.435  1.00  0.00     0.084 C 
ENDROOT
BRANCH   1   7
HETATM    7  O1  UNL     1      12.752 -29.497  14.359  1.00  0.00    -0.376 OA
BRANCH   7   8
HETATM    8  C2  UNL     1      11.970 -29.917  15.392  1.00  0.00     0.196 C 
BRANCH   8   9
HETATM    9  C1  UNL     1      10.512 -30.113  14.951  1.00  0.00     0.255 C 
BRANCH   9  10
HETATM   10  N1  UNL     1       9.712 -28.982  15.160  1.00  0.00    -0.077 N 
ATOM     11  H13 UNL     1       8.893 -29.000  14.552  1.00  0.00     0.274 HD
ATOM     12  H12 UNL     1       9.249 -29.030  16.068  1.00  0.00     0.274 HD
ATOM     13  H11 UNL     1      10.220 -28.104  15.059  1.00  0.00     0.274 HD
ENDBRANCH   9  10
ENDBRANCH   8   9
ENDBRANCH   7   8
ENDBRANCH   1   7
BRANCH   1  14
HETATM   14  C4  UNL     1      14.302 -28.013  15.426  1.00  0.00     0.187 C 
BRANCH  14  15
HETATM   15  N2  UNL     1      14.461 -26.823  14.682  1.00  0.00    -0.174 N 
HETATM   16  C5  UNL     1      15.526 -25.985  14.510  1.00  0.00     0.218 A 
HETATM   17  N3  UNL     1      15.243 -24.987  13.665  1.00  0.00    -0.281 N 
HETATM   18  N4  UNL     1      14.023 -25.144  13.279  1.00  0.00    -0.131 N 
ATOM     19  H3  UNL     1      15.876 -24.239  13.379  1.00  0.00     0.188 HD
HETATM   20  C6  UNL     1      13.507 -26.243  13.870  1.00  0.00     0.702 A 
ATOM     21  H4  UNL     1      13.526 -24.534  12.630  1.00  0.00     0.205 HD
BRANCH  20  22
HETATM   22  N5  UNL     1      12.169 -26.680  13.716  1.00  0.00    -0.164 N 
HETATM   23  C7  UNL     1      11.707 -27.078  12.600  1.00  0.00     0.215 C 
HETATM   24  N6  UNL     1      12.518 -27.104  11.449  1.00  0.00    -0.066 NA
HETATM   25  N7  UNL     1      10.338 -27.514  12.491  1.00  0.00    -0.066 NA
ATOM     26  H5  UNL     1      11.554 -26.676  14.530  1.00  0.00     0.186 HD
ENDBRANCH  20  22
ENDBRANCH  14  15
ENDBRANCH   1  14
BRANCH   6  27
HETATM   27  C12 UNL     1      14.530 -30.265  12.360  1.00  0.00     0.071 C 
BRANCH  27  28
HETATM   28  N8  UNL     1      13.341 -30.127  11.612  1.00  0.00    -0.369 N 
ATOM     29  H8  UNL     1      12.940 -29.200  11.470  1.00  0.00     0.165 HD
BRANCH  28  30
HETATM   30  C13 UNL     1      12.677 -31.297  11.039  1.00  0.00     0.031 A 
HETATM   31  C14 UNL     1      11.799 -31.988  11.832  1.00  0.00     0.030 A 
HETATM   32  C15 UNL     1      11.171 -33.099  11.294  1.00  0.00     0.019 A 
HETATM   33  C16 UNL     1      11.423 -33.495   9.997  1.00  0.00     0.025 A 
HETATM   34  C17 UNL     1      12.313 -32.778   9.220  1.00  0.00     0.019 A 
HETATM   35  C18 UNL     1      12.927 -31.685   9.761  1.00  0.00     0.030 A 
BRANCH  33  36
HETATM   36  P1  UNL     1      10.594 -34.958   9.290  1.00  0.00     0.239 P 
BRANCH  36  37
HETATM   37  O3  UNL     1       9.904 -35.907  10.596  1.00  0.00    -0.344 OA
ATOM     38  H3  UNL     1       9.795 -36.803  10.301  1.00  0.00     0.217 HD
ENDBRANCH  36  37
BRANCH  36  39
HETATM   39  O4  UNL     1      11.645 -35.911   8.332  1.00  0.00    -0.181 OA
BRANCH  39  40
HETATM   40  O5  UNL     1      12.035 -35.303   7.232  1.00  0.00    -0.244 OA
ATOM     41  H5  UNL     1      12.173 -34.371   7.350  1.00  0.00     0.254 HD
ENDBRANCH  39  40
ENDBRANCH  36  39
ENDBRANCH  33  36
ENDBRANCH  28  30
ENDBRANCH  27  28
ENDBRANCH   6  27
TORSDOF 14
ENDMDL
