MODEL 1
REMARK VINA RESULT: -7.257606523      0.000      0.000
REMARK  16 active torsions:
REMARK  status: ('A' for Active; 'I' for Inactive)
REMARK    1  A    between atoms: C2_2  and  O1_3 
REMARK    2  A    between atoms: O1_3  and  P1_4 
REMARK    3  A    between atoms: P1_4  and  O2_5 
REMARK    4  A    between atoms: P1_4  and  O3_8 
REMARK    5  A    between atoms: O2_5  and  C3_6 
REMARK    6  A    between atoms: O3_8  and  C5_9 
REMARK    7  A    between atoms: C5_9  and  C6_10 
REMARK    8  A    between atoms: C6_10  and  N1_11 
REMARK    9  A    between atoms: N1_11  and  C7_13 
REMARK   10  A    between atoms: C9_17  and  C10_18 
REMARK   11  A    between atoms: N3_19  and  N4_21 
REMARK   12  A    between atoms: C11_24  and  C13_26 
REMARK       I    between atoms: C13_26  and  N5_28 
REMARK   13  A    between atoms: N5_28  and  C14_30 
REMARK   14  A    between atoms: C14_30  and  C15_31 
REMARK   15  A    between atoms: C15_31  and  O5_32 
REMARK   16  A    between atoms: C17_35  and  C18_36 
ROOT
HETATM    1  C7  UNL     1      13.444 -31.135  12.481  1.00  0.00     0.119 C 
HETATM    2  N2  UNL     1      14.382 -32.019  12.819  1.00  0.00    -0.344 N 
ATOM      3  H2  UNL     1      14.814 -32.703  12.198  1.00  0.00     0.167 HD
HETATM    4  C8  UNL     1      14.693 -31.830  14.291  1.00  0.00     0.033 C 
HETATM    5  C9  UNL     1      15.757 -31.196  14.712  1.00  0.00     0.045 C 
HETATM    6  C11 UNL     1      13.572 -32.290  15.088  1.00  0.00     0.098 C 
HETATM    7  C12 UNL     1      12.986 -33.589  14.459  1.00  0.00     0.037 C 
HETATM    8  C16 UNL     1      12.541 -31.193  14.746  1.00  0.00     0.017 C 
HETATM    9  C17 UNL     1      12.499 -30.681  13.527  1.00  0.00     0.051 C 
ENDROOT
BRANCH   1  10
HETATM   10  N1  UNL     1      12.936 -30.991  11.150  1.00  0.00    -0.353 N 
ATOM     11  H1  UNL     1      12.971 -30.045  10.770  1.00  0.00     0.166 HD
BRANCH  10  12
HETATM   12  C6  UNL     1      12.403 -31.948  10.302  1.00  0.00     0.089 C 
BRANCH  12  13
HETATM   13  C5  UNL     1      11.380 -32.963  10.639  1.00  0.00     0.222 C 
BRANCH  13  14
HETATM   14  O3  UNL     1      10.998 -33.422   9.312  1.00  0.00    -0.312 OA
BRANCH  14  15
HETATM   15  P1  UNL     1      11.112 -35.184   9.342  1.00  0.00     0.334 P 
BRANCH  15  16
HETATM   16  O1  UNL     1      11.942 -35.460   7.648  1.00  0.00    -0.318 OA
BRANCH  16  17
HETATM   17  C2  UNL     1      12.064 -34.150   7.199  1.00  0.00     0.173 C 
HETATM   18  C1  UNL     1      13.394 -33.957   6.533  1.00  0.00     0.034 C 
ENDBRANCH  16  17
ENDBRANCH  15  16
BRANCH  15  19
HETATM   19  O2  UNL     1       9.594 -35.919   8.771  1.00  0.00    -0.318 OA
BRANCH  19  20
HETATM   20  C3  UNL     1       8.638 -35.832   9.740  1.00  0.00     0.173 C 
HETATM   21  C4  UNL     1       7.292 -36.177   9.104  1.00  0.00     0.034 C 
ENDBRANCH  19  20
ENDBRANCH  15  19
ENDBRANCH  14  15
ENDBRANCH  13  14
ENDBRANCH  12  13
ENDBRANCH  10  12
ENDBRANCH   1  10
BRANCH   9  22
HETATM   22  C18 UNL     1      11.627 -29.490  13.275  1.00  0.00     0.134 A 
HETATM   23  N6  UNL     1      12.009 -28.187  13.432  1.00  0.00    -0.336 N 
HETATM   24  C19 UNL     1      10.948 -27.379  13.158  1.00  0.00     0.199 A 
ATOM     25  H6  UNL     1      12.938 -27.872  13.710  1.00  0.00     0.168 HD
HETATM   26  N7  UNL     1       9.938 -28.199  12.826  1.00  0.00    -0.295 N 
HETATM   27  N8  UNL     1      10.376 -29.482  12.910  1.00  0.00    -0.284 N 
ATOM     28  H7  UNL     1       8.999 -27.907  12.555  1.00  0.00     0.187 HD
ATOM     29  H8  UNL     1       9.813 -30.311  12.717  1.00  0.00     0.188 HD
ENDBRANCH   9  22
BRANCH   5  30
HETATM   30  C10 UNL     1      16.771 -30.582  13.845  1.00  0.00     0.108 C 
HETATM   31  N3  UNL     1      16.675 -29.334  13.526  1.00  0.00    -0.318 N 
ATOM     32  H3  UNL     1      17.388 -28.916  12.928  1.00  0.00     0.185 HD
BRANCH  31  33
HETATM   33  N4  UNL     1      15.602 -28.532  13.986  1.00  0.00    -0.345 N 
ATOM     34  H42 UNL     1      14.651 -28.818  13.752  1.00  0.00     0.176 HD
ATOM     35  H41 UNL     1      15.764 -27.689  14.536  1.00  0.00     0.176 HD
ENDBRANCH  31  33
ENDBRANCH   5  30
BRANCH   6  36
HETATM   36  C13 UNL     1      13.691 -32.552  16.495  1.00  0.00     0.235 C 
HETATM   37  O4  UNL     1      14.463 -33.387  17.073  1.00  0.00    -0.272 OA
HETATM   38  N5  UNL     1      12.856 -31.798  17.385  1.00  0.00    -0.358 N 
ATOM     39  H5  UNL     1      12.203 -31.109  17.013  1.00  0.00     0.162 HD
BRANCH  38  40
HETATM   40  C14 UNL     1      12.946 -32.022  18.836  1.00  0.00     0.148 C 
BRANCH  40  41
HETATM   41  C15 UNL     1      12.261 -30.885  19.577  1.00  0.00     0.183 C 
BRANCH  41  42
HETATM   42  O5  UNL     1      10.881 -31.280  19.656  1.00  0.00    -0.399 OA
ATOM     43  H5  UNL     1      10.590 -30.972  20.506  1.00  0.00     0.209 HD
ENDBRANCH  41  42
ENDBRANCH  40  41
ENDBRANCH  38  40
ENDBRANCH   6  36
TORSDOF 16
ENDMDL
MODEL 2
REMARK VINA RESULT: -7.250128037      3.066      7.652
REMARK  16 active torsions:
REMARK  status: ('A' for Active; 'I' for Inactive)
REMARK    1  A    between atoms: C2_2  and  O1_3 
REMARK    2  A    between atoms: O1_3  and  P1_4 
REMARK    3  A    between atoms: P1_4  and  O2_5 
REMARK    4  A    between atoms: P1_4  and  O3_8 
REMARK    5  A    between atoms: O2_5  and  C3_6 
REMARK    6  A    between atoms: O3_8  and  C5_9 
REMARK    7  A    between atoms: C5_9  and  C6_10 
REMARK    8  A    between atoms: C6_10  and  N1_11 
REMARK    9  A    between atoms: N1_11  and  C7_13 
REMARK   10  A    between atoms: C9_17  and  C10_18 
REMARK   11  A    between atoms: N3_19  and  N4_21 
REMARK   12  A    between atoms: C11_24  and  C13_26 
REMARK       I    between atoms: C13_26  and  N5_28 
REMARK   13  A    between atoms: N5_28  and  C14_30 
REMARK   14  A    between atoms: C14_30  and  C15_31 
REMARK   15  A    between atoms: C15_31  and  O5_32 
REMARK   16  A    between atoms: C17_35  and  C18_36 
ROOT
HETATM    1  C7  UNL     1      13.228 -30.423  12.578  1.00  0.00     0.119 C 
HETATM    2  N2  UNL     1      14.040 -31.334  12.042  1.00  0.00    -0.344 N 
ATOM      3  H2  UNL     1      14.945 -31.150  11.607  1.00  0.00     0.167 HD
HETATM    4  C8  UNL     1      13.383 -32.692  12.194  1.00  0.00     0.033 C 
HETATM    5  C9  UNL     1      13.740 -33.551  13.113  1.00  0.00     0.045 C 
HETATM    6  C11 UNL     1      12.238 -32.779  11.307  1.00  0.00     0.098 C 
HETATM    7  C12 UNL     1      12.580 -32.100   9.947  1.00  0.00     0.037 C 
HETATM    8  C16 UNL     1      11.288 -31.786  12.009  1.00  0.00     0.017 C 
HETATM    9  C17 UNL     1      11.774 -30.698  12.584  1.00  0.00     0.051 C 
ENDROOT
BRANCH   1  10
HETATM   10  N1  UNL     1      13.547 -29.029  12.657  1.00  0.00    -0.353 N 
ATOM     11  H1  UNL     1      13.038 -28.428  12.010  1.00  0.00     0.166 HD
BRANCH  10  12
HETATM   12  C6  UNL     1      14.447 -28.377  13.485  1.00  0.00     0.089 C 
BRANCH  12  13
HETATM   13  C5  UNL     1      14.126 -27.423  14.569  1.00  0.00     0.222 C 
BRANCH  13  14
HETATM   14  O3  UNL     1      13.090 -28.153  15.283  1.00  0.00    -0.312 OA
BRANCH  14  15
HETATM   15  P1  UNL     1      13.894 -28.981  16.619  1.00  0.00     0.334 P 
BRANCH  15  16
HETATM   16  O1  UNL     1      12.550 -30.271  17.026  1.00  0.00    -0.318 OA
BRANCH  16  17
HETATM   17  C2  UNL     1      12.457 -30.127  18.405  1.00  0.00     0.173 C 
HETATM   18  C1  UNL     1      12.479 -31.474  19.065  1.00  0.00     0.034 C 
ENDBRANCH  16  17
ENDBRANCH  15  16
BRANCH  15  19
HETATM   19  O2  UNL     1      13.603 -28.125  18.153  1.00  0.00    -0.318 OA
BRANCH  19  20
HETATM   20  C3  UNL     1      14.472 -27.080  18.278  1.00  0.00     0.173 C 
HETATM   21  C4  UNL     1      14.046 -26.258  19.493  1.00  0.00     0.034 C 
ENDBRANCH  19  20
ENDBRANCH  15  19
ENDBRANCH  14  15
ENDBRANCH  13  14
ENDBRANCH  12  13
ENDBRANCH  10  12
ENDBRANCH   1  10
BRANCH   9  22
HETATM   22  C18 UNL     1      10.861 -29.856  13.421  1.00  0.00     0.134 A 
HETATM   23  N6  UNL     1      10.661 -30.008  14.764  1.00  0.00    -0.336 N 
HETATM   24  C19 UNL     1       9.734 -29.100  15.178  1.00  0.00     0.199 A 
ATOM     25  H6  UNL     1      11.130 -30.690  15.359  1.00  0.00     0.168 HD
HETATM   26  N7  UNL     1       9.392 -28.400  14.086  1.00  0.00    -0.295 N 
HETATM   27  N8  UNL     1      10.089 -28.883  13.024  1.00  0.00    -0.284 N 
ATOM     28  H7  UNL     1       8.720 -27.632  14.057  1.00  0.00     0.187 HD
ATOM     29  H8  UNL     1      10.019 -28.538  12.067  1.00  0.00     0.188 HD
ENDBRANCH   9  22
BRANCH   5  30
HETATM   30  C10 UNL     1      14.792 -33.327  14.114  1.00  0.00     0.108 C 
HETATM   31  N3  UNL     1      14.477 -32.925  15.300  1.00  0.00    -0.318 N 
ATOM     32  H3  UNL     1      15.215 -32.778  15.988  1.00  0.00     0.185 HD
BRANCH  31  33
HETATM   33  N4  UNL     1      13.131 -32.683  15.667  1.00  0.00    -0.345 N 
ATOM     34  H42 UNL     1      12.516 -32.244  14.983  1.00  0.00     0.176 HD
ATOM     35  H41 UNL     1      12.776 -32.936  16.590  1.00  0.00     0.176 HD
ENDBRANCH  31  33
ENDBRANCH   5  30
BRANCH   6  36
HETATM   36  C13 UNL     1      11.622 -34.033  10.976  1.00  0.00     0.235 C 
HETATM   37  O4  UNL     1      11.118 -34.892  11.773  1.00  0.00    -0.272 OA
HETATM   38  N5  UNL     1      11.545 -34.391   9.589  1.00  0.00    -0.358 N 
ATOM     39  H5  UNL     1      11.926 -33.767   8.878  1.00  0.00     0.162 HD
BRANCH  38  40
HETATM   40  C14 UNL     1      10.916 -35.661   9.195  1.00  0.00     0.148 C 
BRANCH  40  41
HETATM   41  C15 UNL     1       9.403 -35.509   9.197  1.00  0.00     0.183 C 
BRANCH  41  42
HETATM   42  O5  UNL     1       8.970 -36.188  10.388  1.00  0.00    -0.399 OA
ATOM     43  H5  UNL     1       9.617 -35.959  11.044  1.00  0.00     0.209 HD
ENDBRANCH  41  42
ENDBRANCH  40  41
ENDBRANCH  38  40
ENDBRANCH   6  36
TORSDOF 16
ENDMDL
MODEL 3
REMARK VINA RESULT: -7.074722956      3.630      6.037
REMARK  16 active torsions:
REMARK  status: ('A' for Active; 'I' for Inactive)
REMARK    1  A    between atoms: C2_2  and  O1_3 
REMARK    2  A    between atoms: O1_3  and  P1_4 
REMARK    3  A    between atoms: P1_4  and  O2_5 
REMARK    4  A    between atoms: P1_4  and  O3_8 
REMARK    5  A    between atoms: O2_5  and  C3_6 
REMARK    6  A    between atoms: O3_8  and  C5_9 
REMARK    7  A    between atoms: C5_9  and  C6_10 
REMARK    8  A    between atoms: C6_10  and  N1_11 
REMARK    9  A    between atoms: N1_11  and  C7_13 
REMARK   10  A    between atoms: C9_17  and  C10_18 
REMARK   11  A    between atoms: N3_19  and  N4_21 
REMARK   12  A    between atoms: C11_24  and  C13_26 
REMARK       I    between atoms: C13_26  and  N5_28 
REMARK   13  A    between atoms: N5_28  and  C14_30 
REMARK   14  A    between atoms: C14_30  and  C15_31 
REMARK   15  A    between atoms: C15_31  and  O5_32 
REMARK   16  A    between atoms: C17_35  and  C18_36 
ROOT
HETATM    1  C7  UNL     1      13.789 -30.670  12.580  1.00  0.00     0.119 C 
HETATM    2  N2  UNL     1      14.216 -29.622  13.285  1.00  0.00    -0.344 N 
ATOM      3  H2  UNL     1      15.101 -29.133  13.157  1.00  0.00     0.167 HD
HETATM    4  C8  UNL     1      13.152 -29.287  14.312  1.00  0.00     0.033 C 
HETATM    5  C9  UNL     1      12.315 -28.292  14.163  1.00  0.00     0.045 C 
HETATM    6  C11 UNL     1      13.118 -30.318  15.332  1.00  0.00     0.098 C 
HETATM    7  C12 UNL     1      14.572 -30.765  15.667  1.00  0.00     0.037 C 
HETATM    8  C16 UNL     1      12.533 -31.483  14.506  1.00  0.00     0.017 C 
HETATM    9  C17 UNL     1      12.868 -31.627  13.235  1.00  0.00     0.051 C 
ENDROOT
BRANCH   1  10
HETATM   10  N1  UNL     1      14.519 -31.237  11.486  1.00  0.00    -0.353 N 
ATOM     11  H1  UNL     1      14.468 -32.252  11.407  1.00  0.00     0.166 HD
BRANCH  10  12
HETATM   12  C6  UNL     1      15.285 -30.607  10.518  1.00  0.00     0.089 C 
BRANCH  12  13
HETATM   13  C5  UNL     1      16.426 -29.694  10.743  1.00  0.00     0.222 C 
BRANCH  13  14
HETATM   14  O3  UNL     1      17.541 -30.628  10.699  1.00  0.00    -0.312 OA
BRANCH  14  15
HETATM   15  P1  UNL     1      18.141 -30.765  12.354  1.00  0.00     0.334 P 
BRANCH  15  16
HETATM   16  O1  UNL     1      17.159 -32.305  12.902  1.00  0.00    -0.318 OA
BRANCH  16  17
HETATM   17  C2  UNL     1      18.162 -33.267  12.912  1.00  0.00     0.173 C 
HETATM   18  C1  UNL     1      19.507 -32.605  12.944  1.00  0.00     0.034 C 
ENDBRANCH  16  17
ENDBRANCH  15  16
BRANCH  15  19
HETATM   19  O2  UNL     1      17.205 -29.719  13.449  1.00  0.00    -0.318 OA
BRANCH  19  20
HETATM   20  C3  UNL     1      18.044 -29.074  14.310  1.00  0.00     0.173 C 
HETATM   21  C4  UNL     1      18.257 -29.979  15.523  1.00  0.00     0.034 C 
ENDBRANCH  19  20
ENDBRANCH  15  19
ENDBRANCH  14  15
ENDBRANCH  13  14
ENDBRANCH  12  13
ENDBRANCH  10  12
ENDBRANCH   1  10
BRANCH   9  22
HETATM   22  C18 UNL     1      12.141 -32.643  12.408  1.00  0.00     0.134 A 
HETATM   23  N6  UNL     1      11.304 -32.357  11.367  1.00  0.00    -0.336 N 
HETATM   24  C19 UNL     1      10.789 -33.521  10.882  1.00  0.00     0.199 A 
ATOM     25  H6  UNL     1      11.098 -31.424  11.011  1.00  0.00     0.168 HD
HETATM   26  N7  UNL     1      11.329 -34.499  11.625  1.00  0.00    -0.295 N 
HETATM   27  N8  UNL     1      12.146 -33.938  12.554  1.00  0.00    -0.284 N 
ATOM     28  H7  UNL     1      11.154 -35.498  11.512  1.00  0.00     0.187 HD
ATOM     29  H8  UNL     1      12.681 -34.450  13.255  1.00  0.00     0.188 HD
ENDBRANCH   9  22
BRANCH   5  30
HETATM   30  C10 UNL     1      12.277 -27.389  13.005  1.00  0.00     0.108 C 
HETATM   31  N3  UNL     1      11.172 -27.219  12.357  1.00  0.00    -0.318 N 
ATOM     32  H3  UNL     1      11.156 -26.585  11.559  1.00  0.00     0.185 HD
BRANCH  31  33
HETATM   33  N4  UNL     1       9.984 -27.893  12.730  1.00  0.00    -0.345 N 
ATOM     34  H42 UNL     1      10.057 -28.858  13.051  1.00  0.00     0.176 HD
ATOM     35  H41 UNL     1       9.074 -27.435  12.681  1.00  0.00     0.176 HD
ENDBRANCH  31  33
ENDBRANCH   5  30
BRANCH   6  36
HETATM   36  C13 UNL     1      12.466 -30.121  16.596  1.00  0.00     0.235 C 
HETATM   37  O4  UNL     1      11.218 -29.983  16.820  1.00  0.00    -0.272 OA
HETATM   38  N5  UNL     1      13.290 -30.072  17.769  1.00  0.00    -0.358 N 
ATOM     39  H5  UNL     1      14.302 -30.169  17.688  1.00  0.00     0.162 HD
BRANCH  38  40
HETATM   40  C14 UNL     1      12.672 -29.881  19.090  1.00  0.00     0.148 C 
BRANCH  40  41
HETATM   41  C15 UNL     1      12.484 -31.227  19.771  1.00  0.00     0.183 C 
BRANCH  41  42
HETATM   42  O5  UNL     1      11.159 -31.642  19.398  1.00  0.00    -0.399 OA
ATOM     43  H5  UNL     1      11.272 -32.515  19.042  1.00  0.00     0.209 HD
ENDBRANCH  41  42
ENDBRANCH  40  41
ENDBRANCH  38  40
ENDBRANCH   6  36
TORSDOF 16
ENDMDL
MODEL 4
REMARK VINA RESULT: -7.066603266      3.547      5.467
REMARK  16 active torsions:
REMARK  status: ('A' for Active; 'I' for Inactive)
REMARK    1  A    between atoms: C2_2  and  O1_3 
REMARK    2  A    between atoms: O1_3  and  P1_4 
REMARK    3  A    between atoms: P1_4  and  O2_5 
REMARK    4  A    between atoms: P1_4  and  O3_8 
REMARK    5  A    between atoms: O2_5  and  C3_6 
REMARK    6  A    between atoms: O3_8  and  C5_9 
REMARK    7  A    between atoms: C5_9  and  C6_10 
REMARK    8  A    between atoms: C6_10  and  N1_11 
REMARK    9  A    between atoms: N1_11  and  C7_13 
REMARK   10  A    between atoms: C9_17  and  C10_18 
REMARK   11  A    between atoms: N3_19  and  N4_21 
REMARK   12  A    between atoms: C11_24  and  C13_26 
REMARK       I    between atoms: C13_26  and  N5_28 
REMARK   13  A    between atoms: N5_28  and  C14_30 
REMARK   14  A    between atoms: C14_30  and  C15_31 
REMARK   15  A    between atoms: C15_31  and  O5_32 
REMARK   16  A    between atoms: C17_35  and  C18_36 
ROOT
HETATM    1  C7  UNL     1      13.641 -30.527  12.730  1.00  0.00     0.119 C 
HETATM    2  N2  UNL     1      14.089 -29.504  13.457  1.00  0.00    -0.344 N 
ATOM      3  H2  UNL     1      14.990 -29.037  13.345  1.00  0.00     0.167 HD
HETATM    4  C8  UNL     1      13.025 -29.156  14.479  1.00  0.00     0.033 C 
HETATM    5  C9  UNL     1      12.219 -28.136  14.340  1.00  0.00     0.045 C 
HETATM    6  C11 UNL     1      12.953 -30.203  15.481  1.00  0.00     0.098 C 
HETATM    7  C12 UNL     1      14.391 -30.697  15.821  1.00  0.00     0.037 C 
HETATM    8  C16 UNL     1      12.344 -31.337  14.630  1.00  0.00     0.017 C 
HETATM    9  C17 UNL     1      12.687 -31.468  13.359  1.00  0.00     0.051 C 
ENDROOT
BRANCH   1  10
HETATM   10  N1  UNL     1      14.365 -31.095  11.632  1.00  0.00    -0.353 N 
ATOM     11  H1  UNL     1      14.027 -32.001  11.310  1.00  0.00     0.166 HD
BRANCH  10  12
HETATM   12  C6  UNL     1      15.458 -30.594  10.945  1.00  0.00     0.089 C 
BRANCH  12  13
HETATM   13  C5  UNL     1      16.733 -30.118  11.527  1.00  0.00     0.222 C 
BRANCH  13  14
HETATM   14  O3  UNL     1      17.569 -31.298  11.363  1.00  0.00    -0.312 OA
BRANCH  14  15
HETATM   15  P1  UNL     1      17.817 -31.961  12.981  1.00  0.00     0.334 P 
BRANCH  15  16
HETATM   16  O1  UNL     1      18.387 -33.717  12.501  1.00  0.00    -0.318 OA
BRANCH  16  17
HETATM   17  C2  UNL     1      19.767 -33.566  12.544  1.00  0.00     0.173 C 
HETATM   18  C1  UNL     1      20.125 -32.334  13.321  1.00  0.00     0.034 C 
ENDBRANCH  16  17
ENDBRANCH  15  16
BRANCH  15  19
HETATM   19  O2  UNL     1      16.287 -32.587  13.643  1.00  0.00    -0.318 OA
BRANCH  19  20
HETATM   20  C3  UNL     1      16.070 -33.858  13.197  1.00  0.00     0.173 C 
HETATM   21  C4  UNL     1      14.850 -34.412  13.932  1.00  0.00     0.034 C 
ENDBRANCH  19  20
ENDBRANCH  15  19
ENDBRANCH  14  15
ENDBRANCH  13  14
ENDBRANCH  12  13
ENDBRANCH  10  12
ENDBRANCH   1  10
BRANCH   9  22
HETATM   22  C18 UNL     1      11.940 -32.449  12.508  1.00  0.00     0.134 A 
HETATM   23  N6  UNL     1      11.244 -32.137  11.374  1.00  0.00    -0.336 N 
HETATM   24  C19 UNL     1      10.657 -33.268  10.892  1.00  0.00     0.199 A 
ATOM     25  H6  UNL     1      11.175 -31.210  10.958  1.00  0.00     0.168 HD
HETATM   26  N7  UNL     1      11.014 -34.253  11.730  1.00  0.00    -0.295 N 
HETATM   27  N8  UNL     1      11.792 -33.728  12.712  1.00  0.00    -0.284 N 
ATOM     28  H7  UNL     1      10.745 -35.234  11.645  1.00  0.00     0.187 HD
ATOM     29  H8  UNL     1      12.198 -34.253  13.487  1.00  0.00     0.188 HD
ENDBRANCH   9  22
BRANCH   5  30
HETATM   30  C10 UNL     1      12.217 -27.212  13.198  1.00  0.00     0.108 C 
HETATM   31  N3  UNL     1      11.177 -27.133  12.436  1.00  0.00    -0.318 N 
ATOM     32  H3  UNL     1      11.185 -26.484  11.649  1.00  0.00     0.185 HD
BRANCH  31  33
HETATM   33  N4  UNL     1      10.027 -27.927  12.666  1.00  0.00    -0.345 N 
ATOM     34  H42 UNL     1      10.160 -28.891  12.971  1.00  0.00     0.176 HD
ATOM     35  H41 UNL     1       9.087 -27.555  12.532  1.00  0.00     0.176 HD
ENDBRANCH  31  33
ENDBRANCH   5  30
BRANCH   6  36
HETATM   36  C13 UNL     1      12.295 -30.009  16.743  1.00  0.00     0.235 C 
HETATM   37  O4  UNL     1      11.044 -29.887  16.962  1.00  0.00    -0.272 OA
HETATM   38  N5  UNL     1      13.115 -29.945  17.918  1.00  0.00    -0.358 N 
ATOM     39  H5  UNL     1      14.128 -30.029  17.840  1.00  0.00     0.162 HD
BRANCH  38  40
HETATM   40  C14 UNL     1      12.490 -29.756  19.236  1.00  0.00     0.148 C 
BRANCH  40  41
HETATM   41  C15 UNL     1      12.286 -31.105  19.908  1.00  0.00     0.183 C 
BRANCH  41  42
HETATM   42  O5  UNL     1      10.908 -31.432  19.658  1.00  0.00    -0.399 OA
ATOM     43  H5  UNL     1      10.653 -31.975  20.393  1.00  0.00     0.209 HD
ENDBRANCH  41  42
ENDBRANCH  40  41
ENDBRANCH  38  40
ENDBRANCH   6  36
TORSDOF 16
ENDMDL
MODEL 5
REMARK VINA RESULT: -7.026236952      3.843      6.481
REMARK  16 active torsions:
REMARK  status: ('A' for Active; 'I' for Inactive)
REMARK    1  A    between atoms: C2_2  and  O1_3 
REMARK    2  A    between atoms: O1_3  and  P1_4 
REMARK    3  A    between atoms: P1_4  and  O2_5 
REMARK    4  A    between atoms: P1_4  and  O3_8 
REMARK    5  A    between atoms: O2_5  and  C3_6 
REMARK    6  A    between atoms: O3_8  and  C5_9 
REMARK    7  A    between atoms: C5_9  and  C6_10 
REMARK    8  A    between atoms: C6_10  and  N1_11 
REMARK    9  A    between atoms: N1_11  and  C7_13 
REMARK   10  A    between atoms: C9_17  and  C10_18 
REMARK   11  A    between atoms: N3_19  and  N4_21 
REMARK   12  A    between atoms: C11_24  and  C13_26 
REMARK       I    between atoms: C13_26  and  N5_28 
REMARK   13  A    between atoms: N5_28  and  C14_30 
REMARK   14  A    between atoms: C14_30  and  C15_31 
REMARK   15  A    between atoms: C15_31  and  O5_32 
REMARK   16  A    between atoms: C17_35  and  C18_36 
ROOT
HETATM    1  C7  UNL     1      15.501 -31.322  12.698  1.00  0.00     0.119 C 
HETATM    2  N2  UNL     1      14.202 -31.233  12.988  1.00  0.00    -0.344 N 
ATOM      3  H2  UNL     1      13.528 -30.614  12.537  1.00  0.00     0.167 HD
HETATM    4  C8  UNL     1      13.905 -32.213  14.106  1.00  0.00     0.033 C 
HETATM    5  C9  UNL     1      13.332 -33.370  13.897  1.00  0.00     0.045 C 
HETATM    6  C11 UNL     1      14.502 -31.738  15.340  1.00  0.00     0.098 C 
HETATM    7  C12 UNL     1      14.333 -30.193  15.438  1.00  0.00     0.037 C 
HETATM    8  C16 UNL     1      15.995 -31.945  15.004  1.00  0.00     0.017 C 
HETATM    9  C17 UNL     1      16.431 -31.737  13.772  1.00  0.00     0.051 C 
ENDROOT
BRANCH   1  10
HETATM   10  N1  UNL     1      16.131 -30.573  11.653  1.00  0.00    -0.353 N 
ATOM     11  H1  UNL     1      16.462 -31.123  10.861  1.00  0.00     0.166 HD
BRANCH  10  12
HETATM   12  C6  UNL     1      16.358 -29.209  11.560  1.00  0.00     0.089 C 
BRANCH  12  13
HETATM   13  C5  UNL     1      15.518 -28.128  12.122  1.00  0.00     0.222 C 
BRANCH  13  14
HETATM   14  O3  UNL     1      14.256 -28.377  11.443  1.00  0.00    -0.312 OA
BRANCH  14  15
HETATM   15  P1  UNL     1      12.997 -27.663  12.454  1.00  0.00     0.334 P 
BRANCH  15  16
HETATM   16  O1  UNL     1      11.883 -29.195  12.674  1.00  0.00    -0.318 OA
BRANCH  16  17
HETATM   17  C2  UNL     1      11.083 -28.787  13.735  1.00  0.00     0.173 C 
HETATM   18  C1  UNL     1      10.810 -29.945  14.647  1.00  0.00     0.034 C 
ENDBRANCH  16  17
ENDBRANCH  15  16
BRANCH  15  19
HETATM   19  O2  UNL     1      11.769 -26.856  11.448  1.00  0.00    -0.318 OA
BRANCH  19  20
HETATM   20  C3  UNL     1      12.337 -25.834  10.746  1.00  0.00     0.173 C 
HETATM   21  C4  UNL     1      13.282 -25.087  11.686  1.00  0.00     0.034 C 
ENDBRANCH  19  20
ENDBRANCH  15  19
ENDBRANCH  14  15
ENDBRANCH  13  14
ENDBRANCH  12  13
ENDBRANCH  10  12
ENDBRANCH   1  10
BRANCH   9  22
HETATM   22  C18 UNL     1      17.835 -32.129  13.429  1.00  0.00     0.134 A 
HETATM   23  N6  UNL     1      18.200 -33.298  12.823  1.00  0.00    -0.336 N 
HETATM   24  C19 UNL     1      19.557 -33.333  12.710  1.00  0.00     0.199 A 
ATOM     25  H6  UNL     1      17.560 -34.026  12.506  1.00  0.00     0.168 HD
HETATM   26  N7  UNL     1      19.998 -32.181  13.238  1.00  0.00    -0.295 N 
HETATM   27  N8  UNL     1      18.930 -31.465  13.675  1.00  0.00    -0.284 N 
ATOM     28  H7  UNL     1      20.975 -31.890  13.300  1.00  0.00     0.187 HD
ATOM     29  H8  UNL     1      18.976 -30.551  14.125  1.00  0.00     0.188 HD
ENDBRANCH   9  22
BRANCH   5  30
HETATM   30  C10 UNL     1      12.916 -33.881  12.584  1.00  0.00     0.108 C 
HETATM   31  N3  UNL     1      11.680 -33.788  12.219  1.00  0.00    -0.318 N 
ATOM     32  H3  UNL     1      11.404 -34.141  11.303  1.00  0.00     0.185 HD
BRANCH  31  33
HETATM   33  N4  UNL     1      10.700 -33.209  13.061  1.00  0.00    -0.345 N 
ATOM     34  H42 UNL     1      10.715 -32.198  13.194  1.00  0.00     0.176 HD
ATOM     35  H41 UNL     1       9.994 -33.778  13.527  1.00  0.00     0.176 HD
ENDBRANCH  31  33
ENDBRANCH   5  30
BRANCH   6  36
HETATM   36  C13 UNL     1      14.121 -32.259  16.623  1.00  0.00     0.235 C 
HETATM   37  O4  UNL     1      14.500 -33.347  17.170  1.00  0.00    -0.272 OA
HETATM   38  N5  UNL     1      13.208 -31.483  17.410  1.00  0.00    -0.358 N 
ATOM     39  H5  UNL     1      12.848 -30.598  17.053  1.00  0.00     0.162 HD
BRANCH  38  40
HETATM   40  C14 UNL     1      12.792 -31.966  18.736  1.00  0.00     0.148 C 
BRANCH  40  41
HETATM   41  C15 UNL     1      12.219 -30.817  19.549  1.00  0.00     0.183 C 
BRANCH  41  42
HETATM   42  O5  UNL     1      10.835 -31.156  19.735  1.00  0.00    -0.399 OA
ATOM     43  H5  UNL     1      10.843 -32.072  19.986  1.00  0.00     0.209 HD
ENDBRANCH  41  42
ENDBRANCH  40  41
ENDBRANCH  38  40
ENDBRANCH   6  36
TORSDOF 16
ENDMDL
