MODEL 1
REMARK VINA RESULT: -6.971025292      0.000      0.000
REMARK  15 active torsions:
REMARK  status: ('A' for Active; 'I' for Inactive)
REMARK    1  A    between atoms: C2_2  and  C3_3 
REMARK    2  A    between atoms: C3_3  and  C4_4 
REMARK    3  A    between atoms: C4_4  and  C5_5 
REMARK    4  A    between atoms: C5_5  and  O1_6 
REMARK    5  A    between atoms: O1_6  and  C6_7 
REMARK    6  A    between atoms: C6_7  and  C7_8 
REMARK    7  A    between atoms: C7_8  and  C8_9 
REMARK    8  A    between atoms: C9_10  and  N1_11 
REMARK    9  A    between atoms: N1_11  and  C10_13 
REMARK   10  A    between atoms: C10_13  and  O2_14 
REMARK       I    between atoms: N5_26  and  C16_27 
REMARK   11  A    between atoms: C16_27  and  C17_29 
REMARK   12  A    between atoms: C17_29  and  N6_30 
REMARK       I    between atoms: N6_30  and  C19_32 
REMARK       I    between atoms: C19_32  and  N8_36 
REMARK   13  A    between atoms: N8_36  and  P1_38 
REMARK   14  A    between atoms: P1_38  and  O4_39 
REMARK   15  A    between atoms: P1_38  and  O5_41 
ROOT
HETATM    1  C8  UNL     1      13.784 -30.710  13.344  1.00  0.00     0.146 C 
HETATM    2  C9  UNL     1      13.995 -31.590  14.466  1.00  0.00     0.061 C 
HETATM    3  C11 UNL     1      13.823 -31.108  15.745  1.00  0.00     0.102 A 
HETATM    4  C12 UNL     1      13.472 -29.691  15.903  1.00  0.00     0.079 A 
HETATM    5  N2  UNL     1      13.135 -29.169  17.012  1.00  0.00    -0.348 N 
ATOM      6  H2  UNL     1      12.894 -28.180  17.072  1.00  0.00     0.167 HD
HETATM    7  C13 UNL     1      13.102 -29.981  18.143  1.00  0.00     0.198 A 
HETATM    8  N3  UNL     1      13.392 -31.208  18.139  1.00  0.00    -0.294 N 
ATOM      9  H3  UNL     1      13.349 -31.736  19.010  1.00  0.00     0.188 HD
HETATM   10  N4  UNL     1      13.799 -31.902  16.878  1.00  0.00    -0.292 N 
HETATM   11  C14 UNL     1      14.203 -33.227  17.032  1.00  0.00     0.178 C 
HETATM   12  C15 UNL     1      13.747 -28.695  14.833  1.00  0.00     0.127 C 
HETATM   13  N5  UNL     1      13.924 -29.246  13.595  1.00  0.00    -0.314 N 
HETATM   14  C16 UNL     1      14.142 -28.414  12.456  1.00  0.00     0.242 C 
HETATM   15  O3  UNL     1      14.451 -28.878  11.305  1.00  0.00    -0.271 OA
ENDROOT
BRANCH   1  16
HETATM   16  C7  UNL     1      12.191 -30.585  13.130  1.00  0.00     0.058 C 
BRANCH  16  17
HETATM   17  C6  UNL     1      11.658 -31.553  12.128  1.00  0.00     0.170 C 
BRANCH  17  18
HETATM   18  O1  UNL     1      12.287 -31.287  10.998  1.00  0.00    -0.391 OA
BRANCH  18  19
HETATM   19  C5  UNL     1      12.740 -31.911   9.990  1.00  0.00     0.167 C 
BRANCH  19  20
HETATM   20  C4  UNL     1      11.983 -32.966   9.294  1.00  0.00     0.026 C 
BRANCH  20  21
HETATM   21  C3  UNL     1      12.287 -33.095   7.826  1.00  0.00     0.002 C 
BRANCH  21  22
HETATM   22  C2  UNL     1      11.967 -34.569   7.538  1.00  0.00    -0.004 C 
HETATM   23  C1  UNL     1      11.238 -35.194   8.664  1.00  0.00     0.005 C 
ENDBRANCH  21  22
ENDBRANCH  20  21
ENDBRANCH  19  20
ENDBRANCH  18  19
ENDBRANCH  17  18
ENDBRANCH  16  17
ENDBRANCH   1  16
BRANCH  14  24
HETATM   24  C17 UNL     1      13.988 -26.966  12.545  1.00  0.00     0.228 C 
BRANCH  24  25
HETATM   25  N6  UNL     1      12.739 -26.424  12.025  1.00  0.00    -0.349 N 
HETATM   26  C18 UNL     1      11.446 -26.929  12.389  1.00  0.00     0.153 C 
HETATM   27  C19 UNL     1      12.835 -25.359  11.103  1.00  0.00     0.177 C 
HETATM   28  N7  UNL     1      12.050 -25.180  10.062  1.00  0.00    -0.371 N 
HETATM   29  N8  UNL     1      13.901 -24.331  11.226  1.00  0.00    -0.292 N 
ATOM     30  H72 UNL     1      11.318 -25.886   9.976  1.00  0.00     0.159 HD
ATOM     31  H71 UNL     1      12.119 -24.411   9.395  1.00  0.00     0.159 HD
ATOM     32  H8  UNL     1      13.886 -23.567  11.902  1.00  0.00     0.171 HD
BRANCH  29  33
HETATM   33  P1  UNL     1      15.217 -24.601  10.042  1.00  0.00     0.286 P 
BRANCH  33  34
HETATM   34  O4  UNL     1      15.618 -26.281  10.059  1.00  0.00    -0.333 OA
ATOM     35  H4  UNL     1      15.717 -26.570   9.159  1.00  0.00     0.219 HD
ENDBRANCH  33  34
BRANCH  33  36
HETATM   36  O5  UNL     1      14.786 -24.089   8.466  1.00  0.00    -0.333 OA
ATOM     37  H5  UNL     1      14.841 -23.145   8.368  1.00  0.00     0.219 HD
ENDBRANCH  33  36
ENDBRANCH  29  33
ENDBRANCH  24  25
ENDBRANCH  14  24
BRANCH   2  38
HETATM   38  N1  UNL     1      14.364 -32.955  14.428  1.00  0.00    -0.368 N 
ATOM     39  H1  UNL     1      14.910 -33.301  15.217  1.00  0.00     0.161 HD
BRANCH  38  40
HETATM   40  C10 UNL     1      14.046 -33.918  13.382  1.00  0.00     0.287 C 
BRANCH  40  41
HETATM   41  O2  UNL     1      14.189 -35.162  14.023  1.00  0.00    -0.382 OA
ATOM     42  H2  UNL     1      13.965 -35.790  13.346  1.00  0.00     0.211 HD
ENDBRANCH  40  41
ENDBRANCH  38  40
ENDBRANCH   2  38
TORSDOF 15
ENDMDL
MODEL 2
REMARK VINA RESULT: -6.901874509      3.379      5.105
REMARK  15 active torsions:
REMARK  status: ('A' for Active; 'I' for Inactive)
REMARK    1  A    between atoms: C2_2  and  C3_3 
REMARK    2  A    between atoms: C3_3  and  C4_4 
REMARK    3  A    between atoms: C4_4  and  C5_5 
REMARK    4  A    between atoms: C5_5  and  O1_6 
REMARK    5  A    between atoms: O1_6  and  C6_7 
REMARK    6  A    between atoms: C6_7  and  C7_8 
REMARK    7  A    between atoms: C7_8  and  C8_9 
REMARK    8  A    between atoms: C9_10  and  N1_11 
REMARK    9  A    between atoms: N1_11  and  C10_13 
REMARK   10  A    between atoms: C10_13  and  O2_14 
REMARK       I    between atoms: N5_26  and  C16_27 
REMARK   11  A    between atoms: C16_27  and  C17_29 
REMARK   12  A    between atoms: C17_29  and  N6_30 
REMARK       I    between atoms: N6_30  and  C19_32 
REMARK       I    between atoms: C19_32  and  N8_36 
REMARK   13  A    between atoms: N8_36  and  P1_38 
REMARK   14  A    between atoms: P1_38  and  O4_39 
REMARK   15  A    between atoms: P1_38  and  O5_41 
ROOT
HETATM    1  C8  UNL     1      14.665 -30.573  13.878  1.00  0.00     0.146 C 
HETATM    2  C9  UNL     1      13.640 -31.518  14.241  1.00  0.00     0.061 C 
HETATM    3  C11 UNL     1      12.668 -31.849  13.322  1.00  0.00     0.102 A 
HETATM    4  C12 UNL     1      12.704 -31.180  12.016  1.00  0.00     0.079 A 
HETATM    5  N2  UNL     1      11.965 -31.511  11.035  1.00  0.00    -0.348 N 
ATOM      6  H2  UNL     1      12.028 -31.019  10.144  1.00  0.00     0.167 HD
HETATM    7  C13 UNL     1      11.067 -32.562  11.208  1.00  0.00     0.198 A 
HETATM    8  N3  UNL     1      10.935 -33.208  12.283  1.00  0.00    -0.294 N 
ATOM      9  H3  UNL     1      10.252 -33.963  12.334  1.00  0.00     0.188 HD
HETATM   10  N4  UNL     1      11.764 -32.884  13.486  1.00  0.00    -0.292 N 
HETATM   11  C14 UNL     1      11.440 -33.594  14.639  1.00  0.00     0.178 C 
HETATM   12  C15 UNL     1      13.410 -29.886  11.821  1.00  0.00     0.127 C 
HETATM   13  N5  UNL     1      14.345 -29.615  12.780  1.00  0.00    -0.314 N 
HETATM   14  C16 UNL     1      15.145 -28.435  12.699  1.00  0.00     0.242 C 
HETATM   15  O3  UNL     1      15.932 -28.064  13.637  1.00  0.00    -0.271 OA
ENDROOT
BRANCH   1  16
HETATM   16  C7  UNL     1      15.736 -31.360  12.965  1.00  0.00     0.058 C 
BRANCH  16  17
HETATM   17  C6  UNL     1      16.841 -31.973  13.757  1.00  0.00     0.170 C 
BRANCH  17  18
HETATM   18  O1  UNL     1      17.693 -32.458  12.874  1.00  0.00    -0.391 OA
BRANCH  18  19
HETATM   19  C5  UNL     1      18.940 -32.672  12.770  1.00  0.00     0.167 C 
BRANCH  19  20
HETATM   20  C4  UNL     1      19.511 -34.019  12.596  1.00  0.00     0.026 C 
BRANCH  20  21
HETATM   21  C3  UNL     1      18.497 -35.127  12.506  1.00  0.00     0.002 C 
BRANCH  21  22
HETATM   22  C2  UNL     1      19.368 -36.391  12.549  1.00  0.00    -0.004 C 
HETATM   23  C1  UNL     1      20.796 -36.072  12.337  1.00  0.00     0.005 C 
ENDBRANCH  21  22
ENDBRANCH  20  21
ENDBRANCH  19  20
ENDBRANCH  18  19
ENDBRANCH  17  18
ENDBRANCH  16  17
ENDBRANCH   1  16
BRANCH  14  24
HETATM   24  C17 UNL     1      15.125 -27.596  11.507  1.00  0.00     0.228 C 
BRANCH  24  25
HETATM   25  N6  UNL     1      15.183 -26.158  11.737  1.00  0.00    -0.349 N 
HETATM   26  C18 UNL     1      16.374 -25.377  11.562  1.00  0.00     0.153 C 
HETATM   27  C19 UNL     1      13.996 -25.528  12.171  1.00  0.00     0.177 C 
HETATM   28  N7  UNL     1      13.932 -24.539  13.036  1.00  0.00    -0.371 N 
HETATM   29  N8  UNL     1      12.666 -25.980  11.685  1.00  0.00    -0.292 N 
ATOM     30  H72 UNL     1      14.845 -24.228  13.369  1.00  0.00     0.159 HD
ATOM     31  H71 UNL     1      13.075 -24.083  13.350  1.00  0.00     0.159 HD
ATOM     32  H8  UNL     1      12.286 -25.760  10.765  1.00  0.00     0.171 HD
BRANCH  29  33
HETATM   33  P1  UNL     1      11.812 -26.960  12.918  1.00  0.00     0.286 P 
BRANCH  33  34
HETATM   34  O4  UNL     1      11.857 -26.096  14.414  1.00  0.00    -0.333 OA
ATOM     35  H4  UNL     1      12.326 -26.627  15.047  1.00  0.00     0.219 HD
ENDBRANCH  33  34
BRANCH  33  36
HETATM   36  O5  UNL     1      10.201 -27.315  12.462  1.00  0.00    -0.333 OA
ATOM     37  H5  UNL     1       9.789 -27.935  13.052  1.00  0.00     0.219 HD
ENDBRANCH  33  36
ENDBRANCH  29  33
ENDBRANCH  24  25
ENDBRANCH  14  24
BRANCH   2  38
HETATM   38  N1  UNL     1      13.494 -32.194  15.475  1.00  0.00    -0.368 N 
ATOM     39  H1  UNL     1      12.669 -32.785  15.577  1.00  0.00     0.161 HD
BRANCH  38  40
HETATM   40  C10 UNL     1      14.398 -32.135  16.616  1.00  0.00     0.287 C 
BRANCH  40  41
HETATM   41  O2  UNL     1      14.478 -33.473  17.046  1.00  0.00    -0.382 OA
ATOM     42  H2  UNL     1      13.579 -33.692  17.263  1.00  0.00     0.211 HD
ENDBRANCH  40  41
ENDBRANCH  38  40
ENDBRANCH   2  38
TORSDOF 15
ENDMDL
MODEL 3
REMARK VINA RESULT: -6.824226489      1.403      1.820
REMARK  15 active torsions:
REMARK  status: ('A' for Active; 'I' for Inactive)
REMARK    1  A    between atoms: C2_2  and  C3_3 
REMARK    2  A    between atoms: C3_3  and  C4_4 
REMARK    3  A    between atoms: C4_4  and  C5_5 
REMARK    4  A    between atoms: C5_5  and  O1_6 
REMARK    5  A    between atoms: O1_6  and  C6_7 
REMARK    6  A    between atoms: C6_7  and  C7_8 
REMARK    7  A    between atoms: C7_8  and  C8_9 
REMARK    8  A    between atoms: C9_10  and  N1_11 
REMARK    9  A    between atoms: N1_11  and  C10_13 
REMARK   10  A    between atoms: C10_13  and  O2_14 
REMARK       I    between atoms: N5_26  and  C16_27 
REMARK   11  A    between atoms: C16_27  and  C17_29 
REMARK   12  A    between atoms: C17_29  and  N6_30 
REMARK       I    between atoms: N6_30  and  C19_32 
REMARK       I    between atoms: C19_32  and  N8_36 
REMARK   13  A    between atoms: N8_36  and  P1_38 
REMARK   14  A    between atoms: P1_38  and  O4_39 
REMARK   15  A    between atoms: P1_38  and  O5_41 
ROOT
HETATM    1  C8  UNL     1      13.420 -30.359  13.331  1.00  0.00     0.146 C 
HETATM    2  C9  UNL     1      13.652 -31.336  14.365  1.00  0.00     0.061 C 
HETATM    3  C11 UNL     1      13.640 -30.940  15.685  1.00  0.00     0.102 A 
HETATM    4  C12 UNL     1      13.431 -29.516  15.972  1.00  0.00     0.079 A 
HETATM    5  N2  UNL     1      13.243 -29.054  17.141  1.00  0.00    -0.348 N 
ATOM      6  H2  UNL     1      13.097 -28.056  17.292  1.00  0.00     0.167 HD
HETATM    7  C13 UNL     1      13.240 -29.944  18.213  1.00  0.00     0.198 A 
HETATM    8  N3  UNL     1      13.419 -31.187  18.097  1.00  0.00    -0.294 N 
ATOM      9  H3  UNL     1      13.408 -31.775  18.930  1.00  0.00     0.188 HD
HETATM   10  N4  UNL     1      13.648 -31.814  16.758  1.00  0.00    -0.292 N 
HETATM   11  C14 UNL     1      13.945 -33.175  16.782  1.00  0.00     0.178 C 
HETATM   12  C15 UNL     1      13.695 -28.467  14.951  1.00  0.00     0.127 C 
HETATM   13  N5  UNL     1      13.711 -28.935  13.667  1.00  0.00    -0.314 N 
HETATM   14  C16 UNL     1      13.897 -28.039  12.572  1.00  0.00     0.242 C 
HETATM   15  O3  UNL     1      14.059 -28.438  11.367  1.00  0.00    -0.271 OA
ENDROOT
BRANCH   1  16
HETATM   16  C7  UNL     1      11.831 -30.089  13.281  1.00  0.00     0.058 C 
BRANCH  16  17
HETATM   17  C6  UNL     1      11.084 -31.133  12.522  1.00  0.00     0.170 C 
BRANCH  17  18
HETATM   18  O1  UNL     1      11.743 -31.299  11.390  1.00  0.00    -0.391 OA
BRANCH  18  19
HETATM   19  C5  UNL     1      11.963 -32.216  10.542  1.00  0.00     0.167 C 
BRANCH  19  20
HETATM   20  C4  UNL     1      11.192 -33.471  10.499  1.00  0.00     0.026 C 
BRANCH  20  21
HETATM   21  C3  UNL     1      10.896 -33.982   9.115  1.00  0.00     0.002 C 
BRANCH  21  22
HETATM   22  C2  UNL     1      11.970 -33.294   8.259  1.00  0.00    -0.004 C 
HETATM   23  C1  UNL     1      12.291 -34.089   7.053  1.00  0.00     0.005 C 
ENDBRANCH  21  22
ENDBRANCH  20  21
ENDBRANCH  19  20
ENDBRANCH  18  19
ENDBRANCH  17  18
ENDBRANCH  16  17
ENDBRANCH   1  16
BRANCH  14  24
HETATM   24  C17 UNL     1      13.881 -26.594  12.773  1.00  0.00     0.228 C 
BRANCH  24  25
HETATM   25  N6  UNL     1      15.170 -25.922  12.683  1.00  0.00    -0.349 N 
HETATM   26  C18 UNL     1      16.219 -26.090  13.647  1.00  0.00     0.153 C 
HETATM   27  C19 UNL     1      15.366 -25.051  11.588  1.00  0.00     0.177 C 
HETATM   28  N7  UNL     1      16.032 -23.918  11.627  1.00  0.00    -0.371 N 
HETATM   29  N8  UNL     1      14.777 -25.350  10.256  1.00  0.00    -0.292 N 
ATOM     30  H72 UNL     1      16.436 -23.712  12.541  1.00  0.00     0.159 HD
ATOM     31  H71 UNL     1      16.174 -23.288  10.836  1.00  0.00     0.159 HD
ATOM     32  H8  UNL     1      15.154 -26.037   9.603  1.00  0.00     0.171 HD
BRANCH  29  33
HETATM   33  P1  UNL     1      13.324 -24.351   9.939  1.00  0.00     0.286 P 
BRANCH  33  34
HETATM   34  O4  UNL     1      11.930 -25.337  10.200  1.00  0.00    -0.333 OA
ATOM     35  H4  UNL     1      11.390 -24.917  10.859  1.00  0.00     0.219 HD
ENDBRANCH  33  34
BRANCH  33  36
HETATM   36  O5  UNL     1      13.276 -22.948  10.919  1.00  0.00    -0.333 OA
ATOM     37  H5  UNL     1      13.008 -22.178  10.431  1.00  0.00     0.219 HD
ENDBRANCH  33  36
ENDBRANCH  29  33
ENDBRANCH  24  25
ENDBRANCH  14  24
BRANCH   2  38
HETATM   38  N1  UNL     1      13.894 -32.719  14.199  1.00  0.00    -0.368 N 
ATOM     39  H1  UNL     1      13.722 -33.313  15.010  1.00  0.00     0.161 HD
BRANCH  38  40
HETATM   40  C10 UNL     1      14.363 -33.386  12.992  1.00  0.00     0.287 C 
BRANCH  40  41
HETATM   41  O2  UNL     1      13.711 -34.633  13.027  1.00  0.00    -0.382 OA
ATOM     42  H2  UNL     1      14.417 -35.258  12.911  1.00  0.00     0.211 HD
ENDBRANCH  40  41
ENDBRANCH  38  40
ENDBRANCH   2  38
TORSDOF 15
ENDMDL
MODEL 4
REMARK VINA RESULT: -6.769904112      1.850      2.305
REMARK  15 active torsions:
REMARK  status: ('A' for Active; 'I' for Inactive)
REMARK    1  A    between atoms: C2_2  and  C3_3 
REMARK    2  A    between atoms: C3_3  and  C4_4 
REMARK    3  A    between atoms: C4_4  and  C5_5 
REMARK    4  A    between atoms: C5_5  and  O1_6 
REMARK    5  A    between atoms: O1_6  and  C6_7 
REMARK    6  A    between atoms: C6_7  and  C7_8 
REMARK    7  A    between atoms: C7_8  and  C8_9 
REMARK    8  A    between atoms: C9_10  and  N1_11 
REMARK    9  A    between atoms: N1_11  and  C10_13 
REMARK   10  A    between atoms: C10_13  and  O2_14 
REMARK       I    between atoms: N5_26  and  C16_27 
REMARK   11  A    between atoms: C16_27  and  C17_29 
REMARK   12  A    between atoms: C17_29  and  N6_30 
REMARK       I    between atoms: N6_30  and  C19_32 
REMARK       I    between atoms: C19_32  and  N8_36 
REMARK   13  A    between atoms: N8_36  and  P1_38 
REMARK   14  A    between atoms: P1_38  and  O4_39 
REMARK   15  A    between atoms: P1_38  and  O5_41 
ROOT
HETATM    1  C8  UNL     1      13.160 -30.873  13.448  1.00  0.00     0.146 C 
HETATM    2  C9  UNL     1      13.617 -31.660  14.566  1.00  0.00     0.061 C 
HETATM    3  C11 UNL     1      13.232 -31.311  15.842  1.00  0.00     0.102 A 
HETATM    4  C12 UNL     1      12.399 -30.113  16.003  1.00  0.00     0.079 A 
HETATM    5  N2  UNL     1      11.852 -29.779  17.101  1.00  0.00    -0.348 N 
ATOM      6  H2  UNL     1      11.277 -28.939  17.164  1.00  0.00     0.167 HD
HETATM    7  C13 UNL     1      12.058 -30.588  18.216  1.00  0.00     0.198 A 
HETATM    8  N3  UNL     1      12.760 -31.635  18.208  1.00  0.00    -0.294 N 
ATOM      9  H3  UNL     1      12.867 -32.173  19.068  1.00  0.00     0.188 HD
HETATM   10  N4  UNL     1      13.439 -32.101  16.959  1.00  0.00    -0.292 N 
HETATM   11  C14 UNL     1      14.275 -33.205  17.113  1.00  0.00     0.178 C 
HETATM   12  C15 UNL     1      12.353 -29.050  14.964  1.00  0.00     0.127 C 
HETATM   13  N5  UNL     1      12.766 -29.462  13.729  1.00  0.00    -0.314 N 
HETATM   14  C16 UNL     1      12.727 -28.569  12.616  1.00  0.00     0.242 C 
HETATM   15  O3  UNL     1      13.229 -28.858  11.475  1.00  0.00    -0.271 OA
ENDROOT
BRANCH   1  16
HETATM   16  C7  UNL     1      11.635 -31.307  13.153  1.00  0.00     0.058 C 
BRANCH  16  17
HETATM   17  C6  UNL     1      11.442 -31.872  11.787  1.00  0.00     0.170 C 
BRANCH  17  18
HETATM   18  O1  UNL     1      11.458 -33.184  11.931  1.00  0.00    -0.391 OA
BRANCH  18  19
HETATM   19  C5  UNL     1      11.517 -34.222  11.204  1.00  0.00     0.167 C 
BRANCH  19  20
HETATM   20  C4  UNL     1      10.556 -34.499  10.123  1.00  0.00     0.026 C 
BRANCH  20  21
HETATM   21  C3  UNL     1      11.171 -35.001   8.845  1.00  0.00     0.002 C 
BRANCH  21  22
HETATM   22  C2  UNL     1      11.745 -33.722   8.217  1.00  0.00    -0.004 C 
HETATM   23  C1  UNL     1      12.381 -33.999   6.910  1.00  0.00     0.005 C 
ENDBRANCH  21  22
ENDBRANCH  20  21
ENDBRANCH  19  20
ENDBRANCH  18  19
ENDBRANCH  17  18
ENDBRANCH  16  17
ENDBRANCH   1  16
BRANCH  14  24
HETATM   24  C17 UNL     1      12.071 -27.271  12.719  1.00  0.00     0.228 C 
BRANCH  24  25
HETATM   25  N6  UNL     1      12.668 -26.191  11.945  1.00  0.00    -0.349 N 
HETATM   26  C18 UNL     1      12.222 -25.817  10.634  1.00  0.00     0.153 C 
HETATM   27  C19 UNL     1      13.753 -25.502  12.533  1.00  0.00     0.177 C 
HETATM   28  N7  UNL     1      14.807 -25.051  11.887  1.00  0.00    -0.371 N 
HETATM   29  N8  UNL     1      13.803 -25.257  13.998  1.00  0.00    -0.292 N 
ATOM     30  H72 UNL     1      14.773 -25.219  10.881  1.00  0.00     0.159 HD
ATOM     31  H71 UNL     1      15.590 -24.554  12.311  1.00  0.00     0.159 HD
ATOM     32  H8  UNL     1      13.262 -24.538  14.478  1.00  0.00     0.171 HD
BRANCH  29  33
HETATM   33  P1  UNL     1      14.931 -26.382  14.816  1.00  0.00     0.286 P 
BRANCH  33  34
HETATM   34  O4  UNL     1      15.763 -27.286  13.601  1.00  0.00    -0.333 OA
ATOM     35  H4  UNL     1      16.621 -26.898  13.480  1.00  0.00     0.219 HD
ENDBRANCH  33  34
BRANCH  33  36
HETATM   36  O5  UNL     1      16.036 -25.564  15.836  1.00  0.00    -0.333 OA
ATOM     37  H5  UNL     1      16.747 -26.126  16.121  1.00  0.00     0.219 HD
ENDBRANCH  33  36
ENDBRANCH  29  33
ENDBRANCH  24  25
ENDBRANCH  14  24
BRANCH   2  38
HETATM   38  N1  UNL     1      14.443 -32.808  14.526  1.00  0.00    -0.368 N 
ATOM     39  H1  UNL     1      15.112 -32.915  15.289  1.00  0.00     0.161 HD
BRANCH  38  40
HETATM   40  C10 UNL     1      14.441 -33.852  13.511  1.00  0.00     0.287 C 
BRANCH  40  41
HETATM   41  O2  UNL     1      14.289 -35.037  14.254  1.00  0.00    -0.382 OA
ATOM     42  H2  UNL     1      15.047 -35.554  14.010  1.00  0.00     0.211 HD
ENDBRANCH  40  41
ENDBRANCH  38  40
ENDBRANCH   2  38
TORSDOF 15
ENDMDL
MODEL 5
REMARK VINA RESULT: -6.669598033      2.885      4.776
REMARK  15 active torsions:
REMARK  status: ('A' for Active; 'I' for Inactive)
REMARK    1  A    between atoms: C2_2  and  C3_3 
REMARK    2  A    between atoms: C3_3  and  C4_4 
REMARK    3  A    between atoms: C4_4  and  C5_5 
REMARK    4  A    between atoms: C5_5  and  O1_6 
REMARK    5  A    between atoms: O1_6  and  C6_7 
REMARK    6  A    between atoms: C6_7  and  C7_8 
REMARK    7  A    between atoms: C7_8  and  C8_9 
REMARK    8  A    between atoms: C9_10  and  N1_11 
REMARK    9  A    between atoms: N1_11  and  C10_13 
REMARK   10  A    between atoms: C10_13  and  O2_14 
REMARK       I    between atoms: N5_26  and  C16_27 
REMARK   11  A    between atoms: C16_27  and  C17_29 
REMARK   12  A    between atoms: C17_29  and  N6_30 
REMARK       I    between atoms: N6_30  and  C19_32 
REMARK       I    between atoms: C19_32  and  N8_36 
REMARK   13  A    between atoms: N8_36  and  P1_38 
REMARK   14  A    between atoms: P1_38  and  O4_39 
REMARK   15  A    between atoms: P1_38  and  O5_41 
ROOT
HETATM    1  C8  UNL     1      13.822 -29.586  15.070  1.00  0.00     0.146 C 
HETATM    2  C9  UNL     1      13.155 -30.851  14.886  1.00  0.00     0.061 C 
HETATM    3  C11 UNL     1      12.753 -31.226  13.622  1.00  0.00     0.102 A 
HETATM    4  C12 UNL     1      12.990 -30.286  12.520  1.00  0.00     0.079 A 
HETATM    5  N2  UNL     1      12.810 -30.578  11.296  1.00  0.00    -0.348 N 
ATOM      6  H2  UNL     1      12.992 -29.893  10.562  1.00  0.00     0.167 HD
HETATM    7  C13 UNL     1      12.358 -31.857  10.979  1.00  0.00     0.198 A 
HETATM    8  N3  UNL     1      12.109 -32.749  11.835  1.00  0.00    -0.294 N 
ATOM      9  H3  UNL     1      11.777 -33.662  11.526  1.00  0.00     0.188 HD
HETATM   10  N4  UNL     1      12.293 -32.490  13.297  1.00  0.00    -0.292 N 
HETATM   11  C14 UNL     1      11.874 -33.518  14.140  1.00  0.00     0.178 C 
HETATM   12  C15 UNL     1      13.195 -28.834  12.764  1.00  0.00     0.127 C 
HETATM   13  N5  UNL     1      13.574 -28.534  14.042  1.00  0.00    -0.314 N 
HETATM   14  C16 UNL     1      13.862 -27.187  14.415  1.00  0.00     0.242 C 
HETATM   15  O3  UNL     1      14.085 -26.833  15.624  1.00  0.00    -0.271 OA
ENDROOT
BRANCH   1  16
HETATM   16  C7  UNL     1      15.350 -29.781  14.594  1.00  0.00     0.058 C 
BRANCH  16  17
HETATM   17  C6  UNL     1      16.182 -30.521  15.586  1.00  0.00     0.170 C 
BRANCH  17  18
HETATM   18  O1  UNL     1      16.521 -31.654  15.000  1.00  0.00    -0.391 OA
BRANCH  18  19
HETATM   19  C5  UNL     1      16.381 -32.224  13.875  1.00  0.00     0.167 C 
BRANCH  19  20
HETATM   20  C4  UNL     1      17.522 -32.654  13.047  1.00  0.00     0.026 C 
BRANCH  20  21
HETATM   21  C3  UNL     1      18.811 -31.930  13.325  1.00  0.00     0.002 C 
BRANCH  21  22
HETATM   22  C2  UNL     1      19.876 -32.956  12.910  1.00  0.00    -0.004 C 
HETATM   23  C1  UNL     1      19.261 -34.238  12.502  1.00  0.00     0.005 C 
ENDBRANCH  21  22
ENDBRANCH  20  21
ENDBRANCH  19  20
ENDBRANCH  18  19
ENDBRANCH  17  18
ENDBRANCH  16  17
ENDBRANCH   1  16
BRANCH  14  24
HETATM   24  C17 UNL     1      13.950 -26.133  13.411  1.00  0.00     0.228 C 
BRANCH  24  25
HETATM   25  N6  UNL     1      15.295 -25.755  12.999  1.00  0.00    -0.349 N 
HETATM   26  C18 UNL     1      16.447 -25.880  13.845  1.00  0.00     0.153 C 
HETATM   27  C19 UNL     1      15.444 -25.223  11.698  1.00  0.00     0.177 C 
HETATM   28  N7  UNL     1      16.271 -24.257  11.362  1.00  0.00    -0.371 N 
HETATM   29  N8  UNL     1      14.612 -25.714  10.569  1.00  0.00    -0.292 N 
ATOM     30  H72 UNL     1      16.842 -23.919  12.137  1.00  0.00     0.159 HD
ATOM     31  H71 UNL     1      16.379 -23.872  10.423  1.00  0.00     0.159 HD
ATOM     32  H8  UNL     1      14.771 -26.595  10.081  1.00  0.00     0.171 HD
BRANCH  29  33
HETATM   33  P1  UNL     1      13.295 -24.567  10.172  1.00  0.00     0.286 P 
BRANCH  33  34
HETATM   34  O4  UNL     1      11.790 -25.331  10.540  1.00  0.00    -0.333 OA
ATOM     35  H4  UNL     1      11.122 -24.657  10.589  1.00  0.00     0.219 HD
ENDBRANCH  33  34
BRANCH  33  36
HETATM   36  O5  UNL     1      13.453 -23.084  11.013  1.00  0.00    -0.333 OA
ATOM     37  H5  UNL     1      13.837 -22.404  10.473  1.00  0.00     0.219 HD
ENDBRANCH  33  36
ENDBRANCH  29  33
ENDBRANCH  24  25
ENDBRANCH  14  24
BRANCH   2  38
HETATM   38  N1  UNL     1      12.851 -31.812  15.877  1.00  0.00    -0.368 N 
ATOM     39  H1  UNL     1      11.999 -32.356  15.739  1.00  0.00     0.161 HD
BRANCH  38  40
HETATM   40  C10 UNL     1      13.625 -32.109  17.075  1.00  0.00     0.287 C 
BRANCH  40  41
HETATM   41  O2  UNL     1      14.384 -33.236  16.709  1.00  0.00    -0.382 OA
ATOM     42  H2  UNL     1      13.747 -33.813  16.304  1.00  0.00     0.211 HD
ENDBRANCH  40  41
ENDBRANCH  38  40
ENDBRANCH   2  38
TORSDOF 15
ENDMDL
