MODEL 1
REMARK VINA RESULT: -8.053070634      0.000      0.000
REMARK  7 active torsions:
REMARK  status: ('A' for Active; 'I' for Inactive)
REMARK    1  A    between atoms: C6_6  and  C7_7 
REMARK    2  A    between atoms: C7_7  and  N1_8 
REMARK    3  A    between atoms: N1_8  and  N2_9 
REMARK       I    between atoms: N2_9  and  C8_11 
REMARK       I    between atoms: C8_11  and  N3_13 
REMARK    4  A    between atoms: N3_13  and  N4_15 
REMARK    5  A    between atoms: N4_15  and  C9_17 
REMARK    6  A    between atoms: C9_17  and  C10_21 
REMARK    7  A    between atoms: C10_21  and  N6_22 
ROOT
HETATM    1  C1  UNL     1       6.700 -13.413  12.431  1.00  0.00     0.018 C 
HETATM    2  C2  UNL     1       7.239 -12.465  12.943  1.00  0.00    -0.078 C 
HETATM    3  C3  UNL     1       7.861 -11.311  13.542  1.00  0.00     0.017 A 
HETATM    4  C4  UNL     1       7.991 -11.135  14.901  1.00  0.00     0.021 A 
HETATM    5  C5  UNL     1       8.587 -10.017  15.461  1.00  0.00     0.015 A 
HETATM    6  C6  UNL     1       9.077  -9.028  14.654  1.00  0.00    -0.005 A 
HETATM    7  C11 UNL     1       8.961  -9.177  13.291  1.00  0.00     0.015 A 
HETATM    8  C12 UNL     1       8.369 -10.288  12.733  1.00  0.00     0.021 A 
ENDROOT
BRANCH   6   9
HETATM    9  C7  UNL     1       9.702  -7.824  15.241  1.00  0.00     0.220 C 
BRANCH   9  10
HETATM   10  N1  UNL     1       9.496  -7.495  16.365  1.00  0.00    -0.334 NA
BRANCH  10  11
HETATM   11  N2  UNL     1       9.480  -7.191  17.626  1.00  0.00    -0.184 N 
HETATM   12  C8  UNL     1      10.045  -7.936  18.730  1.00  0.00     0.363 C 
HETATM   13  O1  UNL     1      10.626  -8.999  18.459  1.00  0.00    -0.243 OA
HETATM   14  N3  UNL     1       9.919  -7.450  20.027  1.00  0.00    -0.248 N 
ATOM     15  H3  UNL     1       9.428  -6.568  20.173  1.00  0.00     0.192 HD
ATOM     16  H2  UNL     1       9.012  -6.318  17.870  1.00  0.00     0.207 HD
BRANCH  14  17
HETATM   17  N4  UNL     1      10.444  -8.128  21.149  1.00  0.00    -0.284 N 
ATOM     18  H4  UNL     1       9.831  -8.390  21.921  1.00  0.00     0.188 HD
BRANCH  17  19
HETATM   19  C9  UNL     1      11.826  -8.444  21.201  1.00  0.00     0.114 C 
HETATM   20  N5  UNL     1      12.131  -9.718  21.262  1.00  0.00    -0.386 N 
ATOM     21  H52 UNL     1      11.356 -10.381  21.262  1.00  0.00     0.157 HD
ATOM     22  H51 UNL     1      13.125  -9.946  21.299  1.00  0.00     0.157 HD
BRANCH  19  23
HETATM   23  C10 UNL     1      12.946  -7.486  21.201  1.00  0.00     0.278 C 
BRANCH  23  24
HETATM   24  N6  UNL     1      13.788  -7.732  20.060  1.00  0.00    -0.148 N 
HETATM   25  O2  UNL     1      13.559  -7.122  18.996  1.00  0.00    -0.536 OA
HETATM   26  O3  UNL     1      14.809  -8.614  20.137  1.00  0.00    -0.536 OA
ENDBRANCH  23  24
ENDBRANCH  19  23
ENDBRANCH  17  19
ENDBRANCH  14  17
ENDBRANCH  10  11
ENDBRANCH   9  10
ENDBRANCH   6   9
TORSDOF 7
ENDMDL
MODEL 2
REMARK VINA RESULT: -8.044692736      0.041      1.030
REMARK  7 active torsions:
REMARK  status: ('A' for Active; 'I' for Inactive)
REMARK    1  A    between atoms: C6_6  and  C7_7 
REMARK    2  A    between atoms: C7_7  and  N1_8 
REMARK    3  A    between atoms: N1_8  and  N2_9 
REMARK       I    between atoms: N2_9  and  C8_11 
REMARK       I    between atoms: C8_11  and  N3_13 
REMARK    4  A    between atoms: N3_13  and  N4_15 
REMARK    5  A    between atoms: N4_15  and  C9_17 
REMARK    6  A    between atoms: C9_17  and  C10_21 
REMARK    7  A    between atoms: C10_21  and  N6_22 
ROOT
HETATM    1  C1  UNL     1       6.794 -13.502  12.510  1.00  0.00     0.018 C 
HETATM    2  C2  UNL     1       7.279 -12.495  12.960  1.00  0.00    -0.078 C 
HETATM    3  C3  UNL     1       7.881 -11.307  13.512  1.00  0.00     0.017 A 
HETATM    4  C4  UNL     1       8.383 -10.280  12.746  1.00  0.00     0.021 A 
HETATM    5  C5  UNL     1       8.964  -9.149  13.293  1.00  0.00     0.015 A 
HETATM    6  C6  UNL     1       9.059  -9.017  14.651  1.00  0.00    -0.005 A 
HETATM    7  C11 UNL     1       8.566 -10.029  15.442  1.00  0.00     0.015 A 
HETATM    8  C12 UNL     1       7.987 -11.155  14.900  1.00  0.00     0.021 A 
ENDROOT
BRANCH   6   9
HETATM    9  C7  UNL     1       9.690  -7.820  15.245  1.00  0.00     0.220 C 
BRANCH   9  10
HETATM   10  N1  UNL     1       9.484  -7.498  16.372  1.00  0.00    -0.334 NA
BRANCH  10  11
HETATM   11  N2  UNL     1       9.473  -7.189  17.632  1.00  0.00    -0.184 N 
HETATM   12  C8  UNL     1      10.038  -7.932  18.736  1.00  0.00     0.363 C 
HETATM   13  O1  UNL     1      10.614  -8.997  18.468  1.00  0.00    -0.243 OA
HETATM   14  N3  UNL     1       9.916  -7.441  20.032  1.00  0.00    -0.248 N 
ATOM     15  H3  UNL     1       9.428  -6.557  20.177  1.00  0.00     0.192 HD
ATOM     16  H2  UNL     1       9.007  -6.314  17.873  1.00  0.00     0.207 HD
BRANCH  14  17
HETATM   17  N4  UNL     1      10.441  -8.116  21.156  1.00  0.00    -0.284 N 
ATOM     18  H4  UNL     1       9.830  -8.367  21.933  1.00  0.00     0.188 HD
BRANCH  17  19
HETATM   19  C9  UNL     1      11.820  -8.447  21.201  1.00  0.00     0.114 C 
HETATM   20  N5  UNL     1      12.112  -9.724  21.261  1.00  0.00    -0.386 N 
ATOM     21  H52 UNL     1      11.330 -10.379  21.265  1.00  0.00     0.157 HD
ATOM     22  H51 UNL     1      13.103  -9.962  21.293  1.00  0.00     0.157 HD
BRANCH  19  23
HETATM   23  C10 UNL     1      12.950  -7.501  21.194  1.00  0.00     0.278 C 
BRANCH  23  24
HETATM   24  N6  UNL     1      13.781  -7.753  20.047  1.00  0.00    -0.148 N 
HETATM   25  O2  UNL     1      13.542  -7.151  18.981  1.00  0.00    -0.536 OA
HETATM   26  O3  UNL     1      14.804  -8.634  20.120  1.00  0.00    -0.536 OA
ENDBRANCH  23  24
ENDBRANCH  19  23
ENDBRANCH  17  19
ENDBRANCH  14  17
ENDBRANCH  10  11
ENDBRANCH   9  10
ENDBRANCH   6   9
TORSDOF 7
ENDMDL
MODEL 3
REMARK VINA RESULT: -7.952109411      1.349      2.148
REMARK  7 active torsions:
REMARK  status: ('A' for Active; 'I' for Inactive)
REMARK    1  A    between atoms: C6_6  and  C7_7 
REMARK    2  A    between atoms: C7_7  and  N1_8 
REMARK    3  A    between atoms: N1_8  and  N2_9 
REMARK       I    between atoms: N2_9  and  C8_11 
REMARK       I    between atoms: C8_11  and  N3_13 
REMARK    4  A    between atoms: N3_13  and  N4_15 
REMARK    5  A    between atoms: N4_15  and  C9_17 
REMARK    6  A    between atoms: C9_17  and  C10_21 
REMARK    7  A    between atoms: C10_21  and  N6_22 
ROOT
HETATM    1  C1  UNL     1       6.105 -14.572  13.107  1.00  0.00     0.018 C 
HETATM    2  C2  UNL     1       6.661 -13.513  13.260  1.00  0.00    -0.078 C 
HETATM    3  C3  UNL     1       7.350 -12.262  13.455  1.00  0.00     0.017 A 
HETATM    4  C4  UNL     1       7.688 -11.410  12.428  1.00  0.00     0.021 A 
HETATM    5  C5  UNL     1       8.356 -10.215  12.633  1.00  0.00     0.015 A 
HETATM    6  C6  UNL     1       8.709  -9.836  13.898  1.00  0.00    -0.005 A 
HETATM    7  C11 UNL     1       8.384 -10.668  14.944  1.00  0.00     0.015 A 
HETATM    8  C12 UNL     1       7.719 -11.857  14.744  1.00  0.00     0.021 A 
ENDROOT
BRANCH   6   9
HETATM    9  C7  UNL     1       9.434  -8.569  14.126  1.00  0.00     0.220 C 
BRANCH   9  10
HETATM   10  N1  UNL     1       9.350  -7.975  15.153  1.00  0.00    -0.334 NA
BRANCH  10  11
HETATM   11  N2  UNL     1       9.083  -7.454  16.311  1.00  0.00    -0.184 N 
HETATM   12  C8  UNL     1       9.452  -7.951  17.618  1.00  0.00     0.363 C 
HETATM   13  O1  UNL     1      10.110  -9.002  17.661  1.00  0.00    -0.243 OA
HETATM   14  N3  UNL     1       9.063  -7.252  18.757  1.00  0.00    -0.248 N 
ATOM     15  H3  UNL     1       8.524  -6.395  18.644  1.00  0.00     0.192 HD
ATOM     16  H2  UNL     1       8.547  -6.586  16.298  1.00  0.00     0.207 HD
BRANCH  14  17
HETATM   17  N4  UNL     1       9.387  -7.683  20.063  1.00  0.00    -0.284 N 
ATOM     18  H4  UNL     1       8.758  -8.310  20.565  1.00  0.00     0.188 HD
BRANCH  17  19
HETATM   19  C9  UNL     1      10.589  -7.242  20.675  1.00  0.00     0.114 C 
HETATM   20  N5  UNL     1      10.470  -6.300  21.579  1.00  0.00    -0.386 N 
ATOM     21  H52 UNL     1       9.528  -5.961  21.777  1.00  0.00     0.157 HD
ATOM     22  H51 UNL     1      11.334  -5.983  22.019  1.00  0.00     0.157 HD
BRANCH  19  23
HETATM   23  C10 UNL     1      11.949  -7.731  20.390  1.00  0.00     0.278 C 
BRANCH  23  24
HETATM   24  N6  UNL     1      12.233  -8.872  21.219  1.00  0.00    -0.148 N 
HETATM   25  O2  UNL     1      13.402  -9.306  21.273  1.00  0.00    -0.536 OA
HETATM   26  O3  UNL     1      11.249  -9.470  21.926  1.00  0.00    -0.536 OA
ENDBRANCH  23  24
ENDBRANCH  19  23
ENDBRANCH  17  19
ENDBRANCH  14  17
ENDBRANCH  10  11
ENDBRANCH   9  10
ENDBRANCH   6   9
TORSDOF 7
ENDMDL
MODEL 4
REMARK VINA RESULT: -7.912765539      1.761      2.758
REMARK  7 active torsions:
REMARK  status: ('A' for Active; 'I' for Inactive)
REMARK    1  A    between atoms: C6_6  and  C7_7 
REMARK    2  A    between atoms: C7_7  and  N1_8 
REMARK    3  A    between atoms: N1_8  and  N2_9 
REMARK       I    between atoms: N2_9  and  C8_11 
REMARK       I    between atoms: C8_11  and  N3_13 
REMARK    4  A    between atoms: N3_13  and  N4_15 
REMARK    5  A    between atoms: N4_15  and  C9_17 
REMARK    6  A    between atoms: C9_17  and  C10_21 
REMARK    7  A    between atoms: C10_21  and  N6_22 
ROOT
HETATM    1  C1  UNL     1       6.574 -16.080  12.029  1.00  0.00     0.018 C 
HETATM    2  C2  UNL     1       6.859 -14.970  12.403  1.00  0.00    -0.078 C 
HETATM    3  C3  UNL     1       7.229 -13.654  12.859  1.00  0.00     0.017 A 
HETATM    4  C4  UNL     1       7.281 -12.550  12.038  1.00  0.00     0.021 A 
HETATM    5  C5  UNL     1       7.645 -11.293  12.492  1.00  0.00     0.015 A 
HETATM    6  C6  UNL     1       7.972 -11.108  13.806  1.00  0.00    -0.005 A 
HETATM    7  C11 UNL     1       7.928 -12.195  14.650  1.00  0.00     0.015 A 
HETATM    8  C12 UNL     1       7.566 -13.445  14.202  1.00  0.00     0.021 A 
ENDROOT
BRANCH   6   9
HETATM    9  C7  UNL     1       8.374  -9.774  14.298  1.00  0.00     0.220 C 
BRANCH   9  10
HETATM   10  N1  UNL     1       8.905  -9.629  15.353  1.00  0.00    -0.334 NA
BRANCH  10  11
HETATM   11  N2  UNL     1       9.631  -9.351  16.392  1.00  0.00    -0.184 N 
HETATM   12  C8  UNL     1       9.631  -8.139  17.180  1.00  0.00     0.363 C 
HETATM   13  O1  UNL     1       8.843  -7.242  16.841  1.00  0.00    -0.243 OA
HETATM   14  N3  UNL     1      10.496  -8.020  18.263  1.00  0.00    -0.248 N 
ATOM     15  H3  UNL     1      11.115  -8.800  18.483  1.00  0.00     0.192 HD
ATOM     16  H2  UNL     1      10.282 -10.078  16.689  1.00  0.00     0.207 HD
BRANCH  14  17
HETATM   17  N4  UNL     1      10.549  -6.864  19.072  1.00  0.00    -0.284 N 
ATOM     18  H4  UNL     1      10.400  -5.944  18.660  1.00  0.00     0.188 HD
BRANCH  17  19
HETATM   19  C9  UNL     1      10.813  -6.985  20.462  1.00  0.00     0.114 C 
HETATM   20  N5  UNL     1       9.799  -6.777  21.268  1.00  0.00    -0.386 N 
ATOM     21  H52 UNL     1       8.903  -6.550  20.837  1.00  0.00     0.157 HD
ATOM     22  H51 UNL     1       9.988  -6.864  22.266  1.00  0.00     0.157 HD
BRANCH  19  23
HETATM   23  C10 UNL     1      12.108  -7.313  21.084  1.00  0.00     0.278 C 
BRANCH  23  24
HETATM   24  N6  UNL     1      12.156  -8.721  21.379  1.00  0.00    -0.148 N 
HETATM   25  O2  UNL     1      11.129  -9.286  21.806  1.00  0.00    -0.536 OA
HETATM   26  O3  UNL     1      13.298  -9.422  21.202  1.00  0.00    -0.536 OA
ENDBRANCH  23  24
ENDBRANCH  19  23
ENDBRANCH  17  19
ENDBRANCH  14  17
ENDBRANCH  10  11
ENDBRANCH   9  10
ENDBRANCH   6   9
TORSDOF 7
ENDMDL
MODEL 5
REMARK VINA RESULT: -7.888002841      1.354      1.912
REMARK  7 active torsions:
REMARK  status: ('A' for Active; 'I' for Inactive)
REMARK    1  A    between atoms: C6_6  and  C7_7 
REMARK    2  A    between atoms: C7_7  and  N1_8 
REMARK    3  A    between atoms: N1_8  and  N2_9 
REMARK       I    between atoms: N2_9  and  C8_11 
REMARK       I    between atoms: C8_11  and  N3_13 
REMARK    4  A    between atoms: N3_13  and  N4_15 
REMARK    5  A    between atoms: N4_15  and  C9_17 
REMARK    6  A    between atoms: C9_17  and  C10_21 
REMARK    7  A    between atoms: C10_21  and  N6_22 
ROOT
HETATM    1  C1  UNL     1       5.986 -14.580  13.004  1.00  0.00     0.018 C 
HETATM    2  C2  UNL     1       6.603 -13.568  13.220  1.00  0.00    -0.078 C 
HETATM    3  C3  UNL     1       7.318 -12.340  13.465  1.00  0.00     0.017 A 
HETATM    4  C4  UNL     1       7.682 -11.908  14.720  1.00  0.00     0.021 A 
HETATM    5  C5  UNL     1       8.363 -10.723  14.939  1.00  0.00     0.015 A 
HETATM    6  C6  UNL     1       8.703  -9.925  13.882  1.00  0.00    -0.005 A 
HETATM    7  C11 UNL     1       8.353 -10.332  12.615  1.00  0.00     0.015 A 
HETATM    8  C12 UNL     1       7.676 -11.510  12.395  1.00  0.00     0.021 A 
ENDROOT
BRANCH   6   9
HETATM    9  C7  UNL     1       9.419  -8.651  14.105  1.00  0.00     0.220 C 
BRANCH   9  10
HETATM   10  N1  UNL     1       9.262  -8.009  15.093  1.00  0.00    -0.334 NA
BRANCH  10  11
HETATM   11  N2  UNL     1       9.025  -7.497  16.262  1.00  0.00    -0.184 N 
HETATM   12  C8  UNL     1       9.408  -8.016  17.556  1.00  0.00     0.363 C 
HETATM   13  O1  UNL     1      10.048  -9.079  17.575  1.00  0.00    -0.243 OA
HETATM   14  N3  UNL     1       9.051  -7.324  18.710  1.00  0.00    -0.248 N 
ATOM     15  H3  UNL     1       8.525  -6.456  18.617  1.00  0.00     0.192 HD
ATOM     16  H2  UNL     1       8.503  -6.620  16.268  1.00  0.00     0.207 HD
BRANCH  14  17
HETATM   17  N4  UNL     1       9.390  -7.776  20.004  1.00  0.00    -0.284 N 
ATOM     18  H4  UNL     1       8.770  -8.416  20.501  1.00  0.00     0.188 HD
BRANCH  17  19
HETATM   19  C9  UNL     1      10.595  -7.338  20.613  1.00  0.00     0.114 C 
HETATM   20  N5  UNL     1      10.481  -6.400  21.522  1.00  0.00    -0.386 N 
ATOM     21  H52 UNL     1       9.540  -6.063  21.726  1.00  0.00     0.157 HD
ATOM     22  H51 UNL     1      11.347  -6.085  21.960  1.00  0.00     0.157 HD
BRANCH  19  23
HETATM   23  C10 UNL     1      11.954  -7.826  20.319  1.00  0.00     0.278 C 
BRANCH  23  24
HETATM   24  N6  UNL     1      12.275  -8.916  21.202  1.00  0.00    -0.148 N 
HETATM   25  O2  UNL     1      13.455  -9.317  21.266  1.00  0.00    -0.536 OA
HETATM   26  O3  UNL     1      11.312  -9.503  21.947  1.00  0.00    -0.536 OA
ENDBRANCH  23  24
ENDBRANCH  19  23
ENDBRANCH  17  19
ENDBRANCH  14  17
ENDBRANCH  10  11
ENDBRANCH   9  10
ENDBRANCH   6   9
TORSDOF 7
ENDMDL
