MODEL 1
REMARK VINA RESULT: -4.153277697      0.000      0.000
REMARK  4 active torsions:
REMARK  status: ('A' for Active; 'I' for Inactive)
REMARK    1  A    between atoms: N1_2  and  C2_4 
REMARK    2  A    between atoms: C2_4  and  C4_6 
REMARK       I    between atoms: C4_6  and  N2_8 
REMARK    3  A    between atoms: N2_8  and  C5_10 
REMARK    4  A    between atoms: C5_10  and  C6_11 
ROOT
HETATM    1  C5  UNL     1       5.915 -13.366  13.367  1.00  0.00     0.207 C 
HETATM    2  C7  UNL     1       7.016 -13.810  14.281  1.00  0.00     0.202 C 
HETATM    3  O3  UNL     1       8.002 -13.273  14.655  1.00  0.00    -0.292 OA
HETATM    4  C8  UNL     1       6.652 -15.200  14.721  1.00  0.00     0.182 C 
HETATM    5  C9  UNL     1       7.810 -16.084  14.348  1.00  0.00     0.054 C 
HETATM    6  C10 UNL     1       6.585 -15.226  16.251  1.00  0.00     0.054 C 
HETATM    7  N4  UNL     1       5.429 -15.529  14.088  1.00  0.00    -0.048 N 
ATOM      8  H41 UNL     1       4.816 -16.095  14.675  1.00  0.00     0.279 HD
ATOM      9  H42 UNL     1       5.543 -16.200  13.328  1.00  0.00     0.279 HD
HETATM   10  C11 UNL     1       4.796 -14.250  13.646  1.00  0.00     0.161 C 
HETATM   11  C12 UNL     1       3.915 -14.657  12.492  1.00  0.00     0.049 C 
HETATM   12  C13 UNL     1       3.873 -13.784  14.753  1.00  0.00     0.049 C 
ENDROOT
BRANCH   1  13
HETATM   13  N2  UNL     1       5.750 -11.949  13.645  1.00  0.00    -0.333 N 
HETATM   14  C4  UNL     1       4.812 -11.244  12.890  1.00  0.00     0.241 C 
HETATM   15  O1  UNL     1       4.046 -11.712  11.994  1.00  0.00    -0.271 OA
ATOM     16  H2  UNL     1       6.301 -11.486  14.367  1.00  0.00     0.164 HD
BRANCH  14  17
HETATM   17  C2  UNL     1       4.569  -9.729  13.054  1.00  0.00     0.165 C 
HETATM   18  C3  UNL     1       3.038  -9.684  13.185  1.00  0.00     0.042 C 
BRANCH  17  19
HETATM   19  N1  UNL     1       4.935  -9.259  11.744  1.00  0.00    -0.414 N 
HETATM   20  C1  UNL     1       4.295  -8.129  11.220  1.00  0.00     0.140 C 
ATOM     21  H1  UNL     1       5.651  -9.744  11.204  1.00  0.00     0.153 HD
ENDBRANCH  17  19
ENDBRANCH  14  17
ENDBRANCH   1  13
BRANCH   1  22
HETATM   22  C6  UNL     1       6.317 -13.402  11.935  1.00  0.00     0.270 C 
HETATM   23  N3  UNL     1       7.209 -12.350  11.477  1.00  0.00    -0.059 NA
HETATM   24  O2  UNL     1       5.982 -14.226  11.081  1.00  0.00    -0.273 OA
ENDBRANCH   1  22
TORSDOF 4
ENDMDL
MODEL 2
REMARK VINA RESULT: -4.119580866      1.566      5.362
REMARK  4 active torsions:
REMARK  status: ('A' for Active; 'I' for Inactive)
REMARK    1  A    between atoms: N1_2  and  C2_4 
REMARK    2  A    between atoms: C2_4  and  C4_6 
REMARK       I    between atoms: C4_6  and  N2_8 
REMARK    3  A    between atoms: N2_8  and  C5_10 
REMARK    4  A    between atoms: C5_10  and  C6_11 
ROOT
HETATM    1  C5  UNL     1       5.477 -13.230  12.987  1.00  0.00     0.207 C 
HETATM    2  C7  UNL     1       4.357 -12.296  13.330  1.00  0.00     0.202 C 
HETATM    3  O3  UNL     1       3.530 -12.324  14.175  1.00  0.00    -0.292 OA
HETATM    4  C8  UNL     1       4.439 -11.171  12.335  1.00  0.00     0.182 C 
HETATM    5  C9  UNL     1       3.101 -11.106  11.652  1.00  0.00     0.054 C 
HETATM    6  C10 UNL     1       4.581  -9.852  13.100  1.00  0.00     0.054 C 
HETATM    7  N4  UNL     1       5.528 -11.456  11.476  1.00  0.00    -0.048 N 
ATOM      8  H41 UNL     1       6.037 -10.620  11.188  1.00  0.00     0.279 HD
ATOM      9  H42 UNL     1       5.234 -11.759  10.548  1.00  0.00     0.279 HD
HETATM   10  C11 UNL     1       6.395 -12.456  12.169  1.00  0.00     0.161 C 
HETATM   11  C12 UNL     1       7.106 -13.166  11.045  1.00  0.00     0.049 C 
HETATM   12  C13 UNL     1       7.454 -11.696  12.940  1.00  0.00     0.049 C 
ENDROOT
BRANCH   1  13
HETATM   13  N2  UNL     1       5.954 -13.722  14.269  1.00  0.00    -0.333 N 
HETATM   14  C4  UNL     1       6.965 -14.684  14.260  1.00  0.00     0.241 C 
HETATM   15  O1  UNL     1       7.552 -15.165  13.242  1.00  0.00    -0.271 OA
ATOM     16  H2  UNL     1       5.564 -13.376  15.145  1.00  0.00     0.164 HD
BRANCH  14  17
HETATM   17  C2  UNL     1       7.532 -15.320  15.546  1.00  0.00     0.165 C 
HETATM   18  C3  UNL     1       8.259 -16.550  14.976  1.00  0.00     0.042 C 
BRANCH  17  19
HETATM   19  N1  UNL     1       6.318 -15.756  16.183  1.00  0.00    -0.414 N 
HETATM   20  C1  UNL     1       6.009 -15.279  17.463  1.00  0.00     0.140 C 
ATOM     21  H1  UNL     1       5.690 -16.405  15.708  1.00  0.00     0.153 HD
ENDBRANCH  17  19
ENDBRANCH  14  17
ENDBRANCH   1  13
BRANCH   1  22
HETATM   22  C6  UNL     1       5.000 -14.457  12.292  1.00  0.00     0.270 C 
HETATM   23  N3  UNL     1       4.234 -15.404  13.084  1.00  0.00    -0.059 NA
HETATM   24  O2  UNL     1       5.178 -14.768  11.112  1.00  0.00    -0.273 OA
ENDBRANCH   1  22
TORSDOF 4
ENDMDL
MODEL 3
REMARK VINA RESULT: -4.087992353      2.470      3.824
REMARK  4 active torsions:
REMARK  status: ('A' for Active; 'I' for Inactive)
REMARK    1  A    between atoms: N1_2  and  C2_4 
REMARK    2  A    between atoms: C2_4  and  C4_6 
REMARK       I    between atoms: C4_6  and  N2_8 
REMARK    3  A    between atoms: N2_8  and  C5_10 
REMARK    4  A    between atoms: C5_10  and  C6_11 
ROOT
HETATM    1  C5  UNL     1       6.107 -13.142  11.636  1.00  0.00     0.207 C 
HETATM    2  C7  UNL     1       6.673 -13.658  10.349  1.00  0.00     0.202 C 
HETATM    3  O3  UNL     1       7.129 -13.109   9.406  1.00  0.00    -0.292 OA
HETATM    4  C8  UNL     1       6.581 -15.157  10.429  1.00  0.00     0.182 C 
HETATM    5  C9  UNL     1       5.791 -15.601   9.230  1.00  0.00     0.054 C 
HETATM    6  C10 UNL     1       7.983 -15.743  10.244  1.00  0.00     0.054 C 
HETATM    7  N4  UNL     1       5.989 -15.470  11.676  1.00  0.00    -0.048 N 
ATOM      8  H41 UNL     1       6.370 -16.317  12.097  1.00  0.00     0.279 HD
ATOM      9  H42 UNL     1       5.023 -15.787  11.590  1.00  0.00     0.279 HD
HETATM   10  C11 UNL     1       6.132 -14.268  12.554  1.00  0.00     0.161 C 
HETATM   11  C12 UNL     1       4.999 -14.399  13.540  1.00  0.00     0.049 C 
HETATM   12  C13 UNL     1       7.414 -14.423  13.344  1.00  0.00     0.049 C 
ENDROOT
BRANCH   1  13
HETATM   13  N2  UNL     1       6.919 -11.981  11.960  1.00  0.00    -0.333 N 
HETATM   14  C4  UNL     1       6.615 -11.280  13.127  1.00  0.00     0.241 C 
HETATM   15  O1  UNL     1       5.713 -11.562  13.974  1.00  0.00    -0.271 OA
ATOM     16  H2  UNL     1       7.687 -11.690  11.355  1.00  0.00     0.164 HD
BRANCH  14  17
HETATM   17  C2  UNL     1       7.369 -10.007  13.565  1.00  0.00     0.165 C 
HETATM   18  C3  UNL     1       8.640 -10.101  12.704  1.00  0.00     0.042 C 
BRANCH  17  19
HETATM   19  N1  UNL     1       7.704 -10.351  14.921  1.00  0.00    -0.414 N 
HETATM   20  C1  UNL     1       8.565  -9.517  15.644  1.00  0.00     0.140 C 
ATOM     21  H1  UNL     1       7.319 -11.193  15.350  1.00  0.00     0.153 HD
ENDBRANCH  17  19
ENDBRANCH  14  17
ENDBRANCH   1  13
BRANCH   1  22
HETATM   22  C6  UNL     1       4.738 -12.581  11.470  1.00  0.00     0.270 C 
HETATM   23  N3  UNL     1       4.630 -11.313  10.769  1.00  0.00    -0.059 NA
HETATM   24  O2  UNL     1       3.675 -13.070  11.859  1.00  0.00    -0.273 OA
ENDBRANCH   1  22
TORSDOF 4
ENDMDL
MODEL 4
REMARK VINA RESULT: -4.070850714      1.518      5.404
REMARK  4 active torsions:
REMARK  status: ('A' for Active; 'I' for Inactive)
REMARK    1  A    between atoms: N1_2  and  C2_4 
REMARK    2  A    between atoms: C2_4  and  C4_6 
REMARK       I    between atoms: C4_6  and  N2_8 
REMARK    3  A    between atoms: N2_8  and  C5_10 
REMARK    4  A    between atoms: C5_10  and  C6_11 
ROOT
HETATM    1  C5  UNL     1       5.530 -12.095  12.981  1.00  0.00     0.207 C 
HETATM    2  C7  UNL     1       4.186 -11.452  12.828  1.00  0.00     0.202 C 
HETATM    3  O3  UNL     1       3.087 -11.863  12.986  1.00  0.00    -0.292 OA
HETATM    4  C8  UNL     1       4.451 -10.036  12.401  1.00  0.00     0.182 C 
HETATM    5  C9  UNL     1       3.709  -9.832  11.109  1.00  0.00     0.054 C 
HETATM    6  C10 UNL     1       3.795  -9.090  13.411  1.00  0.00     0.054 C 
HETATM    7  N4  UNL     1       5.856  -9.887  12.306  1.00  0.00    -0.048 N 
ATOM      8  H41 UNL     1       6.179  -8.965  12.597  1.00  0.00     0.279 HD
ATOM      9  H42 UNL     1       6.187  -9.846  11.342  1.00  0.00     0.279 HD
HETATM   10  C11 UNL     1       6.477 -10.998  13.089  1.00  0.00     0.161 C 
HETATM   11  C12 UNL     1       7.835 -11.175  12.459  1.00  0.00     0.049 C 
HETATM   12  C13 UNL     1       6.715 -10.494  14.497  1.00  0.00     0.049 C 
ENDROOT
BRANCH   1  13
HETATM   13  N2  UNL     1       5.388 -12.987  14.119  1.00  0.00    -0.333 N 
HETATM   14  C4  UNL     1       6.496 -13.750  14.489  1.00  0.00     0.241 C 
HETATM   15  O1  UNL     1       7.648 -13.730  13.957  1.00  0.00    -0.271 OA
ATOM     16  H2  UNL     1       4.508 -13.054  14.630  1.00  0.00     0.164 HD
BRANCH  14  17
HETATM   17  C2  UNL     1       6.468 -14.767  15.650  1.00  0.00     0.165 C 
HETATM   18  C3  UNL     1       7.845 -15.433  15.498  1.00  0.00     0.042 C 
BRANCH  17  19
HETATM   19  N1  UNL     1       5.459 -15.678  15.179  1.00  0.00    -0.414 N 
HETATM   20  C1  UNL     1       5.852 -16.873  14.565  1.00  0.00     0.140 C 
ATOM     21  H1  UNL     1       4.470 -15.455  15.291  1.00  0.00     0.153 HD
ENDBRANCH  17  19
ENDBRANCH  14  17
ENDBRANCH   1  13
BRANCH   1  22
HETATM   22  C6  UNL     1       5.854 -13.009  11.852  1.00  0.00     0.270 C 
HETATM   23  N3  UNL     1       5.266 -14.337  11.893  1.00  0.00    -0.059 NA
HETATM   24  O2  UNL     1       6.569 -12.771  10.875  1.00  0.00    -0.273 OA
ENDBRANCH   1  22
TORSDOF 4
ENDMDL
MODEL 5
REMARK VINA RESULT: -4.054089845      2.136      4.237
REMARK  4 active torsions:
REMARK  status: ('A' for Active; 'I' for Inactive)
REMARK    1  A    between atoms: N1_2  and  C2_4 
REMARK    2  A    between atoms: C2_4  and  C4_6 
REMARK       I    between atoms: C4_6  and  N2_8 
REMARK    3  A    between atoms: N2_8  and  C5_10 
REMARK    4  A    between atoms: C5_10  and  C6_11 
ROOT
HETATM    1  C5  UNL     1       5.519 -13.344  13.264  1.00  0.00     0.207 C 
HETATM    2  C7  UNL     1       4.389 -14.079  13.918  1.00  0.00     0.202 C 
HETATM    3  O3  UNL     1       3.326 -14.416  13.521  1.00  0.00    -0.292 OA
HETATM    4  C8  UNL     1       4.844 -14.375  15.319  1.00  0.00     0.182 C 
HETATM    5  C9  UNL     1       3.815 -13.778  16.238  1.00  0.00     0.054 C 
HETATM    6  C10 UNL     1       4.777 -15.888  15.545  1.00  0.00     0.054 C 
HETATM    7  N4  UNL     1       6.145 -13.832  15.456  1.00  0.00    -0.048 N 
ATOM      8  H41 UNL     1       6.755 -14.402  16.042  1.00  0.00     0.279 HD
ATOM      9  H42 UNL     1       6.165 -12.986  16.026  1.00  0.00     0.279 HD
HETATM   10  C11 UNL     1       6.689 -13.621  14.080  1.00  0.00     0.161 C 
HETATM   11  C12 UNL     1       7.704 -12.520  14.253  1.00  0.00     0.049 C 
HETATM   12  C13 UNL     1       7.460 -14.865  13.692  1.00  0.00     0.049 C 
ENDROOT
BRANCH   1  13
HETATM   13  N2  UNL     1       5.520 -13.813  11.888  1.00  0.00    -0.333 N 
HETATM   14  C4  UNL     1       6.434 -13.236  11.006  1.00  0.00     0.241 C 
HETATM   15  O1  UNL     1       7.305 -12.354  11.278  1.00  0.00    -0.271 OA
ATOM     16  H2  UNL     1       4.876 -14.540  11.579  1.00  0.00     0.164 HD
BRANCH  14  17
HETATM   17  C2  UNL     1       6.512 -13.612   9.511  1.00  0.00     0.165 C 
HETATM   18  C3  UNL     1       5.261 -14.492   9.358  1.00  0.00     0.042 C 
BRANCH  17  19
HETATM   19  N1  UNL     1       7.676 -14.458   9.511  1.00  0.00    -0.414 N 
HETATM   20  C1  UNL     1       7.512 -15.843   9.635  1.00  0.00     0.140 C 
ATOM     21  H1  UNL     1       8.608 -14.053   9.423  1.00  0.00     0.153 HD
ENDBRANCH  17  19
ENDBRANCH  14  17
ENDBRANCH   1  13
BRANCH   1  22
HETATM   22  C6  UNL     1       5.251 -11.885  13.140  1.00  0.00     0.270 C 
HETATM   23  N3  UNL     1       4.177 -11.489  12.246  1.00  0.00    -0.059 NA
HETATM   24  O2  UNL     1       5.838 -10.964  13.713  1.00  0.00    -0.273 OA
ENDBRANCH   1  22
TORSDOF 4
ENDMDL
