MODEL 1
REMARK VINA RESULT: -8.201963726      0.000      0.000
REMARK  5 active torsions:
REMARK  status: ('A' for Active; 'I' for Inactive)
REMARK       I    between atoms: C2_2  and  N1_4 
REMARK    1  A    between atoms: N1_4  and  C3_5 
REMARK    2  A    between atoms: C3_5  and  C4_9 
REMARK    3  A    between atoms: C7_12  and  C8_13 
REMARK       I    between atoms: C8_13  and  N3_15 
REMARK    4  A    between atoms: N3_15  and  N4_17 
REMARK    5  A    between atoms: N4_17  and  S1_19 
ROOT
HETATM    1  C4  UNL     1       9.820  -7.403  19.256  1.00  0.00     0.022 A 
HETATM    2  C5  UNL     1      10.216  -8.625  19.059  1.00  0.00     0.017 A 
HETATM    3  C6  UNL     1      10.251  -9.086  17.708  1.00  0.00     0.018 A 
HETATM    4  C7  UNL     1       9.856  -8.151  16.760  1.00  0.00     0.033 A 
HETATM    5  C10 UNL     1       9.443  -6.863  17.034  1.00  0.00     0.018 A 
HETATM    6  C11 UNL     1       9.433  -6.488  18.414  1.00  0.00     0.017 A 
ENDROOT
BRANCH   4   7
HETATM    7  C8  UNL     1      10.021  -8.624  15.340  1.00  0.00     0.270 C 
HETATM    8  O2  UNL     1      11.160  -8.538  14.890  1.00  0.00    -0.266 OA
HETATM    9  N3  UNL     1       8.883  -9.102  14.710  1.00  0.00    -0.256 N 
ATOM     10  H3  UNL     1       8.043  -9.075  15.287  1.00  0.00     0.191 HD
BRANCH   9  11
HETATM   11  N4  UNL     1       8.689  -9.597  13.467  1.00  0.00    -0.225 N 
ATOM     12  H4  UNL     1       9.218  -9.256  12.664  1.00  0.00     0.200 HD
BRANCH  11  13
HETATM   13  S1  UNL     1       7.547 -10.786  13.315  1.00  0.00     0.240 S 
HETATM   14  C9  UNL     1       7.850 -12.145  14.482  1.00  0.00     0.187 C 
HETATM   15  O3  UNL     1       6.115 -10.336  13.564  1.00  0.00    -0.205 OA
HETATM   16  O4  UNL     1       7.551 -11.370  11.913  1.00  0.00    -0.205 OA
ENDBRANCH  11  13
ENDBRANCH   9  11
ENDBRANCH   4   7
BRANCH   1  17
HETATM   17  C3  UNL     1      10.250  -6.817  20.886  1.00  0.00     0.186 C 
HETATM   18  N2  UNL     1       9.098  -6.546  21.025  1.00  0.00    -0.373 N 
ATOM     19  H22 UNL     1       9.343  -6.211  21.957  1.00  0.00     0.158 HD
ATOM     20  H21 UNL     1       8.116  -6.315  21.178  1.00  0.00     0.158 HD
BRANCH  17  21
HETATM   21  N1  UNL     1      11.543  -7.121  20.685  1.00  0.00    -0.352 NA
HETATM   22  C2  UNL     1      12.802  -7.420  20.498  1.00  0.00     0.289 C 
HETATM   23  C1  UNL     1      13.563  -6.927  19.279  1.00  0.00     0.135 C 
HETATM   24  O1  UNL     1      13.590  -8.123  21.238  1.00  0.00    -0.258 OA
ENDBRANCH  17  21
ENDBRANCH   1  17
TORSDOF 5
ENDMDL
MODEL 2
REMARK VINA RESULT: -8.058261680      1.245      1.279
REMARK  5 active torsions:
REMARK  status: ('A' for Active; 'I' for Inactive)
REMARK       I    between atoms: C2_2  and  N1_4 
REMARK    1  A    between atoms: N1_4  and  C3_5 
REMARK    2  A    between atoms: C3_5  and  C4_9 
REMARK    3  A    between atoms: C7_12  and  C8_13 
REMARK       I    between atoms: C8_13  and  N3_15 
REMARK    4  A    between atoms: N3_15  and  N4_17 
REMARK    5  A    between atoms: N4_17  and  S1_19 
ROOT
HETATM    1  C4  UNL     1       9.730  -7.269  18.917  1.00  0.00     0.022 A 
HETATM    2  C5  UNL     1      10.770  -7.856  18.404  1.00  0.00     0.017 A 
HETATM    3  C6  UNL     1      10.683  -8.251  17.035  1.00  0.00     0.018 A 
HETATM    4  C7  UNL     1       9.478  -7.948  16.414  1.00  0.00     0.033 A 
HETATM    5  C10 UNL     1       8.405  -7.322  17.017  1.00  0.00     0.018 A 
HETATM    6  C11 UNL     1       8.578  -6.967  18.391  1.00  0.00     0.017 A 
ENDROOT
BRANCH   4   7
HETATM    7  C8  UNL     1       9.460  -8.265  14.942  1.00  0.00     0.270 C 
HETATM    8  O2  UNL     1      10.050  -7.460  14.228  1.00  0.00    -0.266 OA
HETATM    9  N3  UNL     1       8.793  -9.418  14.564  1.00  0.00    -0.256 N 
ATOM     10  H3  UNL     1       8.374  -9.933  15.339  1.00  0.00     0.191 HD
BRANCH   9  11
HETATM   11  N4  UNL     1       8.597  -9.984  13.351  1.00  0.00    -0.225 N 
ATOM     12  H4  UNL     1       9.154  -9.718  12.539  1.00  0.00     0.200 HD
BRANCH  11  13
HETATM   13  S1  UNL     1       7.407 -11.131  13.253  1.00  0.00     0.240 S 
HETATM   14  C9  UNL     1       7.756 -12.538  14.349  1.00  0.00     0.187 C 
HETATM   15  O3  UNL     1       6.015 -10.645  13.631  1.00  0.00    -0.205 OA
HETATM   16  O4  UNL     1       7.281 -11.666  11.838  1.00  0.00    -0.205 OA
ENDBRANCH  11  13
ENDBRANCH   9  11
ENDBRANCH   4   7
BRANCH   1  17
HETATM   17  C3  UNL     1      10.121  -6.435  20.446  1.00  0.00     0.186 C 
HETATM   18  N2  UNL     1       9.522  -5.498  20.016  1.00  0.00    -0.373 N 
ATOM     19  H22 UNL     1       9.746  -5.021  20.890  1.00  0.00     0.158 HD
ATOM     20  H21 UNL     1       9.006  -4.685  19.681  1.00  0.00     0.158 HD
BRANCH  17  21
HETATM   21  N1  UNL     1      10.802  -7.506  20.888  1.00  0.00    -0.352 NA
HETATM   22  C2  UNL     1      11.457  -8.550  21.325  1.00  0.00     0.289 C 
HETATM   23  C1  UNL     1      12.928  -8.755  21.003  1.00  0.00     0.135 C 
HETATM   24  O1  UNL     1      11.038  -9.528  22.053  1.00  0.00    -0.258 OA
ENDBRANCH  17  21
ENDBRANCH   1  17
TORSDOF 5
ENDMDL
MODEL 3
REMARK VINA RESULT: -7.904176282      1.123      1.608
REMARK  5 active torsions:
REMARK  status: ('A' for Active; 'I' for Inactive)
REMARK       I    between atoms: C2_2  and  N1_4 
REMARK    1  A    between atoms: N1_4  and  C3_5 
REMARK    2  A    between atoms: C3_5  and  C4_9 
REMARK    3  A    between atoms: C7_12  and  C8_13 
REMARK       I    between atoms: C8_13  and  N3_15 
REMARK    4  A    between atoms: N3_15  and  N4_17 
REMARK    5  A    between atoms: N4_17  and  S1_19 
ROOT
HETATM    1  C4  UNL     1       9.630  -7.436  18.665  1.00  0.00     0.022 A 
HETATM    2  C5  UNL     1       9.241  -6.476  17.879  1.00  0.00     0.017 A 
HETATM    3  C6  UNL     1       9.249  -6.743  16.476  1.00  0.00     0.018 A 
HETATM    4  C7  UNL     1       9.675  -8.018  16.126  1.00  0.00     0.033 A 
HETATM    5  C10 UNL     1      10.080  -8.996  17.012  1.00  0.00     0.018 A 
HETATM    6  C11 UNL     1      10.045  -8.640  18.397  1.00  0.00     0.017 A 
ENDROOT
BRANCH   4   7
HETATM    7  C8  UNL     1       9.557  -8.311  14.653  1.00  0.00     0.270 C 
HETATM    8  O2  UNL     1      10.101  -7.496  13.914  1.00  0.00    -0.266 OA
HETATM    9  N3  UNL     1       8.859  -9.455  14.303  1.00  0.00    -0.256 N 
ATOM     10  H3  UNL     1       8.492  -9.981  15.096  1.00  0.00     0.191 HD
BRANCH   9  11
HETATM   11  N4  UNL     1       8.579 -10.000  13.097  1.00  0.00    -0.225 N 
ATOM     12  H4  UNL     1       9.067  -9.708  12.250  1.00  0.00     0.200 HD
BRANCH  11  13
HETATM   13  S1  UNL     1       7.404 -11.166  13.067  1.00  0.00     0.240 S 
HETATM   14  C9  UNL     1       7.743 -12.475  14.280  1.00  0.00     0.187 C 
HETATM   15  O3  UNL     1       5.999 -10.669  13.375  1.00  0.00    -0.205 OA
HETATM   16  O4  UNL     1       7.315 -11.814  11.697  1.00  0.00    -0.205 OA
ENDBRANCH  11  13
ENDBRANCH   9  11
ENDBRANCH   4   7
BRANCH   1  17
HETATM   17  C3  UNL     1       9.148  -7.147  20.359  1.00  0.00     0.186 C 
HETATM   18  N2  UNL     1       8.182  -6.600  19.926  1.00  0.00    -0.373 N 
ATOM     19  H22 UNL     1       7.906  -6.435  20.894  1.00  0.00     0.158 HD
ATOM     20  H21 UNL     1       7.338  -6.138  19.585  1.00  0.00     0.158 HD
BRANCH  17  21
HETATM   21  N1  UNL     1      10.259  -7.756  20.808  1.00  0.00    -0.352 NA
HETATM   22  C2  UNL     1      11.334  -8.353  21.251  1.00  0.00     0.289 C 
HETATM   23  C1  UNL     1      12.721  -7.797  20.976  1.00  0.00     0.135 C 
HETATM   24  O1  UNL     1      11.436  -9.432  21.950  1.00  0.00    -0.258 OA
ENDBRANCH  17  21
ENDBRANCH   1  17
TORSDOF 5
ENDMDL
MODEL 4
REMARK VINA RESULT: -7.850229070      3.316      7.872
REMARK  5 active torsions:
REMARK  status: ('A' for Active; 'I' for Inactive)
REMARK       I    between atoms: C2_2  and  N1_4 
REMARK    1  A    between atoms: N1_4  and  C3_5 
REMARK    2  A    between atoms: C3_5  and  C4_9 
REMARK    3  A    between atoms: C7_12  and  C8_13 
REMARK       I    between atoms: C8_13  and  N3_15 
REMARK    4  A    between atoms: N3_15  and  N4_17 
REMARK    5  A    between atoms: N4_17  and  S1_19 
ROOT
HETATM    1  C4  UNL     1       7.640 -11.149  13.248  1.00  0.00     0.022 A 
HETATM    2  C5  UNL     1       7.502 -11.266  14.535  1.00  0.00     0.017 A 
HETATM    3  C6  UNL     1       8.249 -10.364  15.352  1.00  0.00     0.018 A 
HETATM    4  C7  UNL     1       9.037  -9.458  14.654  1.00  0.00     0.033 A 
HETATM    5  C10 UNL     1       9.143  -9.386  13.280  1.00  0.00     0.018 A 
HETATM    6  C11 UNL     1       8.365 -10.331  12.541  1.00  0.00     0.017 A 
ENDROOT
BRANCH   4   7
HETATM    7  C8  UNL     1       9.715  -8.443  15.536  1.00  0.00     0.270 C 
HETATM    8  O2  UNL     1      10.926  -8.331  15.367  1.00  0.00    -0.266 OA
HETATM    9  N3  UNL     1       8.906  -7.753  16.423  1.00  0.00    -0.256 N 
ATOM     10  H3  UNL     1       7.921  -8.018  16.385  1.00  0.00     0.191 HD
BRANCH   9  11
HETATM   11  N4  UNL     1       9.187  -6.792  17.332  1.00  0.00    -0.225 N 
ATOM     12  H4  UNL     1       9.136  -5.801  17.097  1.00  0.00     0.200 HD
BRANCH  11  13
HETATM   13  S1  UNL     1       9.619  -7.308  18.845  1.00  0.00     0.240 S 
HETATM   14  C9  UNL     1      10.472  -5.997  19.770  1.00  0.00     0.187 C 
HETATM   15  O3  UNL     1       8.460  -7.750  19.727  1.00  0.00    -0.205 OA
HETATM   16  O4  UNL     1      10.551  -8.503  18.768  1.00  0.00    -0.205 OA
ENDBRANCH  11  13
ENDBRANCH   9  11
ENDBRANCH   4   7
BRANCH   1  17
HETATM   17  C3  UNL     1       6.345 -11.996  12.359  1.00  0.00     0.186 C 
HETATM   18  N2  UNL     1       7.042 -12.962  12.385  1.00  0.00    -0.373 N 
ATOM     19  H22 UNL     1       6.302 -13.445  11.877  1.00  0.00     0.158 HD
ATOM     20  H21 UNL     1       7.612 -13.808  12.403  1.00  0.00     0.158 HD
BRANCH  17  21
HETATM   21  N1  UNL     1       5.594 -10.881  12.335  1.00  0.00    -0.352 NA
HETATM   22  C2  UNL     1       4.871  -9.793  12.306  1.00  0.00     0.289 C 
HETATM   23  C1  UNL     1       3.720  -9.579  13.275  1.00  0.00     0.135 C 
HETATM   24  O1  UNL     1       4.972  -8.768  11.531  1.00  0.00    -0.258 OA
ENDBRANCH  17  21
ENDBRANCH   1  17
TORSDOF 5
ENDMDL
MODEL 5
REMARK VINA RESULT: -7.711444326      3.283      8.046
REMARK  5 active torsions:
REMARK  status: ('A' for Active; 'I' for Inactive)
REMARK       I    between atoms: C2_2  and  N1_4 
REMARK    1  A    between atoms: N1_4  and  C3_5 
REMARK    2  A    between atoms: C3_5  and  C4_9 
REMARK    3  A    between atoms: C7_12  and  C8_13 
REMARK       I    between atoms: C8_13  and  N3_15 
REMARK    4  A    between atoms: N3_15  and  N4_17 
REMARK    5  A    between atoms: N4_17  and  S1_19 
ROOT
HETATM    1  C4  UNL     1       7.214 -10.880  13.240  1.00  0.00     0.022 A 
HETATM    2  C5  UNL     1       7.335 -11.322  14.456  1.00  0.00     0.017 A 
HETATM    3  C6  UNL     1       8.319 -10.696  15.280  1.00  0.00     0.018 A 
HETATM    4  C7  UNL     1       9.031  -9.673  14.666  1.00  0.00     0.033 A 
HETATM    5  C10 UNL     1       8.857  -9.250  13.364  1.00  0.00     0.018 A 
HETATM    6  C11 UNL     1       7.854  -9.937  12.610  1.00  0.00     0.017 A 
ENDROOT
BRANCH   4   7
HETATM    7  C8  UNL     1       9.973  -8.952  15.593  1.00  0.00     0.270 C 
HETATM    8  O2  UNL     1      11.038  -8.607  15.090  1.00  0.00    -0.266 OA
HETATM    9  N3  UNL     1       9.535  -8.758  16.893  1.00  0.00    -0.256 N 
ATOM     10  H3  UNL     1       8.607  -9.136  17.084  1.00  0.00     0.191 HD
BRANCH   9  11
HETATM   11  N4  UNL     1      10.118  -8.156  17.955  1.00  0.00    -0.225 N 
ATOM     12  H4  UNL     1      11.065  -8.391  18.251  1.00  0.00     0.200 HD
BRANCH  11  13
HETATM   13  S1  UNL     1       9.214  -7.019  18.749  1.00  0.00     0.240 S 
HETATM   14  C9  UNL     1      10.262  -5.696  19.422  1.00  0.00     0.187 C 
HETATM   15  O3  UNL     1       8.164  -6.323  17.895  1.00  0.00    -0.205 OA
HETATM   16  O4  UNL     1       8.452  -7.639  19.906  1.00  0.00    -0.205 OA
ENDBRANCH  11  13
ENDBRANCH   9  11
ENDBRANCH   4   7
BRANCH   1  17
HETATM   17  C3  UNL     1       5.687 -11.411  12.486  1.00  0.00     0.186 C 
HETATM   18  N2  UNL     1       5.135 -10.633  13.200  1.00  0.00    -0.373 N 
ATOM     19  H22 UNL     1       4.262 -10.936  12.769  1.00  0.00     0.158 HD
ATOM     20  H21 UNL     1       4.637  -9.966  13.790  1.00  0.00     0.158 HD
BRANCH  17  21
HETATM   21  N1  UNL     1       6.343 -12.289  11.708  1.00  0.00    -0.352 NA
HETATM   22  C2  UNL     1       6.978 -13.138  10.944  1.00  0.00     0.289 C 
HETATM   23  C1  UNL     1       7.537 -14.438  11.496  1.00  0.00     0.135 C 
HETATM   24  O1  UNL     1       7.236 -13.063   9.683  1.00  0.00    -0.258 OA
ENDBRANCH  17  21
ENDBRANCH   1  17
TORSDOF 5
ENDMDL
