MODEL 1
REMARK VINA RESULT: -5.600476053      0.000      0.000
REMARK  7 active torsions:
REMARK  status: ('A' for Active; 'I' for Inactive)
REMARK    1  A    between atoms: N1_1  and  C1_5 
REMARK    2  A    between atoms: C3_7  and  N2_8 
REMARK    3  A    between atoms: C6_11  and  N3_12 
REMARK       I    between atoms: N3_12  and  C7_14 
REMARK    4  A    between atoms: C7_14  and  C8_16 
REMARK    5  A    between atoms: C8_16  and  N4_17 
REMARK    6  A    between atoms: C8_16  and  C9_21 
REMARK    7  A    between atoms: C15_27  and  N5_28 
ROOT
HETATM    1  N2  UNL     1       9.340  -9.803  14.616  1.00  0.00     0.097 N 
HETATM    2  C4  UNL     1       9.348  -8.406  14.299  1.00  0.00     0.275 C 
HETATM    3  C5  UNL     1       8.922  -7.766  15.597  1.00  0.00     0.057 C 
HETATM    4  C6  UNL     1       9.283  -8.758  16.682  1.00  0.00     0.114 C 
HETATM    5  C14 UNL     1      10.022  -9.820  15.897  1.00  0.00     0.298 C 
ENDROOT
BRANCH   4   6
HETATM    6  N3  UNL     1      10.153  -8.080  17.621  1.00  0.00    -0.353 N 
HETATM    7  C7  UNL     1       9.719  -7.472  18.808  1.00  0.00     0.249 C 
HETATM    8  O1  UNL     1       8.498  -7.506  19.083  1.00  0.00    -0.271 OA
ATOM      9  H3  UNL     1      11.148  -8.041  17.403  1.00  0.00     0.163 HD
BRANCH   7  10
HETATM   10  C8  UNL     1      10.673  -6.808  19.711  1.00  0.00     0.278 C 
BRANCH  10  11
HETATM   11  N4  UNL     1      10.056  -5.488  20.026  1.00  0.00    -0.066 N 
ATOM     12  H43 UNL     1       9.256  -5.256  19.437  1.00  0.00     0.275 HD
ATOM     13  H42 UNL     1       9.557  -5.467  20.915  1.00  0.00     0.275 HD
ATOM     14  H41 UNL     1      10.821  -4.815  19.966  1.00  0.00     0.275 HD
ENDBRANCH  10  11
BRANCH  10  15
HETATM   15  C9  UNL     1      10.871  -7.510  21.030  1.00  0.00     0.025 C 
HETATM   16  C10 UNL     1      12.203  -7.031  21.619  1.00  0.00     0.007 C 
HETATM   17  C11 UNL     1      13.207  -7.787  20.816  1.00  0.00     0.000 C 
HETATM   18  C12 UNL     1      12.579  -9.144  20.609  1.00  0.00     0.000 C 
HETATM   19  C13 UNL     1      11.110  -8.975  20.964  1.00  0.00     0.007 C 
ENDBRANCH  10  15
ENDBRANCH   7  10
ENDBRANCH   4   6
BRANCH   1  20
HETATM   20  C3  UNL     1       8.041 -10.398  14.676  1.00  0.00     0.257 C 
HETATM   21  C2  UNL     1       6.958  -9.821  13.854  1.00  0.00     0.073 C 
HETATM   22  C1  UNL     1       6.526 -11.247  13.505  1.00  0.00     0.218 C 
HETATM   23  C15 UNL     1       7.913 -11.700  13.959  1.00  0.00     0.246 C 
BRANCH  22  24
HETATM   24  N1  UNL     1       6.370 -11.504  12.102  1.00  0.00    -0.073 N 
ATOM     25  H13 UNL     1       6.277 -10.626  11.590  1.00  0.00     0.274 HD
ATOM     26  H12 UNL     1       7.245 -11.848  11.706  1.00  0.00     0.274 HD
ATOM     27  H11 UNL     1       5.603 -12.134  11.863  1.00  0.00     0.274 HD
ENDBRANCH  22  24
BRANCH  23  28
HETATM   28  N5  UNL     1       7.766 -12.871  14.799  1.00  0.00    -0.071 N 
ATOM     29  H53 UNL     1       6.791 -13.145  14.921  1.00  0.00     0.274 HD
ATOM     30  H52 UNL     1       8.095 -13.722  14.344  1.00  0.00     0.274 HD
ATOM     31  H51 UNL     1       8.236 -12.696  15.688  1.00  0.00     0.274 HD
ENDBRANCH  23  28
ENDBRANCH   1  20
TORSDOF 7
ENDMDL
MODEL 2
REMARK VINA RESULT: -5.496198154      1.247      1.442
REMARK  7 active torsions:
REMARK  status: ('A' for Active; 'I' for Inactive)
REMARK    1  A    between atoms: N1_1  and  C1_5 
REMARK    2  A    between atoms: C3_7  and  N2_8 
REMARK    3  A    between atoms: C6_11  and  N3_12 
REMARK       I    between atoms: N3_12  and  C7_14 
REMARK    4  A    between atoms: C7_14  and  C8_16 
REMARK    5  A    between atoms: C8_16  and  N4_17 
REMARK    6  A    between atoms: C8_16  and  C9_21 
REMARK    7  A    between atoms: C15_27  and  N5_28 
ROOT
HETATM    1  N2  UNL     1       8.356 -10.612  14.077  1.00  0.00     0.097 N 
HETATM    2  C4  UNL     1       9.067  -9.520  13.481  1.00  0.00     0.275 C 
HETATM    3  C5  UNL     1       8.787  -8.381  14.429  1.00  0.00     0.057 C 
HETATM    4  C6  UNL     1       8.463  -9.025  15.760  1.00  0.00     0.114 C 
HETATM    5  C14 UNL     1       8.735 -10.485  15.472  1.00  0.00     0.298 C 
ENDROOT
BRANCH   4   6
HETATM    6  N3  UNL     1       9.385  -8.489  16.740  1.00  0.00    -0.353 N 
HETATM    7  C7  UNL     1       9.122  -7.375  17.551  1.00  0.00     0.249 C 
HETATM    8  O1  UNL     1       8.021  -6.792  17.424  1.00  0.00    -0.271 OA
ATOM      9  H3  UNL     1      10.287  -8.952  16.846  1.00  0.00     0.163 HD
BRANCH   7  10
HETATM   10  C8  UNL     1      10.115  -6.899  18.528  1.00  0.00     0.278 C 
BRANCH  10  11
HETATM   11  N4  UNL     1       9.755  -5.475  18.784  1.00  0.00    -0.066 N 
ATOM     12  H43 UNL     1      10.472  -4.809  18.492  1.00  0.00     0.275 HD
ATOM     13  H42 UNL     1       9.014  -5.122  18.179  1.00  0.00     0.275 HD
ATOM     14  H41 UNL     1       9.533  -5.431  19.779  1.00  0.00     0.275 HD
ENDBRANCH  10  11
BRANCH  10  15
HETATM   15  C9  UNL     1      10.057  -7.598  19.862  1.00  0.00     0.025 C 
HETATM   16  C10 UNL     1      10.776  -6.711  20.886  1.00  0.00     0.007 C 
HETATM   17  C11 UNL     1      12.215  -6.952  20.574  1.00  0.00     0.000 C 
HETATM   18  C12 UNL     1      12.284  -8.419  20.224  1.00  0.00     0.000 C 
HETATM   19  C13 UNL     1      10.847  -8.851  19.981  1.00  0.00     0.007 C 
ENDBRANCH  10  15
ENDBRANCH   7  10
ENDBRANCH   4   6
BRANCH   1  20
HETATM   20  C3  UNL     1       6.939 -10.582  13.885  1.00  0.00     0.257 C 
HETATM   21  C2  UNL     1       6.402  -9.958  12.660  1.00  0.00     0.073 C 
HETATM   22  C1  UNL     1       5.410 -11.119  12.558  1.00  0.00     0.218 C 
HETATM   23  C15 UNL     1       6.328 -11.889  13.507  1.00  0.00     0.246 C 
BRANCH  22  24
HETATM   24  N1  UNL     1       5.377 -11.774  11.282  1.00  0.00    -0.073 N 
ATOM     25  H13 UNL     1       4.784 -12.603  11.326  1.00  0.00     0.274 HD
ATOM     26  H12 UNL     1       4.848 -11.215  10.612  1.00  0.00     0.274 HD
ATOM     27  H11 UNL     1       6.291 -12.013  10.898  1.00  0.00     0.274 HD
ENDBRANCH  22  24
BRANCH  23  28
HETATM   28  N5  UNL     1       5.515 -12.523  14.525  1.00  0.00    -0.071 N 
ATOM     29  H53 UNL     1       4.655 -12.009  14.715  1.00  0.00     0.274 HD
ATOM     30  H52 UNL     1       5.090 -13.392  14.200  1.00  0.00     0.274 HD
ATOM     31  H51 UNL     1       6.084 -12.655  15.361  1.00  0.00     0.274 HD
ENDBRANCH  23  28
ENDBRANCH   1  20
TORSDOF 7
ENDMDL
MODEL 3
REMARK VINA RESULT: -5.270754528      2.272      8.067
REMARK  7 active torsions:
REMARK  status: ('A' for Active; 'I' for Inactive)
REMARK    1  A    between atoms: N1_1  and  C1_5 
REMARK    2  A    between atoms: C3_7  and  N2_8 
REMARK    3  A    between atoms: C6_11  and  N3_12 
REMARK       I    between atoms: N3_12  and  C7_14 
REMARK    4  A    between atoms: C7_14  and  C8_16 
REMARK    5  A    between atoms: C8_16  and  N4_17 
REMARK    6  A    between atoms: C8_16  and  C9_21 
REMARK    7  A    between atoms: C15_27  and  N5_28 
ROOT
HETATM    1  N2  UNL     1       9.567  -7.619  16.788  1.00  0.00     0.097 N 
HETATM    2  C4  UNL     1      10.513  -8.082  15.816  1.00  0.00     0.275 C 
HETATM    3  C5  UNL     1      10.035  -9.482  15.525  1.00  0.00     0.057 C 
HETATM    4  C6  UNL     1       8.563  -9.496  15.875  1.00  0.00     0.114 C 
HETATM    5  C14 UNL     1       8.308  -8.039  16.200  1.00  0.00     0.298 C 
ENDROOT
BRANCH   4   6
HETATM    6  N3  UNL     1       7.838  -9.918  14.694  1.00  0.00    -0.353 N 
HETATM    7  C7  UNL     1       7.632 -11.256  14.326  1.00  0.00     0.249 C 
HETATM    8  O1  UNL     1       8.108 -12.155  15.056  1.00  0.00    -0.271 OA
ATOM      9  H3  UNL     1       7.452  -9.194  14.090  1.00  0.00     0.163 HD
BRANCH   7  10
HETATM   10  C8  UNL     1       6.876 -11.599  13.110  1.00  0.00     0.278 C 
BRANCH  10  11
HETATM   11  N4  UNL     1       6.944 -10.380  12.254  1.00  0.00    -0.066 N 
ATOM     12  H43 UNL     1       6.682  -9.521  12.737  1.00  0.00     0.275 HD
ATOM     13  H42 UNL     1       7.894 -10.095  12.016  1.00  0.00     0.275 HD
ATOM     14  H41 UNL     1       6.362 -10.592  11.443  1.00  0.00     0.275 HD
ENDBRANCH  10  11
BRANCH  10  15
HETATM   15  C9  UNL     1       7.477 -12.720  12.302  1.00  0.00     0.025 C 
HETATM   16  C10 UNL     1       6.681 -12.834  10.996  1.00  0.00     0.007 C 
HETATM   17  C11 UNL     1       5.433 -13.523  11.434  1.00  0.00     0.000 C 
HETATM   18  C12 UNL     1       5.895 -14.518  12.470  1.00  0.00     0.000 C 
HETATM   19  C13 UNL     1       7.304 -14.090  12.850  1.00  0.00     0.007 C 
ENDBRANCH  10  15
ENDBRANCH   7  10
ENDBRANCH   4   6
BRANCH   1  20
HETATM   20  C3  UNL     1       9.759  -8.137  18.107  1.00  0.00     0.257 C 
HETATM   21  C2  UNL     1      11.094  -8.022  18.726  1.00  0.00     0.073 C 
HETATM   22  C1  UNL     1      10.403  -7.630  20.034  1.00  0.00     0.218 C 
HETATM   23  C15 UNL     1       9.165  -7.312  19.198  1.00  0.00     0.246 C 
BRANCH  22  24
HETATM   24  N1  UNL     1      10.898  -6.427  20.641  1.00  0.00    -0.073 N 
ATOM     25  H13 UNL     1      11.915  -6.391  20.575  1.00  0.00     0.274 HD
ATOM     26  H12 UNL     1      10.656  -5.617  20.069  1.00  0.00     0.274 HD
ATOM     27  H11 UNL     1      10.601  -6.279  21.605  1.00  0.00     0.274 HD
ENDBRANCH  22  24
BRANCH  23  28
HETATM   28  N5  UNL     1       8.004  -7.878  19.856  1.00  0.00    -0.071 N 
ATOM     29  H53 UNL     1       7.869  -8.863  19.631  1.00  0.00     0.274 HD
ATOM     30  H52 UNL     1       8.137  -7.982  20.862  1.00  0.00     0.274 HD
ATOM     31  H51 UNL     1       7.189  -7.309  19.626  1.00  0.00     0.274 HD
ENDBRANCH  23  28
ENDBRANCH   1  20
TORSDOF 7
ENDMDL
MODEL 4
REMARK VINA RESULT: -5.262796813      1.949      7.408
REMARK  7 active torsions:
REMARK  status: ('A' for Active; 'I' for Inactive)
REMARK    1  A    between atoms: N1_1  and  C1_5 
REMARK    2  A    between atoms: C3_7  and  N2_8 
REMARK    3  A    between atoms: C6_11  and  N3_12 
REMARK       I    between atoms: N3_12  and  C7_14 
REMARK    4  A    between atoms: C7_14  and  C8_16 
REMARK    5  A    between atoms: C8_16  and  N4_17 
REMARK    6  A    between atoms: C8_16  and  C9_21 
REMARK    7  A    between atoms: C15_27  and  N5_28 
ROOT
HETATM    1  N2  UNL     1       9.328  -7.162  19.832  1.00  0.00     0.097 N 
HETATM    2  C4  UNL     1       8.700  -6.018  19.241  1.00  0.00     0.275 C 
HETATM    3  C5  UNL     1       9.230  -6.037  17.829  1.00  0.00     0.057 C 
HETATM    4  C6  UNL     1       9.619  -7.474  17.555  1.00  0.00     0.114 C 
HETATM    5  C14 UNL     1       9.130  -8.171  18.807  1.00  0.00     0.298 C 
ENDROOT
BRANCH   4   6
HETATM    6  N3  UNL     1       8.891  -7.906  16.380  1.00  0.00    -0.353 N 
HETATM    7  C7  UNL     1       9.082  -9.137  15.736  1.00  0.00     0.249 C 
HETATM    8  O1  UNL     1       9.943  -9.922  16.194  1.00  0.00    -0.271 OA
ATOM      9  H3  UNL     1       8.191  -7.271  15.995  1.00  0.00     0.163 HD
BRANCH   7  10
HETATM   10  C8  UNL     1       8.293  -9.500  14.547  1.00  0.00     0.278 C 
BRANCH  10  11
HETATM   11  N4  UNL     1       8.940  -8.778  13.415  1.00  0.00    -0.066 N 
ATOM     12  H43 UNL     1       8.285  -8.452  12.705  1.00  0.00     0.275 HD
ATOM     13  H42 UNL     1       9.307  -7.860  13.667  1.00  0.00     0.275 HD
ATOM     14  H41 UNL     1       9.648  -9.421  13.059  1.00  0.00     0.275 HD
ENDBRANCH  10  11
BRANCH  10  15
HETATM   15  C9  UNL     1       8.338 -10.966  14.198  1.00  0.00     0.025 C 
HETATM   16  C10 UNL     1       7.998 -11.101  12.709  1.00  0.00     0.007 C 
HETATM   17  C11 UNL     1       6.518 -10.918  12.693  1.00  0.00     0.000 C 
HETATM   18  C12 UNL     1       6.038 -11.610  13.945  1.00  0.00     0.000 C 
HETATM   19  C13 UNL     1       7.280 -11.817  14.800  1.00  0.00     0.007 C 
ENDBRANCH  10  15
ENDBRANCH   7  10
ENDBRANCH   4   6
BRANCH   1  20
HETATM   20  C3  UNL     1      10.707  -6.983  20.170  1.00  0.00     0.257 C 
HETATM   21  C2  UNL     1      11.160  -7.365  21.522  1.00  0.00     0.073 C 
HETATM   22  C1  UNL     1      12.406  -7.980  20.881  1.00  0.00     0.218 C 
HETATM   23  C15 UNL     1      11.637  -7.976  19.560  1.00  0.00     0.246 C 
BRANCH  22  24
HETATM   24  N1  UNL     1      12.682  -9.332  21.275  1.00  0.00    -0.073 N 
ATOM     25  H13 UNL     1      11.816  -9.813  21.518  1.00  0.00     0.274 HD
ATOM     26  H12 UNL     1      12.970  -9.884  20.467  1.00  0.00     0.274 HD
ATOM     27  H11 UNL     1      13.364  -9.428  22.028  1.00  0.00     0.274 HD
ENDBRANCH  22  24
BRANCH  23  28
HETATM   28  N5  UNL     1      12.508  -7.469  18.519  1.00  0.00    -0.071 N 
ATOM     29  H53 UNL     1      13.484  -7.724  18.667  1.00  0.00     0.274 HD
ATOM     30  H52 UNL     1      12.371  -7.947  17.629  1.00  0.00     0.274 HD
ATOM     31  H51 UNL     1      12.375  -6.460  18.446  1.00  0.00     0.274 HD
ENDBRANCH  23  28
ENDBRANCH   1  20
TORSDOF 7
ENDMDL
MODEL 5
REMARK VINA RESULT: -5.023368452      2.425      8.052
REMARK  7 active torsions:
REMARK  status: ('A' for Active; 'I' for Inactive)
REMARK    1  A    between atoms: N1_1  and  C1_5 
REMARK    2  A    between atoms: C3_7  and  N2_8 
REMARK    3  A    between atoms: C6_11  and  N3_12 
REMARK       I    between atoms: N3_12  and  C7_14 
REMARK    4  A    between atoms: C7_14  and  C8_16 
REMARK    5  A    between atoms: C8_16  and  N4_17 
REMARK    6  A    between atoms: C8_16  and  C9_21 
REMARK    7  A    between atoms: C15_27  and  N5_28 
ROOT
HETATM    1  N2  UNL     1       9.627  -7.782  15.997  1.00  0.00     0.097 N 
HETATM    2  C4  UNL     1      10.608  -8.805  15.785  1.00  0.00     0.275 C 
HETATM    3  C5  UNL     1       9.783 -10.068  15.804  1.00  0.00     0.057 C 
HETATM    4  C6  UNL     1       8.379  -9.648  15.428  1.00  0.00     0.114 C 
HETATM    5  C14 UNL     1       8.574  -8.187  15.084  1.00  0.00     0.298 C 
ENDROOT
BRANCH   4   6
HETATM    6  N3  UNL     1       7.987 -10.425  14.271  1.00  0.00    -0.353 N 
HETATM    7  C7  UNL     1       7.181 -11.571  14.321  1.00  0.00     0.249 C 
HETATM    8  O1  UNL     1       6.772 -11.964  15.437  1.00  0.00    -0.271 OA
ATOM      9  H3  UNL     1       8.320 -10.118  13.357  1.00  0.00     0.163 HD
BRANCH   7  10
HETATM   10  C8  UNL     1       6.824 -12.301  13.093  1.00  0.00     0.278 C 
BRANCH  10  11
HETATM   11  N4  UNL     1       7.209 -11.392  11.975  1.00  0.00    -0.066 N 
ATOM     12  H43 UNL     1       7.108 -11.810  11.050  1.00  0.00     0.275 HD
ATOM     13  H42 UNL     1       6.559 -10.621  11.828  1.00  0.00     0.275 HD
ATOM     14  H41 UNL     1       8.161 -11.094  12.191  1.00  0.00     0.275 HD
ENDBRANCH  10  11
BRANCH  10  15
HETATM   15  C9  UNL     1       7.594 -13.580  12.885  1.00  0.00     0.025 C 
HETATM   16  C10 UNL     1       7.219 -14.132  11.504  1.00  0.00     0.007 C 
HETATM   17  C11 UNL     1       5.871 -14.723  11.744  1.00  0.00     0.000 C 
HETATM   18  C12 UNL     1       5.963 -15.326  13.124  1.00  0.00     0.000 C 
HETATM   19  C13 UNL     1       7.211 -14.724  13.752  1.00  0.00     0.007 C 
ENDBRANCH  10  15
ENDBRANCH   7  10
ENDBRANCH   4   6
BRANCH   1  20
HETATM   20  C3  UNL     1       9.170  -7.659  17.347  1.00  0.00     0.257 C 
HETATM   21  C2  UNL     1      10.116  -7.943  18.445  1.00  0.00     0.073 C 
HETATM   22  C1  UNL     1       9.563  -6.717  19.176  1.00  0.00     0.218 C 
HETATM   23  C15 UNL     1       9.005  -6.258  17.830  1.00  0.00     0.246 C 
BRANCH  22  24
HETATM   24  N1  UNL     1      10.556  -5.787  19.630  1.00  0.00    -0.073 N 
ATOM     25  H13 UNL     1      11.354  -6.286  20.024  1.00  0.00     0.274 HD
ATOM     26  H12 UNL     1      11.007  -5.335  18.834  1.00  0.00     0.274 HD
ATOM     27  H11 UNL     1      10.218  -5.085  20.288  1.00  0.00     0.274 HD
ENDBRANCH  22  24
BRANCH  23  28
HETATM   28  N5  UNL     1       7.639  -5.814  18.021  1.00  0.00    -0.071 N 
ATOM     29  H53 UNL     1       6.957  -6.488  17.676  1.00  0.00     0.274 HD
ATOM     30  H52 UNL     1       7.360  -5.822  19.002  1.00  0.00     0.274 HD
ATOM     31  H51 UNL     1       7.532  -4.895  17.592  1.00  0.00     0.274 HD
ENDBRANCH  23  28
ENDBRANCH   1  20
TORSDOF 7
ENDMDL
