MODEL 1
REMARK VINA RESULT: -5.217742719      0.000      0.000
REMARK  7 active torsions:
REMARK  status: ('A' for Active; 'I' for Inactive)
REMARK    1  A    between atoms: C2_2  and  C4_4 
REMARK    2  A    between atoms: C7_7  and  C8_8 
REMARK    3  A    between atoms: C8_8  and  O1_9 
REMARK    4  A    between atoms: C8_8  and  C9_11 
REMARK       I    between atoms: C9_11  and  N1_13 
REMARK    5  A    between atoms: N1_13  and  N2_15 
REMARK       I    between atoms: N2_15  and  C11_17 
REMARK    6  A    between atoms: C13_20  and  O4_21 
REMARK    7  A    between atoms: C14_23  and  O5_24 
ROOT
HETATM    1  C4  UNL     1       7.084 -13.720  14.837  1.00  0.00     0.049 C 
HETATM    2  C5  UNL     1       7.114 -12.526  13.909  1.00  0.00     0.002 C 
HETATM    3  C6  UNL     1       7.996 -11.418  14.469  1.00  0.00     0.011 C 
HETATM    4  C7  UNL     1       5.724 -12.015  13.803  1.00  0.00     0.059 C 
HETATM    5  C13 UNL     1       4.860 -13.102  14.417  1.00  0.00     0.154 C 
HETATM    6  C14 UNL     1       5.786 -13.654  15.517  1.00  0.00     0.155 C 
ENDROOT
BRANCH   4   7
HETATM    7  C8  UNL     1       5.275 -11.810  12.367  1.00  0.00     0.218 C 
BRANCH   7   8
HETATM    8  O1  UNL     1       6.370 -11.861  11.504  1.00  0.00    -0.386 OA
ATOM      9  H1  UNL     1       6.616 -12.763  11.336  1.00  0.00     0.210 HD
ENDBRANCH   7   8
BRANCH   7  10
HETATM   10  C9  UNL     1       4.737 -10.434  12.250  1.00  0.00     0.267 C 
HETATM   11  O2  UNL     1       5.540  -9.458  11.974  1.00  0.00    -0.269 OA
HETATM   12  N1  UNL     1       3.396 -10.036  12.410  1.00  0.00    -0.261 N 
HETATM   13  C10 UNL     1       2.271 -10.876  12.711  1.00  0.00     0.181 C 
BRANCH  12  14
HETATM   14  N2  UNL     1       3.102  -8.652  12.273  1.00  0.00    -0.266 N 
HETATM   15  C11 UNL     1       2.835  -7.793  13.342  1.00  0.00     0.232 C 
HETATM   16  C12 UNL     1       2.534  -6.335  13.122  1.00  0.00     0.119 C 
HETATM   17  O3  UNL     1       2.832  -8.188  14.534  1.00  0.00    -0.272 OA
ATOM     18  H2  UNL     1       3.085  -8.260  11.332  1.00  0.00     0.190 HD
ENDBRANCH  12  14
ENDBRANCH   7  10
ENDBRANCH   4   7
BRANCH   5  19
HETATM   19  O4  UNL     1       4.448 -14.053  13.523  1.00  0.00    -0.392 OA
ATOM     20  H4  UNL     1       5.158 -14.463  13.044  1.00  0.00     0.210 HD
ENDBRANCH   5  19
BRANCH   1  21
HETATM   21  C2  UNL     1       7.484 -14.949  14.193  1.00  0.00    -0.086 C 
HETATM   22  C1  UNL     1       7.472 -15.246  12.936  1.00  0.00     0.014 C 
HETATM   23  C3  UNL     1       7.970 -16.100  15.102  1.00  0.00     0.043 C 
ENDBRANCH   1  21
BRANCH   6  24
HETATM   24  O5  UNL     1       5.289 -14.815  16.014  1.00  0.00    -0.392 OA
ATOM     25  H5  UNL     1       4.551 -14.749  16.608  1.00  0.00     0.210 HD
ENDBRANCH   6  24
TORSDOF 7
ENDMDL
MODEL 2
REMARK VINA RESULT: -5.115111398      1.202      1.556
REMARK  7 active torsions:
REMARK  status: ('A' for Active; 'I' for Inactive)
REMARK    1  A    between atoms: C2_2  and  C4_4 
REMARK    2  A    between atoms: C7_7  and  C8_8 
REMARK    3  A    between atoms: C8_8  and  O1_9 
REMARK    4  A    between atoms: C8_8  and  C9_11 
REMARK       I    between atoms: C9_11  and  N1_13 
REMARK    5  A    between atoms: N1_13  and  N2_15 
REMARK       I    between atoms: N2_15  and  C11_17 
REMARK    6  A    between atoms: C13_20  and  O4_21 
REMARK    7  A    between atoms: C14_23  and  O5_24 
ROOT
HETATM    1  C4  UNL     1       7.272 -14.304  14.788  1.00  0.00     0.049 C 
HETATM    2  C5  UNL     1       7.186 -13.047  13.951  1.00  0.00     0.002 C 
HETATM    3  C6  UNL     1       8.078 -11.949  14.517  1.00  0.00     0.011 C 
HETATM    4  C7  UNL     1       5.778 -12.581  13.996  1.00  0.00     0.059 C 
HETATM    5  C13 UNL     1       5.002 -13.740  14.598  1.00  0.00     0.154 C 
HETATM    6  C14 UNL     1       6.033 -14.334  15.574  1.00  0.00     0.155 C 
ENDROOT
BRANCH   4   7
HETATM    7  C8  UNL     1       5.204 -12.291  12.621  1.00  0.00     0.218 C 
BRANCH   7   8
HETATM    8  O1  UNL     1       6.220 -12.269  11.666  1.00  0.00    -0.386 OA
ATOM      9  H1  UNL     1       5.918 -11.843  10.872  1.00  0.00     0.210 HD
ENDBRANCH   7   8
BRANCH   7  10
HETATM   10  C9  UNL     1       4.642 -10.919  12.641  1.00  0.00     0.267 C 
HETATM   11  O2  UNL     1       5.109 -10.055  13.482  1.00  0.00    -0.269 OA
HETATM   12  N1  UNL     1       3.615 -10.416  11.820  1.00  0.00    -0.261 N 
HETATM   13  C10 UNL     1       2.903 -11.119  10.790  1.00  0.00     0.181 C 
BRANCH  12  14
HETATM   14  N2  UNL     1       3.216  -9.067  12.024  1.00  0.00    -0.266 N 
HETATM   15  C11 UNL     1       3.831  -7.964  11.426  1.00  0.00     0.232 C 
HETATM   16  C12 UNL     1       3.351  -6.561  11.686  1.00  0.00     0.119 C 
HETATM   17  O3  UNL     1       4.806  -8.083  10.645  1.00  0.00    -0.272 OA
ATOM     18  H2  UNL     1       2.429  -8.893  12.648  1.00  0.00     0.190 HD
ENDBRANCH  12  14
ENDBRANCH   7  10
ENDBRANCH   4   7
BRANCH   5  19
HETATM   19  O4  UNL     1       4.546 -14.640  13.673  1.00  0.00    -0.392 OA
ATOM     20  H4  UNL     1       4.002 -15.327  14.041  1.00  0.00     0.210 HD
ENDBRANCH   5  19
BRANCH   1  21
HETATM   21  C2  UNL     1       7.653 -15.469  14.025  1.00  0.00    -0.086 C 
HETATM   22  C1  UNL     1       8.058 -16.620  14.450  1.00  0.00     0.014 C 
HETATM   23  C3  UNL     1       7.613 -15.351  12.485  1.00  0.00     0.043 C 
ENDBRANCH   1  21
BRANCH   6  24
HETATM   24  O5  UNL     1       5.617 -15.544  16.024  1.00  0.00    -0.392 OA
ATOM     25  H5  UNL     1       5.972 -15.842  16.853  1.00  0.00     0.210 HD
ENDBRANCH   6  24
TORSDOF 7
ENDMDL
MODEL 3
REMARK VINA RESULT: -5.053569087      1.069      1.069
REMARK  7 active torsions:
REMARK  status: ('A' for Active; 'I' for Inactive)
REMARK    1  A    between atoms: C2_2  and  C4_4 
REMARK    2  A    between atoms: C7_7  and  C8_8 
REMARK    3  A    between atoms: C8_8  and  O1_9 
REMARK    4  A    between atoms: C8_8  and  C9_11 
REMARK       I    between atoms: C9_11  and  N1_13 
REMARK    5  A    between atoms: N1_13  and  N2_15 
REMARK       I    between atoms: N2_15  and  C11_17 
REMARK    6  A    between atoms: C13_20  and  O4_21 
REMARK    7  A    between atoms: C14_23  and  O5_24 
ROOT
HETATM    1  C4  UNL     1       7.188 -14.086  14.584  1.00  0.00     0.049 C 
HETATM    2  C5  UNL     1       7.116 -12.776  13.830  1.00  0.00     0.002 C 
HETATM    3  C6  UNL     1       8.015 -11.725  14.468  1.00  0.00     0.011 C 
HETATM    4  C7  UNL     1       5.711 -12.302  13.903  1.00  0.00     0.059 C 
HETATM    5  C13 UNL     1       4.924 -13.491  14.427  1.00  0.00     0.154 C 
HETATM    6  C14 UNL     1       5.948 -14.155  15.364  1.00  0.00     0.155 C 
ENDROOT
BRANCH   4   7
HETATM    7  C8  UNL     1       5.143 -11.918  12.548  1.00  0.00     0.218 C 
BRANCH   7   8
HETATM    8  O1  UNL     1       6.093 -12.121  11.548  1.00  0.00    -0.386 OA
ATOM      9  H1  UNL     1       5.684 -12.088  10.691  1.00  0.00     0.210 HD
ENDBRANCH   7   8
BRANCH   7  10
HETATM   10  C9  UNL     1       4.879 -10.460  12.561  1.00  0.00     0.267 C 
HETATM   11  O2  UNL     1       5.817  -9.642  12.210  1.00  0.00    -0.269 OA
HETATM   12  N1  UNL     1       3.677  -9.823  12.926  1.00  0.00    -0.261 N 
HETATM   13  C10 UNL     1       2.457 -10.449  13.353  1.00  0.00     0.181 C 
BRANCH  12  14
HETATM   14  N2  UNL     1       3.650  -8.402  12.884  1.00  0.00    -0.266 N 
HETATM   15  C11 UNL     1       3.209  -7.655  11.789  1.00  0.00     0.232 C 
HETATM   16  C12 UNL     1       3.205  -6.150  11.816  1.00  0.00     0.119 C 
HETATM   17  O3  UNL     1       2.794  -8.194  10.734  1.00  0.00    -0.272 OA
ATOM     18  H2  UNL     1       3.974  -7.895  13.707  1.00  0.00     0.190 HD
ENDBRANCH  12  14
ENDBRANCH   7  10
ENDBRANCH   4   7
BRANCH   5  19
HETATM   19  O4  UNL     1       4.462 -14.325  13.444  1.00  0.00    -0.392 OA
ATOM     20  H4  UNL     1       4.127 -15.152  13.769  1.00  0.00     0.210 HD
ENDBRANCH   5  19
BRANCH   1  21
HETATM   21  C2  UNL     1       7.561 -15.202  13.747  1.00  0.00    -0.086 C 
HETATM   22  C1  UNL     1       7.502 -15.306  12.462  1.00  0.00     0.014 C 
HETATM   23  C3  UNL     1       8.080 -16.475  14.454  1.00  0.00     0.043 C 
ENDBRANCH   1  21
BRANCH   6  24
HETATM   24  O5  UNL     1       5.519 -15.389  15.734  1.00  0.00    -0.392 OA
ATOM     25  H5  UNL     1       4.938 -15.437  16.483  1.00  0.00     0.210 HD
ENDBRANCH   6  24
TORSDOF 7
ENDMDL
MODEL 4
REMARK VINA RESULT: -4.976773716      3.808      5.332
REMARK  7 active torsions:
REMARK  status: ('A' for Active; 'I' for Inactive)
REMARK    1  A    between atoms: C2_2  and  C4_4 
REMARK    2  A    between atoms: C7_7  and  C8_8 
REMARK    3  A    between atoms: C8_8  and  O1_9 
REMARK    4  A    between atoms: C8_8  and  C9_11 
REMARK       I    between atoms: C9_11  and  N1_13 
REMARK    5  A    between atoms: N1_13  and  N2_15 
REMARK       I    between atoms: N2_15  and  C11_17 
REMARK    6  A    between atoms: C13_20  and  O4_21 
REMARK    7  A    between atoms: C14_23  and  O5_24 
ROOT
HETATM    1  C4  UNL     1       5.861 -12.818  12.591  1.00  0.00     0.049 C 
HETATM    2  C5  UNL     1       7.131 -12.342  13.262  1.00  0.00     0.002 C 
HETATM    3  C6  UNL     1       7.558 -13.298  14.368  1.00  0.00     0.011 C 
HETATM    4  C7  UNL     1       6.841 -11.019  13.869  1.00  0.00     0.059 C 
HETATM    5  C13 UNL     1       5.505 -10.602  13.277  1.00  0.00     0.154 C 
HETATM    6  C14 UNL     1       4.796 -11.959  13.119  1.00  0.00     0.155 C 
ENDROOT
BRANCH   4   7
HETATM    7  C8  UNL     1       7.869  -9.961  13.507  1.00  0.00     0.218 C 
BRANCH   7   8
HETATM    8  O1  UNL     1       8.733 -10.441  12.524  1.00  0.00    -0.386 OA
ATOM      9  H1  UNL     1       8.371 -11.219  12.116  1.00  0.00     0.210 HD
ENDBRANCH   7   8
BRANCH   7  10
HETATM   10  C9  UNL     1       8.714  -9.720  14.701  1.00  0.00     0.267 C 
HETATM   11  O2  UNL     1       8.669 -10.553  15.690  1.00  0.00    -0.269 OA
HETATM   12  N1  UNL     1       9.601  -8.646  14.904  1.00  0.00    -0.261 N 
HETATM   13  C10 UNL     1       9.880  -7.567  13.998  1.00  0.00     0.181 C 
BRANCH  12  14
HETATM   14  N2  UNL     1      10.302  -8.600  16.139  1.00  0.00    -0.266 N 
HETATM   15  C11 UNL     1       9.859  -7.911  17.272  1.00  0.00     0.232 C 
HETATM   16  C12 UNL     1      10.653  -7.908  18.550  1.00  0.00     0.119 C 
HETATM   17  O3  UNL     1       8.783  -7.264  17.283  1.00  0.00    -0.272 OA
ATOM     18  H2  UNL     1      11.187  -9.102  16.204  1.00  0.00     0.190 HD
ENDBRANCH  12  14
ENDBRANCH   7  10
ENDBRANCH   4   7
BRANCH   5  19
HETATM   19  O4  UNL     1       5.613  -9.904  12.105  1.00  0.00    -0.392 OA
ATOM     20  H4  UNL     1       5.386  -8.985  12.183  1.00  0.00     0.210 HD
ENDBRANCH   5  19
BRANCH   1  21
HETATM   21  C2  UNL     1       6.000 -12.975  11.162  1.00  0.00    -0.086 C 
HETATM   22  C1  UNL     1       5.078 -13.034  10.260  1.00  0.00     0.014 C 
HETATM   23  C3  UNL     1       7.432 -13.125  10.602  1.00  0.00     0.043 C 
ENDBRANCH   1  21
BRANCH   6  24
HETATM   24  O5  UNL     1       3.679 -11.824  12.361  1.00  0.00    -0.392 OA
ATOM     25  H5  UNL     1       3.627 -11.058  11.801  1.00  0.00     0.210 HD
ENDBRANCH   6  24
TORSDOF 7
ENDMDL
MODEL 5
REMARK VINA RESULT: -4.459121681      3.618      5.082
REMARK  7 active torsions:
REMARK  status: ('A' for Active; 'I' for Inactive)
REMARK    1  A    between atoms: C2_2  and  C4_4 
REMARK    2  A    between atoms: C7_7  and  C8_8 
REMARK    3  A    between atoms: C8_8  and  O1_9 
REMARK    4  A    between atoms: C8_8  and  C9_11 
REMARK       I    between atoms: C9_11  and  N1_13 
REMARK    5  A    between atoms: N1_13  and  N2_15 
REMARK       I    between atoms: N2_15  and  C11_17 
REMARK    6  A    between atoms: C13_20  and  O4_21 
REMARK    7  A    between atoms: C14_23  and  O5_24 
ROOT
HETATM    1  C4  UNL     1       5.977 -13.572  12.303  1.00  0.00     0.049 C 
HETATM    2  C5  UNL     1       7.109 -12.949  13.089  1.00  0.00     0.002 C 
HETATM    3  C6  UNL     1       7.534 -13.847  14.245  1.00  0.00     0.011 C 
HETATM    4  C7  UNL     1       6.608 -11.668  13.647  1.00  0.00     0.059 C 
HETATM    5  C13 UNL     1       5.298 -11.413  12.922  1.00  0.00     0.154 C 
HETATM    6  C14 UNL     1       4.771 -12.844  12.714  1.00  0.00     0.155 C 
ENDROOT
BRANCH   4   7
HETATM    7  C8  UNL     1       7.536 -10.498  13.373  1.00  0.00     0.218 C 
BRANCH   7   8
HETATM    8  O1  UNL     1       8.442 -10.823  12.365  1.00  0.00    -0.386 OA
ATOM      9  H1  UNL     1       8.671 -10.048  11.864  1.00  0.00     0.210 HD
ENDBRANCH   7   8
BRANCH   7  10
HETATM   10  C9  UNL     1       8.353 -10.270  14.589  1.00  0.00     0.267 C 
HETATM   11  O2  UNL     1       8.291 -11.118  15.564  1.00  0.00    -0.269 OA
HETATM   12  N1  UNL     1       9.228  -9.194  14.828  1.00  0.00    -0.261 N 
HETATM   13  C10 UNL     1       9.520  -8.099  13.945  1.00  0.00     0.181 C 
BRANCH  12  14
HETATM   14  N2  UNL     1       9.902  -9.163  16.079  1.00  0.00    -0.266 N 
HETATM   15  C11 UNL     1       9.570  -8.306  17.132  1.00  0.00     0.232 C 
HETATM   16  C12 UNL     1      10.326  -8.330  18.433  1.00  0.00     0.119 C 
HETATM   17  O3  UNL     1       8.630  -7.478  17.050  1.00  0.00    -0.272 OA
ATOM     18  H2  UNL     1      10.679  -9.808  16.218  1.00  0.00     0.190 HD
ENDBRANCH  12  14
ENDBRANCH   7  10
ENDBRANCH   4   7
BRANCH   5  19
HETATM   19  O4  UNL     1       5.439 -10.709  11.756  1.00  0.00    -0.392 OA
ATOM     20  H4  UNL     1       4.658 -10.702  11.215  1.00  0.00     0.210 HD
ENDBRANCH   5  19
BRANCH   1  21
HETATM   21  C2  UNL     1       6.274 -13.714  10.897  1.00  0.00    -0.086 C 
HETATM   22  C1  UNL     1       7.250 -13.208  10.220  1.00  0.00     0.014 C 
HETATM   23  C3  UNL     1       5.295 -14.557  10.048  1.00  0.00     0.043 C 
ENDBRANCH   1  21
BRANCH   6  24
HETATM   24  O5  UNL     1       3.727 -12.843  11.847  1.00  0.00    -0.392 OA
ATOM     25  H5  UNL     1       3.817 -13.367  11.061  1.00  0.00     0.210 HD
ENDBRANCH   6  24
TORSDOF 7
ENDMDL
