MODEL 1
REMARK VINA RESULT: -6.557226923      0.000      0.000
REMARK  9 active torsions:
REMARK  status: ('A' for Active; 'I' for Inactive)
REMARK    1  A    between atoms: C2_2  and  O1_3 
REMARK    2  A    between atoms: O1_3  and  C3_4 
REMARK    3  A    between atoms: C3_4  and  C4_6 
REMARK    4  A    between atoms: C4_6  and  N1_7 
REMARK    5  A    between atoms: N1_7  and  C5_9 
REMARK    6  A    between atoms: C5_9  and  N2_11 
REMARK    7  A    between atoms: N2_11  and  N3_13 
REMARK       I    between atoms: N3_13  and  C6_15 
REMARK       I    between atoms: C6_15  and  N4_17 
REMARK    8  A    between atoms: N4_17  and  C7_19 
REMARK    9  A    between atoms: C7_19  and  C8_21 
ROOT
HETATM    1  N2  UNL     1      11.418  46.723 -32.888  1.00  0.00    -0.272 N 
ATOM      2  H2  UNL     1      12.048  47.024 -32.144  1.00  0.00     0.189 HD
ENDROOT
BRANCH   1   3
HETATM    3  C5  UNL     1      11.763  45.548 -33.530  1.00  0.00     0.187 C 
HETATM    4  S1  UNL     1      11.352  44.120 -32.689  1.00  0.00    -0.040 SA
BRANCH   3   5
HETATM    5  N1  UNL     1      12.394  45.378 -34.759  1.00  0.00    -0.357 N 
ATOM      6  H1  UNL     1      13.195  45.987 -34.931  1.00  0.00     0.162 HD
BRANCH   5   7
HETATM    7  C4  UNL     1      12.074  44.467 -35.815  1.00  0.00     0.233 C 
BRANCH   7   8
HETATM    8  C3  UNL     1      12.851  44.795 -37.063  1.00  0.00     0.276 C 
HETATM    9  O2  UNL     1      12.204  45.172 -38.068  1.00  0.00    -0.263 OA
BRANCH   8  10
HETATM   10  O1  UNL     1      14.217  44.697 -37.140  1.00  0.00    -0.321 OA
BRANCH  10  11
HETATM   11  C2  UNL     1      14.878  44.003 -38.199  1.00  0.00     0.174 C 
HETATM   12  C1  UNL     1      16.282  44.491 -38.333  1.00  0.00     0.034 C 
ENDBRANCH  10  11
ENDBRANCH   8  10
ENDBRANCH   7   8
ENDBRANCH   5   7
ENDBRANCH   3   5
ENDBRANCH   1   3
BRANCH   1  13
HETATM   13  N3  UNL     1      10.340  47.531 -33.122  1.00  0.00    -0.249 N 
HETATM   14  C6  UNL     1      10.249  48.227 -34.400  1.00  0.00     0.339 C 
HETATM   15  O3  UNL     1      11.178  48.032 -35.208  1.00  0.00    -0.245 OA
HETATM   16  N4  UNL     1       9.155  49.078 -34.691  1.00  0.00    -0.302 N 
ATOM     17  H4  UNL     1       8.445  49.178 -33.966  1.00  0.00     0.171 HD
ATOM     18  H3  UNL     1       9.613  47.645 -32.416  1.00  0.00     0.192 HD
BRANCH  16  19
HETATM   19  C7  UNL     1       8.953  49.797 -35.879  1.00  0.00     0.081 C 
HETATM   20  S2  UNL     1       7.785  49.236 -36.909  1.00  0.00    -0.065 SA
BRANCH  19  21
HETATM   21  C8  UNL     1       9.697  50.973 -36.290  1.00  0.00     0.065 C 
HETATM   22  C9  UNL     1       9.133  51.701 -37.490  1.00  0.00     0.012 C 
ENDBRANCH  19  21
ENDBRANCH  16  19
ENDBRANCH   1  13
TORSDOF 9
ENDMDL
MODEL 2
REMARK VINA RESULT: -6.462213179      2.329      6.863
REMARK  9 active torsions:
REMARK  status: ('A' for Active; 'I' for Inactive)
REMARK    1  A    between atoms: C2_2  and  O1_3 
REMARK    2  A    between atoms: O1_3  and  C3_4 
REMARK    3  A    between atoms: C3_4  and  C4_6 
REMARK    4  A    between atoms: C4_6  and  N1_7 
REMARK    5  A    between atoms: N1_7  and  C5_9 
REMARK    6  A    between atoms: C5_9  and  N2_11 
REMARK    7  A    between atoms: N2_11  and  N3_13 
REMARK       I    between atoms: N3_13  and  C6_15 
REMARK       I    between atoms: C6_15  and  N4_17 
REMARK    8  A    between atoms: N4_17  and  C7_19 
REMARK    9  A    between atoms: C7_19  and  C8_21 
ROOT
HETATM    1  N2  UNL     1      11.671  45.837 -35.295  1.00  0.00    -0.272 N 
ATOM      2  H2  UNL     1      11.417  46.500 -36.028  1.00  0.00     0.189 HD
ENDROOT
BRANCH   1   3
HETATM    3  C5  UNL     1      11.170  46.112 -34.036  1.00  0.00     0.187 C 
HETATM    4  S1  UNL     1      11.261  44.816 -32.927  1.00  0.00    -0.040 SA
BRANCH   3   5
HETATM    5  N1  UNL     1      10.609  47.292 -33.558  1.00  0.00    -0.357 N 
ATOM      6  H1  UNL     1      10.756  47.480 -32.566  1.00  0.00     0.162 HD
BRANCH   5   7
HETATM    7  C4  UNL     1       9.855  48.280 -34.268  1.00  0.00     0.233 C 
BRANCH   7   8
HETATM    8  C3  UNL     1      10.657  49.542 -34.448  1.00  0.00     0.276 C 
HETATM    9  O2  UNL     1      11.769  49.611 -33.875  1.00  0.00    -0.263 OA
BRANCH   8  10
HETATM   10  O1  UNL     1      10.223  50.602 -35.203  1.00  0.00    -0.321 OA
BRANCH  10  11
HETATM   11  C2  UNL     1       9.129  50.498 -36.114  1.00  0.00     0.174 C 
HETATM   12  C1  UNL     1       9.311  51.455 -37.245  1.00  0.00     0.034 C 
ENDBRANCH  10  11
ENDBRANCH   8  10
ENDBRANCH   7   8
ENDBRANCH   5   7
ENDBRANCH   3   5
ENDBRANCH   1   3
BRANCH   1  13
HETATM   13  N3  UNL     1      12.462  44.791 -35.683  1.00  0.00    -0.249 N 
HETATM   14  C6  UNL     1      13.450  45.010 -36.732  1.00  0.00     0.339 C 
HETATM   15  O3  UNL     1      13.509  46.158 -37.212  1.00  0.00    -0.245 OA
HETATM   16  N4  UNL     1      14.292  43.959 -37.172  1.00  0.00    -0.302 N 
ATOM     17  H4  UNL     1      14.168  43.052 -36.722  1.00  0.00     0.171 HD
ATOM     18  H3  UNL     1      12.362  43.875 -35.246  1.00  0.00     0.192 HD
BRANCH  16  19
HETATM   19  C7  UNL     1      15.278  44.044 -38.166  1.00  0.00     0.081 C 
HETATM   20  S2  UNL     1      15.039  43.153 -39.541  1.00  0.00    -0.065 SA
BRANCH  19  21
HETATM   21  C8  UNL     1      16.498  44.824 -38.080  1.00  0.00     0.065 C 
HETATM   22  C9  UNL     1      17.590  44.416 -39.043  1.00  0.00     0.012 C 
ENDBRANCH  19  21
ENDBRANCH  16  19
ENDBRANCH   1  13
TORSDOF 9
ENDMDL
MODEL 3
REMARK VINA RESULT: -6.349797900      2.395      6.746
REMARK  9 active torsions:
REMARK  status: ('A' for Active; 'I' for Inactive)
REMARK    1  A    between atoms: C2_2  and  O1_3 
REMARK    2  A    between atoms: O1_3  and  C3_4 
REMARK    3  A    between atoms: C3_4  and  C4_6 
REMARK    4  A    between atoms: C4_6  and  N1_7 
REMARK    5  A    between atoms: N1_7  and  C5_9 
REMARK    6  A    between atoms: C5_9  and  N2_11 
REMARK    7  A    between atoms: N2_11  and  N3_13 
REMARK       I    between atoms: N3_13  and  C6_15 
REMARK       I    between atoms: C6_15  and  N4_17 
REMARK    8  A    between atoms: N4_17  and  C7_19 
REMARK    9  A    between atoms: C7_19  and  C8_21 
ROOT
HETATM    1  N2  UNL     1      11.652  46.034 -35.248  1.00  0.00    -0.272 N 
ATOM      2  H2  UNL     1      11.345  46.643 -36.007  1.00  0.00     0.189 HD
ENDROOT
BRANCH   1   3
HETATM    3  C5  UNL     1      11.246  46.403 -33.979  1.00  0.00     0.187 C 
HETATM    4  S1  UNL     1      11.100  45.115 -32.868  1.00  0.00    -0.040 SA
BRANCH   3   5
HETATM    5  N1  UNL     1      10.947  47.672 -33.493  1.00  0.00    -0.357 N 
ATOM      6  H1  UNL     1      10.398  47.696 -32.633  1.00  0.00     0.162 HD
BRANCH   5   7
HETATM    7  C4  UNL     1      11.303  48.948 -34.033  1.00  0.00     0.233 C 
BRANCH   7   8
HETATM    8  C3  UNL     1      10.173  49.522 -34.848  1.00  0.00     0.276 C 
HETATM    9  O2  UNL     1      10.271  50.715 -35.219  1.00  0.00    -0.263 OA
BRANCH   8  10
HETATM   10  O1  UNL     1       9.059  48.800 -35.194  1.00  0.00    -0.321 OA
BRANCH  10  11
HETATM   11  C2  UNL     1       8.753  48.463 -36.547  1.00  0.00     0.174 C 
HETATM   12  C1  UNL     1       7.555  49.225 -37.007  1.00  0.00     0.034 C 
ENDBRANCH  10  11
ENDBRANCH   8  10
ENDBRANCH   7   8
ENDBRANCH   5   7
ENDBRANCH   3   5
ENDBRANCH   1   3
BRANCH   1  13
HETATM   13  N3  UNL     1      12.412  44.958 -35.616  1.00  0.00    -0.249 N 
HETATM   14  C6  UNL     1      13.400  45.126 -36.675  1.00  0.00     0.339 C 
HETATM   15  O3  UNL     1      13.487  46.261 -37.182  1.00  0.00    -0.245 OA
HETATM   16  N4  UNL     1      14.210  44.043 -37.095  1.00  0.00    -0.302 N 
ATOM     17  H4  UNL     1      14.065  43.150 -36.624  1.00  0.00     0.171 HD
ATOM     18  H3  UNL     1      12.290  44.056 -35.157  1.00  0.00     0.192 HD
BRANCH  16  19
HETATM   19  C7  UNL     1      15.193  44.078 -38.095  1.00  0.00     0.081 C 
HETATM   20  S2  UNL     1      14.917  43.171 -39.453  1.00  0.00    -0.065 SA
BRANCH  19  21
HETATM   21  C8  UNL     1      16.438  44.820 -38.030  1.00  0.00     0.065 C 
HETATM   22  C9  UNL     1      17.485  44.405 -39.039  1.00  0.00     0.012 C 
ENDBRANCH  19  21
ENDBRANCH  16  19
ENDBRANCH   1  13
TORSDOF 9
ENDMDL
MODEL 4
REMARK VINA RESULT: -6.329467713      1.220      1.226
REMARK  9 active torsions:
REMARK  status: ('A' for Active; 'I' for Inactive)
REMARK    1  A    between atoms: C2_2  and  O1_3 
REMARK    2  A    between atoms: O1_3  and  C3_4 
REMARK    3  A    between atoms: C3_4  and  C4_6 
REMARK    4  A    between atoms: C4_6  and  N1_7 
REMARK    5  A    between atoms: N1_7  and  C5_9 
REMARK    6  A    between atoms: C5_9  and  N2_11 
REMARK    7  A    between atoms: N2_11  and  N3_13 
REMARK       I    between atoms: N3_13  and  C6_15 
REMARK       I    between atoms: C6_15  and  N4_17 
REMARK    8  A    between atoms: N4_17  and  C7_19 
REMARK    9  A    between atoms: C7_19  and  C8_21 
ROOT
HETATM    1  N2  UNL     1       9.991  45.031 -34.000  1.00  0.00    -0.272 N 
ATOM      2  H2  UNL     1       9.389  44.210 -33.933  1.00  0.00     0.189 HD
ENDROOT
BRANCH   1   3
HETATM    3  C5  UNL     1      11.335  44.777 -34.202  1.00  0.00     0.187 C 
HETATM    4  S1  UNL     1      12.383  45.488 -33.056  1.00  0.00    -0.040 SA
BRANCH   3   5
HETATM    5  N1  UNL     1      11.940  44.026 -35.206  1.00  0.00    -0.357 N 
ATOM      6  H1  UNL     1      12.373  43.153 -34.903  1.00  0.00     0.162 HD
BRANCH   5   7
HETATM    7  C4  UNL     1      12.036  44.309 -36.605  1.00  0.00     0.233 C 
BRANCH   7   8
HETATM    8  C3  UNL     1      13.341  44.991 -36.927  1.00  0.00     0.276 C 
HETATM    9  O2  UNL     1      13.330  46.238 -37.050  1.00  0.00    -0.263 OA
BRANCH   8  10
HETATM   10  O1  UNL     1      14.521  44.310 -37.088  1.00  0.00    -0.321 OA
BRANCH  10  11
HETATM   11  C2  UNL     1      15.056  43.995 -38.374  1.00  0.00     0.174 C 
HETATM   12  C1  UNL     1      16.479  44.437 -38.458  1.00  0.00     0.034 C 
ENDBRANCH  10  11
ENDBRANCH   8  10
ENDBRANCH   7   8
ENDBRANCH   5   7
ENDBRANCH   3   5
ENDBRANCH   1   3
BRANCH   1  13
HETATM   13  N3  UNL     1       9.367  46.242 -33.877  1.00  0.00    -0.249 N 
HETATM   14  C6  UNL     1       9.468  47.198 -34.973  1.00  0.00     0.339 C 
HETATM   15  O3  UNL     1      10.129  46.839 -35.967  1.00  0.00    -0.245 OA
HETATM   16  N4  UNL     1       8.843  48.466 -34.895  1.00  0.00    -0.302 N 
ATOM     17  H4  UNL     1       8.326  48.672 -34.040  1.00  0.00     0.171 HD
ATOM     18  H3  UNL     1       8.840  46.471 -33.034  1.00  0.00     0.192 HD
BRANCH  16  19
HETATM   19  C7  UNL     1       8.864  49.467 -35.878  1.00  0.00     0.081 C 
HETATM   20  S2  UNL     1       7.759  49.342 -37.104  1.00  0.00    -0.065 SA
BRANCH  19  21
HETATM   21  C8  UNL     1       9.788  50.585 -35.923  1.00  0.00     0.065 C 
HETATM   22  C9  UNL     1       9.524  51.590 -37.023  1.00  0.00     0.012 C 
ENDBRANCH  19  21
ENDBRANCH  16  19
ENDBRANCH   1  13
TORSDOF 9
ENDMDL
MODEL 5
REMARK VINA RESULT: -6.218703711      1.042      1.276
REMARK  9 active torsions:
REMARK  status: ('A' for Active; 'I' for Inactive)
REMARK    1  A    between atoms: C2_2  and  O1_3 
REMARK    2  A    between atoms: O1_3  and  C3_4 
REMARK    3  A    between atoms: C3_4  and  C4_6 
REMARK    4  A    between atoms: C4_6  and  N1_7 
REMARK    5  A    between atoms: N1_7  and  C5_9 
REMARK    6  A    between atoms: C5_9  and  N2_11 
REMARK    7  A    between atoms: N2_11  and  N3_13 
REMARK       I    between atoms: N3_13  and  C6_15 
REMARK       I    between atoms: C6_15  and  N4_17 
REMARK    8  A    between atoms: N4_17  and  C7_19 
REMARK    9  A    between atoms: C7_19  and  C8_21 
ROOT
HETATM    1  N2  UNL     1      11.392  47.133 -32.975  1.00  0.00    -0.272 N 
ATOM      2  H2  UNL     1      12.052  47.489 -32.283  1.00  0.00     0.189 HD
ENDROOT
BRANCH   1   3
HETATM    3  C5  UNL     1      11.662  45.873 -33.474  1.00  0.00     0.187 C 
HETATM    4  S1  UNL     1      11.052  44.582 -32.535  1.00  0.00    -0.040 SA
BRANCH   3   5
HETATM    5  N1  UNL     1      12.357  45.520 -34.627  1.00  0.00    -0.357 N 
ATOM      6  H1  UNL     1      13.237  46.013 -34.778  1.00  0.00     0.162 HD
BRANCH   5   7
HETATM    7  C4  UNL     1      12.005  44.562 -35.629  1.00  0.00     0.233 C 
BRANCH   7   8
HETATM    8  C3  UNL     1      12.759  44.820 -36.908  1.00  0.00     0.276 C 
HETATM    9  O2  UNL     1      12.099  45.182 -37.909  1.00  0.00    -0.263 OA
BRANCH   8  10
HETATM   10  O1  UNL     1      14.119  44.675 -37.017  1.00  0.00    -0.321 OA
BRANCH  10  11
HETATM   11  C2  UNL     1      14.739  44.079 -38.157  1.00  0.00     0.174 C 
HETATM   12  C1  UNL     1      16.175  44.478 -38.226  1.00  0.00     0.034 C 
ENDBRANCH  10  11
ENDBRANCH   8  10
ENDBRANCH   7   8
ENDBRANCH   5   7
ENDBRANCH   3   5
ENDBRANCH   1   3
BRANCH   1  13
HETATM   13  N3  UNL     1      10.352  47.965 -33.291  1.00  0.00    -0.249 N 
HETATM   14  C6  UNL     1      10.240  48.460 -34.658  1.00  0.00     0.339 C 
HETATM   15  O3  UNL     1      11.116  48.083 -35.461  1.00  0.00    -0.245 OA
HETATM   16  N4  UNL     1       9.185  49.325 -35.036  1.00  0.00    -0.302 N 
ATOM     17  H4  UNL     1       8.517  49.581 -34.309  1.00  0.00     0.171 HD
ATOM     18  H3  UNL     1       9.668  48.233 -32.584  1.00  0.00     0.192 HD
BRANCH  16  19
HETATM   19  C7  UNL     1       8.967  49.864 -36.313  1.00  0.00     0.081 C 
HETATM   20  S2  UNL     1       9.543  51.391 -36.594  1.00  0.00    -0.065 SA
BRANCH  19  21
HETATM   21  C8  UNL     1       8.261  49.207 -37.397  1.00  0.00     0.065 C 
HETATM   22  C9  UNL     1       6.806  48.897 -37.120  1.00  0.00     0.012 C 
ENDBRANCH  19  21
ENDBRANCH  16  19
ENDBRANCH   1  13
TORSDOF 9
ENDMDL
