MODEL 1
REMARK VINA RESULT: -5.422633364      0.000      0.000
REMARK  7 active torsions:
REMARK  status: ('A' for Active; 'I' for Inactive)
REMARK    1  A    between atoms: O1_3  and  C3_4 
REMARK       I    between atoms: C3_4  and  N1_6 
REMARK    2  A    between atoms: N1_6  and  C4_8 
REMARK    3  A    between atoms: C4_8  and  C5_9 
REMARK    4  A    between atoms: C4_8  and  C11_20 
REMARK    5  A    between atoms: C5_9  and  O3_10 
REMARK    6  A    between atoms: C5_9  and  N2_12 
REMARK    7  A    between atoms: C9_16  and  C10_17 
ROOT
HETATM    1  C1  UNL     1      14.490  43.840 -38.687  1.00  0.00     0.045 C 
HETATM    2  C2  UNL     1      13.431  44.249 -38.274  1.00  0.00     0.054 C 
HETATM    3  O1  UNL     1      12.218  44.691 -37.797  1.00  0.00    -0.209 OA
ENDROOT
BRANCH   3   4
HETATM    4  C3  UNL     1      12.197  45.457 -36.648  1.00  0.00     0.374 C 
HETATM    5  O2  UNL     1      13.044  46.359 -36.480  1.00  0.00    -0.237 OA
HETATM    6  N1  UNL     1      11.200  45.197 -35.677  1.00  0.00    -0.326 N 
ATOM      7  H1  UNL     1      10.524  44.452 -35.848  1.00  0.00     0.165 HD
BRANCH   6   8
HETATM    8  C4  UNL     1      11.113  45.975 -34.420  1.00  0.00     0.153 C 
BRANCH   8   9
HETATM    9  C5  UNL     1       9.715  46.505 -34.247  1.00  0.00     0.381 C 
BRANCH   9  10
HETATM   10  O3  UNL     1       9.018  46.019 -35.394  1.00  0.00    -0.366 OA
ATOM     11  H3  UNL     1       8.181  46.467 -35.360  1.00  0.00     0.212 HD
ENDBRANCH   9  10
BRANCH   9  12
HETATM   12  N2  UNL     1       9.623  47.938 -34.341  1.00  0.00     0.134 N 
HETATM   13  C6  UNL     1      10.197  48.662 -33.256  1.00  0.00     0.277 C 
HETATM   14  C7  UNL     1      11.325  49.490 -33.820  1.00  0.00     0.033 C 
HETATM   15  C8  UNL     1      11.516  48.910 -35.200  1.00  0.00     0.049 C 
HETATM   16  C9  UNL     1      10.096  48.508 -35.559  1.00  0.00     0.326 C 
BRANCH  16  17
HETATM   17  C10 UNL     1       9.339  49.769 -35.886  1.00  0.00     0.207 C 
HETATM   18  O4  UNL     1       8.119  49.694 -36.161  1.00  0.00    -0.646 OA
HETATM   19  O5  UNL     1      10.040  50.976 -35.869  1.00  0.00    -0.646 OA
ENDBRANCH  16  17
ENDBRANCH   9  12
ENDBRANCH   8   9
BRANCH   8  20
HETATM   20  C11 UNL     1      11.605  45.077 -33.346  1.00  0.00    -0.026 C 
HETATM   21  C12 UNL     1      11.610  43.607 -33.669  1.00  0.00     0.016 C 
HETATM   22  C13 UNL     1      12.971  45.435 -32.821  1.00  0.00     0.016 C 
HETATM   23  C14 UNL     1      10.659  45.213 -32.141  1.00  0.00     0.016 C 
ENDBRANCH   8  20
ENDBRANCH   6   8
ENDBRANCH   3   4
TORSDOF 7
ENDMDL
MODEL 2
REMARK VINA RESULT: -4.791056230      1.524      5.553
REMARK  7 active torsions:
REMARK  status: ('A' for Active; 'I' for Inactive)
REMARK    1  A    between atoms: O1_3  and  C3_4 
REMARK       I    between atoms: C3_4  and  N1_6 
REMARK    2  A    between atoms: N1_6  and  C4_8 
REMARK    3  A    between atoms: C4_8  and  C5_9 
REMARK    4  A    between atoms: C4_8  and  C11_20 
REMARK    5  A    between atoms: C5_9  and  O3_10 
REMARK    6  A    between atoms: C5_9  and  N2_12 
REMARK    7  A    between atoms: C9_16  and  C10_17 
ROOT
HETATM    1  C1  UNL     1       9.172  50.998 -36.831  1.00  0.00     0.045 C 
HETATM    2  C2  UNL     1       9.375  50.189 -35.958  1.00  0.00     0.054 C 
HETATM    3  O1  UNL     1       9.583  49.266 -34.958  1.00  0.00    -0.209 OA
ENDROOT
BRANCH   3   4
HETATM    4  C3  UNL     1      10.005  47.997 -35.305  1.00  0.00     0.374 C 
HETATM    5  O2  UNL     1       9.568  47.451 -36.340  1.00  0.00    -0.237 OA
HETATM    6  N1  UNL     1      10.936  47.339 -34.465  1.00  0.00    -0.326 N 
ATOM      7  H1  UNL     1      11.272  47.816 -33.629  1.00  0.00     0.165 HD
BRANCH   6   8
HETATM    8  C4  UNL     1      11.436  45.979 -34.769  1.00  0.00     0.153 C 
BRANCH   8   9
HETATM    9  C5  UNL     1      12.771  46.069 -35.456  1.00  0.00     0.381 C 
BRANCH   9  10
HETATM   10  O3  UNL     1      12.644  47.208 -36.308  1.00  0.00    -0.366 OA
ATOM     11  H3  UNL     1      11.979  46.952 -36.935  1.00  0.00     0.212 HD
ENDBRANCH   9  10
BRANCH   9  12
HETATM   12  N2  UNL     1      13.042  44.973 -36.346  1.00  0.00     0.134 N 
HETATM   13  C6  UNL     1      11.925  44.143 -36.655  1.00  0.00     0.277 C 
HETATM   14  C7  UNL     1      11.684  44.256 -38.141  1.00  0.00     0.033 C 
HETATM   15  C8  UNL     1      12.530  45.441 -38.534  1.00  0.00     0.049 C 
HETATM   16  C9  UNL     1      13.694  45.317 -37.567  1.00  0.00     0.326 C 
BRANCH  16  17
HETATM   17  C10 UNL     1      14.560  44.180 -38.046  1.00  0.00     0.207 C 
HETATM   18  O4  UNL     1      15.414  43.695 -37.268  1.00  0.00    -0.646 OA
HETATM   19  O5  UNL     1      14.369  43.716 -39.348  1.00  0.00    -0.646 OA
ENDBRANCH  16  17
ENDBRANCH   9  12
ENDBRANCH   8   9
BRANCH   8  20
HETATM   20  C11 UNL     1      11.414  45.237 -33.484  1.00  0.00    -0.026 C 
HETATM   21  C12 UNL     1      10.363  45.666 -32.495  1.00  0.00     0.016 C 
HETATM   22  C13 UNL     1      11.315  43.741 -33.637  1.00  0.00     0.016 C 
HETATM   23  C14 UNL     1      12.753  45.484 -32.770  1.00  0.00     0.016 C 
ENDBRANCH   8  20
ENDBRANCH   6   8
ENDBRANCH   3   4
TORSDOF 7
ENDMDL
MODEL 3
REMARK VINA RESULT: -4.691381902      1.034      1.944
REMARK  7 active torsions:
REMARK  status: ('A' for Active; 'I' for Inactive)
REMARK    1  A    between atoms: O1_3  and  C3_4 
REMARK       I    between atoms: C3_4  and  N1_6 
REMARK    2  A    between atoms: N1_6  and  C4_8 
REMARK    3  A    between atoms: C4_8  and  C5_9 
REMARK    4  A    between atoms: C4_8  and  C11_20 
REMARK    5  A    between atoms: C5_9  and  O3_10 
REMARK    6  A    between atoms: C5_9  and  N2_12 
REMARK    7  A    between atoms: C9_16  and  C10_17 
ROOT
HETATM    1  C1  UNL     1      14.574  43.782 -38.857  1.00  0.00     0.045 C 
HETATM    2  C2  UNL     1      13.529  44.134 -38.364  1.00  0.00     0.054 C 
HETATM    3  O1  UNL     1      12.334  44.513 -37.794  1.00  0.00    -0.209 OA
ENDROOT
BRANCH   3   4
HETATM    4  C3  UNL     1      12.359  45.379 -36.718  1.00  0.00     0.374 C 
HETATM    5  O2  UNL     1      13.180  46.320 -36.688  1.00  0.00    -0.237 OA
HETATM    6  N1  UNL     1      11.440  45.173 -35.661  1.00  0.00    -0.326 N 
ATOM      7  H1  UNL     1      10.784  44.394 -35.720  1.00  0.00     0.165 HD
BRANCH   6   8
HETATM    8  C4  UNL     1      11.404  46.058 -34.474  1.00  0.00     0.153 C 
BRANCH   8   9
HETATM    9  C5  UNL     1      10.144  46.879 -34.490  1.00  0.00     0.381 C 
BRANCH   9  10
HETATM   10  O3  UNL     1       9.163  45.996 -35.034  1.00  0.00    -0.366 OA
ATOM     11  H3  UNL     1       8.697  45.673 -34.272  1.00  0.00     0.212 HD
ENDBRANCH   9  10
BRANCH   9  12
HETATM   12  N2  UNL     1      10.186  47.989 -35.404  1.00  0.00     0.134 N 
HETATM   13  C6  UNL     1       9.771  47.703 -36.737  1.00  0.00     0.277 C 
HETATM   14  C7  UNL     1       8.548  48.543 -37.013  1.00  0.00     0.033 C 
HETATM   15  C8  UNL     1       8.157  49.037 -35.643  1.00  0.00     0.049 C 
HETATM   16  C9  UNL     1       9.513  49.170 -34.970  1.00  0.00     0.326 C 
BRANCH  16  17
HETATM   17  C10 UNL     1      10.178  50.399 -35.535  1.00  0.00     0.207 C 
HETATM   18  O4  UNL     1      11.429  50.476 -35.519  1.00  0.00    -0.646 OA
HETATM   19  O5  UNL     1       9.362  51.405 -36.052  1.00  0.00    -0.646 OA
ENDBRANCH  16  17
ENDBRANCH   9  12
ENDBRANCH   8   9
BRANCH   8  20
HETATM   20  C11 UNL     1      11.590  45.173 -33.297  1.00  0.00    -0.026 C 
HETATM   21  C12 UNL     1      10.698  45.453 -32.117  1.00  0.00     0.016 C 
HETATM   22  C13 UNL     1      11.489  43.703 -33.609  1.00  0.00     0.016 C 
HETATM   23  C14 UNL     1      13.019  45.378 -32.769  1.00  0.00     0.016 C 
ENDBRANCH   8  20
ENDBRANCH   6   8
ENDBRANCH   3   4
TORSDOF 7
ENDMDL
MODEL 4
REMARK VINA RESULT: -4.578869899      6.028     10.262
REMARK  7 active torsions:
REMARK  status: ('A' for Active; 'I' for Inactive)
REMARK    1  A    between atoms: O1_3  and  C3_4 
REMARK       I    between atoms: C3_4  and  N1_6 
REMARK    2  A    between atoms: N1_6  and  C4_8 
REMARK    3  A    between atoms: C4_8  and  C5_9 
REMARK    4  A    between atoms: C4_8  and  C11_20 
REMARK    5  A    between atoms: C5_9  and  O3_10 
REMARK    6  A    between atoms: C5_9  and  N2_12 
REMARK    7  A    between atoms: C9_16  and  C10_17 
ROOT
HETATM    1  C1  UNL     1      12.539  44.462 -38.127  1.00  0.00     0.045 C 
HETATM    2  C2  UNL     1      13.572  44.086 -38.628  1.00  0.00     0.054 C 
HETATM    3  O1  UNL     1      14.751  43.680 -39.210  1.00  0.00    -0.209 OA
ENDROOT
BRANCH   3   4
HETATM    4  C3  UNL     1      15.830  43.397 -38.395  1.00  0.00     0.374 C 
HETATM    5  O2  UNL     1      15.682  43.342 -37.155  1.00  0.00    -0.237 OA
HETATM    6  N1  UNL     1      17.093  43.174 -38.993  1.00  0.00    -0.326 N 
ATOM      7  H1  UNL     1      17.176  43.226 -40.008  1.00  0.00     0.165 HD
BRANCH   6   8
HETATM    8  C4  UNL     1      18.296  42.866 -38.186  1.00  0.00     0.153 C 
BRANCH   8   9
HETATM    9  C5  UNL     1      18.954  41.619 -38.712  1.00  0.00     0.381 C 
BRANCH   9  10
HETATM   10  O3  UNL     1      18.318  41.397 -39.970  1.00  0.00    -0.366 OA
ATOM     11  H3  UNL     1      18.777  40.647 -40.330  1.00  0.00     0.212 HD
ENDBRANCH   9  10
BRANCH   9  12
HETATM   12  N2  UNL     1      18.664  40.440 -37.940  1.00  0.00     0.134 N 
HETATM   13  C6  UNL     1      19.272  39.238 -38.406  1.00  0.00     0.277 C 
HETATM   14  C7  UNL     1      20.202  38.759 -37.318  1.00  0.00     0.033 C 
HETATM   15  C8  UNL     1      20.291  39.950 -36.397  1.00  0.00     0.049 C 
HETATM   16  C9  UNL     1      18.901  40.547 -36.538  1.00  0.00     0.326 C 
BRANCH  16  17
HETATM   17  C10 UNL     1      17.951  39.666 -35.769  1.00  0.00     0.207 C 
HETATM   18  O4  UNL     1      16.784  39.507 -36.199  1.00  0.00    -0.646 OA
HETATM   19  O5  UNL     1      18.418  39.062 -34.601  1.00  0.00    -0.646 OA
ENDBRANCH  16  17
ENDBRANCH   9  12
ENDBRANCH   8   9
BRANCH   8  20
HETATM   20  C11 UNL     1      19.126  44.096 -38.201  1.00  0.00    -0.026 C 
HETATM   21  C12 UNL     1      20.272  44.104 -39.176  1.00  0.00     0.016 C 
HETATM   22  C13 UNL     1      18.342  45.366 -38.404  1.00  0.00     0.016 C 
HETATM   23  C14 UNL     1      19.783  44.242 -36.818  1.00  0.00     0.016 C 
ENDBRANCH   8  20
ENDBRANCH   6   8
ENDBRANCH   3   4
TORSDOF 7
ENDMDL
MODEL 5
REMARK VINA RESULT: -4.382718624      1.339      2.195
REMARK  7 active torsions:
REMARK  status: ('A' for Active; 'I' for Inactive)
REMARK    1  A    between atoms: O1_3  and  C3_4 
REMARK       I    between atoms: C3_4  and  N1_6 
REMARK    2  A    between atoms: N1_6  and  C4_8 
REMARK    3  A    between atoms: C4_8  and  C5_9 
REMARK    4  A    between atoms: C4_8  and  C11_20 
REMARK    5  A    between atoms: C5_9  and  O3_10 
REMARK    6  A    between atoms: C5_9  and  N2_12 
REMARK    7  A    between atoms: C9_16  and  C10_17 
ROOT
HETATM    1  C1  UNL     1      16.326  44.284 -38.303  1.00  0.00     0.045 C 
HETATM    2  C2  UNL     1      15.164  44.200 -37.984  1.00  0.00     0.054 C 
HETATM    3  O1  UNL     1      13.845  44.084 -37.606  1.00  0.00    -0.209 OA
ENDROOT
BRANCH   3   4
HETATM    4  C3  UNL     1      13.294  45.071 -36.812  1.00  0.00     0.374 C 
HETATM    5  O2  UNL     1      13.496  46.275 -37.076  1.00  0.00    -0.237 OA
HETATM    6  N1  UNL     1      12.504  44.686 -35.703  1.00  0.00    -0.326 N 
ATOM      7  H1  UNL     1      12.360  43.693 -35.518  1.00  0.00     0.165 HD
BRANCH   6   8
HETATM    8  C4  UNL     1      11.880  45.685 -34.804  1.00  0.00     0.153 C 
BRANCH   8   9
HETATM    9  C5  UNL     1      10.588  46.170 -35.403  1.00  0.00     0.381 C 
BRANCH   9  10
HETATM   10  O3  UNL     1      10.563  45.572 -36.700  1.00  0.00    -0.366 OA
ATOM     11  H3  UNL     1      11.403  45.135 -36.767  1.00  0.00     0.212 HD
ENDBRANCH   9  10
BRANCH   9  12
HETATM   12  N2  UNL     1      10.558  47.586 -35.651  1.00  0.00     0.134 N 
HETATM   13  C6  UNL     1       9.762  47.999 -36.759  1.00  0.00     0.277 C 
HETATM   14  C7  UNL     1       8.659  48.872 -36.214  1.00  0.00     0.033 C 
HETATM   15  C8  UNL     1       8.732  48.625 -34.727  1.00  0.00     0.049 C 
HETATM   16  C9  UNL     1      10.222  48.401 -34.530  1.00  0.00     0.326 C 
BRANCH  16  17
HETATM   17  C10 UNL     1      10.897  49.745 -34.627  1.00  0.00     0.207 C 
HETATM   18  O4  UNL     1      12.064  49.874 -34.188  1.00  0.00    -0.646 OA
HETATM   19  O5  UNL     1      10.184  50.795 -35.208  1.00  0.00    -0.646 OA
ENDBRANCH  16  17
ENDBRANCH   9  12
ENDBRANCH   8   9
BRANCH   8  20
HETATM   20  C11 UNL     1      11.777  45.033 -33.475  1.00  0.00    -0.026 C 
HETATM   21  C12 UNL     1      10.706  45.568 -32.562  1.00  0.00     0.016 C 
HETATM   22  C13 UNL     1      11.625  43.536 -33.532  1.00  0.00     0.016 C 
HETATM   23  C14 UNL     1      13.095  45.279 -32.722  1.00  0.00     0.016 C 
ENDBRANCH   8  20
ENDBRANCH   6   8
ENDBRANCH   3   4
TORSDOF 7
ENDMDL
