MODEL 1
REMARK VINA RESULT: -8.099779923      0.000      0.000
REMARK  7 active torsions:
REMARK  status: ('A' for Active; 'I' for Inactive)
REMARK    1  A    between atoms: N1_1  and  C1_5 
REMARK    2  A    between atoms: C1_5  and  C2_6 
REMARK    3  A    between atoms: C1_5  and  C14_22 
REMARK       I    between atoms: C2_6  and  N2_8 
REMARK    4  A    between atoms: N2_8  and  C3_10 
REMARK    5  A    between atoms: C8_15  and  C9_16 
REMARK    6  A    between atoms: C14_22  and  O3_23 
REMARK    7  A    between atoms: C14_22  and  O4_25 
ROOT
HETATM    1  C2  UNL     1       9.014  48.716 -35.861  1.00  0.00     0.253 C 
HETATM    2  O1  UNL     1       8.239  47.780 -36.182  1.00  0.00    -0.271 OA
HETATM    3  N2  UNL     1      10.198  48.386 -35.166  1.00  0.00    -0.355 N 
ATOM      4  H2  UNL     1      10.839  49.133 -34.898  1.00  0.00     0.162 HD
ENDROOT
BRANCH   3   5
HETATM    5  C3  UNL     1      10.530  47.017 -34.822  1.00  0.00     0.084 C 
HETATM    6  C4  UNL     1      11.171  47.030 -33.465  1.00  0.00     0.025 C 
HETATM    7  C5  UNL     1      10.798  45.791 -32.645  1.00  0.00     0.002 C 
HETATM    8  C6  UNL     1      11.836  44.738 -33.016  1.00  0.00     0.000 C 
HETATM    9  C7  UNL     1      11.550  44.355 -34.451  1.00  0.00     0.005 C 
HETATM   10  C8  UNL     1      12.237  45.279 -35.437  1.00  0.00    -0.006 C 
HETATM   11  C13 UNL     1      11.403  46.422 -35.888  1.00  0.00     0.030 C 
BRANCH  10  12
HETATM   12  C9  UNL     1      12.687  44.431 -36.588  1.00  0.00     0.015 C 
HETATM   13  C10 UNL     1      14.086  44.664 -37.027  1.00  0.00     0.033 C 
HETATM   14  C11 UNL     1      14.004  44.249 -38.485  1.00  0.00     0.168 C 
HETATM   15  O2  UNL     1      12.755  44.675 -38.919  1.00  0.00    -0.391 OA
HETATM   16  C12 UNL     1      11.894  44.586 -37.838  1.00  0.00     0.172 C 
ENDBRANCH  10  12
ENDBRANCH   3   5
BRANCH   1  17
HETATM   17  C1  UNL     1       8.672  50.130 -36.217  1.00  0.00     0.328 C 
BRANCH  17  18
HETATM   18  N1  UNL     1       7.877  50.180 -37.425  1.00  0.00    -0.062 N 
ATOM     19  H13 UNL     1       7.962  49.321 -37.967  1.00  0.00     0.275 HD
ATOM     20  H12 UNL     1       6.878  50.135 -37.221  1.00  0.00     0.275 HD
ATOM     21  H11 UNL     1       8.112  51.002 -37.981  1.00  0.00     0.275 HD
ENDBRANCH  17  18
BRANCH  17  22
HETATM   22  C14 UNL     1       9.992  50.835 -36.536  1.00  0.00     0.293 C 
BRANCH  22  23
HETATM   23  O3  UNL     1      10.578  51.181 -35.325  1.00  0.00    -0.369 OA
ATOM     24  H3  UNL     1      10.787  50.373 -34.871  1.00  0.00     0.212 HD
ENDBRANCH  22  23
BRANCH  22  25
HETATM   25  O4  UNL     1       9.802  51.937 -37.346  1.00  0.00    -0.369 OA
ATOM     26  H4  UNL     1      10.307  52.685 -37.049  1.00  0.00     0.212 HD
ENDBRANCH  22  25
ENDBRANCH  17  22
ENDBRANCH   1  17
TORSDOF 7
ENDMDL
MODEL 2
REMARK VINA RESULT: -7.299334029      0.959      1.250
REMARK  7 active torsions:
REMARK  status: ('A' for Active; 'I' for Inactive)
REMARK    1  A    between atoms: N1_1  and  C1_5 
REMARK    2  A    between atoms: C1_5  and  C2_6 
REMARK    3  A    between atoms: C1_5  and  C14_22 
REMARK       I    between atoms: C2_6  and  N2_8 
REMARK    4  A    between atoms: N2_8  and  C3_10 
REMARK    5  A    between atoms: C8_15  and  C9_16 
REMARK    6  A    between atoms: C14_22  and  O3_23 
REMARK    7  A    between atoms: C14_22  and  O4_25 
ROOT
HETATM    1  C2  UNL     1       9.150  48.654 -36.197  1.00  0.00     0.253 C 
HETATM    2  O1  UNL     1       8.765  47.908 -37.133  1.00  0.00    -0.271 OA
HETATM    3  N2  UNL     1      10.064  48.123 -35.261  1.00  0.00    -0.355 N 
ATOM      4  H2  UNL     1      10.388  48.714 -34.495  1.00  0.00     0.162 HD
ENDROOT
BRANCH   3   5
HETATM    5  C3  UNL     1      10.556  46.763 -35.355  1.00  0.00     0.084 C 
HETATM    6  C4  UNL     1      10.904  46.306 -33.969  1.00  0.00     0.025 C 
HETATM    7  C5  UNL     1      10.599  44.818 -33.764  1.00  0.00     0.002 C 
HETATM    8  C6  UNL     1      11.858  44.086 -34.213  1.00  0.00     0.000 C 
HETATM    9  C7  UNL     1      11.933  44.264 -35.714  1.00  0.00     0.005 C 
HETATM   10  C8  UNL     1      12.628  45.554 -36.102  1.00  0.00    -0.006 C 
HETATM   11  C13 UNL     1      11.713  46.705 -36.310  1.00  0.00     0.030 C 
BRANCH  10  12
HETATM   12  C9  UNL     1      13.439  45.261 -37.328  1.00  0.00     0.015 C 
HETATM   13  C10 UNL     1      12.749  44.438 -38.353  1.00  0.00     0.033 C 
HETATM   14  C11 UNL     1      13.931  43.778 -39.038  1.00  0.00     0.168 C 
HETATM   15  O2  UNL     1      14.847  43.519 -38.025  1.00  0.00    -0.391 OA
HETATM   16  C12 UNL     1      14.712  44.529 -37.086  1.00  0.00     0.172 C 
ENDBRANCH  10  12
ENDBRANCH   3   5
BRANCH   1  17
HETATM   17  C1  UNL     1       8.642  50.060 -36.100  1.00  0.00     0.328 C 
BRANCH  17  18
HETATM   18  N1  UNL     1       7.663  50.327 -37.131  1.00  0.00    -0.062 N 
ATOM     19  H13 UNL     1       7.053  51.104 -36.880  1.00  0.00     0.275 HD
ATOM     20  H12 UNL     1       8.093  50.732 -37.963  1.00  0.00     0.275 HD
ATOM     21  H11 UNL     1       7.131  49.486 -37.353  1.00  0.00     0.275 HD
ENDBRANCH  17  18
BRANCH  17  22
HETATM   22  C14 UNL     1       9.833  50.978 -36.383  1.00  0.00     0.293 C 
BRANCH  22  23
HETATM   23  O3  UNL     1      10.586  51.048 -35.217  1.00  0.00    -0.369 OA
ATOM     24  H3  UNL     1      10.509  51.935 -34.884  1.00  0.00     0.212 HD
ENDBRANCH  22  23
BRANCH  22  25
HETATM   25  O4  UNL     1       9.428  52.229 -36.807  1.00  0.00    -0.369 OA
ATOM     26  H4  UNL     1       9.780  52.919 -36.256  1.00  0.00     0.212 HD
ENDBRANCH  22  25
ENDBRANCH  17  22
ENDBRANCH   1  17
TORSDOF 7
ENDMDL
MODEL 3
REMARK VINA RESULT: -6.089315242      3.439      5.017
REMARK  7 active torsions:
REMARK  status: ('A' for Active; 'I' for Inactive)
REMARK    1  A    between atoms: N1_1  and  C1_5 
REMARK    2  A    between atoms: C1_5  and  C2_6 
REMARK    3  A    between atoms: C1_5  and  C14_22 
REMARK       I    between atoms: C2_6  and  N2_8 
REMARK    4  A    between atoms: N2_8  and  C3_10 
REMARK    5  A    between atoms: C8_15  and  C9_16 
REMARK    6  A    between atoms: C14_22  and  O3_23 
REMARK    7  A    between atoms: C14_22  and  O4_25 
ROOT
HETATM    1  C2  UNL     1      11.798  46.080 -34.329  1.00  0.00     0.253 C 
HETATM    2  O1  UNL     1      11.646  47.115 -35.027  1.00  0.00    -0.271 OA
HETATM    3  N2  UNL     1      12.444  44.972 -34.920  1.00  0.00    -0.355 N 
ATOM      4  H2  UNL     1      12.578  44.125 -34.368  1.00  0.00     0.162 HD
ENDROOT
BRANCH   3   5
HETATM    5  C3  UNL     1      12.924  45.003 -36.288  1.00  0.00     0.084 C 
HETATM    6  C4  UNL     1      11.883  44.353 -37.151  1.00  0.00     0.025 C 
HETATM    7  C5  UNL     1      11.783  45.021 -38.527  1.00  0.00     0.002 C 
HETATM    8  C6  UNL     1      12.810  44.303 -39.395  1.00  0.00     0.000 C 
HETATM    9  C7  UNL     1      14.167  44.709 -38.864  1.00  0.00     0.005 C 
HETATM   10  C8  UNL     1      14.620  43.825 -37.719  1.00  0.00    -0.006 C 
HETATM   11  C13 UNL     1      14.268  44.339 -36.372  1.00  0.00     0.030 C 
BRANCH  10  12
HETATM   12  C9  UNL     1      16.098  43.636 -37.873  1.00  0.00     0.015 C 
HETATM   13  C10 UNL     1      16.797  44.727 -38.599  1.00  0.00     0.033 C 
HETATM   14  C11 UNL     1      17.989  43.980 -39.166  1.00  0.00     0.168 C 
HETATM   15  O2  UNL     1      17.507  42.723 -39.511  1.00  0.00    -0.391 OA
HETATM   16  C12 UNL     1      16.508  42.406 -38.605  1.00  0.00     0.172 C 
ENDBRANCH  10  12
ENDBRANCH   3   5
BRANCH   1  17
HETATM   17  C1  UNL     1      11.304  46.048 -32.915  1.00  0.00     0.328 C 
BRANCH  17  18
HETATM   18  N1  UNL     1      11.276  44.692 -32.410  1.00  0.00    -0.062 N 
ATOM     19  H13 UNL     1      11.698  44.036 -33.067  1.00  0.00     0.275 HD
ATOM     20  H12 UNL     1      11.921  44.567 -31.630  1.00  0.00     0.275 HD
ATOM     21  H11 UNL     1      10.326  44.416 -32.162  1.00  0.00     0.275 HD
ENDBRANCH  17  18
BRANCH  17  22
HETATM   22  C14 UNL     1       9.852  46.529 -32.946  1.00  0.00     0.293 C 
BRANCH  22  23
HETATM   23  O3  UNL     1       9.197  45.802 -33.933  1.00  0.00    -0.369 OA
ATOM     24  H3  UNL     1       8.310  45.648 -33.628  1.00  0.00     0.212 HD
ENDBRANCH  22  23
BRANCH  22  25
HETATM   25  O4  UNL     1       9.767  47.889 -33.173  1.00  0.00    -0.369 OA
ATOM     26  H4  UNL     1      10.079  48.391 -32.429  1.00  0.00     0.212 HD
ENDBRANCH  22  25
ENDBRANCH  17  22
ENDBRANCH   1  17
TORSDOF 7
ENDMDL
MODEL 4
REMARK VINA RESULT: -6.080918540      2.370      6.121
REMARK  7 active torsions:
REMARK  status: ('A' for Active; 'I' for Inactive)
REMARK    1  A    between atoms: N1_1  and  C1_5 
REMARK    2  A    between atoms: C1_5  and  C2_6 
REMARK    3  A    between atoms: C1_5  and  C14_22 
REMARK       I    between atoms: C2_6  and  N2_8 
REMARK    4  A    between atoms: N2_8  and  C3_10 
REMARK    5  A    between atoms: C8_15  and  C9_16 
REMARK    6  A    between atoms: C14_22  and  O3_23 
REMARK    7  A    between atoms: C14_22  and  O4_25 
ROOT
HETATM    1  C2  UNL     1      13.379  45.222 -37.274  1.00  0.00     0.253 C 
HETATM    2  O1  UNL     1      13.723  46.405 -37.020  1.00  0.00    -0.271 OA
HETATM    3  N2  UNL     1      12.502  44.580 -36.373  1.00  0.00    -0.355 N 
ATOM      4  H2  UNL     1      12.211  43.621 -36.564  1.00  0.00     0.162 HD
ENDROOT
BRANCH   3   5
HETATM    5  C3  UNL     1      12.003  45.243 -35.184  1.00  0.00     0.084 C 
HETATM    6  C4  UNL     1      11.460  44.187 -34.266  1.00  0.00     0.025 C 
HETATM    7  C5  UNL     1      11.707  44.529 -32.793  1.00  0.00     0.002 C 
HETATM    8  C6  UNL     1      10.508  45.369 -32.371  1.00  0.00     0.000 C 
HETATM    9  C7  UNL     1      10.641  46.687 -33.103  1.00  0.00     0.005 C 
HETATM   10  C8  UNL     1      10.029  46.635 -34.489  1.00  0.00    -0.006 C 
HETATM   11  C13 UNL     1      10.985  46.278 -35.568  1.00  0.00     0.030 C 
BRANCH  10  12
HETATM   12  C9  UNL     1       9.388  47.966 -34.733  1.00  0.00     0.015 C 
HETATM   13  C10 UNL     1       9.163  48.302 -36.161  1.00  0.00     0.033 C 
HETATM   14  C11 UNL     1       9.188  49.818 -36.111  1.00  0.00     0.168 C 
HETATM   15  O2  UNL     1      10.157  50.139 -35.167  1.00  0.00    -0.391 OA
HETATM   16  C12 UNL     1      10.141  49.138 -34.209  1.00  0.00     0.172 C 
ENDBRANCH  10  12
ENDBRANCH   3   5
BRANCH   1  17
HETATM   17  C1  UNL     1      13.894  44.537 -38.503  1.00  0.00     0.328 C 
BRANCH  17  18
HETATM   18  N1  UNL     1      13.027  43.444 -38.885  1.00  0.00    -0.062 N 
ATOM     19  H13 UNL     1      12.921  43.383 -39.897  1.00  0.00     0.275 HD
ATOM     20  H12 UNL     1      13.467  42.539 -38.721  1.00  0.00     0.275 HD
ATOM     21  H11 UNL     1      12.124  43.515 -38.416  1.00  0.00     0.275 HD
ENDBRANCH  17  18
BRANCH  17  22
HETATM   22  C14 UNL     1      15.240  43.913 -38.127  1.00  0.00     0.293 C 
BRANCH  22  23
HETATM   23  O3  UNL     1      16.209  44.896 -38.287  1.00  0.00    -0.369 OA
ATOM     24  H3  UNL     1      16.987  44.603 -37.826  1.00  0.00     0.212 HD
ENDBRANCH  22  23
BRANCH  22  25
HETATM   25  O4  UNL     1      15.516  42.793 -38.886  1.00  0.00    -0.369 OA
ATOM     26  H4  UNL     1      16.442  42.724 -39.090  1.00  0.00     0.212 HD
ENDBRANCH  22  25
ENDBRANCH  17  22
ENDBRANCH   1  17
TORSDOF 7
ENDMDL
MODEL 5
REMARK VINA RESULT: -5.961581018      2.428      6.121
REMARK  7 active torsions:
REMARK  status: ('A' for Active; 'I' for Inactive)
REMARK    1  A    between atoms: N1_1  and  C1_5 
REMARK    2  A    between atoms: C1_5  and  C2_6 
REMARK    3  A    between atoms: C1_5  and  C14_22 
REMARK       I    between atoms: C2_6  and  N2_8 
REMARK    4  A    between atoms: N2_8  and  C3_10 
REMARK    5  A    between atoms: C8_15  and  C9_16 
REMARK    6  A    between atoms: C14_22  and  O3_23 
REMARK    7  A    between atoms: C14_22  and  O4_25 
ROOT
HETATM    1  C2  UNL     1      13.649  45.041 -36.794  1.00  0.00     0.253 C 
HETATM    2  O1  UNL     1      13.710  46.266 -37.069  1.00  0.00    -0.271 OA
HETATM    3  N2  UNL     1      12.779  44.636 -35.758  1.00  0.00    -0.355 N 
ATOM      4  H2  UNL     1      12.716  43.646 -35.523  1.00  0.00     0.162 HD
ENDROOT
BRANCH   3   5
HETATM    5  C3  UNL     1      11.973  45.588 -35.019  1.00  0.00     0.084 C 
HETATM    6  C4  UNL     1      11.020  44.808 -34.161  1.00  0.00     0.025 C 
HETATM    7  C5  UNL     1      10.767  45.497 -32.816  1.00  0.00     0.002 C 
HETATM    8  C6  UNL     1       9.604  46.450 -33.068  1.00  0.00     0.000 C 
HETATM    9  C7  UNL     1      10.143  47.541 -33.968  1.00  0.00     0.005 C 
HETATM   10  C8  UNL     1      10.060  47.164 -35.434  1.00  0.00    -0.006 C 
HETATM   11  C13 UNL     1      11.287  46.523 -35.972  1.00  0.00     0.030 C 
BRANCH  10  12
HETATM   12  C9  UNL     1       9.709  48.411 -36.185  1.00  0.00     0.015 C 
HETATM   13  C10 UNL     1       9.839  49.669 -35.407  1.00  0.00     0.033 C 
HETATM   14  C11 UNL     1       8.831  50.554 -36.117  1.00  0.00     0.168 C 
HETATM   15  O2  UNL     1       7.778  49.713 -36.457  1.00  0.00    -0.391 OA
HETATM   16  C12 UNL     1       8.318  48.464 -36.713  1.00  0.00     0.172 C 
ENDBRANCH  10  12
ENDBRANCH   3   5
BRANCH   1  17
HETATM   17  C1  UNL     1      14.482  44.057 -37.559  1.00  0.00     0.328 C 
BRANCH  17  18
HETATM   18  N1  UNL     1      15.736  44.652 -37.968  1.00  0.00    -0.062 N 
ATOM     19  H13 UNL     1      15.741  45.661 -37.820  1.00  0.00     0.275 HD
ATOM     20  H12 UNL     1      16.496  44.400 -37.336  1.00  0.00     0.275 HD
ATOM     21  H11 UNL     1      15.954  44.412 -38.935  1.00  0.00     0.275 HD
ENDBRANCH  17  18
BRANCH  17  22
HETATM   22  C14 UNL     1      13.714  43.737 -38.844  1.00  0.00     0.293 C 
BRANCH  22  23
HETATM   23  O3  UNL     1      14.648  43.645 -39.869  1.00  0.00    -0.369 OA
ATOM     24  H3  UNL     1      14.591  44.448 -40.375  1.00  0.00     0.212 HD
ENDBRANCH  22  23
BRANCH  22  25
HETATM   25  O4  UNL     1      12.748  44.686 -39.115  1.00  0.00    -0.369 OA
ATOM     26  H4  UNL     1      11.989  44.588 -38.552  1.00  0.00     0.212 HD
ENDBRANCH  22  25
ENDBRANCH  17  22
ENDBRANCH   1  17
TORSDOF 7
ENDMDL
