MODEL 1
REMARK VINA RESULT: -8.110382220      0.000      0.000
REMARK  10 active torsions:
REMARK  status: ('A' for Active; 'I' for Inactive)
REMARK    1  A    between atoms: C2_2  and  C4_4 
REMARK    2  A    between atoms: C4_4  and  N1_5 
REMARK    3  A    between atoms: C4_4  and  C13_17 
REMARK       I    between atoms: N1_5  and  C5_7 
REMARK    4  A    between atoms: C5_7  and  O2_9 
REMARK    5  A    between atoms: O2_9  and  C6_10 
REMARK    6  A    between atoms: C6_10  and  C7_11 
REMARK       I    between atoms: C13_17  and  N2_19 
REMARK    7  A    between atoms: N2_19  and  C14_21 
REMARK    8  A    between atoms: C14_21  and  C15_22 
REMARK    9  A    between atoms: C14_21  and  C16_25 
REMARK   10  A    between atoms: C16_25  and  O5_27 
ROOT
HETATM    1  C4  UNL     1     -34.189 -46.101  10.444  1.00  0.00     0.182 C 
ENDROOT
BRANCH   1   2
HETATM    2  C2  UNL     1     -32.884 -45.866  11.206  1.00  0.00     0.009 C 
HETATM    3  C1  UNL     1     -33.075 -45.928  12.674  1.00  0.00     0.012 C 
HETATM    4  C3  UNL     1     -32.273 -44.527  10.817  1.00  0.00     0.012 C 
ENDBRANCH   1   2
BRANCH   1   5
HETATM    5  N1  UNL     1     -35.231 -45.865  11.460  1.00  0.00    -0.323 N 
HETATM    6  C5  UNL     1     -35.879 -44.620  11.529  1.00  0.00     0.361 C 
HETATM    7  O1  UNL     1     -35.628 -43.666  10.771  1.00  0.00    -0.238 OA
ATOM      8  H1  UNL     1     -35.482 -46.607  12.113  1.00  0.00     0.165 HD
BRANCH   6   9
HETATM    9  O2  UNL     1     -36.861 -44.421  12.496  1.00  0.00    -0.299 OA
BRANCH   9  10
HETATM   10  C6  UNL     1     -37.232 -45.408  13.425  1.00  0.00     0.219 C 
BRANCH  10  11
HETATM   11  C7  UNL     1     -38.098 -44.752  14.449  1.00  0.00    -0.034 A 
HETATM   12  C8  UNL     1     -37.918 -44.943  15.797  1.00  0.00     0.009 A 
HETATM   13  C9  UNL     1     -38.739 -44.314  16.707  1.00  0.00     0.001 A 
HETATM   14  C10 UNL     1     -39.770 -43.471  16.323  1.00  0.00     0.000 A 
HETATM   15  C11 UNL     1     -39.925 -43.299  14.960  1.00  0.00     0.001 A 
HETATM   16  C12 UNL     1     -39.114 -43.920  14.037  1.00  0.00     0.009 A 
ENDBRANCH  10  11
ENDBRANCH   9  10
ENDBRANCH   6   9
ENDBRANCH   1   5
BRANCH   1  17
HETATM   17  C13 UNL     1     -34.323 -47.477   9.955  1.00  0.00     0.241 C 
HETATM   18  O3  UNL     1     -33.283 -48.131   9.695  1.00  0.00    -0.271 OA
HETATM   19  N2  UNL     1     -35.566 -48.114   9.759  1.00  0.00    -0.344 N 
ATOM     20  H2  UNL     1     -36.419 -47.598   9.974  1.00  0.00     0.163 HD
BRANCH  19  21
HETATM   21  C14 UNL     1     -35.680 -49.453   9.271  1.00  0.00     0.202 C 
BRANCH  21  22
HETATM   22  C15 UNL     1     -36.688 -49.511   8.176  1.00  0.00     0.256 C 
HETATM   23  N3  UNL     1     -37.730 -50.500   8.230  1.00  0.00    -0.060 NA
HETATM   24  O4  UNL     1     -36.617 -48.700   7.226  1.00  0.00    -0.274 OA
ENDBRANCH  21  22
BRANCH  21  25
HETATM   25  C16 UNL     1     -35.895 -50.503  10.319  1.00  0.00     0.145 C 
HETATM   26  C17 UNL     1     -34.795 -50.357  11.363  1.00  0.00     0.042 C 
BRANCH  25  27
HETATM   27  O5  UNL     1     -35.734 -51.793   9.768  1.00  0.00    -0.393 OA
ATOM     28  H5  UNL     1     -35.653 -52.442  10.458  1.00  0.00     0.210 HD
ENDBRANCH  25  27
ENDBRANCH  21  25
ENDBRANCH  19  21
ENDBRANCH   1  17
TORSDOF 10
ENDMDL
MODEL 2
REMARK VINA RESULT: -8.095073387      0.906      1.406
REMARK  10 active torsions:
REMARK  status: ('A' for Active; 'I' for Inactive)
REMARK    1  A    between atoms: C2_2  and  C4_4 
REMARK    2  A    between atoms: C4_4  and  N1_5 
REMARK    3  A    between atoms: C4_4  and  C13_17 
REMARK       I    between atoms: N1_5  and  C5_7 
REMARK    4  A    between atoms: C5_7  and  O2_9 
REMARK    5  A    between atoms: O2_9  and  C6_10 
REMARK    6  A    between atoms: C6_10  and  C7_11 
REMARK       I    between atoms: C13_17  and  N2_19 
REMARK    7  A    between atoms: N2_19  and  C14_21 
REMARK    8  A    between atoms: C14_21  and  C15_22 
REMARK    9  A    between atoms: C14_21  and  C16_25 
REMARK   10  A    between atoms: C16_25  and  O5_27 
ROOT
HETATM    1  C4  UNL     1     -34.916 -45.582  10.784  1.00  0.00     0.182 C 
ENDROOT
BRANCH   1   2
HETATM    2  C2  UNL     1     -33.567 -45.014  11.225  1.00  0.00     0.009 C 
HETATM    3  C1  UNL     1     -33.083 -45.635  12.481  1.00  0.00     0.012 C 
HETATM    4  C3  UNL     1     -33.653 -43.503  11.392  1.00  0.00     0.012 C 
ENDBRANCH   1   2
BRANCH   1   5
HETATM    5  N1  UNL     1     -35.673 -45.699  12.044  1.00  0.00    -0.323 N 
HETATM    6  C5  UNL     1     -36.790 -44.878  12.275  1.00  0.00     0.361 C 
HETATM    7  O1  UNL     1     -37.201 -44.027  11.467  1.00  0.00    -0.238 OA
ATOM      8  H1  UNL     1     -35.385 -46.377  12.749  1.00  0.00     0.165 HD
BRANCH   6   9
HETATM    9  O2  UNL     1     -37.489 -45.008  13.472  1.00  0.00    -0.299 OA
BRANCH   9  10
HETATM   10  C6  UNL     1     -38.727 -44.385  13.707  1.00  0.00     0.219 C 
BRANCH  10  11
HETATM   11  C7  UNL     1     -38.801 -44.080  15.167  1.00  0.00    -0.034 A 
HETATM   12  C8  UNL     1     -39.400 -42.942  15.651  1.00  0.00     0.009 A 
HETATM   13  C9  UNL     1     -39.449 -42.704  17.007  1.00  0.00     0.001 A 
HETATM   14  C10 UNL     1     -38.910 -43.578  17.939  1.00  0.00     0.000 A 
HETATM   15  C11 UNL     1     -38.315 -44.713  17.419  1.00  0.00     0.001 A 
HETATM   16  C12 UNL     1     -38.257 -44.966  16.067  1.00  0.00     0.009 A 
ENDBRANCH  10  11
ENDBRANCH   9  10
ENDBRANCH   6   9
ENDBRANCH   1   5
BRANCH   1  17
HETATM   17  C13 UNL     1     -34.804 -46.916  10.185  1.00  0.00     0.241 C 
HETATM   18  O3  UNL     1     -33.707 -47.266   9.686  1.00  0.00    -0.271 OA
HETATM   19  N2  UNL     1     -35.871 -47.838  10.140  1.00  0.00    -0.344 N 
ATOM     20  H2  UNL     1     -36.766 -47.572  10.549  1.00  0.00     0.163 HD
BRANCH  19  21
HETATM   21  C14 UNL     1     -35.748 -49.132   9.543  1.00  0.00     0.202 C 
BRANCH  21  22
HETATM   22  C15 UNL     1     -36.788 -49.308   8.492  1.00  0.00     0.256 C 
HETATM   23  N3  UNL     1     -37.771 -50.347   8.640  1.00  0.00    -0.060 NA
HETATM   24  O4  UNL     1     -36.796 -48.551   7.496  1.00  0.00    -0.274 OA
ENDBRANCH  21  22
BRANCH  21  25
HETATM   25  C16 UNL     1     -35.690 -50.280  10.505  1.00  0.00     0.145 C 
HETATM   26  C17 UNL     1     -34.425 -50.130  11.340  1.00  0.00     0.042 C 
BRANCH  25  27
HETATM   27  O5  UNL     1     -35.549 -51.501   9.810  1.00  0.00    -0.393 OA
ATOM     28  H5  UNL     1     -35.998 -51.462   8.973  1.00  0.00     0.210 HD
ENDBRANCH  25  27
ENDBRANCH  21  25
ENDBRANCH  19  21
ENDBRANCH   1  17
TORSDOF 10
ENDMDL
MODEL 3
REMARK VINA RESULT: -7.685904321      1.678      2.530
REMARK  10 active torsions:
REMARK  status: ('A' for Active; 'I' for Inactive)
REMARK    1  A    between atoms: C2_2  and  C4_4 
REMARK    2  A    between atoms: C4_4  and  N1_5 
REMARK    3  A    between atoms: C4_4  and  C13_17 
REMARK       I    between atoms: N1_5  and  C5_7 
REMARK    4  A    between atoms: C5_7  and  O2_9 
REMARK    5  A    between atoms: O2_9  and  C6_10 
REMARK    6  A    between atoms: C6_10  and  C7_11 
REMARK       I    between atoms: C13_17  and  N2_19 
REMARK    7  A    between atoms: N2_19  and  C14_21 
REMARK    8  A    between atoms: C14_21  and  C15_22 
REMARK    9  A    between atoms: C14_21  and  C16_25 
REMARK   10  A    between atoms: C16_25  and  O5_27 
ROOT
HETATM    1  C4  UNL     1     -35.734 -45.388  10.851  1.00  0.00     0.182 C 
ENDROOT
BRANCH   1   2
HETATM    2  C2  UNL     1     -34.374 -44.770  10.524  1.00  0.00     0.009 C 
HETATM    3  C1  UNL     1     -33.345 -45.800  10.242  1.00  0.00     0.012 C 
HETATM    4  C3  UNL     1     -33.910 -43.869  11.660  1.00  0.00     0.012 C 
ENDBRANCH   1   2
BRANCH   1   5
HETATM    5  N1  UNL     1     -36.024 -44.890  12.207  1.00  0.00    -0.323 N 
HETATM    6  C5  UNL     1     -37.348 -44.858  12.679  1.00  0.00     0.361 C 
HETATM    7  O1  UNL     1     -38.329 -45.231  12.011  1.00  0.00    -0.238 OA
ATOM      8  H1  UNL     1     -35.263 -44.567  12.804  1.00  0.00     0.165 HD
BRANCH   6   9
HETATM    9  O2  UNL     1     -37.597 -44.385  13.964  1.00  0.00    -0.299 OA
BRANCH   9  10
HETATM   10  C6  UNL     1     -38.857 -43.916  14.376  1.00  0.00     0.219 C 
BRANCH  10  11
HETATM   11  C7  UNL     1     -38.953 -44.135  15.850  1.00  0.00    -0.034 A 
HETATM   12  C8  UNL     1     -38.103 -44.977  16.525  1.00  0.00     0.009 A 
HETATM   13  C9  UNL     1     -38.225 -45.146  17.886  1.00  0.00     0.001 A 
HETATM   14  C10 UNL     1     -39.190 -44.492  18.636  1.00  0.00     0.000 A 
HETATM   15  C11 UNL     1     -40.030 -43.651  17.927  1.00  0.00     0.001 A 
HETATM   16  C12 UNL     1     -39.921 -43.471  16.567  1.00  0.00     0.009 A 
ENDBRANCH  10  11
ENDBRANCH   9  10
ENDBRANCH   6   9
ENDBRANCH   1   5
BRANCH   1  17
HETATM   17  C13 UNL     1     -35.698 -46.854  10.893  1.00  0.00     0.241 C 
HETATM   18  O3  UNL     1     -35.445 -47.422  11.984  1.00  0.00    -0.271 OA
HETATM   19  N2  UNL     1     -35.937 -47.669   9.767  1.00  0.00    -0.344 N 
ATOM     20  H2  UNL     1     -36.153 -47.222   8.876  1.00  0.00     0.163 HD
BRANCH  19  21
HETATM   21  C14 UNL     1     -35.888 -49.097   9.824  1.00  0.00     0.202 C 
BRANCH  21  22
HETATM   22  C15 UNL     1     -34.510 -49.545  10.168  1.00  0.00     0.256 C 
HETATM   23  N3  UNL     1     -34.312 -50.401  11.307  1.00  0.00    -0.060 NA
HETATM   24  O4  UNL     1     -33.545 -49.175   9.464  1.00  0.00    -0.274 OA
ENDBRANCH  21  22
BRANCH  21  25
HETATM   25  C16 UNL     1     -36.452 -49.807   8.629  1.00  0.00     0.145 C 
HETATM   26  C17 UNL     1     -37.020 -48.757   7.684  1.00  0.00     0.042 C 
BRANCH  25  27
HETATM   27  O5  UNL     1     -37.545 -50.617   9.006  1.00  0.00    -0.393 OA
ATOM     28  H5  UNL     1     -37.570 -51.408   8.479  1.00  0.00     0.210 HD
ENDBRANCH  25  27
ENDBRANCH  21  25
ENDBRANCH  19  21
ENDBRANCH   1  17
TORSDOF 10
ENDMDL
MODEL 4
REMARK VINA RESULT: -7.547392565      1.259      1.612
REMARK  10 active torsions:
REMARK  status: ('A' for Active; 'I' for Inactive)
REMARK    1  A    between atoms: C2_2  and  C4_4 
REMARK    2  A    between atoms: C4_4  and  N1_5 
REMARK    3  A    between atoms: C4_4  and  C13_17 
REMARK       I    between atoms: N1_5  and  C5_7 
REMARK    4  A    between atoms: C5_7  and  O2_9 
REMARK    5  A    between atoms: O2_9  and  C6_10 
REMARK    6  A    between atoms: C6_10  and  C7_11 
REMARK       I    between atoms: C13_17  and  N2_19 
REMARK    7  A    between atoms: N2_19  and  C14_21 
REMARK    8  A    between atoms: C14_21  and  C15_22 
REMARK    9  A    between atoms: C14_21  and  C16_25 
REMARK   10  A    between atoms: C16_25  and  O5_27 
ROOT
HETATM    1  C4  UNL     1     -34.962 -45.661  11.062  1.00  0.00     0.182 C 
ENDROOT
BRANCH   1   2
HETATM    2  C2  UNL     1     -33.697 -45.647  11.921  1.00  0.00     0.009 C 
HETATM    3  C1  UNL     1     -32.885 -44.426  11.700  1.00  0.00     0.012 C 
HETATM    4  C3  UNL     1     -32.855 -46.887  11.650  1.00  0.00     0.012 C 
ENDBRANCH   1   2
BRANCH   1   5
HETATM    5  N1  UNL     1     -36.035 -45.953  12.030  1.00  0.00    -0.323 N 
HETATM    6  C5  UNL     1     -37.046 -45.007  12.272  1.00  0.00     0.361 C 
HETATM    7  O1  UNL     1     -37.102 -43.898  11.710  1.00  0.00    -0.238 OA
ATOM      8  H1  UNL     1     -36.044 -46.845  12.526  1.00  0.00     0.165 HD
BRANCH   6   9
HETATM    9  O2  UNL     1     -38.049 -45.307  13.189  1.00  0.00    -0.299 OA
BRANCH   9  10
HETATM   10  C6  UNL     1     -39.062 -44.398  13.539  1.00  0.00     0.219 C 
BRANCH  10  11
HETATM   11  C7  UNL     1     -38.898 -44.087  14.990  1.00  0.00    -0.034 A 
HETATM   12  C8  UNL     1     -38.193 -44.902  15.842  1.00  0.00     0.009 A 
HETATM   13  C9  UNL     1     -38.064 -44.574  17.174  1.00  0.00     0.001 A 
HETATM   14  C10 UNL     1     -38.626 -43.430  17.718  1.00  0.00     0.000 A 
HETATM   15  C11 UNL     1     -39.329 -42.630  16.835  1.00  0.00     0.001 A 
HETATM   16  C12 UNL     1     -39.468 -42.944  15.502  1.00  0.00     0.009 A 
ENDBRANCH  10  11
ENDBRANCH   9  10
ENDBRANCH   6   9
ENDBRANCH   1   5
BRANCH   1  17
HETATM   17  C13 UNL     1     -34.951 -46.720  10.048  1.00  0.00     0.241 C 
HETATM   18  O3  UNL     1     -34.280 -46.550   9.001  1.00  0.00    -0.271 OA
HETATM   19  N2  UNL     1     -35.659 -47.933  10.186  1.00  0.00    -0.344 N 
ATOM     20  H2  UNL     1     -36.202 -48.090  11.035  1.00  0.00     0.163 HD
BRANCH  19  21
HETATM   21  C14 UNL     1     -35.646 -48.952   9.183  1.00  0.00     0.202 C 
BRANCH  21  22
HETATM   22  C15 UNL     1     -36.838 -48.812   8.300  1.00  0.00     0.256 C 
HETATM   23  N3  UNL     1     -36.771 -49.287   6.945  1.00  0.00    -0.060 NA
HETATM   24  O4  UNL     1     -37.882 -48.287   8.749  1.00  0.00    -0.274 OA
ENDBRANCH  21  22
BRANCH  21  25
HETATM   25  C16 UNL     1     -35.455 -50.350   9.689  1.00  0.00     0.145 C 
HETATM   26  C17 UNL     1     -36.793 -51.071   9.592  1.00  0.00     0.042 C 
BRANCH  25  27
HETATM   27  O5  UNL     1     -35.123 -50.338  11.061  1.00  0.00    -0.393 OA
ATOM     28  H5  UNL     1     -35.157 -51.218  11.420  1.00  0.00     0.210 HD
ENDBRANCH  25  27
ENDBRANCH  21  25
ENDBRANCH  19  21
ENDBRANCH   1  17
TORSDOF 10
ENDMDL
MODEL 5
REMARK VINA RESULT: -7.517261189      1.671      2.636
REMARK  10 active torsions:
REMARK  status: ('A' for Active; 'I' for Inactive)
REMARK    1  A    between atoms: C2_2  and  C4_4 
REMARK    2  A    between atoms: C4_4  and  N1_5 
REMARK    3  A    between atoms: C4_4  and  C13_17 
REMARK       I    between atoms: N1_5  and  C5_7 
REMARK    4  A    between atoms: C5_7  and  O2_9 
REMARK    5  A    between atoms: O2_9  and  C6_10 
REMARK    6  A    between atoms: C6_10  and  C7_11 
REMARK       I    between atoms: C13_17  and  N2_19 
REMARK    7  A    between atoms: N2_19  and  C14_21 
REMARK    8  A    between atoms: C14_21  and  C15_22 
REMARK    9  A    between atoms: C14_21  and  C16_25 
REMARK   10  A    between atoms: C16_25  and  O5_27 
ROOT
HETATM    1  C4  UNL     1     -35.495 -45.466  10.950  1.00  0.00     0.182 C 
ENDROOT
BRANCH   1   2
HETATM    2  C2  UNL     1     -34.046 -45.008  10.785  1.00  0.00     0.009 C 
HETATM    3  C1  UNL     1     -33.082 -46.006  11.305  1.00  0.00     0.012 C 
HETATM    4  C3  UNL     1     -33.828 -43.668  11.474  1.00  0.00     0.012 C 
ENDBRANCH   1   2
BRANCH   1   5
HETATM    5  N1  UNL     1     -35.861 -44.985  12.295  1.00  0.00    -0.323 N 
HETATM    6  C5  UNL     1     -37.213 -44.875  12.662  1.00  0.00     0.361 C 
HETATM    7  O1  UNL     1     -38.159 -45.162  11.907  1.00  0.00    -0.238 OA
ATOM      8  H1  UNL     1     -35.130 -44.730  12.960  1.00  0.00     0.165 HD
BRANCH   6   9
HETATM    9  O2  UNL     1     -37.533 -44.419  13.938  1.00  0.00    -0.299 OA
BRANCH   9  10
HETATM   10  C6  UNL     1     -38.814 -43.956  14.286  1.00  0.00     0.219 C 
BRANCH  10  11
HETATM   11  C7  UNL     1     -38.958 -44.116  15.764  1.00  0.00    -0.034 A 
HETATM   12  C8  UNL     1     -39.912 -43.442  16.487  1.00  0.00     0.009 A 
HETATM   13  C9  UNL     1     -40.011 -43.623  17.849  1.00  0.00     0.001 A 
HETATM   14  C10 UNL     1     -39.173 -44.476  18.551  1.00  0.00     0.000 A 
HETATM   15  C11 UNL     1     -38.225 -45.140  17.795  1.00  0.00     0.001 A 
HETATM   16  C12 UNL     1     -38.112 -44.970  16.433  1.00  0.00     0.009 A 
ENDBRANCH  10  11
ENDBRANCH   9  10
ENDBRANCH   6   9
ENDBRANCH   1   5
BRANCH   1  17
HETATM   17  C13 UNL     1     -35.638 -46.926  10.927  1.00  0.00     0.241 C 
HETATM   18  O3  UNL     1     -35.601 -47.555  12.012  1.00  0.00    -0.271 OA
HETATM   19  N2  UNL     1     -35.817 -47.669   9.741  1.00  0.00    -0.344 N 
ATOM     20  H2  UNL     1     -35.857 -47.170   8.852  1.00  0.00     0.163 HD
BRANCH  19  21
HETATM   21  C14 UNL     1     -35.944 -49.093   9.735  1.00  0.00     0.202 C 
BRANCH  21  22
HETATM   22  C15 UNL     1     -34.655 -49.720  10.142  1.00  0.00     0.256 C 
HETATM   23  N3  UNL     1     -33.419 -49.160   9.669  1.00  0.00    -0.060 NA
HETATM   24  O4  UNL     1     -34.664 -50.723  10.890  1.00  0.00    -0.274 OA
ENDBRANCH  21  22
BRANCH  21  25
HETATM   25  C16 UNL     1     -36.508 -49.682   8.477  1.00  0.00     0.145 C 
HETATM   26  C17 UNL     1     -37.108 -48.549   7.655  1.00  0.00     0.042 C 
BRANCH  25  27
HETATM   27  O5  UNL     1     -37.581 -50.550   8.775  1.00  0.00    -0.393 OA
ATOM     28  H5  UNL     1     -38.281 -50.445   8.140  1.00  0.00     0.210 HD
ENDBRANCH  25  27
ENDBRANCH  21  25
ENDBRANCH  19  21
ENDBRANCH   1  17
TORSDOF 10
ENDMDL
