MODEL 1
REMARK VINA RESULT: -7.973318574      0.000      0.000
REMARK  11 active torsions:
REMARK  status: ('A' for Active; 'I' for Inactive)
REMARK    1  A    between atoms: O1_2  and  C2_3 
REMARK    2  A    between atoms: C5_6  and  C6_7 
REMARK       I    between atoms: C6_7  and  N1_9 
REMARK    3  A    between atoms: N1_9  and  C7_11 
REMARK    4  A    between atoms: C7_11  and  O3_12 
REMARK    5  A    between atoms: C7_11  and  C8_14 
REMARK    6  A    between atoms: C8_14  and  O4_15 
REMARK    7  A    between atoms: C8_14  and  C9_17 
REMARK    8  A    between atoms: C9_17  and  C10_19 
REMARK    9  A    between atoms: C10_19  and  N2_21 
REMARK   10  A    between atoms: N2_21  and  C12_23 
REMARK   11  A    between atoms: C12_23  and  C14_25 
ROOT
HETATM    1  C7  UNL     1     -35.214 -45.351  12.047  1.00  0.00     0.256 C 
ENDROOT
BRANCH   1   2
HETATM    2  N1  UNL     1     -36.024 -45.037  13.193  1.00  0.00    -0.328 N 
HETATM    3  C6  UNL     1     -37.384 -44.709  13.035  1.00  0.00     0.253 C 
HETATM    4  O2  UNL     1     -37.870 -44.700  11.874  1.00  0.00    -0.268 OA
ATOM      5  H1  UNL     1     -35.612 -45.052  14.126  1.00  0.00     0.165 HD
BRANCH   3   6
HETATM    6  C5  UNL     1     -38.176 -44.392  14.216  1.00  0.00     0.032 A 
HETATM    7  C4  UNL     1     -39.330 -43.647  14.148  1.00  0.00     0.020 A 
HETATM    8  C3  UNL     1     -40.070 -43.349  15.297  1.00  0.00     0.038 A 
HETATM    9  C2  UNL     1     -39.694 -43.778  16.546  1.00  0.00     0.068 A 
HETATM   10  C16 UNL     1     -38.517 -44.538  16.618  1.00  0.00     0.038 A 
HETATM   11  C15 UNL     1     -37.793 -44.827  15.481  1.00  0.00     0.020 A 
BRANCH   9  12
HETATM   12  O1  UNL     1     -40.382 -43.517  17.718  1.00  0.00    -0.356 OA
HETATM   13  C1  UNL     1     -40.098 -44.124  18.936  1.00  0.00     0.210 C 
ENDBRANCH   9  12
ENDBRANCH   3   6
ENDBRANCH   1   2
BRANCH   1  14
HETATM   14  O3  UNL     1     -35.329 -44.367  11.061  1.00  0.00    -0.374 OA
ATOM     15  H3  UNL     1     -34.476 -44.107  10.733  1.00  0.00     0.212 HD
ENDBRANCH   1  14
BRANCH   1  16
HETATM   16  C8  UNL     1     -35.626 -46.704  11.539  1.00  0.00     0.238 C 
BRANCH  16  17
HETATM   17  O4  UNL     1     -36.462 -46.637  10.444  1.00  0.00    -0.384 OA
ATOM     18  H4  UNL     1     -37.381 -46.708  10.675  1.00  0.00     0.210 HD
ENDBRANCH  16  17
BRANCH  16  19
HETATM   19  C9  UNL     1     -34.420 -47.560  11.234  1.00  0.00     0.181 C 
HETATM   20  O5  UNL     1     -33.352 -47.046  11.346  1.00  0.00    -0.293 OA
BRANCH  19  21
HETATM   21  C10 UNL     1     -34.667 -48.940  10.830  1.00  0.00     0.146 C 
HETATM   22  C11 UNL     1     -33.750 -49.831  11.682  1.00  0.00     0.040 C 
BRANCH  21  23
HETATM   23  N2  UNL     1     -34.675 -49.320   9.490  1.00  0.00    -0.398 N 
ATOM     24  H2  UNL     1     -33.947 -48.991   8.856  1.00  0.00     0.154 HD
BRANCH  23  25
HETATM   25  C12 UNL     1     -35.681 -50.150   9.027  1.00  0.00     0.175 C 
HETATM   26  C13 UNL     1     -36.437 -51.067   9.912  1.00  0.00     0.043 C 
BRANCH  25  27
HETATM   27  C14 UNL     1     -36.725 -49.399   8.222  1.00  0.00     0.195 C 
HETATM   28  O6  UNL     1     -36.518 -48.167   8.088  1.00  0.00    -0.646 OA
HETATM   29  O7  UNL     1     -37.802 -50.074   7.699  1.00  0.00    -0.646 OA
ENDBRANCH  25  27
ENDBRANCH  23  25
ENDBRANCH  21  23
ENDBRANCH  19  21
ENDBRANCH  16  19
ENDBRANCH   1  16
TORSDOF 11
ENDMDL
MODEL 2
REMARK VINA RESULT: -7.931590029      1.414      1.714
REMARK  11 active torsions:
REMARK  status: ('A' for Active; 'I' for Inactive)
REMARK    1  A    between atoms: O1_2  and  C2_3 
REMARK    2  A    between atoms: C5_6  and  C6_7 
REMARK       I    between atoms: C6_7  and  N1_9 
REMARK    3  A    between atoms: N1_9  and  C7_11 
REMARK    4  A    between atoms: C7_11  and  O3_12 
REMARK    5  A    between atoms: C7_11  and  C8_14 
REMARK    6  A    between atoms: C8_14  and  O4_15 
REMARK    7  A    between atoms: C8_14  and  C9_17 
REMARK    8  A    between atoms: C9_17  and  C10_19 
REMARK    9  A    between atoms: C10_19  and  N2_21 
REMARK   10  A    between atoms: N2_21  and  C12_23 
REMARK   11  A    between atoms: C12_23  and  C14_25 
ROOT
HETATM    1  C7  UNL     1     -34.333 -45.238  11.972  1.00  0.00     0.256 C 
ENDROOT
BRANCH   1   2
HETATM    2  N1  UNL     1     -35.339 -44.703  12.850  1.00  0.00    -0.328 N 
HETATM    3  C6  UNL     1     -36.469 -45.470  13.188  1.00  0.00     0.253 C 
HETATM    4  O2  UNL     1     -36.575 -46.630  12.710  1.00  0.00    -0.268 OA
ATOM      5  H1  UNL     1     -35.233 -43.762  13.229  1.00  0.00     0.165 HD
BRANCH   3   6
HETATM    6  C5  UNL     1     -37.472 -44.897  14.077  1.00  0.00     0.032 A 
HETATM    7  C4  UNL     1     -38.563 -44.206  13.603  1.00  0.00     0.020 A 
HETATM    8  C3  UNL     1     -39.508 -43.657  14.476  1.00  0.00     0.038 A 
HETATM    9  C2  UNL     1     -39.406 -43.774  15.839  1.00  0.00     0.068 A 
HETATM   10  C16 UNL     1     -38.294 -44.478  16.325  1.00  0.00     0.038 A 
HETATM   11  C15 UNL     1     -37.366 -45.016  15.459  1.00  0.00     0.020 A 
BRANCH   9  12
HETATM   12  O1  UNL     1     -40.307 -43.255  16.754  1.00  0.00    -0.356 OA
HETATM   13  C1  UNL     1     -40.225 -43.460  18.126  1.00  0.00     0.210 C 
ENDBRANCH   9  12
ENDBRANCH   3   6
ENDBRANCH   1   2
BRANCH   1  14
HETATM   14  O3  UNL     1     -33.222 -44.392  11.900  1.00  0.00    -0.374 OA
ATOM     15  H3  UNL     1     -32.749 -44.374  12.723  1.00  0.00     0.212 HD
ENDBRANCH   1  14
BRANCH   1  16
HETATM   16  C8  UNL     1     -34.958 -45.459  10.623  1.00  0.00     0.238 C 
BRANCH  16  17
HETATM   17  O4  UNL     1     -35.039 -44.306   9.872  1.00  0.00    -0.384 OA
ATOM     18  H4  UNL     1     -34.502 -43.600  10.216  1.00  0.00     0.210 HD
ENDBRANCH  16  17
BRANCH  16  19
HETATM   19  C9  UNL     1     -34.233 -46.540   9.860  1.00  0.00     0.181 C 
HETATM   20  O5  UNL     1     -33.355 -46.193   9.134  1.00  0.00    -0.293 OA
BRANCH  19  21
HETATM   21  C10 UNL     1     -34.670 -47.915  10.074  1.00  0.00     0.146 C 
HETATM   22  C11 UNL     1     -33.653 -48.571  11.021  1.00  0.00     0.040 C 
BRANCH  21  23
HETATM   23  N2  UNL     1     -35.016 -48.749   9.013  1.00  0.00    -0.398 N 
ATOM     24  H2  UNL     1     -34.298 -49.100   8.379  1.00  0.00     0.154 HD
BRANCH  23  25
HETATM   25  C12 UNL     1     -36.342 -49.097   8.827  1.00  0.00     0.175 C 
HETATM   26  C13 UNL     1     -37.055 -48.888   7.544  1.00  0.00     0.043 C 
BRANCH  25  27
HETATM   27  C14 UNL     1     -36.624 -50.533   9.227  1.00  0.00     0.195 C 
HETATM   28  O6  UNL     1     -35.693 -51.115   9.836  1.00  0.00    -0.646 OA
HETATM   29  O7  UNL     1     -37.835 -51.104   8.917  1.00  0.00    -0.646 OA
ENDBRANCH  25  27
ENDBRANCH  23  25
ENDBRANCH  21  23
ENDBRANCH  19  21
ENDBRANCH  16  19
ENDBRANCH   1  16
TORSDOF 11
ENDMDL
MODEL 3
REMARK VINA RESULT: -7.793452532      0.776      1.512
REMARK  11 active torsions:
REMARK  status: ('A' for Active; 'I' for Inactive)
REMARK    1  A    between atoms: O1_2  and  C2_3 
REMARK    2  A    between atoms: C5_6  and  C6_7 
REMARK       I    between atoms: C6_7  and  N1_9 
REMARK    3  A    between atoms: N1_9  and  C7_11 
REMARK    4  A    between atoms: C7_11  and  O3_12 
REMARK    5  A    between atoms: C7_11  and  C8_14 
REMARK    6  A    between atoms: C8_14  and  O4_15 
REMARK    7  A    between atoms: C8_14  and  C9_17 
REMARK    8  A    between atoms: C9_17  and  C10_19 
REMARK    9  A    between atoms: C10_19  and  N2_21 
REMARK   10  A    between atoms: N2_21  and  C12_23 
REMARK   11  A    between atoms: C12_23  and  C14_25 
ROOT
HETATM    1  C7  UNL     1     -35.254 -45.208  12.147  1.00  0.00     0.256 C 
ENDROOT
BRANCH   1   2
HETATM    2  N1  UNL     1     -36.041 -44.945  13.322  1.00  0.00    -0.328 N 
HETATM    3  C6  UNL     1     -37.395 -44.579  13.204  1.00  0.00     0.253 C 
HETATM    4  O2  UNL     1     -37.897 -44.491  12.053  1.00  0.00    -0.268 OA
ATOM      5  H1  UNL     1     -35.615 -45.023  14.246  1.00  0.00     0.165 HD
BRANCH   3   6
HETATM    6  C5  UNL     1     -38.163 -44.316  14.414  1.00  0.00     0.032 A 
HETATM    7  C4  UNL     1     -37.782 -44.799  15.645  1.00  0.00     0.020 A 
HETATM    8  C3  UNL     1     -38.541 -44.540  16.791  1.00  0.00     0.038 A 
HETATM    9  C2  UNL     1     -39.694 -43.798  16.758  1.00  0.00     0.068 A 
HETATM   10  C16 UNL     1     -40.084 -43.304  15.505  1.00  0.00     0.038 A 
HETATM   11  C15 UNL     1     -39.332 -43.563  14.379  1.00  0.00     0.020 A 
BRANCH   9  12
HETATM   12  O1  UNL     1     -40.486 -43.506  17.856  1.00  0.00    -0.356 OA
HETATM   13  C1  UNL     1     -40.383 -44.154  19.081  1.00  0.00     0.210 C 
ENDBRANCH   9  12
ENDBRANCH   3   6
ENDBRANCH   1   2
BRANCH   1  14
HETATM   14  O3  UNL     1     -35.363 -44.166  11.221  1.00  0.00    -0.374 OA
ATOM     15  H3  UNL     1     -35.063 -44.438  10.361  1.00  0.00     0.212 HD
ENDBRANCH   1  14
BRANCH   1  16
HETATM   16  C8  UNL     1     -35.701 -46.521  11.568  1.00  0.00     0.238 C 
BRANCH  16  17
HETATM   17  O4  UNL     1     -36.575 -46.374  10.512  1.00  0.00    -0.384 OA
ATOM     18  H4  UNL     1     -36.455 -47.032   9.837  1.00  0.00     0.210 HD
ENDBRANCH  16  17
BRANCH  16  19
HETATM   19  C9  UNL     1     -34.518 -47.367  11.165  1.00  0.00     0.181 C 
HETATM   20  O5  UNL     1     -33.448 -46.846  11.189  1.00  0.00    -0.293 OA
BRANCH  19  21
HETATM   21  C10 UNL     1     -34.786 -48.749  10.781  1.00  0.00     0.146 C 
HETATM   22  C11 UNL     1     -33.717 -49.622  11.456  1.00  0.00     0.040 C 
BRANCH  21  23
HETATM   23  N2  UNL     1     -35.003 -49.112   9.454  1.00  0.00    -0.398 N 
ATOM     24  H2  UNL     1     -34.213 -49.252   8.823  1.00  0.00     0.154 HD
BRANCH  23  25
HETATM   25  C12 UNL     1     -36.299 -49.282   8.999  1.00  0.00     0.175 C 
HETATM   26  C13 UNL     1     -36.755 -48.800   7.674  1.00  0.00     0.043 C 
BRANCH  25  27
HETATM   27  C14 UNL     1     -36.759 -50.725   9.095  1.00  0.00     0.195 C 
HETATM   28  O6  UNL     1     -37.897 -50.960   8.618  1.00  0.00    -0.646 OA
HETATM   29  O7  UNL     1     -35.942 -51.666   9.674  1.00  0.00    -0.646 OA
ENDBRANCH  25  27
ENDBRANCH  23  25
ENDBRANCH  21  23
ENDBRANCH  19  21
ENDBRANCH  16  19
ENDBRANCH   1  16
TORSDOF 11
ENDMDL
MODEL 4
REMARK VINA RESULT: -7.613098519      1.658      2.657
REMARK  11 active torsions:
REMARK  status: ('A' for Active; 'I' for Inactive)
REMARK    1  A    between atoms: O1_2  and  C2_3 
REMARK    2  A    between atoms: C5_6  and  C6_7 
REMARK       I    between atoms: C6_7  and  N1_9 
REMARK    3  A    between atoms: N1_9  and  C7_11 
REMARK    4  A    between atoms: C7_11  and  O3_12 
REMARK    5  A    between atoms: C7_11  and  C8_14 
REMARK    6  A    between atoms: C8_14  and  O4_15 
REMARK    7  A    between atoms: C8_14  and  C9_17 
REMARK    8  A    between atoms: C9_17  and  C10_19 
REMARK    9  A    between atoms: C10_19  and  N2_21 
REMARK   10  A    between atoms: N2_21  and  C12_23 
REMARK   11  A    between atoms: C12_23  and  C14_25 
ROOT
HETATM    1  C7  UNL     1     -36.980 -44.767  12.805  1.00  0.00     0.256 C 
ENDROOT
BRANCH   1   2
HETATM    2  N1  UNL     1     -37.323 -44.845  14.200  1.00  0.00    -0.328 N 
HETATM    3  C6  UNL     1     -38.480 -44.205  14.684  1.00  0.00     0.253 C 
HETATM    4  O2  UNL     1     -39.203 -43.571  13.872  1.00  0.00    -0.268 OA
ATOM      5  H1  UNL     1     -36.725 -45.366  14.841  1.00  0.00     0.165 HD
BRANCH   3   6
HETATM    6  C5  UNL     1     -38.797 -44.300  16.103  1.00  0.00     0.032 A 
HETATM    7  C4  UNL     1     -39.846 -43.613  16.669  1.00  0.00     0.020 A 
HETATM    8  C3  UNL     1     -40.126 -43.713  18.035  1.00  0.00     0.038 A 
HETATM    9  C2  UNL     1     -39.382 -44.495  18.883  1.00  0.00     0.068 A 
HETATM   10  C16 UNL     1     -38.312 -45.197  18.310  1.00  0.00     0.038 A 
HETATM   11  C15 UNL     1     -38.041 -45.092  16.962  1.00  0.00     0.020 A 
BRANCH   9  12
HETATM   12  O1  UNL     1     -39.609 -44.637  20.242  1.00  0.00    -0.356 OA
HETATM   13  C1  UNL     1     -40.393 -45.641  20.797  1.00  0.00     0.210 C 
ENDBRANCH   9  12
ENDBRANCH   3   6
ENDBRANCH   1   2
BRANCH   1  14
HETATM   14  O3  UNL     1     -38.054 -45.149  11.997  1.00  0.00    -0.374 OA
ATOM     15  H3  UNL     1     -38.694 -45.650  12.489  1.00  0.00     0.212 HD
ENDBRANCH   1  14
BRANCH   1  16
HETATM   16  C8  UNL     1     -35.770 -45.629  12.573  1.00  0.00     0.238 C 
BRANCH  16  17
HETATM   17  O4  UNL     1     -36.083 -46.961  12.402  1.00  0.00    -0.384 OA
ATOM     18  H4  UNL     1     -36.893 -47.093  11.922  1.00  0.00     0.210 HD
ENDBRANCH  16  17
BRANCH  16  19
HETATM   19  C9  UNL     1     -34.957 -45.121  11.407  1.00  0.00     0.181 C 
HETATM   20  O5  UNL     1     -35.269 -44.066  10.951  1.00  0.00    -0.293 OA
BRANCH  19  21
HETATM   21  C10 UNL     1     -33.863 -45.964  10.939  1.00  0.00     0.146 C 
HETATM   22  C11 UNL     1     -32.616 -45.072  10.839  1.00  0.00     0.040 C 
BRANCH  21  23
HETATM   23  N2  UNL     1     -34.002 -46.800   9.833  1.00  0.00    -0.398 N 
ATOM     24  H2  UNL     1     -34.143 -46.405   8.903  1.00  0.00     0.154 HD
BRANCH  23  25
HETATM   25  C12 UNL     1     -33.947 -48.171  10.008  1.00  0.00     0.175 C 
HETATM   26  C13 UNL     1     -33.533 -48.802  11.284  1.00  0.00     0.043 C 
BRANCH  25  27
HETATM   27  C14 UNL     1     -35.240 -48.857   9.609  1.00  0.00     0.195 C 
HETATM   28  O6  UNL     1     -36.204 -48.090   9.368  1.00  0.00    -0.646 OA
HETATM   29  O7  UNL     1     -35.291 -50.228   9.533  1.00  0.00    -0.646 OA
ENDBRANCH  25  27
ENDBRANCH  23  25
ENDBRANCH  21  23
ENDBRANCH  19  21
ENDBRANCH  16  19
ENDBRANCH   1  16
TORSDOF 11
ENDMDL
MODEL 5
REMARK VINA RESULT: -7.584936348      1.635      2.788
REMARK  11 active torsions:
REMARK  status: ('A' for Active; 'I' for Inactive)
REMARK    1  A    between atoms: O1_2  and  C2_3 
REMARK    2  A    between atoms: C5_6  and  C6_7 
REMARK       I    between atoms: C6_7  and  N1_9 
REMARK    3  A    between atoms: N1_9  and  C7_11 
REMARK    4  A    between atoms: C7_11  and  O3_12 
REMARK    5  A    between atoms: C7_11  and  C8_14 
REMARK    6  A    between atoms: C8_14  and  O4_15 
REMARK    7  A    between atoms: C8_14  and  C9_17 
REMARK    8  A    between atoms: C9_17  and  C10_19 
REMARK    9  A    between atoms: C10_19  and  N2_21 
REMARK   10  A    between atoms: N2_21  and  C12_23 
REMARK   11  A    between atoms: C12_23  and  C14_25 
ROOT
HETATM    1  C7  UNL     1     -36.968 -44.759  12.831  1.00  0.00     0.256 C 
ENDROOT
BRANCH   1   2
HETATM    2  N1  UNL     1     -37.307 -44.845  14.227  1.00  0.00    -0.328 N 
HETATM    3  C6  UNL     1     -38.460 -44.206  14.719  1.00  0.00     0.253 C 
HETATM    4  O2  UNL     1     -39.185 -43.565  13.914  1.00  0.00    -0.268 OA
ATOM      5  H1  UNL     1     -36.708 -45.371  14.863  1.00  0.00     0.165 HD
BRANCH   3   6
HETATM    6  C5  UNL     1     -38.773 -44.310  16.139  1.00  0.00     0.032 A 
HETATM    7  C4  UNL     1     -38.042 -45.101  16.995  1.00  0.00     0.020 A 
HETATM    8  C3  UNL     1     -38.367 -45.191  18.353  1.00  0.00     0.038 A 
HETATM    9  C2  UNL     1     -39.418 -44.504  18.906  1.00  0.00     0.068 A 
HETATM   10  C16 UNL     1     -40.164 -43.696  18.034  1.00  0.00     0.038 A 
HETATM   11  C15 UNL     1     -39.839 -43.613  16.698  1.00  0.00     0.020 A 
BRANCH   9  12
HETATM   12  O1  UNL     1     -39.788 -44.550  20.239  1.00  0.00    -0.356 OA
HETATM   13  C1  UNL     1     -40.578 -45.552  20.791  1.00  0.00     0.210 C 
ENDBRANCH   9  12
ENDBRANCH   3   6
ENDBRANCH   1   2
BRANCH   1  14
HETATM   14  O3  UNL     1     -38.052 -45.116  12.024  1.00  0.00    -0.374 OA
ATOM     15  H3  UNL     1     -38.853 -44.700  12.320  1.00  0.00     0.212 HD
ENDBRANCH   1  14
BRANCH   1  16
HETATM   16  C8  UNL     1     -35.773 -45.637  12.585  1.00  0.00     0.238 C 
BRANCH  16  17
HETATM   17  O4  UNL     1     -36.096 -46.974  12.499  1.00  0.00    -0.384 OA
ATOM     18  H4  UNL     1     -36.195 -47.275  11.604  1.00  0.00     0.210 HD
ENDBRANCH  16  17
BRANCH  16  19
HETATM   19  C9  UNL     1     -35.017 -45.193  11.356  1.00  0.00     0.181 C 
HETATM   20  O5  UNL     1     -35.322 -44.143  10.885  1.00  0.00    -0.293 OA
BRANCH  19  21
HETATM   21  C10 UNL     1     -33.981 -46.087  10.851  1.00  0.00     0.146 C 
HETATM   22  C11 UNL     1     -32.709 -45.246  10.664  1.00  0.00     0.040 C 
BRANCH  21  23
HETATM   23  N2  UNL     1     -34.211 -46.942   9.775  1.00  0.00    -0.398 N 
ATOM     24  H2  UNL     1     -34.494 -46.565   8.870  1.00  0.00     0.154 HD
BRANCH  23  25
HETATM   25  C12 UNL     1     -34.051 -48.306   9.945  1.00  0.00     0.175 C 
HETATM   26  C13 UNL     1     -33.615 -48.910  11.226  1.00  0.00     0.043 C 
BRANCH  25  27
HETATM   27  C14 UNL     1     -35.278 -49.088   9.516  1.00  0.00     0.195 C 
HETATM   28  O6  UNL     1     -35.215 -50.330   9.693  1.00  0.00    -0.646 OA
HETATM   29  O7  UNL     1     -36.356 -48.428   8.977  1.00  0.00    -0.646 OA
ENDBRANCH  25  27
ENDBRANCH  23  25
ENDBRANCH  21  23
ENDBRANCH  19  21
ENDBRANCH  16  19
ENDBRANCH   1  16
TORSDOF 11
ENDMDL
