MODEL 1
REMARK VINA RESULT: -7.162917368      0.000      0.000
REMARK  13 active torsions:
REMARK  status: ('A' for Active; 'I' for Inactive)
REMARK    1  A    between atoms: C2_2  and  C3_4 
REMARK    2  A    between atoms: C3_4  and  C4_5 
REMARK    3  A    between atoms: C3_4  and  C15_22 
REMARK    4  A    between atoms: C4_5  and  C5_7 
REMARK       I    between atoms: C5_7  and  N1_9 
REMARK    5  A    between atoms: N1_9  and  C6_11 
REMARK    6  A    between atoms: C6_11  and  C7_12 
REMARK    7  A    between atoms: C6_11  and  C9_16 
REMARK    8  A    between atoms: C7_12  and  C8_13 
REMARK    9  A    between atoms: C15_22  and  O6_23 
REMARK   10  A    between atoms: C15_22  and  C16_25 
REMARK   11  A    between atoms: C16_25  and  O7_26 
REMARK   12  A    between atoms: C16_25  and  C17_28 
REMARK   13  A    between atoms: C17_28  and  O8_30 
ROOT
HETATM    1  C4  UNL     1      39.086  73.210  21.436  1.00  0.00     0.230 C 
HETATM    2  O2  UNL     1      40.250  73.660  21.756  1.00  0.00    -0.286 OA
ENDROOT
BRANCH   1   3
HETATM    3  C3  UNL     1      38.933  72.529  20.135  1.00  0.00     0.166 C 
BRANCH   3   4
HETATM    4  C2  UNL     1      38.937  73.510  19.024  1.00  0.00     0.137 C 
HETATM    5  C1  UNL     1      38.925  74.958  19.366  1.00  0.00     0.091 C 
HETATM    6  O1  UNL     1      38.952  73.185  17.865  1.00  0.00    -0.297 OA
ENDBRANCH   3   4
BRANCH   3   7
HETATM    7  C15 UNL     1      39.934  71.421  19.981  1.00  0.00     0.168 C 
BRANCH   7   8
HETATM    8  O6  UNL     1      41.116  71.813  19.363  1.00  0.00    -0.392 OA
ATOM      9  H6  UNL     1      41.708  72.287  19.934  1.00  0.00     0.210 HD
ENDBRANCH   7   8
BRANCH   7  10
HETATM   10  C16 UNL     1      39.424  70.075  19.681  1.00  0.00     0.176 C 
BRANCH  10  11
HETATM   11  O7  UNL     1      40.264  69.110  20.292  1.00  0.00    -0.390 OA
ATOM     12  H7  UNL     1      39.727  68.438  20.696  1.00  0.00     0.210 HD
ENDBRANCH  10  11
BRANCH  10  13
HETATM   13  C17 UNL     1      39.103  69.659  18.315  1.00  0.00     0.145 C 
HETATM   14  C18 UNL     1      37.682  69.881  17.869  1.00  0.00     0.042 C 
BRANCH  13  15
HETATM   15  O8  UNL     1      39.871  70.507  17.455  1.00  0.00    -0.393 OA
ATOM     16  H8  UNL     1      40.717  70.607  17.877  1.00  0.00     0.210 HD
ENDBRANCH  13  15
ENDBRANCH  10  13
ENDBRANCH   7  10
ENDBRANCH   3   7
ENDBRANCH   1   3
BRANCH   1  17
HETATM   17  C5  UNL     1      38.056  73.434  22.419  1.00  0.00     0.288 C 
HETATM   18  O3  UNL     1      36.836  73.656  22.170  1.00  0.00    -0.264 OA
HETATM   19  N1  UNL     1      38.359  73.419  23.833  1.00  0.00    -0.345 N 
ATOM     20  H1  UNL     1      39.322  73.245  24.123  1.00  0.00     0.163 HD
BRANCH  19  21
HETATM   21  C6  UNL     1      37.372  73.635  24.839  1.00  0.00     0.128 C 
BRANCH  21  22
HETATM   22  C7  UNL     1      36.853  72.392  25.479  1.00  0.00     0.143 C 
BRANCH  22  23
HETATM   23  C8  UNL     1      35.430  72.119  25.261  1.00  0.00     0.174 C 
HETATM   24  O4  UNL     1      34.876  72.061  24.143  1.00  0.00    -0.648 OA
HETATM   25  O5  UNL     1      34.602  71.902  26.369  1.00  0.00    -0.648 OA
ENDBRANCH  22  23
ENDBRANCH  21  22
BRANCH  21  26
HETATM   26  C9  UNL     1      37.866  74.653  25.786  1.00  0.00    -0.035 A 
HETATM   27  C10 UNL     1      38.837  74.248  26.684  1.00  0.00     0.009 A 
HETATM   28  C11 UNL     1      39.351  75.143  27.599  1.00  0.00     0.001 A 
HETATM   29  C12 UNL     1      38.925  76.441  27.647  1.00  0.00     0.000 A 
HETATM   30  C13 UNL     1      37.966  76.842  26.759  1.00  0.00     0.001 A 
HETATM   31  C14 UNL     1      37.459  75.949  25.852  1.00  0.00     0.009 A 
ENDBRANCH  21  26
ENDBRANCH  19  21
ENDBRANCH   1  17
TORSDOF 13
ENDMDL
MODEL 2
REMARK VINA RESULT: -6.944093338      4.900      7.790
REMARK  13 active torsions:
REMARK  status: ('A' for Active; 'I' for Inactive)
REMARK    1  A    between atoms: C2_2  and  C3_4 
REMARK    2  A    between atoms: C3_4  and  C4_5 
REMARK    3  A    between atoms: C3_4  and  C15_22 
REMARK    4  A    between atoms: C4_5  and  C5_7 
REMARK       I    between atoms: C5_7  and  N1_9 
REMARK    5  A    between atoms: N1_9  and  C6_11 
REMARK    6  A    between atoms: C6_11  and  C7_12 
REMARK    7  A    between atoms: C6_11  and  C9_16 
REMARK    8  A    between atoms: C7_12  and  C8_13 
REMARK    9  A    between atoms: C15_22  and  O6_23 
REMARK   10  A    between atoms: C15_22  and  C16_25 
REMARK   11  A    between atoms: C16_25  and  O7_26 
REMARK   12  A    between atoms: C16_25  and  C17_28 
REMARK   13  A    between atoms: C17_28  and  O8_30 
ROOT
HETATM    1  C4  UNL     1      39.380  68.001  17.381  1.00  0.00     0.230 C 
HETATM    2  O2  UNL     1      39.872  66.836  17.133  1.00  0.00    -0.286 OA
ENDROOT
BRANCH   1   3
HETATM    3  C3  UNL     1      38.003  68.287  16.929  1.00  0.00     0.166 C 
BRANCH   3   4
HETATM    4  C2  UNL     1      37.874  68.078  15.468  1.00  0.00     0.137 C 
HETATM    5  C1  UNL     1      38.388  69.139  14.559  1.00  0.00     0.091 C 
HETATM    6  O1  UNL     1      37.378  67.091  14.990  1.00  0.00    -0.297 OA
ENDBRANCH   3   4
BRANCH   3   7
HETATM    7  C15 UNL     1      36.995  67.537  17.750  1.00  0.00     0.168 C 
BRANCH   7   8
HETATM    8  O6  UNL     1      37.119  66.154  17.666  1.00  0.00    -0.392 OA
ATOM      9  H6  UNL     1      37.041  65.711  18.502  1.00  0.00     0.210 HD
ENDBRANCH   7   8
BRANCH   7  10
HETATM   10  C16 UNL     1      35.637  68.093  17.843  1.00  0.00     0.176 C 
BRANCH  10  11
HETATM   11  O7  UNL     1      35.703  69.506  17.742  1.00  0.00    -0.390 OA
ATOM     12  H7  UNL     1      34.823  69.863  17.769  1.00  0.00     0.210 HD
ENDBRANCH  10  11
BRANCH  10  13
HETATM   13  C17 UNL     1      34.721  67.714  18.919  1.00  0.00     0.145 C 
HETATM   14  C18 UNL     1      33.408  68.448  18.964  1.00  0.00     0.042 C 
BRANCH  13  15
HETATM   15  O8  UNL     1      34.349  66.356  18.659  1.00  0.00    -0.393 OA
ATOM     16  H8  UNL     1      34.423  65.902  19.490  1.00  0.00     0.210 HD
ENDBRANCH  13  15
ENDBRANCH  10  13
ENDBRANCH   7  10
ENDBRANCH   3   7
ENDBRANCH   1   3
BRANCH   1  17
HETATM   17  C5  UNL     1      40.260  68.896  18.088  1.00  0.00     0.288 C 
HETATM   18  O3  UNL     1      40.997  68.583  19.067  1.00  0.00    -0.264 OA
HETATM   19  N1  UNL     1      40.370  70.287  17.709  1.00  0.00    -0.345 N 
ATOM     20  H1  UNL     1      39.809  70.624  16.926  1.00  0.00     0.163 HD
BRANCH  19  21
HETATM   21  C6  UNL     1      41.228  71.208  18.380  1.00  0.00     0.128 C 
BRANCH  21  22
HETATM   22  C7  UNL     1      42.376  71.697  17.564  1.00  0.00     0.143 C 
BRANCH  22  23
HETATM   23  C8  UNL     1      42.325  71.358  16.140  1.00  0.00     0.174 C 
HETATM   24  O4  UNL     1      41.776  72.052  15.259  1.00  0.00    -0.648 OA
HETATM   25  O5  UNL     1      42.929  70.173  15.701  1.00  0.00    -0.648 OA
ENDBRANCH  22  23
ENDBRANCH  21  22
BRANCH  21  26
HETATM   26  C9  UNL     1      40.407  72.273  18.987  1.00  0.00    -0.035 A 
HETATM   27  C10 UNL     1      39.835  73.187  18.121  1.00  0.00     0.009 A 
HETATM   28  C11 UNL     1      39.052  74.211  18.613  1.00  0.00     0.001 A 
HETATM   29  C12 UNL     1      38.819  74.354  19.953  1.00  0.00     0.000 A 
HETATM   30  C13 UNL     1      39.384  73.449  20.809  1.00  0.00     0.001 A 
HETATM   31  C14 UNL     1      40.160  72.435  20.315  1.00  0.00     0.009 A 
ENDBRANCH  21  26
ENDBRANCH  19  21
ENDBRANCH   1  17
TORSDOF 13
ENDMDL
MODEL 3
REMARK VINA RESULT: -6.668948949      4.916      7.849
REMARK  13 active torsions:
REMARK  status: ('A' for Active; 'I' for Inactive)
REMARK    1  A    between atoms: C2_2  and  C3_4 
REMARK    2  A    between atoms: C3_4  and  C4_5 
REMARK    3  A    between atoms: C3_4  and  C15_22 
REMARK    4  A    between atoms: C4_5  and  C5_7 
REMARK       I    between atoms: C5_7  and  N1_9 
REMARK    5  A    between atoms: N1_9  and  C6_11 
REMARK    6  A    between atoms: C6_11  and  C7_12 
REMARK    7  A    between atoms: C6_11  and  C9_16 
REMARK    8  A    between atoms: C7_12  and  C8_13 
REMARK    9  A    between atoms: C15_22  and  O6_23 
REMARK   10  A    between atoms: C15_22  and  C16_25 
REMARK   11  A    between atoms: C16_25  and  O7_26 
REMARK   12  A    between atoms: C16_25  and  C17_28 
REMARK   13  A    between atoms: C17_28  and  O8_30 
ROOT
HETATM    1  C4  UNL     1      38.464  69.027  15.991  1.00  0.00     0.230 C 
HETATM    2  O2  UNL     1      38.667  69.575  14.843  1.00  0.00    -0.286 OA
ENDROOT
BRANCH   1   3
HETATM    3  C3  UNL     1      37.361  68.053  16.114  1.00  0.00     0.166 C 
BRANCH   3   4
HETATM    4  C2  UNL     1      37.781  66.717  15.628  1.00  0.00     0.137 C 
HETATM    5  C1  UNL     1      36.979  66.079  14.549  1.00  0.00     0.091 C 
HETATM    6  O1  UNL     1      38.739  66.134  16.065  1.00  0.00    -0.297 OA
ENDBRANCH   3   4
BRANCH   3   7
HETATM    7  C15 UNL     1      36.790  68.051  17.502  1.00  0.00     0.168 C 
BRANCH   7   8
HETATM    8  O6  UNL     1      37.365  67.107  18.346  1.00  0.00    -0.392 OA
ATOM      9  H6  UNL     1      38.291  66.965  18.187  1.00  0.00     0.210 HD
ENDBRANCH   7   8
BRANCH   7  10
HETATM   10  C16 UNL     1      35.350  68.307  17.651  1.00  0.00     0.176 C 
BRANCH  10  11
HETATM   11  O7  UNL     1      35.080  69.662  17.330  1.00  0.00    -0.390 OA
ATOM     12  H7  UNL     1      35.570  69.903  16.553  1.00  0.00     0.210 HD
ENDBRANCH  10  11
BRANCH  10  13
HETATM   13  C17 UNL     1      34.621  67.929  18.862  1.00  0.00     0.145 C 
HETATM   14  C18 UNL     1      33.249  68.527  19.027  1.00  0.00     0.042 C 
BRANCH  13  15
HETATM   15  O8  UNL     1      34.373  66.524  18.749  1.00  0.00    -0.393 OA
ATOM     16  H8  UNL     1      35.218  66.123  18.579  1.00  0.00     0.210 HD
ENDBRANCH  13  15
ENDBRANCH  10  13
ENDBRANCH   7  10
ENDBRANCH   3   7
ENDBRANCH   1   3
BRANCH   1  17
HETATM   17  C5  UNL     1      39.365  69.447  17.034  1.00  0.00     0.288 C 
HETATM   18  O3  UNL     1      39.872  68.695  17.916  1.00  0.00    -0.264 OA
HETATM   19  N1  UNL     1      39.776  70.828  17.152  1.00  0.00    -0.345 N 
ATOM     20  H1  UNL     1      39.414  71.504  16.479  1.00  0.00     0.163 HD
BRANCH  19  21
HETATM   21  C6  UNL     1      40.666  71.288  18.168  1.00  0.00     0.128 C 
BRANCH  21  22
HETATM   22  C7  UNL     1      42.051  71.578  17.697  1.00  0.00     0.143 C 
BRANCH  22  23
HETATM   23  C8  UNL     1      42.220  71.648  16.244  1.00  0.00     0.174 C 
HETATM   24  O4  UNL     1      42.089  72.684  15.557  1.00  0.00    -0.648 OA
HETATM   25  O5  UNL     1      42.553  70.483  15.541  1.00  0.00    -0.648 OA
ENDBRANCH  22  23
ENDBRANCH  21  22
BRANCH  21  26
HETATM   26  C9  UNL     1      40.024  72.393  18.904  1.00  0.00    -0.035 A 
HETATM   27  C10 UNL     1      40.044  72.315  20.285  1.00  0.00     0.009 A 
HETATM   28  C11 UNL     1      39.466  73.312  21.043  1.00  0.00     0.001 A 
HETATM   29  C12 UNL     1      38.864  74.394  20.464  1.00  0.00     0.000 A 
HETATM   30  C13 UNL     1      38.844  74.471  19.099  1.00  0.00     0.001 A 
HETATM   31  C14 UNL     1      39.420  73.479  18.351  1.00  0.00     0.009 A 
ENDBRANCH  21  26
ENDBRANCH  19  21
ENDBRANCH   1  17
TORSDOF 13
ENDMDL
MODEL 4
REMARK VINA RESULT: -6.649934638      3.807      6.490
REMARK  13 active torsions:
REMARK  status: ('A' for Active; 'I' for Inactive)
REMARK    1  A    between atoms: C2_2  and  C3_4 
REMARK    2  A    between atoms: C3_4  and  C4_5 
REMARK    3  A    between atoms: C3_4  and  C15_22 
REMARK    4  A    between atoms: C4_5  and  C5_7 
REMARK       I    between atoms: C5_7  and  N1_9 
REMARK    5  A    between atoms: N1_9  and  C6_11 
REMARK    6  A    between atoms: C6_11  and  C7_12 
REMARK    7  A    between atoms: C6_11  and  C9_16 
REMARK    8  A    between atoms: C7_12  and  C8_13 
REMARK    9  A    between atoms: C15_22  and  O6_23 
REMARK   10  A    between atoms: C15_22  and  C16_25 
REMARK   11  A    between atoms: C16_25  and  O7_26 
REMARK   12  A    between atoms: C16_25  and  C17_28 
REMARK   13  A    between atoms: C17_28  and  O8_30 
ROOT
HETATM    1  C4  UNL     1      38.983  68.814  18.996  1.00  0.00     0.230 C 
HETATM    2  O2  UNL     1      39.049  67.931  19.931  1.00  0.00    -0.286 OA
ENDROOT
BRANCH   1   3
HETATM    3  C3  UNL     1      38.184  68.499  17.794  1.00  0.00     0.166 C 
BRANCH   3   4
HETATM    4  C2  UNL     1      39.053  68.015  16.695  1.00  0.00     0.137 C 
HETATM    5  C1  UNL     1      38.789  68.516  15.319  1.00  0.00     0.091 C 
HETATM    6  O1  UNL     1      39.958  67.241  16.870  1.00  0.00    -0.297 OA
ENDBRANCH   3   4
BRANCH   3   7
HETATM    7  C15 UNL     1      37.043  67.582  18.126  1.00  0.00     0.168 C 
BRANCH   7   8
HETATM    8  O6  UNL     1      37.268  66.255  17.776  1.00  0.00    -0.392 OA
ATOM      9  H6  UNL     1      36.895  65.629  18.386  1.00  0.00     0.210 HD
ENDBRANCH   7   8
BRANCH   7  10
HETATM   10  C16 UNL     1      35.678  68.104  17.968  1.00  0.00     0.176 C 
BRANCH  10  11
HETATM   11  O7  UNL     1      35.737  69.496  17.704  1.00  0.00    -0.390 OA
ATOM     12  H7  UNL     1      36.275  69.646  16.936  1.00  0.00     0.210 HD
ENDBRANCH  10  11
BRANCH  10  13
HETATM   13  C17 UNL     1      34.629  67.829  18.952  1.00  0.00     0.145 C 
HETATM   14  C18 UNL     1      33.350  68.608  18.795  1.00  0.00     0.042 C 
BRANCH  13  15
HETATM   15  O8  UNL     1      34.235  66.470  18.737  1.00  0.00    -0.393 OA
ATOM     16  H8  UNL     1      34.439  66.280  17.829  1.00  0.00     0.210 HD
ENDBRANCH  13  15
ENDBRANCH  10  13
ENDBRANCH   7  10
ENDBRANCH   3   7
ENDBRANCH   1   3
BRANCH   1  17
HETATM   17  C5  UNL     1      39.716  70.028  19.251  1.00  0.00     0.288 C 
HETATM   18  O3  UNL     1      40.932  70.096  19.595  1.00  0.00    -0.264 OA
HETATM   19  N1  UNL     1      39.082  71.321  19.124  1.00  0.00    -0.345 N 
ATOM     20  H1  UNL     1      38.100  71.358  18.849  1.00  0.00     0.163 HD
BRANCH  19  21
HETATM   21  C6  UNL     1      39.769  72.548  19.367  1.00  0.00     0.128 C 
BRANCH  21  22
HETATM   22  C7  UNL     1      40.098  73.330  18.141  1.00  0.00     0.143 C 
BRANCH  22  23
HETATM   23  C8  UNL     1      40.602  72.546  17.010  1.00  0.00     0.174 C 
HETATM   24  O4  UNL     1      41.796  72.504  16.645  1.00  0.00    -0.648 OA
HETATM   25  O5  UNL     1      39.703  71.775  16.263  1.00  0.00    -0.648 OA
ENDBRANCH  22  23
ENDBRANCH  21  22
BRANCH  21  26
HETATM   26  C9  UNL     1      39.044  73.307  20.403  1.00  0.00    -0.035 A 
HETATM   27  C10 UNL     1      39.546  73.240  21.690  1.00  0.00     0.009 A 
HETATM   28  C11 UNL     1      38.924  73.926  22.713  1.00  0.00     0.001 A 
HETATM   29  C12 UNL     1      37.807  74.683  22.492  1.00  0.00     0.000 A 
HETATM   30  C13 UNL     1      37.311  74.749  21.219  1.00  0.00     0.001 A 
HETATM   31  C14 UNL     1      37.932  74.067  20.207  1.00  0.00     0.009 A 
ENDBRANCH  21  26
ENDBRANCH  19  21
ENDBRANCH   1  17
TORSDOF 13
ENDMDL
MODEL 5
REMARK VINA RESULT: -6.580091037      3.203      5.619
REMARK  13 active torsions:
REMARK  status: ('A' for Active; 'I' for Inactive)
REMARK    1  A    between atoms: C2_2  and  C3_4 
REMARK    2  A    between atoms: C3_4  and  C4_5 
REMARK    3  A    between atoms: C3_4  and  C15_22 
REMARK    4  A    between atoms: C4_5  and  C5_7 
REMARK       I    between atoms: C5_7  and  N1_9 
REMARK    5  A    between atoms: N1_9  and  C6_11 
REMARK    6  A    between atoms: C6_11  and  C7_12 
REMARK    7  A    between atoms: C6_11  and  C9_16 
REMARK    8  A    between atoms: C7_12  and  C8_13 
REMARK    9  A    between atoms: C15_22  and  O6_23 
REMARK   10  A    between atoms: C15_22  and  C16_25 
REMARK   11  A    between atoms: C16_25  and  O7_26 
REMARK   12  A    between atoms: C16_25  and  C17_28 
REMARK   13  A    between atoms: C17_28  and  O8_30 
ROOT
HETATM    1  C4  UNL     1      39.048  69.346  19.287  1.00  0.00     0.230 C 
HETATM    2  O2  UNL     1      39.338  68.297  19.976  1.00  0.00    -0.286 OA
ENDROOT
BRANCH   1   3
HETATM    3  C3  UNL     1      38.171  69.187  18.109  1.00  0.00     0.166 C 
BRANCH   3   4
HETATM    4  C2  UNL     1      38.969  69.153  16.860  1.00  0.00     0.137 C 
HETATM    5  C1  UNL     1      38.948  70.354  15.982  1.00  0.00     0.091 C 
HETATM    6  O1  UNL     1      39.629  68.202  16.533  1.00  0.00    -0.297 OA
ENDBRANCH   3   4
BRANCH   3   7
HETATM    7  C15 UNL     1      37.240  68.022  18.278  1.00  0.00     0.168 C 
BRANCH   7   8
HETATM    8  O6  UNL     1      37.801  66.800  17.923  1.00  0.00    -0.392 OA
ATOM      9  H6  UNL     1      37.312  66.332  17.257  1.00  0.00     0.210 HD
ENDBRANCH   7   8
BRANCH   7  10
HETATM   10  C16 UNL     1      35.818  68.232  17.971  1.00  0.00     0.176 C 
BRANCH  10  11
HETATM   11  O7  UNL     1      35.642  69.535  17.439  1.00  0.00    -0.390 OA
ATOM     12  H7  UNL     1      34.714  69.728  17.384  1.00  0.00     0.210 HD
ENDBRANCH  10  11
BRANCH  10  13
HETATM   13  C17 UNL     1      34.769  67.951  18.952  1.00  0.00     0.145 C 
HETATM   14  C18 UNL     1      33.492  68.734  18.802  1.00  0.00     0.042 C 
BRANCH  13  15
HETATM   15  O8  UNL     1      34.372  66.595  18.725  1.00  0.00    -0.393 OA
ATOM     16  H8  UNL     1      34.280  66.505  17.783  1.00  0.00     0.210 HD
ENDBRANCH  13  15
ENDBRANCH  10  13
ENDBRANCH   7  10
ENDBRANCH   3   7
ENDBRANCH   1   3
BRANCH   1  17
HETATM   17  C5  UNL     1      39.630  70.572  19.771  1.00  0.00     0.288 C 
HETATM   18  O3  UNL     1      40.867  70.790  19.924  1.00  0.00    -0.264 OA
HETATM   19  N1  UNL     1      38.800  71.699  20.134  1.00  0.00    -0.345 N 
ATOM     20  H1  UNL     1      37.788  71.609  20.040  1.00  0.00     0.163 HD
BRANCH  19  21
HETATM   21  C6  UNL     1      39.334  72.931  20.616  1.00  0.00     0.128 C 
BRANCH  21  22
HETATM   22  C7  UNL     1      39.472  73.997  19.583  1.00  0.00     0.143 C 
BRANCH  22  23
HETATM   23  C8  UNL     1      39.361  73.545  18.193  1.00  0.00     0.174 C 
HETATM   24  O4  UNL     1      38.314  73.574  17.513  1.00  0.00    -0.648 OA
HETATM   25  O5  UNL     1      40.497  73.036  17.551  1.00  0.00    -0.648 OA
ENDBRANCH  22  23
ENDBRANCH  21  22
BRANCH  21  26
HETATM   26  C9  UNL     1      38.588  73.338  21.822  1.00  0.00    -0.035 A 
HETATM   27  C10 UNL     1      37.214  73.436  21.700  1.00  0.00     0.009 A 
HETATM   28  C11 UNL     1      36.447  73.809  22.784  1.00  0.00     0.001 A 
HETATM   29  C12 UNL     1      37.011  74.088  23.998  1.00  0.00     0.000 A 
HETATM   30  C13 UNL     1      38.370  73.990  24.119  1.00  0.00     0.001 A 
HETATM   31  C14 UNL     1      39.126  73.620  23.039  1.00  0.00     0.009 A 
ENDBRANCH  21  26
ENDBRANCH  19  21
ENDBRANCH   1  17
TORSDOF 13
ENDMDL
