MODEL 1
REMARK VINA RESULT: -6.297836293      0.000      0.000
REMARK  11 active torsions:
REMARK  status: ('A' for Active; 'I' for Inactive)
REMARK    1  A    between atoms: C2_2  and  N1_3 
REMARK       I    between atoms: N1_3  and  C3_5 
REMARK    2  A    between atoms: C3_5  and  C4_7 
REMARK    3  A    between atoms: C4_7  and  N2_8 
REMARK    4  A    between atoms: C4_7  and  C14_24 
REMARK       I    between atoms: N2_8  and  C5_10 
REMARK       I    between atoms: C5_10  and  N3_12 
REMARK    5  A    between atoms: N3_12  and  C6_14 
REMARK    6  A    between atoms: C6_14  and  C7_15 
REMARK    7  A    between atoms: C6_14  and  C8_18 
REMARK    8  A    between atoms: C14_24  and  C15_26 
REMARK    9  A    between atoms: C15_26  and  O6_27 
REMARK   10  A    between atoms: C15_26  and  C16_29 
REMARK   11  A    between atoms: C16_29  and  C17_30 
ROOT
HETATM    1  N2  UNL     1      37.831  68.815  17.588  1.00  0.00    -0.323 N 
ATOM      2  H2  UNL     1      37.493  69.362  16.795  1.00  0.00     0.165 HD
HETATM    3  C5  UNL     1      38.898  69.299  18.373  1.00  0.00     0.317 C 
HETATM    4  O2  UNL     1      39.301  68.605  19.356  1.00  0.00    -0.247 OA
HETATM    5  N3  UNL     1      39.550  70.529  18.120  1.00  0.00    -0.328 N 
ATOM      6  H3  UNL     1      39.261  71.122  17.341  1.00  0.00     0.165 HD
ENDROOT
BRANCH   1   7
HETATM    7  C4  UNL     1      37.205  67.529  17.908  1.00  0.00     0.251 C 
BRANCH   7   8
HETATM    8  C3  UNL     1      35.819  67.707  18.345  1.00  0.00     0.248 C 
HETATM    9  N1  UNL     1      35.005  68.765  17.860  1.00  0.00    -0.359 N 
ATOM     10  H1  UNL     1      35.399  69.423  17.188  1.00  0.00     0.162 HD
HETATM   11  O1  UNL     1      35.267  66.908  19.186  1.00  0.00    -0.271 OA
BRANCH   9  12
HETATM   12  C2  UNL     1      33.627  68.937  18.292  1.00  0.00     0.118 C 
HETATM   13  C1  UNL     1      32.980  70.042  17.523  1.00  0.00     0.026 C 
ENDBRANCH   9  12
ENDBRANCH   7   8
BRANCH   7  14
HETATM   14  C14 UNL     1      37.415  66.578  16.816  1.00  0.00     0.187 C 
HETATM   15  O5  UNL     1      36.335  66.168  16.291  1.00  0.00    -0.292 OA
BRANCH  14  16
HETATM   16  C15 UNL     1      38.634  66.036  16.237  1.00  0.00     0.196 C 
BRANCH  16  17
HETATM   17  O6  UNL     1      39.695  66.304  17.159  1.00  0.00    -0.388 OA
ATOM     18  H6  UNL     1      40.079  67.137  16.911  1.00  0.00     0.210 HD
ENDBRANCH  16  17
BRANCH  16  19
HETATM   19  C16 UNL     1      39.085  66.713  14.948  1.00  0.00     0.108 C 
BRANCH  19  20
HETATM   20  C17 UNL     1      40.291  67.522  15.270  1.00  0.00     0.234 C 
HETATM   21  O7  UNL     1      40.171  68.700  15.521  1.00  0.00    -0.307 OA
ENDBRANCH  19  20
ENDBRANCH  16  19
ENDBRANCH  14  16
ENDBRANCH   7  14
ENDBRANCH   1   7
BRANCH   5  22
HETATM   22  C6  UNL     1      40.642  70.931  18.995  1.00  0.00     0.191 C 
BRANCH  22  23
HETATM   23  C7  UNL     1      41.935  70.514  18.385  1.00  0.00     0.197 C 
HETATM   24  O3  UNL     1      42.420  69.377  18.728  1.00  0.00    -0.646 OA
HETATM   25  O4  UNL     1      42.672  71.220  17.491  1.00  0.00    -0.646 OA
ENDBRANCH  22  23
BRANCH  22  26
HETATM   26  C8  UNL     1      40.579  72.423  19.295  1.00  0.00     0.019 C 
HETATM   27  C9  UNL     1      39.915  73.138  18.206  1.00  0.00     0.007 C 
HETATM   28  C10 UNL     1      38.724  73.979  18.515  1.00  0.00     0.000 C 
HETATM   29  C11 UNL     1      38.781  74.555  19.926  1.00  0.00     0.000 C 
HETATM   30  C12 UNL     1      38.741  73.324  20.803  1.00  0.00     0.000 C 
HETATM   31  C13 UNL     1      40.057  72.617  20.670  1.00  0.00     0.007 C 
ENDBRANCH  22  26
ENDBRANCH   5  22
TORSDOF 11
ENDMDL
MODEL 2
REMARK VINA RESULT: -6.228670929      6.338      9.456
REMARK  11 active torsions:
REMARK  status: ('A' for Active; 'I' for Inactive)
REMARK    1  A    between atoms: C2_2  and  N1_3 
REMARK       I    between atoms: N1_3  and  C3_5 
REMARK    2  A    between atoms: C3_5  and  C4_7 
REMARK    3  A    between atoms: C4_7  and  N2_8 
REMARK    4  A    between atoms: C4_7  and  C14_24 
REMARK       I    between atoms: N2_8  and  C5_10 
REMARK       I    between atoms: C5_10  and  N3_12 
REMARK    5  A    between atoms: N3_12  and  C6_14 
REMARK    6  A    between atoms: C6_14  and  C7_15 
REMARK    7  A    between atoms: C6_14  and  C8_18 
REMARK    8  A    between atoms: C14_24  and  C15_26 
REMARK    9  A    between atoms: C15_26  and  O6_27 
REMARK   10  A    between atoms: C15_26  and  C16_29 
REMARK   11  A    between atoms: C16_29  and  C17_30 
ROOT
HETATM    1  N2  UNL     1      38.580  74.153  24.310  1.00  0.00    -0.323 N 
ATOM      2  H2  UNL     1      39.525  73.943  24.631  1.00  0.00     0.165 HD
HETATM    3  C5  UNL     1      38.189  73.812  22.999  1.00  0.00     0.317 C 
HETATM    4  O2  UNL     1      37.008  74.080  22.621  1.00  0.00    -0.247 OA
HETATM    5  N3  UNL     1      39.053  73.180  22.073  1.00  0.00    -0.328 N 
ATOM      6  H3  UNL     1      40.011  72.945  22.331  1.00  0.00     0.165 HD
ENDROOT
BRANCH   1   7
HETATM    7  C4  UNL     1      37.631  74.810  25.214  1.00  0.00     0.251 C 
BRANCH   7   8
HETATM    8  C3  UNL     1      36.387  74.044  25.324  1.00  0.00     0.248 C 
HETATM    9  N1  UNL     1      36.372  72.625  25.323  1.00  0.00    -0.359 N 
ATOM     10  H1  UNL     1      37.255  72.121  25.242  1.00  0.00     0.162 HD
HETATM   11  O1  UNL     1      35.245  74.624  25.433  1.00  0.00    -0.271 OA
BRANCH   9  12
HETATM   12  C2  UNL     1      35.135  71.868  25.437  1.00  0.00     0.118 C 
HETATM   13  C1  UNL     1      34.542  71.643  24.084  1.00  0.00     0.026 C 
ENDBRANCH   9  12
ENDBRANCH   7   8
BRANCH   7  14
HETATM   14  C14 UNL     1      38.287  75.149  26.477  1.00  0.00     0.187 C 
HETATM   15  O5  UNL     1      38.539  74.138  27.201  1.00  0.00    -0.292 OA
BRANCH  14  16
HETATM   16  C15 UNL     1      38.695  76.431  27.032  1.00  0.00     0.196 C 
BRANCH  16  17
HETATM   17  O6  UNL     1      38.737  76.280  28.455  1.00  0.00    -0.388 OA
ATOM     18  H6  UNL     1      39.648  76.346  28.717  1.00  0.00     0.210 HD
ENDBRANCH  16  17
BRANCH  16  19
HETATM   19  C16 UNL     1      37.704  77.567  26.811  1.00  0.00     0.108 C 
BRANCH  19  20
HETATM   20  C17 UNL     1      38.392  78.834  27.174  1.00  0.00     0.234 C 
HETATM   21  O7  UNL     1      39.595  78.912  27.072  1.00  0.00    -0.307 OA
ENDBRANCH  19  20
ENDBRANCH  16  19
ENDBRANCH  14  16
ENDBRANCH   7  14
ENDBRANCH   1   7
BRANCH   5  22
HETATM   22  C6  UNL     1      38.544  72.874  20.744  1.00  0.00     0.191 C 
BRANCH  22  23
HETATM   23  C7  UNL     1      38.606  74.101  19.902  1.00  0.00     0.197 C 
HETATM   24  O3  UNL     1      39.086  75.167  20.432  1.00  0.00    -0.646 OA
HETATM   25  O4  UNL     1      38.199  74.219  18.613  1.00  0.00    -0.646 OA
ENDBRANCH  22  23
BRANCH  22  26
HETATM   26  C8  UNL     1      39.291  71.696  20.132  1.00  0.00     0.019 C 
HETATM   27  C9  UNL     1      38.459  71.022  19.137  1.00  0.00     0.007 C 
HETATM   28  C10 UNL     1      38.978  70.864  17.749  1.00  0.00     0.000 C 
HETATM   29  C11 UNL     1      40.499  70.761  17.714  1.00  0.00     0.000 C 
HETATM   30  C12 UNL     1      40.947  72.104  18.246  1.00  0.00     0.000 C 
HETATM   31  C13 UNL     1      40.642  72.146  19.713  1.00  0.00     0.007 C 
ENDBRANCH  22  26
ENDBRANCH   5  22
TORSDOF 11
ENDMDL
MODEL 3
REMARK VINA RESULT: -6.218397283      1.458      2.039
REMARK  11 active torsions:
REMARK  status: ('A' for Active; 'I' for Inactive)
REMARK    1  A    between atoms: C2_2  and  N1_3 
REMARK       I    between atoms: N1_3  and  C3_5 
REMARK    2  A    between atoms: C3_5  and  C4_7 
REMARK    3  A    between atoms: C4_7  and  N2_8 
REMARK    4  A    between atoms: C4_7  and  C14_24 
REMARK       I    between atoms: N2_8  and  C5_10 
REMARK       I    between atoms: C5_10  and  N3_12 
REMARK    5  A    between atoms: N3_12  and  C6_14 
REMARK    6  A    between atoms: C6_14  and  C7_15 
REMARK    7  A    between atoms: C6_14  and  C8_18 
REMARK    8  A    between atoms: C14_24  and  C15_26 
REMARK    9  A    between atoms: C15_26  and  O6_27 
REMARK   10  A    between atoms: C15_26  and  C16_29 
REMARK   11  A    between atoms: C16_29  and  C17_30 
ROOT
HETATM    1  N2  UNL     1      37.749  68.473  17.449  1.00  0.00    -0.323 N 
ATOM      2  H2  UNL     1      37.657  68.942  16.547  1.00  0.00     0.165 HD
HETATM    3  C5  UNL     1      38.618  68.995  18.429  1.00  0.00     0.317 C 
HETATM    4  O2  UNL     1      38.716  68.399  19.544  1.00  0.00    -0.247 OA
HETATM    5  N3  UNL     1      39.395  70.162  18.232  1.00  0.00    -0.328 N 
ATOM      6  H3  UNL     1      39.350  70.676  17.352  1.00  0.00     0.165 HD
ENDROOT
BRANCH   1   7
HETATM    7  C4  UNL     1      36.977  67.257  17.722  1.00  0.00     0.251 C 
BRANCH   7   8
HETATM    8  C3  UNL     1      35.659  67.579  18.274  1.00  0.00     0.248 C 
HETATM    9  N1  UNL     1      34.938  68.736  17.879  1.00  0.00    -0.359 N 
ATOM     10  H1  UNL     1      35.352  69.365  17.191  1.00  0.00     0.162 HD
HETATM   11  O1  UNL     1      35.086  66.822  19.139  1.00  0.00    -0.271 OA
BRANCH   9  12
HETATM   12  C2  UNL     1      33.627  69.050  18.425  1.00  0.00     0.118 C 
HETATM   13  C1  UNL     1      32.927  70.038  17.549  1.00  0.00     0.026 C 
ENDBRANCH   9  12
ENDBRANCH   7   8
BRANCH   7  14
HETATM   14  C14 UNL     1      36.985  66.379  16.552  1.00  0.00     0.187 C 
HETATM   15  O5  UNL     1      37.083  65.148  16.847  1.00  0.00    -0.292 OA
BRANCH  14  16
HETATM   16  C15 UNL     1      36.897  66.674  15.130  1.00  0.00     0.196 C 
BRANCH  16  17
HETATM   17  O6  UNL     1      36.008  67.785  14.984  1.00  0.00    -0.388 OA
ATOM     18  H6  UNL     1      36.438  68.415  14.417  1.00  0.00     0.210 HD
ENDBRANCH  16  17
BRANCH  16  19
HETATM   19  C16 UNL     1      36.257  65.576  14.290  1.00  0.00     0.108 C 
BRANCH  19  20
HETATM   20  C17 UNL     1      35.565  66.234  13.151  1.00  0.00     0.234 C 
HETATM   21  O7  UNL     1      36.217  66.758  12.276  1.00  0.00    -0.307 OA
ENDBRANCH  19  20
ENDBRANCH  16  19
ENDBRANCH  14  16
ENDBRANCH   7  14
ENDBRANCH   1   7
BRANCH   5  22
HETATM   22  C6  UNL     1      40.261  70.612  19.312  1.00  0.00     0.191 C 
BRANCH  22  23
HETATM   23  C7  UNL     1      41.567  69.904  19.219  1.00  0.00     0.197 C 
HETATM   24  O3  UNL     1      42.389  70.281  18.306  1.00  0.00    -0.646 OA
HETATM   25  O4  UNL     1      41.993  68.884  20.005  1.00  0.00    -0.646 OA
ENDBRANCH  22  23
BRANCH  22  26
HETATM   26  C8  UNL     1      40.404  72.129  19.300  1.00  0.00     0.019 C 
HETATM   27  C9  UNL     1      39.788  72.692  18.101  1.00  0.00     0.007 C 
HETATM   28  C10 UNL     1      38.731  73.732  18.252  1.00  0.00     0.000 C 
HETATM   29  C11 UNL     1      38.925  74.567  19.513  1.00  0.00     0.000 C 
HETATM   30  C12 UNL     1      38.767  73.554  20.625  1.00  0.00     0.000 C 
HETATM   31  C13 UNL     1      39.974  72.664  20.615  1.00  0.00     0.007 C 
ENDBRANCH  22  26
ENDBRANCH   5  22
TORSDOF 11
ENDMDL
MODEL 4
REMARK VINA RESULT: -6.208658756      1.620      2.382
REMARK  11 active torsions:
REMARK  status: ('A' for Active; 'I' for Inactive)
REMARK    1  A    between atoms: C2_2  and  N1_3 
REMARK       I    between atoms: N1_3  and  C3_5 
REMARK    2  A    between atoms: C3_5  and  C4_7 
REMARK    3  A    between atoms: C4_7  and  N2_8 
REMARK    4  A    between atoms: C4_7  and  C14_24 
REMARK       I    between atoms: N2_8  and  C5_10 
REMARK       I    between atoms: C5_10  and  N3_12 
REMARK    5  A    between atoms: N3_12  and  C6_14 
REMARK    6  A    between atoms: C6_14  and  C7_15 
REMARK    7  A    between atoms: C6_14  and  C8_18 
REMARK    8  A    between atoms: C14_24  and  C15_26 
REMARK    9  A    between atoms: C15_26  and  O6_27 
REMARK   10  A    between atoms: C15_26  and  C16_29 
REMARK   11  A    between atoms: C16_29  and  C17_30 
ROOT
HETATM    1  N2  UNL     1      37.901  69.472  16.609  1.00  0.00    -0.323 N 
ATOM      2  H2  UNL     1      37.374  70.097  15.998  1.00  0.00     0.165 HD
HETATM    3  C5  UNL     1      39.093  69.920  17.216  1.00  0.00     0.317 C 
HETATM    4  O2  UNL     1      39.731  69.129  17.974  1.00  0.00    -0.247 OA
HETATM    5  N3  UNL     1      39.619  71.219  17.021  1.00  0.00    -0.328 N 
ATOM      6  H3  UNL     1      39.141  71.891  16.421  1.00  0.00     0.165 HD
ENDROOT
BRANCH   1   7
HETATM    7  C4  UNL     1      37.418  68.110  16.854  1.00  0.00     0.251 C 
BRANCH   7   8
HETATM    8  C3  UNL     1      36.469  68.076  17.970  1.00  0.00     0.248 C 
HETATM    9  N1  UNL     1      35.073  67.916  17.769  1.00  0.00    -0.359 N 
ATOM     10  H1  UNL     1      34.718  67.824  16.817  1.00  0.00     0.162 HD
HETATM   11  O1  UNL     1      36.858  68.184  19.189  1.00  0.00    -0.271 OA
BRANCH   9  12
HETATM   12  C2  UNL     1      34.135  67.879  18.880  1.00  0.00     0.118 C 
HETATM   13  C1  UNL     1      33.151  68.998  18.761  1.00  0.00     0.026 C 
ENDBRANCH   9  12
ENDBRANCH   7   8
BRANCH   7  14
HETATM   14  C14 UNL     1      36.957  67.504  15.604  1.00  0.00     0.187 C 
HETATM   15  O5  UNL     1      36.356  68.319  14.841  1.00  0.00    -0.292 OA
BRANCH  14  16
HETATM   16  C15 UNL     1      37.074  66.146  15.097  1.00  0.00     0.196 C 
BRANCH  16  17
HETATM   17  O6  UNL     1      35.748  65.685  14.815  1.00  0.00    -0.388 OA
ATOM     18  H6  UNL     1      35.831  64.863  14.345  1.00  0.00     0.210 HD
ENDBRANCH  16  17
BRANCH  16  19
HETATM   19  C16 UNL     1      37.610  65.133  16.101  1.00  0.00     0.108 C 
BRANCH  19  20
HETATM   20  C17 UNL     1      36.444  64.391  16.651  1.00  0.00     0.234 C 
HETATM   21  O7  UNL     1      35.879  64.809  17.635  1.00  0.00    -0.307 OA
ENDBRANCH  19  20
ENDBRANCH  16  19
ENDBRANCH  14  16
ENDBRANCH   7  14
ENDBRANCH   1   7
BRANCH   5  22
HETATM   22  C6  UNL     1      40.858  71.576  17.697  1.00  0.00     0.191 C 
BRANCH  22  23
HETATM   23  C7  UNL     1      41.929  71.774  16.681  1.00  0.00     0.197 C 
HETATM   24  O3  UNL     1      41.572  72.061  15.482  1.00  0.00    -0.646 OA
HETATM   25  O4  UNL     1      43.267  71.680  16.887  1.00  0.00    -0.646 OA
ENDBRANCH  22  23
BRANCH  22  26
HETATM   26  C8  UNL     1      40.660  72.790  18.595  1.00  0.00     0.019 C 
HETATM   27  C9  UNL     1      39.583  73.636  18.084  1.00  0.00     0.007 C 
HETATM   28  C10 UNL     1      38.433  73.960  18.975  1.00  0.00     0.000 C 
HETATM   29  C11 UNL     1      38.839  73.993  20.445  1.00  0.00     0.000 C 
HETATM   30  C12 UNL     1      39.272  72.569  20.714  1.00  0.00     0.000 C 
HETATM   31  C13 UNL     1      40.572  72.338  20.005  1.00  0.00     0.007 C 
ENDBRANCH  22  26
ENDBRANCH   5  22
TORSDOF 11
ENDMDL
MODEL 5
REMARK VINA RESULT: -6.183014012      1.219      2.082
REMARK  11 active torsions:
REMARK  status: ('A' for Active; 'I' for Inactive)
REMARK    1  A    between atoms: C2_2  and  N1_3 
REMARK       I    between atoms: N1_3  and  C3_5 
REMARK    2  A    between atoms: C3_5  and  C4_7 
REMARK    3  A    between atoms: C4_7  and  N2_8 
REMARK    4  A    between atoms: C4_7  and  C14_24 
REMARK       I    between atoms: N2_8  and  C5_10 
REMARK       I    between atoms: C5_10  and  N3_12 
REMARK    5  A    between atoms: N3_12  and  C6_14 
REMARK    6  A    between atoms: C6_14  and  C7_15 
REMARK    7  A    between atoms: C6_14  and  C8_18 
REMARK    8  A    between atoms: C14_24  and  C15_26 
REMARK    9  A    between atoms: C15_26  and  O6_27 
REMARK   10  A    between atoms: C15_26  and  C16_29 
REMARK   11  A    between atoms: C16_29  and  C17_30 
ROOT
HETATM    1  N2  UNL     1      37.730  68.742  17.737  1.00  0.00    -0.323 N 
ATOM      2  H2  UNL     1      37.434  69.256  16.908  1.00  0.00     0.165 HD
HETATM    3  C5  UNL     1      38.781  69.239  18.537  1.00  0.00     0.317 C 
HETATM    4  O2  UNL     1      39.132  68.585  19.566  1.00  0.00    -0.247 OA
HETATM    5  N3  UNL     1      39.471  70.440  18.249  1.00  0.00    -0.328 N 
ATOM      6  H3  UNL     1      39.224  71.000  17.432  1.00  0.00     0.165 HD
ENDROOT
BRANCH   1   7
HETATM    7  C4  UNL     1      37.063  67.487  18.096  1.00  0.00     0.251 C 
BRANCH   7   8
HETATM    8  C3  UNL     1      35.668  67.719  18.479  1.00  0.00     0.248 C 
HETATM    9  N1  UNL     1      35.002  68.941  18.199  1.00  0.00    -0.359 N 
ATOM     10  H1  UNL     1      35.512  69.683  17.719  1.00  0.00     0.162 HD
HETATM   11  O1  UNL     1      34.975  66.821  19.082  1.00  0.00    -0.271 OA
BRANCH   9  12
HETATM   12  C2  UNL     1      33.616  69.167  18.576  1.00  0.00     0.118 C 
HETATM   13  C1  UNL     1      32.919  69.966  17.524  1.00  0.00     0.026 C 
ENDBRANCH   9  12
ENDBRANCH   7   8
BRANCH   7  14
HETATM   14  C14 UNL     1      37.282  66.482  17.057  1.00  0.00     0.187 C 
HETATM   15  O5  UNL     1      38.339  66.677  16.382  1.00  0.00    -0.292 OA
BRANCH  14  16
HETATM   16  C15 UNL     1      36.507  65.311  16.675  1.00  0.00     0.196 C 
BRANCH  16  17
HETATM   17  O6  UNL     1      36.431  64.461  17.824  1.00  0.00    -0.388 OA
ATOM     18  H6  UNL     1      35.511  64.286  17.982  1.00  0.00     0.210 HD
ENDBRANCH  16  17
BRANCH  16  19
HETATM   19  C16 UNL     1      37.157  64.436  15.610  1.00  0.00     0.108 C 
BRANCH  19  20
HETATM   20  C17 UNL     1      36.069  63.899  14.751  1.00  0.00     0.234 C 
HETATM   21  O7  UNL     1      34.942  63.828  15.186  1.00  0.00    -0.307 OA
ENDBRANCH  19  20
ENDBRANCH  16  19
ENDBRANCH  14  16
ENDBRANCH   7  14
ENDBRANCH   1   7
BRANCH   5  22
HETATM   22  C6  UNL     1      40.541  70.859  19.142  1.00  0.00     0.191 C 
BRANCH  22  23
HETATM   23  C7  UNL     1      41.840  70.348  18.622  1.00  0.00     0.197 C 
HETATM   24  O3  UNL     1      42.266  69.224  19.075  1.00  0.00    -0.646 OA
HETATM   25  O4  UNL     1      42.639  70.952  17.707  1.00  0.00    -0.646 OA
ENDBRANCH  22  23
BRANCH  22  26
HETATM   26  C8  UNL     1      40.532  72.370  19.333  1.00  0.00     0.019 C 
HETATM   27  C9  UNL     1      39.923  73.029  18.179  1.00  0.00     0.007 C 
HETATM   28  C10 UNL     1      38.760  73.936  18.395  1.00  0.00     0.000 C 
HETATM   29  C11 UNL     1      38.805  74.609  19.762  1.00  0.00     0.000 C 
HETATM   30  C12 UNL     1      38.694  73.446  20.723  1.00  0.00     0.000 C 
HETATM   31  C13 UNL     1      39.983  72.682  20.676  1.00  0.00     0.007 C 
ENDBRANCH  22  26
ENDBRANCH   5  22
TORSDOF 11
ENDMDL
