MODEL 1
REMARK VINA RESULT: -7.599714759      0.000      0.000
REMARK  12 active torsions:
REMARK  status: ('A' for Active; 'I' for Inactive)
REMARK    1  A    between atoms: C2_2  and  N1_4 
REMARK    2  A    between atoms: N1_4  and  C4_7 
REMARK    3  A    between atoms: C4_7  and  O1_8 
REMARK    4  A    between atoms: C4_7  and  C5_10 
REMARK    5  A    between atoms: C5_10  and  C6_12 
REMARK    6  A    between atoms: C6_12  and  N2_14 
REMARK    7  A    between atoms: N2_14  and  C8_17 
REMARK    8  A    between atoms: C8_17  and  C9_18 
REMARK       I    between atoms: C9_18  and  N3_20 
REMARK    9  A    between atoms: N3_20  and  C10_22 
REMARK   10  A    between atoms: C10_22  and  C11_23 
REMARK   11  A    between atoms: C10_22  and  C12_25 
REMARK       I    between atoms: C12_25  and  N4_27 
REMARK   12  A    between atoms: N4_27  and  C13_29 
ROOT
HETATM    1  C8  UNL     1      37.497  73.687  23.217  1.00  0.00     0.335 C 
ENDROOT
BRANCH   1   2
HETATM    2  N2  UNL     1      37.884  74.423  24.381  1.00  0.00    -0.056 N 
ATOM      3  H22 UNL     1      37.272  75.224  24.533  1.00  0.00     0.278 HD
ATOM      4  H21 UNL     1      38.763  74.918  24.231  1.00  0.00     0.278 HD
BRANCH   2   5
HETATM    5  C6  UNL     1      37.949  73.597  25.541  1.00  0.00     0.256 C 
HETATM    6  C7  UNL     1      36.692  72.694  25.682  1.00  0.00     0.048 C 
BRANCH   5   7
HETATM    7  C5  UNL     1      37.899  74.401  26.818  1.00  0.00     0.212 C 
HETATM    8  O2  UNL     1      36.914  74.339  27.483  1.00  0.00    -0.291 OA
BRANCH   7   9
HETATM    9  C4  UNL     1      39.081  75.216  27.172  1.00  0.00     0.391 C 
BRANCH   9  10
HETATM   10  N1  UNL     1      38.690  76.471  27.827  1.00  0.00    -0.038 N 
ATOM     11  H12 UNL     1      39.137  76.552  28.741  1.00  0.00     0.281 HD
ATOM     12  H11 UNL     1      37.713  76.434  28.116  1.00  0.00     0.281 HD
BRANCH  10  13
HETATM   13  C2  UNL     1      38.936  77.635  27.047  1.00  0.00     0.181 C 
HETATM   14  C1  UNL     1      37.874  78.699  27.131  1.00  0.00     0.039 C 
HETATM   15  C3  UNL     1      40.210  78.279  27.588  1.00  0.00     0.039 C 
ENDBRANCH  10  13
ENDBRANCH   9  10
BRANCH   9  16
HETATM   16  O1  UNL     1      39.880  74.536  28.094  1.00  0.00    -0.364 OA
ATOM     17  H1  UNL     1      40.292  73.830  27.611  1.00  0.00     0.212 HD
ENDBRANCH   9  16
ENDBRANCH   7   9
ENDBRANCH   5   7
ENDBRANCH   2   5
ENDBRANCH   1   2
BRANCH   1  18
HETATM   18  C9  UNL     1      38.652  73.455  22.268  1.00  0.00     0.244 C 
HETATM   19  O3  UNL     1      39.766  73.854  22.617  1.00  0.00    -0.272 OA
HETATM   20  N3  UNL     1      38.457  72.809  21.038  1.00  0.00    -0.341 N 
ATOM     21  H3  UNL     1      37.510  72.515  20.797  1.00  0.00     0.163 HD
BRANCH  20  22
HETATM   22  C10 UNL     1      39.513  72.535  20.088  1.00  0.00     0.238 C 
BRANCH  22  23
HETATM   23  C11 UNL     1      39.312  73.625  19.032  1.00  0.00     0.266 C 
HETATM   24  O4  UNL     1      39.838  73.567  17.973  1.00  0.00    -0.304 OA
ENDBRANCH  22  23
BRANCH  22  25
HETATM   25  C12 UNL     1      39.264  71.239  19.409  1.00  0.00     0.251 C 
HETATM   26  O5  UNL     1      39.984  70.299  19.700  1.00  0.00    -0.270 OA
HETATM   27  N4  UNL     1      38.219  71.128  18.457  1.00  0.00    -0.325 N 
ATOM     28  H4  UNL     1      37.684  71.973  18.260  1.00  0.00     0.169 HD
BRANCH  27  29
HETATM   29  C13 UNL     1      37.844  69.960  17.755  1.00  0.00     0.034 A 
HETATM   30  C14 UNL     1      36.889  69.124  18.361  1.00  0.00     0.029 A 
HETATM   31  C15 UNL     1      36.507  67.953  17.749  1.00  0.00     0.002 A 
HETATM   32  C16 UNL     1      37.027  67.534  16.532  1.00  0.00     0.000 A 
HETATM   33  C17 UNL     1      37.955  68.343  15.943  1.00  0.00     0.002 A 
HETATM   34  C18 UNL     1      38.352  69.538  16.554  1.00  0.00     0.029 A 
ENDBRANCH  27  29
ENDBRANCH  22  25
ENDBRANCH  20  22
ENDBRANCH   1  18
TORSDOF 12
ENDMDL
MODEL 2
REMARK VINA RESULT: -7.527206871      1.558      1.994
REMARK  12 active torsions:
REMARK  status: ('A' for Active; 'I' for Inactive)
REMARK    1  A    between atoms: C2_2  and  N1_4 
REMARK    2  A    between atoms: N1_4  and  C4_7 
REMARK    3  A    between atoms: C4_7  and  O1_8 
REMARK    4  A    between atoms: C4_7  and  C5_10 
REMARK    5  A    between atoms: C5_10  and  C6_12 
REMARK    6  A    between atoms: C6_12  and  N2_14 
REMARK    7  A    between atoms: N2_14  and  C8_17 
REMARK    8  A    between atoms: C8_17  and  C9_18 
REMARK       I    between atoms: C9_18  and  N3_20 
REMARK    9  A    between atoms: N3_20  and  C10_22 
REMARK   10  A    between atoms: C10_22  and  C11_23 
REMARK   11  A    between atoms: C10_22  and  C12_25 
REMARK       I    between atoms: C12_25  and  N4_27 
REMARK   12  A    between atoms: N4_27  and  C13_29 
ROOT
HETATM    1  C8  UNL     1      37.487  74.448  22.037  1.00  0.00     0.335 C 
ENDROOT
BRANCH   1   2
HETATM    2  N2  UNL     1      37.533  74.558  23.463  1.00  0.00    -0.056 N 
ATOM      3  H22 UNL     1      37.147  75.448  23.777  1.00  0.00     0.278 HD
ATOM      4  H21 UNL     1      38.491  74.673  23.794  1.00  0.00     0.278 HD
BRANCH   2   5
HETATM    5  C6  UNL     1      36.891  73.461  24.107  1.00  0.00     0.256 C 
HETATM    6  C7  UNL     1      35.613  73.009  23.348  1.00  0.00     0.048 C 
BRANCH   5   7
HETATM    7  C5  UNL     1      36.333  73.839  25.458  1.00  0.00     0.212 C 
HETATM    8  O2  UNL     1      35.397  74.573  25.494  1.00  0.00    -0.291 OA
BRANCH   7   9
HETATM    9  C4  UNL     1      36.978  73.270  26.661  1.00  0.00     0.391 C 
BRANCH   9  10
HETATM   10  N1  UNL     1      37.025  74.245  27.757  1.00  0.00    -0.038 N 
ATOM     11  H12 UNL     1      36.726  73.814  28.632  1.00  0.00     0.281 HD
ATOM     12  H11 UNL     1      36.288  74.941  27.647  1.00  0.00     0.281 HD
BRANCH  10  13
HETATM   13  C2  UNL     1      38.288  74.878  27.919  1.00  0.00     0.181 C 
HETATM   14  C1  UNL     1      39.456  74.141  27.320  1.00  0.00     0.039 C 
HETATM   15  C3  UNL     1      38.221  76.214  27.182  1.00  0.00     0.039 C 
ENDBRANCH  10  13
ENDBRANCH   9  10
BRANCH   9  16
HETATM   16  O1  UNL     1      36.238  72.188  27.142  1.00  0.00    -0.364 OA
ATOM     17  H1  UNL     1      35.443  72.165  26.623  1.00  0.00     0.212 HD
ENDBRANCH   9  16
ENDBRANCH   7   9
ENDBRANCH   5   7
ENDBRANCH   2   5
ENDBRANCH   1   2
BRANCH   1  18
HETATM   18  C9  UNL     1      38.698  73.739  21.472  1.00  0.00     0.244 C 
HETATM   19  O3  UNL     1      39.734  73.759  22.141  1.00  0.00    -0.272 OA
HETATM   20  N3  UNL     1      38.639  73.087  20.231  1.00  0.00    -0.341 N 
ATOM     21  H3  UNL     1      37.758  73.118  19.716  1.00  0.00     0.163 HD
BRANCH  20  22
HETATM   22  C10 UNL     1      39.747  72.372  19.636  1.00  0.00     0.238 C 
BRANCH  22  23
HETATM   23  C11 UNL     1      39.963  73.119  18.317  1.00  0.00     0.266 C 
HETATM   24  O4  UNL     1      39.099  73.753  17.814  1.00  0.00    -0.304 OA
ENDBRANCH  22  23
BRANCH  22  25
HETATM   25  C12 UNL     1      39.331  70.995  19.276  1.00  0.00     0.251 C 
HETATM   26  O5  UNL     1      39.873  70.068  19.855  1.00  0.00    -0.270 OA
HETATM   27  N4  UNL     1      38.334  70.791  18.287  1.00  0.00    -0.325 N 
ATOM     28  H4  UNL     1      37.954  71.624  17.839  1.00  0.00     0.169 HD
BRANCH  27  29
HETATM   29  C13 UNL     1      37.816  69.547  17.861  1.00  0.00     0.034 A 
HETATM   30  C14 UNL     1      36.748  69.008  18.601  1.00  0.00     0.029 A 
HETATM   31  C15 UNL     1      36.221  67.784  18.263  1.00  0.00     0.002 A 
HETATM   32  C16 UNL     1      36.697  67.024  17.204  1.00  0.00     0.000 A 
HETATM   33  C17 UNL     1      37.735  67.544  16.486  1.00  0.00     0.002 A 
HETATM   34  C18 UNL     1      38.280  68.790  16.818  1.00  0.00     0.029 A 
ENDBRANCH  27  29
ENDBRANCH  22  25
ENDBRANCH  20  22
ENDBRANCH   1  18
TORSDOF 12
ENDMDL
MODEL 3
REMARK VINA RESULT: -7.457743010      1.709      9.723
REMARK  12 active torsions:
REMARK  status: ('A' for Active; 'I' for Inactive)
REMARK    1  A    between atoms: C2_2  and  N1_4 
REMARK    2  A    between atoms: N1_4  and  C4_7 
REMARK    3  A    between atoms: C4_7  and  O1_8 
REMARK    4  A    between atoms: C4_7  and  C5_10 
REMARK    5  A    between atoms: C5_10  and  C6_12 
REMARK    6  A    between atoms: C6_12  and  N2_14 
REMARK    7  A    between atoms: N2_14  and  C8_17 
REMARK    8  A    between atoms: C8_17  and  C9_18 
REMARK       I    between atoms: C9_18  and  N3_20 
REMARK    9  A    between atoms: N3_20  and  C10_22 
REMARK   10  A    between atoms: C10_22  and  C11_23 
REMARK   11  A    between atoms: C10_22  and  C12_25 
REMARK       I    between atoms: C12_25  and  N4_27 
REMARK   12  A    between atoms: N4_27  and  C13_29 
ROOT
HETATM    1  C8  UNL     1      37.701  73.277  21.790  1.00  0.00     0.335 C 
ENDROOT
BRANCH   1   2
HETATM    2  N2  UNL     1      38.726  72.504  21.158  1.00  0.00    -0.056 N 
ATOM      3  H22 UNL     1      38.329  71.737  20.615  1.00  0.00     0.278 HD
ATOM      4  H21 UNL     1      39.254  71.961  21.841  1.00  0.00     0.278 HD
BRANCH   2   5
HETATM    5  C6  UNL     1      39.590  73.309  20.359  1.00  0.00     0.256 C 
HETATM    6  C7  UNL     1      38.803  74.375  19.546  1.00  0.00     0.048 C 
BRANCH   5   7
HETATM    7  C5  UNL     1      40.259  72.515  19.264  1.00  0.00     0.212 C 
HETATM    8  O2  UNL     1      40.387  73.025  18.196  1.00  0.00    -0.291 OA
BRANCH   7   9
HETATM    9  C4  UNL     1      40.725  71.148  19.583  1.00  0.00     0.391 C 
BRANCH   9  10
HETATM   10  N1  UNL     1      40.209  70.167  18.619  1.00  0.00    -0.038 N 
ATOM     11  H12 UNL     1      40.795  69.332  18.611  1.00  0.00     0.281 HD
ATOM     12  H11 UNL     1      40.358  70.492  17.665  1.00  0.00     0.281 HD
BRANCH  10  13
HETATM   13  C2  UNL     1      38.845  69.816  18.820  1.00  0.00     0.181 C 
HETATM   14  C1  UNL     1      37.963  69.957  17.609  1.00  0.00     0.039 C 
HETATM   15  C3  UNL     1      38.810  68.335  19.188  1.00  0.00     0.039 C 
ENDBRANCH  10  13
ENDBRANCH   9  10
BRANCH   9  16
HETATM   16  O1  UNL     1      42.117  71.077  19.494  1.00  0.00    -0.364 OA
ATOM     17  H1  UNL     1      42.424  70.862  20.366  1.00  0.00     0.212 HD
ENDBRANCH   9  16
ENDBRANCH   7   9
ENDBRANCH   5   7
ENDBRANCH   2   5
ENDBRANCH   1   2
BRANCH   1  18
HETATM   18  C9  UNL     1      37.864  73.337  23.293  1.00  0.00     0.244 C 
HETATM   19  O3  UNL     1      38.931  73.774  23.733  1.00  0.00    -0.272 OA
HETATM   20  N3  UNL     1      36.838  72.908  24.148  1.00  0.00    -0.341 N 
ATOM     21  H3  UNL     1      35.985  72.542  23.724  1.00  0.00     0.163 HD
BRANCH  20  22
HETATM   22  C10 UNL     1      36.913  72.953  25.592  1.00  0.00     0.238 C 
BRANCH  22  23
HETATM   23  C11 UNL     1      35.536  72.437  26.019  1.00  0.00     0.266 C 
HETATM   24  O4  UNL     1      34.888  71.741  25.315  1.00  0.00    -0.304 OA
ENDBRANCH  22  23
BRANCH  22  25
HETATM   25  C12 UNL     1      36.997  74.360  26.054  1.00  0.00     0.251 C 
HETATM   26  O5  UNL     1      35.953  74.974  26.197  1.00  0.00    -0.270 OA
HETATM   27  N4  UNL     1      38.263  74.947  26.312  1.00  0.00    -0.325 N 
ATOM     28  H4  UNL     1      39.083  74.365  26.142  1.00  0.00     0.169 HD
BRANCH  27  29
HETATM   29  C13 UNL     1      38.500  76.259  26.782  1.00  0.00     0.034 A 
HETATM   30  C14 UNL     1      37.619  77.266  26.349  1.00  0.00     0.029 A 
HETATM   31  C15 UNL     1      37.814  78.570  26.739  1.00  0.00     0.002 A 
HETATM   32  C16 UNL     1      38.863  78.964  27.558  1.00  0.00     0.000 A 
HETATM   33  C17 UNL     1      39.720  77.988  27.978  1.00  0.00     0.002 A 
HETATM   34  C18 UNL     1      39.533  76.656  27.590  1.00  0.00     0.029 A 
ENDBRANCH  27  29
ENDBRANCH  22  25
ENDBRANCH  20  22
ENDBRANCH   1  18
TORSDOF 12
ENDMDL
MODEL 4
REMARK VINA RESULT: -7.392641402      1.557      2.157
REMARK  12 active torsions:
REMARK  status: ('A' for Active; 'I' for Inactive)
REMARK    1  A    between atoms: C2_2  and  N1_4 
REMARK    2  A    between atoms: N1_4  and  C4_7 
REMARK    3  A    between atoms: C4_7  and  O1_8 
REMARK    4  A    between atoms: C4_7  and  C5_10 
REMARK    5  A    between atoms: C5_10  and  C6_12 
REMARK    6  A    between atoms: C6_12  and  N2_14 
REMARK    7  A    between atoms: N2_14  and  C8_17 
REMARK    8  A    between atoms: C8_17  and  C9_18 
REMARK       I    between atoms: C9_18  and  N3_20 
REMARK    9  A    between atoms: N3_20  and  C10_22 
REMARK   10  A    between atoms: C10_22  and  C11_23 
REMARK   11  A    between atoms: C10_22  and  C12_25 
REMARK       I    between atoms: C12_25  and  N4_27 
REMARK   12  A    between atoms: N4_27  and  C13_29 
ROOT
HETATM    1  C8  UNL     1      37.505  74.458  21.996  1.00  0.00     0.335 C 
ENDROOT
BRANCH   1   2
HETATM    2  N2  UNL     1      37.456  74.546  23.423  1.00  0.00    -0.056 N 
ATOM      3  H22 UNL     1      37.009  75.412  23.725  1.00  0.00     0.278 HD
ATOM      4  H21 UNL     1      38.385  74.699  23.816  1.00  0.00     0.278 HD
BRANCH   2   5
HETATM    5  C6  UNL     1      36.827  73.409  24.009  1.00  0.00     0.256 C 
HETATM    6  C7  UNL     1      35.547  72.989  23.235  1.00  0.00     0.048 C 
BRANCH   5   7
HETATM    7  C5  UNL     1      36.276  73.706  25.383  1.00  0.00     0.212 C 
HETATM    8  O2  UNL     1      35.396  74.502  25.475  1.00  0.00    -0.291 OA
BRANCH   7   9
HETATM    9  C4  UNL     1      36.859  72.987  26.536  1.00  0.00     0.391 C 
BRANCH   9  10
HETATM   10  N1  UNL     1      37.367  73.920  27.550  1.00  0.00    -0.038 N 
ATOM     11  H12 UNL     1      37.657  73.415  28.388  1.00  0.00     0.281 HD
ATOM     12  H11 UNL     1      36.604  74.475  27.938  1.00  0.00     0.281 HD
BRANCH  10  13
HETATM   13  C2  UNL     1      38.414  74.765  27.090  1.00  0.00     0.181 C 
HETATM   14  C1  UNL     1      38.316  76.203  27.526  1.00  0.00     0.039 C 
HETATM   15  C3  UNL     1      39.715  74.239  27.691  1.00  0.00     0.039 C 
ENDBRANCH  10  13
ENDBRANCH   9  10
BRANCH   9  16
HETATM   16  O1  UNL     1      35.880  72.222  27.175  1.00  0.00    -0.364 OA
ATOM     17  H1  UNL     1      35.158  72.159  26.562  1.00  0.00     0.212 HD
ENDBRANCH   9  16
ENDBRANCH   7   9
ENDBRANCH   5   7
ENDBRANCH   2   5
ENDBRANCH   1   2
BRANCH   1  18
HETATM   18  C9  UNL     1      38.724  73.710  21.503  1.00  0.00     0.244 C 
HETATM   19  O3  UNL     1      39.750  73.780  22.185  1.00  0.00    -0.272 OA
HETATM   20  N3  UNL     1      38.684  72.968  20.313  1.00  0.00    -0.341 N 
ATOM     21  H3  UNL     1      37.812  72.961  19.784  1.00  0.00     0.163 HD
BRANCH  20  22
HETATM   22  C10 UNL     1      39.801  72.213  19.789  1.00  0.00     0.238 C 
BRANCH  22  23
HETATM   23  C11 UNL     1      40.170  72.988  18.521  1.00  0.00     0.266 C 
HETATM   24  O4  UNL     1      39.348  73.526  17.862  1.00  0.00    -0.304 OA
ENDBRANCH  22  23
BRANCH  22  25
HETATM   25  C12 UNL     1      39.346  70.872  19.346  1.00  0.00     0.251 C 
HETATM   26  O5  UNL     1      39.920  69.898  19.803  1.00  0.00    -0.270 OA
HETATM   27  N4  UNL     1      38.278  70.757  18.419  1.00  0.00    -0.325 N 
ATOM     28  H4  UNL     1      37.875  71.626  18.073  1.00  0.00     0.169 HD
BRANCH  27  29
HETATM   29  C13 UNL     1      37.719  69.555  17.929  1.00  0.00     0.034 A 
HETATM   30  C14 UNL     1      38.029  69.194  16.606  1.00  0.00     0.029 A 
HETATM   31  C15 UNL     1      37.489  68.057  16.054  1.00  0.00     0.002 A 
HETATM   32  C16 UNL     1      36.626  67.219  16.747  1.00  0.00     0.000 A 
HETATM   33  C17 UNL     1      36.322  67.568  18.032  1.00  0.00     0.002 A 
HETATM   34  C18 UNL     1      36.866  68.722  18.606  1.00  0.00     0.029 A 
ENDBRANCH  27  29
ENDBRANCH  22  25
ENDBRANCH  20  22
ENDBRANCH   1  18
TORSDOF 12
ENDMDL
MODEL 5
REMARK VINA RESULT: -7.346117496      1.406     10.011
REMARK  12 active torsions:
REMARK  status: ('A' for Active; 'I' for Inactive)
REMARK    1  A    between atoms: C2_2  and  N1_4 
REMARK    2  A    between atoms: N1_4  and  C4_7 
REMARK    3  A    between atoms: C4_7  and  O1_8 
REMARK    4  A    between atoms: C4_7  and  C5_10 
REMARK    5  A    between atoms: C5_10  and  C6_12 
REMARK    6  A    between atoms: C6_12  and  N2_14 
REMARK    7  A    between atoms: N2_14  and  C8_17 
REMARK    8  A    between atoms: C8_17  and  C9_18 
REMARK       I    between atoms: C9_18  and  N3_20 
REMARK    9  A    between atoms: N3_20  and  C10_22 
REMARK   10  A    between atoms: C10_22  and  C11_23 
REMARK   11  A    between atoms: C10_22  and  C12_25 
REMARK       I    between atoms: C12_25  and  N4_27 
REMARK   12  A    between atoms: N4_27  and  C13_29 
ROOT
HETATM    1  C8  UNL     1      37.742  73.192  21.776  1.00  0.00     0.335 C 
ENDROOT
BRANCH   1   2
HETATM    2  N2  UNL     1      38.840  72.486  21.189  1.00  0.00    -0.056 N 
ATOM      3  H22 UNL     1      38.574  71.534  20.937  1.00  0.00     0.278 HD
ATOM      4  H21 UNL     1      39.557  72.274  21.883  1.00  0.00     0.278 HD
BRANCH   2   5
HETATM    5  C6  UNL     1      39.390  73.181  20.073  1.00  0.00     0.256 C 
HETATM    6  C7  UNL     1      38.691  74.549  19.839  1.00  0.00     0.048 C 
BRANCH   5   7
HETATM    7  C5  UNL     1      39.124  72.469  18.770  1.00  0.00     0.212 C 
HETATM    8  O2  UNL     1      39.269  73.076  17.757  1.00  0.00    -0.291 OA
BRANCH   7   9
HETATM    9  C4  UNL     1      38.704  71.051  18.825  1.00  0.00     0.391 C 
BRANCH   9  10
HETATM   10  N1  UNL     1      38.426  70.521  17.484  1.00  0.00    -0.038 N 
ATOM     11  H12 UNL     1      39.261  70.571  16.900  1.00  0.00     0.281 HD
ATOM     12  H11 UNL     1      37.817  71.155  16.969  1.00  0.00     0.281 HD
BRANCH  10  13
HETATM   13  C2  UNL     1      37.893  69.202  17.480  1.00  0.00     0.181 C 
HETATM   14  C1  UNL     1      36.510  69.068  18.060  1.00  0.00     0.039 C 
HETATM   15  C3  UNL     1      37.772  68.770  16.020  1.00  0.00     0.039 C 
ENDBRANCH  10  13
ENDBRANCH   9  10
BRANCH   9  16
HETATM   16  O1  UNL     1      39.732  70.262  19.344  1.00  0.00    -0.364 OA
ATOM     17  H1  UNL     1      40.113  69.808  18.602  1.00  0.00     0.212 HD
ENDBRANCH   9  16
ENDBRANCH   7   9
ENDBRANCH   5   7
ENDBRANCH   2   5
ENDBRANCH   1   2
BRANCH   1  18
HETATM   18  C9  UNL     1      37.883  73.340  23.275  1.00  0.00     0.244 C 
HETATM   19  O3  UNL     1      38.910  73.876  23.701  1.00  0.00    -0.272 OA
HETATM   20  N3  UNL     1      36.881  72.882  24.143  1.00  0.00    -0.341 N 
ATOM     21  H3  UNL     1      36.062  72.433  23.732  1.00  0.00     0.163 HD
BRANCH  20  22
HETATM   22  C10 UNL     1      36.935  73.006  25.583  1.00  0.00     0.238 C 
BRANCH  22  23
HETATM   23  C11 UNL     1      35.560  72.495  26.020  1.00  0.00     0.266 C 
HETATM   24  O4  UNL     1      34.948  71.722  25.365  1.00  0.00    -0.304 OA
ENDBRANCH  22  23
BRANCH  22  25
HETATM   25  C12 UNL     1      36.995  74.437  25.970  1.00  0.00     0.251 C 
HETATM   26  O5  UNL     1      35.954  75.071  25.961  1.00  0.00    -0.270 OA
HETATM   27  N4  UNL     1      38.236  75.022  26.332  1.00  0.00    -0.325 N 
ATOM     28  H4  UNL     1      39.058  74.421  26.287  1.00  0.00     0.169 HD
BRANCH  27  29
HETATM   29  C13 UNL     1      38.445  76.356  26.748  1.00  0.00     0.034 A 
HETATM   30  C14 UNL     1      39.574  76.611  27.548  1.00  0.00     0.029 A 
HETATM   31  C15 UNL     1      39.816  77.880  28.018  1.00  0.00     0.002 A 
HETATM   32  C16 UNL     1      38.986  78.957  27.744  1.00  0.00     0.000 A 
HETATM   33  C17 UNL     1      37.889  78.712  26.969  1.00  0.00     0.002 A 
HETATM   34  C18 UNL     1      37.630  77.426  26.482  1.00  0.00     0.029 A 
ENDBRANCH  27  29
ENDBRANCH  22  25
ENDBRANCH  20  22
ENDBRANCH   1  18
TORSDOF 12
ENDMDL
