MODEL 1
REMARK VINA RESULT: -6.914377531      0.000      0.000
REMARK  12 active torsions:
REMARK  status: ('A' for Active; 'I' for Inactive)
REMARK    1  A    between atoms: N1_2  and  C2_4 
REMARK    2  A    between atoms: C2_4  and  C3_5 
REMARK    3  A    between atoms: C2_4  and  C14_20 
REMARK    4  A    between atoms: C3_5  and  C4_7 
REMARK    5  A    between atoms: C4_7  and  N2_8 
REMARK    6  A    between atoms: C13_17  and  O2_18 
REMARK    7  A    between atoms: C14_20  and  O3_21 
REMARK    8  A    between atoms: C14_20  and  N3_23 
REMARK    9  A    between atoms: N3_23  and  C15_26 
REMARK   10  A    between atoms: C15_26  and  C16_27 
REMARK   11  A    between atoms: C15_26  and  C17_30 
REMARK   12  A    between atoms: C17_30  and  O6_32 
ROOT
HETATM    1  C2  UNL     1      36.429  73.715  24.530  1.00  0.00     0.205 C 
ENDROOT
BRANCH   1   2
HETATM    2  N1  UNL     1      35.210  73.059  24.774  1.00  0.00    -0.412 N 
HETATM    3  C1  UNL     1      35.188  71.741  25.280  1.00  0.00     0.141 C 
ATOM      4  H1  UNL     1      34.331  73.540  24.584  1.00  0.00     0.153 HD
ENDBRANCH   1   2
BRANCH   1   5
HETATM    5  C3  UNL     1      36.921  73.757  23.146  1.00  0.00     0.171 C 
HETATM    6  O1  UNL     1      36.201  74.225  22.284  1.00  0.00    -0.294 OA
BRANCH   5   7
HETATM    7  C4  UNL     1      38.257  73.262  22.727  1.00  0.00     0.205 C 
BRANCH   7   8
HETATM    8  N2  UNL     1      38.347  73.261  21.234  1.00  0.00    -0.355 N 
HETATM    9  C5  UNL     1      38.006  71.972  20.687  1.00  0.00     0.125 C 
HETATM   10  C6  UNL     1      39.134  71.023  20.476  1.00  0.00     0.020 C 
HETATM   11  C7  UNL     1      40.499  71.566  20.341  1.00  0.00     0.002 C 
HETATM   12  C8  UNL     1      41.140  71.440  18.998  1.00  0.00     0.000 C 
HETATM   13  C9  UNL     1      40.288  71.775  17.820  1.00  0.00     0.000 C 
HETATM   14  C10 UNL     1      40.226  73.257  17.612  1.00  0.00     0.004 C 
HETATM   15  C11 UNL     1      38.910  73.879  18.116  1.00  0.00     0.031 C 
HETATM   16  C12 UNL     1      39.148  74.773  19.249  1.00  0.00     0.029 C 
HETATM   17  C13 UNL     1      38.724  74.444  20.599  1.00  0.00     0.134 C 
BRANCH  17  18
HETATM   18  O2  UNL     1      38.688  75.487  21.395  1.00  0.00    -0.346 OA
ATOM     19  H2  UNL     1      39.463  76.033  21.326  1.00  0.00     0.219 HD
ENDBRANCH  17  18
ENDBRANCH   7   8
ENDBRANCH   5   7
ENDBRANCH   1   5
BRANCH   1  20
HETATM   20  C14 UNL     1      36.393  75.078  25.212  1.00  0.00     0.349 C 
BRANCH  20  21
HETATM   21  O3  UNL     1      35.709  74.901  26.448  1.00  0.00    -0.368 OA
ATOM     22  H3  UNL     1      36.345  75.050  27.138  1.00  0.00     0.212 HD
ENDBRANCH  20  21
BRANCH  20  23
HETATM   23  N3  UNL     1      37.706  75.530  25.528  1.00  0.00    -0.030 N 
ATOM     24  H32 UNL     1      38.402  74.876  25.172  1.00  0.00     0.281 HD
ATOM     25  H31 UNL     1      37.940  76.354  24.973  1.00  0.00     0.281 HD
BRANCH  23  26
HETATM   26  C15 UNL     1      37.929  75.788  26.924  1.00  0.00     0.316 C 
BRANCH  26  27
HETATM   27  C16 UNL     1      38.805  74.743  27.507  1.00  0.00     0.207 C 
HETATM   28  O4  UNL     1      38.390  73.563  27.568  1.00  0.00    -0.646 OA
HETATM   29  O5  UNL     1      40.074  75.038  27.990  1.00  0.00    -0.646 OA
ENDBRANCH  26  27
BRANCH  26  30
HETATM   30  C17 UNL     1      38.637  77.145  27.075  1.00  0.00     0.155 C 
HETATM   31  C18 UNL     1      37.814  78.251  26.514  1.00  0.00     0.042 C 
BRANCH  30  32
HETATM   32  O6  UNL     1      39.010  77.358  28.383  1.00  0.00    -0.393 OA
ATOM     33  H6  UNL     1      39.939  77.197  28.500  1.00  0.00     0.210 HD
ENDBRANCH  30  32
ENDBRANCH  26  30
ENDBRANCH  23  26
ENDBRANCH  20  23
ENDBRANCH   1  20
TORSDOF 12
ENDMDL
MODEL 2
REMARK VINA RESULT: -6.362794413      3.150      5.315
REMARK  12 active torsions:
REMARK  status: ('A' for Active; 'I' for Inactive)
REMARK    1  A    between atoms: N1_2  and  C2_4 
REMARK    2  A    between atoms: C2_4  and  C3_5 
REMARK    3  A    between atoms: C2_4  and  C14_20 
REMARK    4  A    between atoms: C3_5  and  C4_7 
REMARK    5  A    between atoms: C4_7  and  N2_8 
REMARK    6  A    between atoms: C13_17  and  O2_18 
REMARK    7  A    between atoms: C14_20  and  O3_21 
REMARK    8  A    between atoms: C14_20  and  N3_23 
REMARK    9  A    between atoms: N3_23  and  C15_26 
REMARK   10  A    between atoms: C15_26  and  C16_27 
REMARK   11  A    between atoms: C15_26  and  C17_30 
REMARK   12  A    between atoms: C17_30  and  O6_32 
ROOT
HETATM    1  C2  UNL     1      38.671  72.701  20.532  1.00  0.00     0.205 C 
ENDROOT
BRANCH   1   2
HETATM    2  N1  UNL     1      38.425  73.922  19.881  1.00  0.00    -0.412 N 
HETATM    3  C1  UNL     1      38.524  74.025  18.476  1.00  0.00     0.141 C 
ATOM      4  H1  UNL     1      38.170  74.744  20.429  1.00  0.00     0.153 HD
ENDBRANCH   1   2
BRANCH   1   5
HETATM    5  C3  UNL     1      39.756  71.855  20.019  1.00  0.00     0.171 C 
HETATM    6  O1  UNL     1      40.850  72.357  19.834  1.00  0.00    -0.294 OA
BRANCH   5   7
HETATM    7  C4  UNL     1      39.606  70.410  19.709  1.00  0.00     0.205 C 
BRANCH   7   8
HETATM    8  N2  UNL     1      39.094  70.246  18.314  1.00  0.00    -0.355 N 
HETATM    9  C5  UNL     1      37.659  70.375  18.260  1.00  0.00     0.125 C 
HETATM   10  C6  UNL     1      36.876  69.114  18.397  1.00  0.00     0.020 C 
HETATM   11  C7  UNL     1      37.535  67.835  18.075  1.00  0.00     0.002 C 
HETATM   12  C8  UNL     1      37.043  67.116  16.862  1.00  0.00     0.000 C 
HETATM   13  C9  UNL     1      36.811  67.945  15.644  1.00  0.00     0.000 C 
HETATM   14  C10 UNL     1      38.098  68.205  14.924  1.00  0.00     0.004 C 
HETATM   15  C11 UNL     1      38.654  69.618  15.178  1.00  0.00     0.031 C 
HETATM   16  C12 UNL     1      39.914  69.566  15.919  1.00  0.00     0.029 C 
HETATM   17  C13 UNL     1      40.021  70.007  17.299  1.00  0.00     0.134 C 
BRANCH  17  18
HETATM   18  O2  UNL     1      41.259  70.229  17.673  1.00  0.00    -0.346 OA
ATOM     19  H2  UNL     1      41.501  69.751  18.457  1.00  0.00     0.219 HD
ENDBRANCH  17  18
ENDBRANCH   7   8
ENDBRANCH   5   7
ENDBRANCH   1   5
BRANCH   1  20
HETATM   20  C14 UNL     1      38.746  72.957  22.033  1.00  0.00     0.349 C 
BRANCH  20  21
HETATM   21  O3  UNL     1      39.720  73.977  22.228  1.00  0.00    -0.368 OA
ATOM     22  H3  UNL     1      39.865  74.044  23.165  1.00  0.00     0.212 HD
ENDBRANCH  20  21
BRANCH  20  23
HETATM   23  N3  UNL     1      37.512  73.464  22.531  1.00  0.00    -0.030 N 
ATOM     24  H32 UNL     1      37.514  74.484  22.513  1.00  0.00     0.281 HD
ATOM     25  H31 UNL     1      36.759  73.278  21.869  1.00  0.00     0.281 HD
BRANCH  23  26
HETATM   26  C15 UNL     1      37.156  72.988  23.840  1.00  0.00     0.316 C 
BRANCH  26  27
HETATM   27  C16 UNL     1      37.570  73.967  24.874  1.00  0.00     0.207 C 
HETATM   28  O4  UNL     1      37.343  75.185  24.690  1.00  0.00    -0.646 OA
HETATM   29  O5  UNL     1      38.205  73.569  26.045  1.00  0.00    -0.646 OA
ENDBRANCH  26  27
BRANCH  26  30
HETATM   30  C17 UNL     1      35.628  72.829  23.916  1.00  0.00     0.155 C 
HETATM   31  C18 UNL     1      35.221  72.103  25.150  1.00  0.00     0.042 C 
BRANCH  30  32
HETATM   32  O6  UNL     1      35.002  74.047  23.772  1.00  0.00    -0.393 OA
ATOM     33  H6  UNL     1      35.544  74.648  23.276  1.00  0.00     0.210 HD
ENDBRANCH  30  32
ENDBRANCH  26  30
ENDBRANCH  23  26
ENDBRANCH  20  23
ENDBRANCH   1  20
TORSDOF 12
ENDMDL
MODEL 3
REMARK VINA RESULT: -6.341359273      1.830      2.680
REMARK  12 active torsions:
REMARK  status: ('A' for Active; 'I' for Inactive)
REMARK    1  A    between atoms: N1_2  and  C2_4 
REMARK    2  A    between atoms: C2_4  and  C3_5 
REMARK    3  A    between atoms: C2_4  and  C14_20 
REMARK    4  A    between atoms: C3_5  and  C4_7 
REMARK    5  A    between atoms: C4_7  and  N2_8 
REMARK    6  A    between atoms: C13_17  and  O2_18 
REMARK    7  A    between atoms: C14_20  and  O3_21 
REMARK    8  A    between atoms: C14_20  and  N3_23 
REMARK    9  A    between atoms: N3_23  and  C15_26 
REMARK   10  A    between atoms: C15_26  and  C16_27 
REMARK   11  A    between atoms: C15_26  and  C17_30 
REMARK   12  A    between atoms: C17_30  and  O6_32 
ROOT
HETATM    1  C2  UNL     1      37.499  73.330  22.856  1.00  0.00     0.205 C 
ENDROOT
BRANCH   1   2
HETATM    2  N1  UNL     1      36.123  73.529  23.065  1.00  0.00    -0.412 N 
HETATM    3  C1  UNL     1      35.298  72.471  23.502  1.00  0.00     0.141 C 
ATOM      4  H1  UNL     1      35.716  74.450  22.899  1.00  0.00     0.153 HD
ENDBRANCH   1   2
BRANCH   1   5
HETATM    5  C3  UNL     1      38.030  73.566  21.507  1.00  0.00     0.171 C 
HETATM    6  O1  UNL     1      37.317  74.117  20.688  1.00  0.00    -0.294 OA
BRANCH   5   7
HETATM    7  C4  UNL     1      39.395  73.176  21.073  1.00  0.00     0.205 C 
BRANCH   7   8
HETATM    8  N2  UNL     1      39.315  72.400  19.798  1.00  0.00    -0.355 N 
HETATM    9  C5  UNL     1      39.046  71.006  20.045  1.00  0.00     0.125 C 
HETATM   10  C6  UNL     1      40.234  70.117  20.184  1.00  0.00     0.020 C 
HETATM   11  C7  UNL     1      41.512  70.548  19.588  1.00  0.00     0.002 C 
HETATM   12  C8  UNL     1      42.007  69.760  18.421  1.00  0.00     0.000 C 
HETATM   13  C9  UNL     1      40.998  69.408  17.380  1.00  0.00     0.000 C 
HETATM   14  C10 UNL     1      40.763  70.562  16.455  1.00  0.00     0.004 C 
HETATM   15  C11 UNL     1      39.457  71.319  16.759  1.00  0.00     0.031 C 
HETATM   16  C12 UNL     1      39.730  72.679  17.224  1.00  0.00     0.029 C 
HETATM   17  C13 UNL     1      39.497  73.089  18.599  1.00  0.00     0.134 C 
BRANCH  17  18
HETATM   18  O2  UNL     1      39.446  74.393  18.743  1.00  0.00    -0.346 OA
ATOM     19  H2  UNL     1      39.142  74.659  19.603  1.00  0.00     0.219 HD
ENDBRANCH  17  18
ENDBRANCH   7   8
ENDBRANCH   5   7
ENDBRANCH   1   5
BRANCH   1  20
HETATM   20  C14 UNL     1      38.268  74.052  23.956  1.00  0.00     0.349 C 
BRANCH  20  21
HETATM   21  O3  UNL     1      37.777  75.387  23.993  1.00  0.00    -0.368 OA
ATOM     22  H3  UNL     1      38.200  75.815  24.728  1.00  0.00     0.212 HD
ENDBRANCH  20  21
BRANCH  20  23
HETATM   23  N3  UNL     1      38.000  73.478  25.233  1.00  0.00    -0.030 N 
ATOM     24  H32 UNL     1      37.350  72.698  25.142  1.00  0.00     0.281 HD
ATOM     25  H31 UNL     1      38.822  72.982  25.578  1.00  0.00     0.281 HD
BRANCH  23  26
HETATM   26  C15 UNL     1      37.528  74.410  26.219  1.00  0.00     0.316 C 
BRANCH  26  27
HETATM   27  C16 UNL     1      36.078  74.215  26.461  1.00  0.00     0.207 C 
HETATM   28  O4  UNL     1      35.258  74.990  25.917  1.00  0.00    -0.646 OA
HETATM   29  O5  UNL     1      35.604  73.195  27.277  1.00  0.00    -0.646 OA
ENDBRANCH  26  27
BRANCH  26  30
HETATM   30  C17 UNL     1      38.272  74.159  27.542  1.00  0.00     0.155 C 
HETATM   31  C18 UNL     1      39.744  74.303  27.371  1.00  0.00     0.042 C 
BRANCH  30  32
HETATM   32  O6  UNL     1      37.764  74.952  28.546  1.00  0.00    -0.393 OA
ATOM     33  H6  UNL     1      38.140  75.824  28.510  1.00  0.00     0.210 HD
ENDBRANCH  30  32
ENDBRANCH  26  30
ENDBRANCH  23  26
ENDBRANCH  20  23
ENDBRANCH   1  20
TORSDOF 12
ENDMDL
MODEL 4
REMARK VINA RESULT: -5.982288604      3.027      5.172
REMARK  12 active torsions:
REMARK  status: ('A' for Active; 'I' for Inactive)
REMARK    1  A    between atoms: N1_2  and  C2_4 
REMARK    2  A    between atoms: C2_4  and  C3_5 
REMARK    3  A    between atoms: C2_4  and  C14_20 
REMARK    4  A    between atoms: C3_5  and  C4_7 
REMARK    5  A    between atoms: C4_7  and  N2_8 
REMARK    6  A    between atoms: C13_17  and  O2_18 
REMARK    7  A    between atoms: C14_20  and  O3_21 
REMARK    8  A    between atoms: C14_20  and  N3_23 
REMARK    9  A    between atoms: N3_23  and  C15_26 
REMARK   10  A    between atoms: C15_26  and  C16_27 
REMARK   11  A    between atoms: C15_26  and  C17_30 
REMARK   12  A    between atoms: C17_30  and  O6_32 
ROOT
HETATM    1  C2  UNL     1      38.652  73.083  20.538  1.00  0.00     0.205 C 
ENDROOT
BRANCH   1   2
HETATM    2  N1  UNL     1      38.422  74.182  19.693  1.00  0.00    -0.412 N 
HETATM    3  C1  UNL     1      38.532  74.052  18.292  1.00  0.00     0.141 C 
ATOM      4  H1  UNL     1      38.171  75.084  20.097  1.00  0.00     0.153 HD
ENDBRANCH   1   2
BRANCH   1   5
HETATM    5  C3  UNL     1      39.707  72.133  20.159  1.00  0.00     0.171 C 
HETATM    6  O1  UNL     1      40.834  72.555  19.980  1.00  0.00    -0.294 OA
BRANCH   5   7
HETATM    7  C4  UNL     1      39.485  70.676  19.979  1.00  0.00     0.205 C 
BRANCH   7   8
HETATM    8  N2  UNL     1      39.170  70.388  18.546  1.00  0.00    -0.355 N 
HETATM    9  C5  UNL     1      37.757  70.501  18.284  1.00  0.00     0.125 C 
HETATM   10  C6  UNL     1      36.957  69.252  18.420  1.00  0.00     0.020 C 
HETATM   11  C7  UNL     1      37.647  67.954  18.304  1.00  0.00     0.002 C 
HETATM   12  C8  UNL     1      37.324  67.129  17.102  1.00  0.00     0.000 C 
HETATM   13  C9  UNL     1      37.267  67.849  15.797  1.00  0.00     0.000 C 
HETATM   14  C10 UNL     1      38.643  68.054  15.241  1.00  0.00     0.004 C 
HETATM   15  C11 UNL     1      39.165  69.488  15.446  1.00  0.00     0.031 C 
HETATM   16  C12 UNL     1      40.310  69.508  16.356  1.00  0.00     0.029 C 
HETATM   17  C13 UNL     1      40.227  70.069  17.694  1.00  0.00     0.134 C 
BRANCH  17  18
HETATM   18  O2  UNL     1      41.403  70.331  18.214  1.00  0.00    -0.346 OA
ATOM     19  H2  UNL     1      41.419  70.239  19.160  1.00  0.00     0.219 HD
ENDBRANCH  17  18
ENDBRANCH   7   8
ENDBRANCH   5   7
ENDBRANCH   1   5
BRANCH   1  20
HETATM   20  C14 UNL     1      38.763  73.587  21.972  1.00  0.00     0.349 C 
BRANCH  20  21
HETATM   21  O3  UNL     1      38.395  74.962  21.955  1.00  0.00    -0.368 OA
ATOM     22  H3  UNL     1      39.201  75.463  22.003  1.00  0.00     0.212 HD
ENDBRANCH  20  21
BRANCH  20  23
HETATM   23  N3  UNL     1      37.836  72.922  22.825  1.00  0.00    -0.030 N 
ATOM     24  H32 UNL     1      37.049  72.566  22.284  1.00  0.00     0.281 HD
ATOM     25  H31 UNL     1      38.230  72.043  23.160  1.00  0.00     0.281 HD
BRANCH  23  26
HETATM   26  C15 UNL     1      37.368  73.712  23.930  1.00  0.00     0.316 C 
BRANCH  26  27
HETATM   27  C16 UNL     1      35.898  73.574  24.075  1.00  0.00     0.207 C 
HETATM   28  O4  UNL     1      35.264  74.441  24.719  1.00  0.00    -0.646 OA
HETATM   29  O5  UNL     1      35.205  72.507  23.517  1.00  0.00    -0.646 OA
ENDBRANCH  26  27
BRANCH  26  30
HETATM   30  C17 UNL     1      38.026  73.206  25.224  1.00  0.00     0.155 C 
HETATM   31  C18 UNL     1      38.518  74.335  26.059  1.00  0.00     0.042 C 
BRANCH  30  32
HETATM   32  O6  UNL     1      37.181  72.358  25.903  1.00  0.00    -0.393 OA
ATOM     33  H6  UNL     1      37.533  72.146  26.760  1.00  0.00     0.210 HD
ENDBRANCH  30  32
ENDBRANCH  26  30
ENDBRANCH  23  26
ENDBRANCH  20  23
ENDBRANCH   1  20
TORSDOF 12
ENDMDL
MODEL 5
REMARK VINA RESULT: -5.913024635      2.980      5.368
REMARK  12 active torsions:
REMARK  status: ('A' for Active; 'I' for Inactive)
REMARK    1  A    between atoms: N1_2  and  C2_4 
REMARK    2  A    between atoms: C2_4  and  C3_5 
REMARK    3  A    between atoms: C2_4  and  C14_20 
REMARK    4  A    between atoms: C3_5  and  C4_7 
REMARK    5  A    between atoms: C4_7  and  N2_8 
REMARK    6  A    between atoms: C13_17  and  O2_18 
REMARK    7  A    between atoms: C14_20  and  O3_21 
REMARK    8  A    between atoms: C14_20  and  N3_23 
REMARK    9  A    between atoms: N3_23  and  C15_26 
REMARK   10  A    between atoms: C15_26  and  C16_27 
REMARK   11  A    between atoms: C15_26  and  C17_30 
REMARK   12  A    between atoms: C17_30  and  O6_32 
ROOT
HETATM    1  C2  UNL     1      38.657  72.769  20.485  1.00  0.00     0.205 C 
ENDROOT
BRANCH   1   2
HETATM    2  N1  UNL     1      38.386  73.952  19.776  1.00  0.00    -0.412 N 
HETATM    3  C1  UNL     1      38.619  74.031  18.386  1.00  0.00     0.141 C 
ATOM      4  H1  UNL     1      38.017  74.764  20.272  1.00  0.00     0.153 HD
ENDBRANCH   1   2
BRANCH   1   5
HETATM    5  C3  UNL     1      39.794  71.950  20.046  1.00  0.00     0.171 C 
HETATM    6  O1  UNL     1      40.887  72.477  19.942  1.00  0.00    -0.294 OA
BRANCH   5   7
HETATM    7  C4  UNL     1      39.698  70.504  19.720  1.00  0.00     0.205 C 
BRANCH   7   8
HETATM    8  N2  UNL     1      40.293  70.252  18.372  1.00  0.00    -0.355 N 
HETATM    9  C5  UNL     1      39.396  70.652  17.317  1.00  0.00     0.125 C 
HETATM   10  C6  UNL     1      38.476  69.601  16.798  1.00  0.00     0.020 C 
HETATM   11  C7  UNL     1      38.843  68.185  16.984  1.00  0.00     0.002 C 
HETATM   12  C8  UNL     1      39.192  67.416  15.754  1.00  0.00     0.000 C 
HETATM   13  C9  UNL     1      40.087  68.098  14.774  1.00  0.00     0.000 C 
HETATM   14  C10 UNL     1      41.519  67.997  15.200  1.00  0.00     0.004 C 
HETATM   15  C11 UNL     1      42.049  69.295  15.837  1.00  0.00     0.031 C 
HETATM   16  C12 UNL     1      42.364  69.099  17.252  1.00  0.00     0.029 C 
HETATM   17  C13 UNL     1      41.572  69.698  18.313  1.00  0.00     0.134 C 
BRANCH  17  18
HETATM   18  O2  UNL     1      42.195  69.722  19.467  1.00  0.00    -0.346 OA
ATOM     19  H2  UNL     1      42.891  69.078  19.527  1.00  0.00     0.219 HD
ENDBRANCH  17  18
ENDBRANCH   7   8
ENDBRANCH   5   7
ENDBRANCH   1   5
BRANCH   1  20
HETATM   20  C14 UNL     1      38.664  73.087  21.976  1.00  0.00     0.349 C 
BRANCH  20  21
HETATM   21  O3  UNL     1      39.463  74.253  22.144  1.00  0.00    -0.368 OA
ATOM     22  H3  UNL     1      40.285  73.970  22.528  1.00  0.00     0.212 HD
ENDBRANCH  20  21
BRANCH  20  23
HETATM   23  N3  UNL     1      37.357  73.411  22.440  1.00  0.00    -0.030 N 
ATOM     24  H32 UNL     1      37.200  74.417  22.381  1.00  0.00     0.281 HD
ATOM     25  H31 UNL     1      36.654  73.085  21.777  1.00  0.00     0.281 HD
BRANCH  23  26
HETATM   26  C15 UNL     1      37.057  72.934  23.761  1.00  0.00     0.316 C 
BRANCH  26  27
HETATM   27  C16 UNL     1      37.559  73.887  24.780  1.00  0.00     0.207 C 
HETATM   28  O4  UNL     1      37.475  75.118  24.559  1.00  0.00    -0.646 OA
HETATM   29  O5  UNL     1      38.121  73.453  25.974  1.00  0.00    -0.646 OA
ENDBRANCH  26  27
BRANCH  26  30
HETATM   30  C17 UNL     1      35.531  72.823  23.919  1.00  0.00     0.155 C 
HETATM   31  C18 UNL     1      35.168  72.091  25.164  1.00  0.00     0.042 C 
BRANCH  30  32
HETATM   32  O6  UNL     1      34.939  74.063  23.828  1.00  0.00    -0.393 OA
ATOM     33  H6  UNL     1      34.056  74.041  24.176  1.00  0.00     0.210 HD
ENDBRANCH  30  32
ENDBRANCH  26  30
ENDBRANCH  23  26
ENDBRANCH  20  23
ENDBRANCH   1  20
TORSDOF 12
ENDMDL
