MODEL 1
REMARK VINA RESULT: -5.944152559      0.000      0.000
REMARK  14 active torsions:
REMARK  status: ('A' for Active; 'I' for Inactive)
REMARK    1  A    between atoms: O1_2  and  C2_3 
REMARK    2  A    between atoms: C2_3  and  C3_5 
REMARK    3  A    between atoms: C3_5  and  C4_6 
REMARK    4  A    between atoms: C4_6  and  C5_7 
REMARK    5  A    between atoms: C5_7  and  N1_8 
REMARK    6  A    between atoms: C5_7  and  C14_27 
REMARK    7  A    between atoms: N1_8  and  C6_10 
REMARK    8  A    between atoms: C6_10  and  O3_11 
REMARK    9  A    between atoms: C6_10  and  C7_13 
REMARK   10  A    between atoms: C7_13  and  N2_14 
REMARK   11  A    between atoms: C7_13  and  C11_24 
REMARK       I    between atoms: N2_14  and  C8_16 
REMARK   12  A    between atoms: C8_16  and  C9_18 
REMARK   13  A    between atoms: C9_18  and  N3_20 
REMARK       I    between atoms: C14_27  and  N4_29 
REMARK   14  A    between atoms: N4_29  and  C15_31 
ROOT
HETATM    1  N1  UNL     1      38.280  70.094  17.377  1.00  0.00    -0.359 N 
ATOM      2  H1  UNL     1      37.455  70.497  17.822  1.00  0.00     0.162 HD
ENDROOT
BRANCH   1   3
HETATM    3  C5  UNL     1      38.464  68.626  17.355  1.00  0.00     0.176 C 
BRANCH   3   4
HETATM    4  C4  UNL     1      37.127  67.972  17.618  1.00  0.00     0.044 C 
BRANCH   4   5
HETATM    5  C3  UNL     1      36.076  69.031  17.948  1.00  0.00     0.113 C 
BRANCH   5   6
HETATM    6  C2  UNL     1      34.933  68.393  18.614  1.00  0.00     0.258 C 
HETATM    7  O2  UNL     1      35.009  67.204  19.017  1.00  0.00    -0.265 OA
BRANCH   6   8
HETATM    8  O1  UNL     1      33.750  69.101  18.806  1.00  0.00    -0.326 OA
HETATM    9  C1  UNL     1      33.168  69.772  17.728  1.00  0.00     0.213 C 
ENDBRANCH   6   8
ENDBRANCH   5   6
ENDBRANCH   4   5
ENDBRANCH   3   4
BRANCH   3  10
HETATM   10  C14 UNL     1      39.383  68.271  18.445  1.00  0.00     0.242 C 
HETATM   11  O5  UNL     1      38.989  68.217  19.634  1.00  0.00    -0.271 OA
HETATM   12  N4  UNL     1      40.740  67.997  18.081  1.00  0.00    -0.326 N 
ATOM     13  H4  UNL     1      41.060  68.043  17.113  1.00  0.00     0.165 HD
BRANCH  12  14
HETATM   14  C15 UNL     1      41.643  67.646  19.179  1.00  0.00     0.220 A 
HETATM   15  C16 UNL     1      42.086  68.784  20.049  1.00  0.00     0.072 C 
HETATM   16  C17 UNL     1      42.508  66.444  19.010  1.00  0.00     0.296 A 
HETATM   17  N5  UNL     1      41.373  66.413  19.896  1.00  0.00    -0.043 N 
ATOM     18  H52 UNL     1      41.253  66.180  20.881  1.00  0.00     0.280 HD
ATOM     19  H51 UNL     1      40.557  65.806  19.976  1.00  0.00     0.280 HD
ENDBRANCH  12  14
ENDBRANCH   3  10
ENDBRANCH   1   3
BRANCH   1  20
HETATM   20  C6  UNL     1      39.229  70.923  16.791  1.00  0.00     0.135 C 
BRANCH  20  21
HETATM   21  O3  UNL     1      39.401  70.810  15.507  1.00  0.00    -0.348 OA
ATOM     22  H3  UNL     1      39.997  70.134  15.210  1.00  0.00     0.219 HD
ENDBRANCH  20  21
BRANCH  20  23
HETATM   23  C7  UNL     1      40.075  71.924  17.463  1.00  0.00     0.162 C 
BRANCH  23  24
HETATM   24  N2  UNL     1      41.457  71.505  17.555  1.00  0.00    -0.347 N 
HETATM   25  C8  UNL     1      42.440  71.867  16.604  1.00  0.00     0.248 C 
HETATM   26  O4  UNL     1      42.113  72.588  15.628  1.00  0.00    -0.271 OA
ATOM     27  H2  UNL     1      41.736  70.920  18.342  1.00  0.00     0.163 HD
BRANCH  25  28
HETATM   28  C9  UNL     1      43.842  71.433  16.712  1.00  0.00     0.270 C 
HETATM   29  C10 UNL     1      44.780  72.479  16.157  1.00  0.00     0.050 C 
BRANCH  28  30
HETATM   30  N3  UNL     1      44.180  71.032  18.041  1.00  0.00    -0.067 N 
ATOM     31  H33 UNL     1      45.149  70.718  18.097  1.00  0.00     0.275 HD
ATOM     32  H32 UNL     1      44.234  71.836  18.667  1.00  0.00     0.275 HD
ATOM     33  H31 UNL     1      43.540  70.325  18.404  1.00  0.00     0.275 HD
ENDBRANCH  28  30
ENDBRANCH  25  28
ENDBRANCH  23  24
BRANCH  23  34
HETATM   34  C11 UNL     1      39.504  72.515  18.691  1.00  0.00     0.008 C 
HETATM   35  C12 UNL     1      39.033  73.938  18.521  1.00  0.00     0.012 C 
HETATM   36  C13 UNL     1      40.474  72.459  19.865  1.00  0.00     0.012 C 
ENDBRANCH  23  34
ENDBRANCH  20  23
ENDBRANCH   1  20
TORSDOF 14
ENDMDL
MODEL 2
REMARK VINA RESULT: -5.717751028      1.945      4.462
REMARK  14 active torsions:
REMARK  status: ('A' for Active; 'I' for Inactive)
REMARK    1  A    between atoms: O1_2  and  C2_3 
REMARK    2  A    between atoms: C2_3  and  C3_5 
REMARK    3  A    between atoms: C3_5  and  C4_6 
REMARK    4  A    between atoms: C4_6  and  C5_7 
REMARK    5  A    between atoms: C5_7  and  N1_8 
REMARK    6  A    between atoms: C5_7  and  C14_27 
REMARK    7  A    between atoms: N1_8  and  C6_10 
REMARK    8  A    between atoms: C6_10  and  O3_11 
REMARK    9  A    between atoms: C6_10  and  C7_13 
REMARK   10  A    between atoms: C7_13  and  N2_14 
REMARK   11  A    between atoms: C7_13  and  C11_24 
REMARK       I    between atoms: N2_14  and  C8_16 
REMARK   12  A    between atoms: C8_16  and  C9_18 
REMARK   13  A    between atoms: C9_18  and  N3_20 
REMARK       I    between atoms: C14_27  and  N4_29 
REMARK   14  A    between atoms: N4_29  and  C15_31 
ROOT
HETATM    1  N1  UNL     1      37.755  70.120  18.264  1.00  0.00    -0.359 N 
ATOM      2  H1  UNL     1      36.949  70.718  18.444  1.00  0.00     0.162 HD
ENDROOT
BRANCH   1   3
HETATM    3  C5  UNL     1      37.822  68.771  18.867  1.00  0.00     0.176 C 
BRANCH   3   4
HETATM    4  C4  UNL     1      39.254  68.289  18.806  1.00  0.00     0.044 C 
BRANCH   4   5
HETATM    5  C3  UNL     1      39.902  68.384  20.186  1.00  0.00     0.113 C 
BRANCH   5   6
HETATM    6  C2  UNL     1      41.362  68.327  20.044  1.00  0.00     0.258 C 
HETATM    7  O2  UNL     1      42.025  69.374  19.826  1.00  0.00    -0.265 OA
BRANCH   6   8
HETATM    8  O1  UNL     1      42.031  67.110  20.150  1.00  0.00    -0.326 OA
HETATM    9  C1  UNL     1      43.374  67.096  20.536  1.00  0.00     0.213 C 
ENDBRANCH   6   8
ENDBRANCH   5   6
ENDBRANCH   4   5
ENDBRANCH   3   4
BRANCH   3  10
HETATM   10  C14 UNL     1      36.989  67.873  18.055  1.00  0.00     0.242 C 
HETATM   11  O5  UNL     1      35.806  68.170  17.766  1.00  0.00    -0.271 OA
HETATM   12  N4  UNL     1      37.594  66.651  17.618  1.00  0.00    -0.326 N 
ATOM     13  H4  UNL     1      38.556  66.410  17.854  1.00  0.00     0.165 HD
BRANCH  12  14
HETATM   14  C15 UNL     1      36.749  65.768  16.811  1.00  0.00     0.220 A 
HETATM   15  C16 UNL     1      35.851  64.844  17.578  1.00  0.00     0.072 C 
HETATM   16  C17 UNL     1      37.235  65.393  15.453  1.00  0.00     0.296 A 
HETATM   17  N5  UNL     1      36.152  66.328  15.612  1.00  0.00    -0.043 N 
ATOM     18  H52 UNL     1      35.199  66.373  15.253  1.00  0.00     0.280 HD
ATOM     19  H51 UNL     1      35.987  67.280  15.284  1.00  0.00     0.280 HD
ENDBRANCH  12  14
ENDBRANCH   3  10
ENDBRANCH   1   3
BRANCH   1  20
HETATM   20  C6  UNL     1      38.789  70.573  17.453  1.00  0.00     0.135 C 
BRANCH  20  21
HETATM   21  O3  UNL     1      38.950  69.973  16.311  1.00  0.00    -0.348 OA
ATOM     22  H3  UNL     1      38.671  69.067  16.257  1.00  0.00     0.219 HD
ENDBRANCH  20  21
BRANCH  20  23
HETATM   23  C7  UNL     1      39.736  71.663  17.741  1.00  0.00     0.162 C 
BRANCH  23  24
HETATM   24  N2  UNL     1      41.113  71.215  17.727  1.00  0.00    -0.347 N 
HETATM   25  C8  UNL     1      42.083  71.727  16.835  1.00  0.00     0.248 C 
HETATM   26  O4  UNL     1      41.750  72.613  16.008  1.00  0.00    -0.271 OA
ATOM     27  H2  UNL     1      41.396  70.496  18.393  1.00  0.00     0.163 HD
BRANCH  25  28
HETATM   28  C9  UNL     1      43.479  71.260  16.833  1.00  0.00     0.270 C 
HETATM   29  C10 UNL     1      44.391  72.278  16.188  1.00  0.00     0.050 C 
BRANCH  28  30
HETATM   30  N3  UNL     1      43.916  70.868  18.135  1.00  0.00    -0.067 N 
ATOM     31  H33 UNL     1      44.071  71.680  18.733  1.00  0.00     0.275 HD
ATOM     32  H32 UNL     1      43.164  70.422  18.659  1.00  0.00     0.275 HD
ATOM     33  H31 UNL     1      44.744  70.273  18.099  1.00  0.00     0.275 HD
ENDBRANCH  28  30
ENDBRANCH  25  28
ENDBRANCH  23  24
BRANCH  23  34
HETATM   34  C11 UNL     1      39.363  72.546  18.866  1.00  0.00     0.008 C 
HETATM   35  C12 UNL     1      39.150  73.985  18.467  1.00  0.00     0.012 C 
HETATM   36  C13 UNL     1      40.381  72.501  19.999  1.00  0.00     0.012 C 
ENDBRANCH  23  34
ENDBRANCH  20  23
ENDBRANCH   1  20
TORSDOF 14
ENDMDL
MODEL 3
REMARK VINA RESULT: -5.656985484      1.817      4.557
REMARK  14 active torsions:
REMARK  status: ('A' for Active; 'I' for Inactive)
REMARK    1  A    between atoms: O1_2  and  C2_3 
REMARK    2  A    between atoms: C2_3  and  C3_5 
REMARK    3  A    between atoms: C3_5  and  C4_6 
REMARK    4  A    between atoms: C4_6  and  C5_7 
REMARK    5  A    between atoms: C5_7  and  N1_8 
REMARK    6  A    between atoms: C5_7  and  C14_27 
REMARK    7  A    between atoms: N1_8  and  C6_10 
REMARK    8  A    between atoms: C6_10  and  O3_11 
REMARK    9  A    between atoms: C6_10  and  C7_13 
REMARK   10  A    between atoms: C7_13  and  N2_14 
REMARK   11  A    between atoms: C7_13  and  C11_24 
REMARK       I    between atoms: N2_14  and  C8_16 
REMARK   12  A    between atoms: C8_16  and  C9_18 
REMARK   13  A    between atoms: C9_18  and  N3_20 
REMARK       I    between atoms: C14_27  and  N4_29 
REMARK   14  A    between atoms: N4_29  and  C15_31 
ROOT
HETATM    1  N1  UNL     1      39.842  69.843  17.561  1.00  0.00    -0.359 N 
ATOM      2  H1  UNL     1      40.436  69.097  17.197  1.00  0.00     0.162 HD
ENDROOT
BRANCH   1   3
HETATM    3  C5  UNL     1      38.936  69.576  18.699  1.00  0.00     0.176 C 
BRANCH   3   4
HETATM    4  C4  UNL     1      39.611  68.594  19.630  1.00  0.00     0.044 C 
BRANCH   4   5
HETATM    5  C3  UNL     1      40.806  67.944  18.935  1.00  0.00     0.113 C 
BRANCH   5   6
HETATM    6  C2  UNL     1      42.051  68.470  19.510  1.00  0.00     0.258 C 
HETATM    7  O2  UNL     1      42.483  69.602  19.171  1.00  0.00    -0.265 OA
BRANCH   6   8
HETATM    8  O1  UNL     1      42.766  67.719  20.438  1.00  0.00    -0.326 OA
HETATM    9  C1  UNL     1      42.811  66.329  20.310  1.00  0.00     0.213 C 
ENDBRANCH   6   8
ENDBRANCH   5   6
ENDBRANCH   4   5
ENDBRANCH   3   4
BRANCH   3  10
HETATM   10  C14 UNL     1      37.715  68.955  18.167  1.00  0.00     0.242 C 
HETATM   11  O5  UNL     1      36.957  69.579  17.388  1.00  0.00    -0.271 OA
HETATM   12  N4  UNL     1      37.440  67.612  18.582  1.00  0.00    -0.326 N 
ATOM     13  H4  UNL     1      38.057  67.106  19.217  1.00  0.00     0.165 HD
BRANCH  12  14
HETATM   14  C15 UNL     1      36.219  67.010  18.043  1.00  0.00     0.220 A 
HETATM   15  C16 UNL     1      34.956  67.308  18.796  1.00  0.00     0.072 C 
HETATM   16  C17 UNL     1      36.353  65.745  17.266  1.00  0.00     0.296 A 
HETATM   17  N5  UNL     1      36.067  66.989  16.600  1.00  0.00    -0.043 N 
ATOM     18  H52 UNL     1      35.333  67.295  15.962  1.00  0.00     0.280 HD
ATOM     19  H51 UNL     1      36.510  67.499  15.835  1.00  0.00     0.280 HD
ENDBRANCH  12  14
ENDBRANCH   3  10
ENDBRANCH   1   3
BRANCH   1  20
HETATM   20  C6  UNL     1      39.886  71.108  16.987  1.00  0.00     0.135 C 
BRANCH  20  21
HETATM   21  O3  UNL     1      39.102  71.323  15.972  1.00  0.00    -0.348 OA
ATOM     22  H3  UNL     1      38.167  71.281  16.132  1.00  0.00     0.219 HD
ENDBRANCH  20  21
BRANCH  20  23
HETATM   23  C7  UNL     1      40.727  72.245  17.397  1.00  0.00     0.162 C 
BRANCH  23  24
HETATM   24  N2  UNL     1      42.130  71.897  17.463  1.00  0.00    -0.347 N 
HETATM   25  C8  UNL     1      43.030  72.103  16.392  1.00  0.00     0.248 C 
HETATM   26  O4  UNL     1      42.606  72.613  15.324  1.00  0.00    -0.271 OA
ATOM     27  H2  UNL     1      42.487  71.482  18.324  1.00  0.00     0.163 HD
BRANCH  25  28
HETATM   28  C9  UNL     1      44.454  71.743  16.476  1.00  0.00     0.270 C 
HETATM   29  C10 UNL     1      45.334  72.933  16.168  1.00  0.00     0.050 C 
BRANCH  28  30
HETATM   30  N3  UNL     1      44.779  71.119  17.719  1.00  0.00    -0.067 N 
ATOM     31  H33 UNL     1      44.003  70.552  18.061  1.00  0.00     0.275 HD
ATOM     32  H32 UNL     1      45.474  70.383  17.593  1.00  0.00     0.275 HD
ATOM     33  H31 UNL     1      45.080  71.795  18.421  1.00  0.00     0.275 HD
ENDBRANCH  28  30
ENDBRANCH  25  28
ENDBRANCH  23  24
BRANCH  23  34
HETATM   34  C11 UNL     1      40.211  73.038  18.532  1.00  0.00     0.008 C 
HETATM   35  C12 UNL     1      40.525  72.444  19.883  1.00  0.00     0.012 C 
HETATM   36  C13 UNL     1      38.708  73.270  18.440  1.00  0.00     0.012 C 
ENDBRANCH  23  34
ENDBRANCH  20  23
ENDBRANCH   1  20
TORSDOF 14
ENDMDL
MODEL 4
REMARK VINA RESULT: -5.585894821      2.297      6.427
REMARK  14 active torsions:
REMARK  status: ('A' for Active; 'I' for Inactive)
REMARK    1  A    between atoms: O1_2  and  C2_3 
REMARK    2  A    between atoms: C2_3  and  C3_5 
REMARK    3  A    between atoms: C3_5  and  C4_6 
REMARK    4  A    between atoms: C4_6  and  C5_7 
REMARK    5  A    between atoms: C5_7  and  N1_8 
REMARK    6  A    between atoms: C5_7  and  C14_27 
REMARK    7  A    between atoms: N1_8  and  C6_10 
REMARK    8  A    between atoms: C6_10  and  O3_11 
REMARK    9  A    between atoms: C6_10  and  C7_13 
REMARK   10  A    between atoms: C7_13  and  N2_14 
REMARK   11  A    between atoms: C7_13  and  C11_24 
REMARK       I    between atoms: N2_14  and  C8_16 
REMARK   12  A    between atoms: C8_16  and  C9_18 
REMARK   13  A    between atoms: C9_18  and  N3_20 
REMARK       I    between atoms: C14_27  and  N4_29 
REMARK   14  A    between atoms: N4_29  and  C15_31 
ROOT
HETATM    1  N1  UNL     1      40.290  69.285  18.325  1.00  0.00    -0.359 N 
ATOM      2  H1  UNL     1      40.407  69.666  17.386  1.00  0.00     0.162 HD
ENDROOT
BRANCH   1   3
HETATM    3  C5  UNL     1      41.231  69.667  19.400  1.00  0.00     0.176 C 
BRANCH   3   4
HETATM    4  C4  UNL     1      41.792  71.034  19.082  1.00  0.00     0.044 C 
BRANCH   4   5
HETATM    5  C3  UNL     1      40.741  72.110  19.348  1.00  0.00     0.113 C 
BRANCH   5   6
HETATM    6  C2  UNL     1      40.356  72.739  18.078  1.00  0.00     0.258 C 
HETATM    7  O2  UNL     1      40.627  72.185  16.981  1.00  0.00    -0.265 OA
BRANCH   6   8
HETATM    8  O1  UNL     1      39.684  73.959  18.074  1.00  0.00    -0.326 OA
HETATM    9  C1  UNL     1      38.673  74.188  19.010  1.00  0.00     0.213 C 
ENDBRANCH   6   8
ENDBRANCH   5   6
ENDBRANCH   4   5
ENDBRANCH   3   4
BRANCH   3  10
HETATM   10  C14 UNL     1      42.333  68.695  19.400  1.00  0.00     0.242 C 
HETATM   11  O5  UNL     1      43.265  68.771  18.565  1.00  0.00    -0.271 OA
HETATM   12  N4  UNL     1      42.285  67.665  20.393  1.00  0.00    -0.326 N 
ATOM     13  H4  UNL     1      41.526  67.603  21.071  1.00  0.00     0.165 HD
BRANCH  12  14
HETATM   14  C15 UNL     1      43.390  66.704  20.378  1.00  0.00     0.220 A 
HETATM   15  C16 UNL     1      43.215  65.522  19.472  1.00  0.00     0.072 C 
HETATM   16  C17 UNL     1      44.237  66.600  21.600  1.00  0.00     0.296 A 
HETATM   17  N5  UNL     1      44.740  67.240  20.413  1.00  0.00    -0.043 N 
ATOM     18  H52 UNL     1      45.568  67.104  19.835  1.00  0.00     0.280 HD
ATOM     19  H51 UNL     1      45.141  68.158  20.221  1.00  0.00     0.280 HD
ENDBRANCH  12  14
ENDBRANCH   3  10
ENDBRANCH   1   3
BRANCH   1  20
HETATM   20  C6  UNL     1      39.245  68.408  18.593  1.00  0.00     0.135 C 
BRANCH  20  21
HETATM   21  O3  UNL     1      39.208  67.879  19.780  1.00  0.00    -0.348 OA
ATOM     22  H3  UNL     1      38.608  68.267  20.406  1.00  0.00     0.219 HD
ENDBRANCH  20  21
BRANCH  20  23
HETATM   23  C7  UNL     1      38.166  68.000  17.678  1.00  0.00     0.162 C 
BRANCH  23  24
HETATM   24  N2  UNL     1      36.978  67.569  18.383  1.00  0.00    -0.347 N 
HETATM   25  C8  UNL     1      35.722  68.203  18.242  1.00  0.00     0.248 C 
HETATM   26  O4  UNL     1      35.616  69.190  17.470  1.00  0.00    -0.271 OA
ATOM     27  H2  UNL     1      37.050  66.769  19.012  1.00  0.00     0.163 HD
BRANCH  25  28
HETATM   28  C9  UNL     1      34.524  67.753  18.967  1.00  0.00     0.270 C 
HETATM   29  C10 UNL     1      33.389  68.738  18.807  1.00  0.00     0.050 C 
BRANCH  28  30
HETATM   30  N3  UNL     1      34.154  66.418  18.618  1.00  0.00    -0.067 N 
ATOM     31  H33 UNL     1      33.955  66.339  17.620  1.00  0.00     0.275 HD
ATOM     32  H32 UNL     1      34.952  65.787  18.674  1.00  0.00     0.275 HD
ATOM     33  H31 UNL     1      33.373  66.077  19.179  1.00  0.00     0.275 HD
ENDBRANCH  28  30
ENDBRANCH  25  28
ENDBRANCH  23  24
BRANCH  23  34
HETATM   34  C11 UNL     1      38.584  67.143  16.548  1.00  0.00     0.008 C 
HETATM   35  C12 UNL     1      38.659  67.870  15.227  1.00  0.00     0.012 C 
HETATM   36  C13 UNL     1      37.685  65.924  16.383  1.00  0.00     0.012 C 
ENDBRANCH  23  34
ENDBRANCH  20  23
ENDBRANCH   1  20
TORSDOF 14
ENDMDL
MODEL 5
REMARK VINA RESULT: -5.577155982      2.767      7.138
REMARK  14 active torsions:
REMARK  status: ('A' for Active; 'I' for Inactive)
REMARK    1  A    between atoms: O1_2  and  C2_3 
REMARK    2  A    between atoms: C2_3  and  C3_5 
REMARK    3  A    between atoms: C3_5  and  C4_6 
REMARK    4  A    between atoms: C4_6  and  C5_7 
REMARK    5  A    between atoms: C5_7  and  N1_8 
REMARK    6  A    between atoms: C5_7  and  C14_27 
REMARK    7  A    between atoms: N1_8  and  C6_10 
REMARK    8  A    between atoms: C6_10  and  O3_11 
REMARK    9  A    between atoms: C6_10  and  C7_13 
REMARK   10  A    between atoms: C7_13  and  N2_14 
REMARK   11  A    between atoms: C7_13  and  C11_24 
REMARK       I    between atoms: N2_14  and  C8_16 
REMARK   12  A    between atoms: C8_16  and  C9_18 
REMARK   13  A    between atoms: C9_18  and  N3_20 
REMARK       I    between atoms: C14_27  and  N4_29 
REMARK   14  A    between atoms: N4_29  and  C15_31 
ROOT
HETATM    1  N1  UNL     1      38.467  71.113  18.456  1.00  0.00    -0.359 N 
ATOM      2  H1  UNL     1      37.680  71.098  19.105  1.00  0.00     0.162 HD
ENDROOT
BRANCH   1   3
HETATM    3  C5  UNL     1      39.340  72.304  18.382  1.00  0.00     0.176 C 
BRANCH   3   4
HETATM    4  C4  UNL     1      40.773  71.861  18.575  1.00  0.00     0.044 C 
BRANCH   4   5
HETATM    5  C3  UNL     1      41.580  72.119  17.304  1.00  0.00     0.113 C 
BRANCH   5   6
HETATM    6  C2  UNL     1      42.334  70.909  16.952  1.00  0.00     0.258 C 
HETATM    7  O2  UNL     1      41.881  70.098  16.102  1.00  0.00    -0.265 OA
BRANCH   6   8
HETATM    8  O1  UNL     1      43.561  70.645  17.555  1.00  0.00    -0.326 OA
HETATM    9  C1  UNL     1      44.009  69.325  17.651  1.00  0.00     0.213 C 
ENDBRANCH   6   8
ENDBRANCH   5   6
ENDBRANCH   4   5
ENDBRANCH   3   4
BRANCH   3  10
HETATM   10  C14 UNL     1      38.973  73.201  19.487  1.00  0.00     0.242 C 
HETATM   11  O5  UNL     1      38.986  74.446  19.343  1.00  0.00    -0.271 OA
HETATM   12  N4  UNL     1      38.606  72.583  20.725  1.00  0.00    -0.326 N 
ATOM     13  H4  UNL     1      38.597  71.570  20.841  1.00  0.00     0.165 HD
BRANCH  12  14
HETATM   14  C15 UNL     1      38.244  73.491  21.815  1.00  0.00     0.220 A 
HETATM   15  C16 UNL     1      39.383  73.998  22.648  1.00  0.00     0.072 C 
HETATM   16  C17 UNL     1      36.879  73.365  22.400  1.00  0.00     0.296 A 
HETATM   17  N5  UNL     1      37.211  74.476  21.548  1.00  0.00    -0.043 N 
ATOM     18  H52 UNL     1      37.157  75.489  21.654  1.00  0.00     0.280 HD
ATOM     19  H51 UNL     1      36.803  74.858  20.694  1.00  0.00     0.280 HD
ENDBRANCH  12  14
ENDBRANCH   3  10
ENDBRANCH   1   3
BRANCH   1  20
HETATM   20  C6  UNL     1      38.716  70.015  17.641  1.00  0.00     0.135 C 
BRANCH  20  21
HETATM   21  O3  UNL     1      38.780  70.232  16.360  1.00  0.00    -0.348 OA
ATOM     22  H3  UNL     1      37.960  70.393  15.909  1.00  0.00     0.219 HD
ENDBRANCH  20  21
BRANCH  20  23
HETATM   23  C7  UNL     1      38.914  68.619  18.063  1.00  0.00     0.162 C 
BRANCH  23  24
HETATM   24  N2  UNL     1      37.756  68.077  18.740  1.00  0.00    -0.347 N 
HETATM   25  C8  UNL     1      36.492  67.941  18.122  1.00  0.00     0.248 C 
HETATM   26  O4  UNL     1      36.351  68.304  16.927  1.00  0.00    -0.271 OA
ATOM     27  H2  UNL     1      37.856  67.779  19.711  1.00  0.00     0.163 HD
BRANCH  25  28
HETATM   28  C9  UNL     1      35.323  67.389  18.825  1.00  0.00     0.270 C 
HETATM   29  C10 UNL     1      34.149  68.338  18.758  1.00  0.00     0.050 C 
BRANCH  28  30
HETATM   30  N3  UNL     1      34.999  66.071  18.378  1.00  0.00    -0.067 N 
ATOM     31  H33 UNL     1      34.535  66.093  17.470  1.00  0.00     0.275 HD
ATOM     32  H32 UNL     1      35.838  65.552  18.119  1.00  0.00     0.275 HD
ATOM     33  H31 UNL     1      34.445  65.558  19.064  1.00  0.00     0.275 HD
ENDBRANCH  28  30
ENDBRANCH  25  28
ENDBRANCH  23  24
BRANCH  23  34
HETATM   34  C11 UNL     1      40.218  68.327  18.694  1.00  0.00     0.008 C 
HETATM   35  C12 UNL     1      40.944  67.154  18.082  1.00  0.00     0.012 C 
HETATM   36  C13 UNL     1      40.095  68.093  20.195  1.00  0.00     0.012 C 
ENDBRANCH  23  34
ENDBRANCH  20  23
ENDBRANCH   1  20
TORSDOF 14
ENDMDL
