MODEL 1
REMARK VINA RESULT: -9.522652080      0.000      0.000
REMARK  9 active torsions:
REMARK  status: ('A' for Active; 'I' for Inactive)
REMARK    1  A    between atoms: C2_2  and  C4_4 
REMARK    2  A    between atoms: C4_4  and  C5_5 
REMARK    3  A    between atoms: C5_5  and  N1_6 
REMARK    4  A    between atoms: C5_5  and  C27_37 
REMARK       I    between atoms: N1_6  and  C6_8 
REMARK    5  A    between atoms: C6_8  and  C7_10 
REMARK    6  A    between atoms: C7_10  and  C8_11 
REMARK    7  A    between atoms: C9_12  and  O2_13 
REMARK    8  A    between atoms: C10_15  and  O3_16 
REMARK    9  A    between atoms: C25_33  and  O4_34 
ROOT
HETATM    1  C8  UNL     1       3.071  15.825 -39.577  1.00  0.00     0.033 C 
HETATM    2  C9  UNL     1       2.262  17.096 -39.714  1.00  0.00     0.152 C 
HETATM    3  C10 UNL     1       1.225  17.044 -38.580  1.00  0.00     0.155 C 
HETATM    4  C11 UNL     1       2.083  16.337 -37.521  1.00  0.00    -0.009 C 
HETATM    5  C12 UNL     1       3.033  17.331 -36.995  1.00  0.00     0.018 C 
HETATM    6  C13 UNL     1       1.239  15.772 -36.411  1.00  0.00     0.013 C 
HETATM    7  C14 UNL     1       1.410  14.311 -36.194  1.00  0.00     0.009 C 
HETATM    8  C15 UNL     1       2.791  13.762 -36.338  1.00  0.00     0.025 C 
HETATM    9  C16 UNL     1       3.751  13.942 -35.238  1.00  0.00     0.003 C 
HETATM   10  C17 UNL     1       3.322  13.416 -33.891  1.00  0.00    -0.014 C 
HETATM   11  C18 UNL     1       2.513  14.374 -33.075  1.00  0.00     0.010 C 
HETATM   12  C19 UNL     1       2.754  12.033 -33.967  1.00  0.00     0.007 C 
HETATM   13  C20 UNL     1       3.895  11.117 -34.395  1.00  0.00     0.038 C 
HETATM   14  C21 UNL     1       4.679  11.618 -35.554  1.00  0.00     0.174 C 
HETATM   15  F1  UNL     1       5.929  10.974 -35.487  1.00  0.00    -0.249 F 
HETATM   16  C22 UNL     1       4.974  13.071 -35.587  1.00  0.00     0.024 C 
HETATM   17  C23 UNL     1       5.594  13.440 -36.896  1.00  0.00     0.011 C 
HETATM   18  C24 UNL     1       4.858  14.651 -37.445  1.00  0.00     0.039 C 
HETATM   19  C25 UNL     1       3.425  14.210 -37.642  1.00  0.00     0.067 C 
HETATM   20  C26 UNL     1       2.581  15.211 -38.330  1.00  0.00     0.038 C 
ENDROOT
BRANCH   1  21
HETATM   21  C7  UNL     1       2.695  14.984 -40.808  1.00  0.00     0.110 C 
BRANCH  21  22
HETATM   22  C6  UNL     1       3.926  14.606 -41.513  1.00  0.00     0.218 C 
HETATM   23  N1  UNL     1       4.174  13.247 -41.805  1.00  0.00    -0.346 N 
ATOM     24  H1  UNL     1       3.493  12.544 -41.521  1.00  0.00     0.163 HD
HETATM   25  O1  UNL     1       4.752  15.491 -41.859  1.00  0.00    -0.274 OA
BRANCH  23  26
HETATM   26  C5  UNL     1       5.408  12.821 -42.519  1.00  0.00     0.185 C 
BRANCH  26  27
HETATM   27  C4  UNL     1       5.779  11.522 -41.922  1.00  0.00     0.040 C 
BRANCH  27  28
HETATM   28  C2  UNL     1       5.931  11.373 -40.453  1.00  0.00    -0.020 C 
HETATM   29  C1  UNL     1       4.818  10.373 -40.033  1.00  0.00     0.009 C 
HETATM   30  C3  UNL     1       7.215  10.614 -40.077  1.00  0.00     0.009 C 
ENDBRANCH  27  28
ENDBRANCH  26  27
BRANCH  26  31
HETATM   31  C27 UNL     1       5.148  12.861 -43.966  1.00  0.00     0.196 C 
HETATM   32  O5  UNL     1       4.833  11.788 -44.599  1.00  0.00    -0.646 OA
HETATM   33  O6  UNL     1       5.203  13.993 -44.756  1.00  0.00    -0.646 OA
ENDBRANCH  26  31
ENDBRANCH  23  26
ENDBRANCH  21  22
ENDBRANCH   1  21
BRANCH   2  34
HETATM   34  O2  UNL     1       3.017  18.255 -39.628  1.00  0.00    -0.393 OA
ATOM     35  H2  UNL     1       3.665  18.345 -40.316  1.00  0.00     0.210 HD
ENDBRANCH   2  34
BRANCH   3  36
HETATM   36  O3  UNL     1       0.235  16.167 -38.960  1.00  0.00    -0.392 OA
ATOM     37  H3  UNL     1       0.403  15.338 -38.528  1.00  0.00     0.210 HD
ENDBRANCH   3  36
BRANCH  19  38
HETATM   38  O4  UNL     1       3.528  13.113 -38.539  1.00  0.00    -0.389 OA
ATOM     39  H4  UNL     1       4.358  13.144 -39.000  1.00  0.00     0.210 HD
ENDBRANCH  19  38
TORSDOF 9
ENDMDL
MODEL 2
REMARK VINA RESULT: -8.772556782      1.323      1.889
REMARK  9 active torsions:
REMARK  status: ('A' for Active; 'I' for Inactive)
REMARK    1  A    between atoms: C2_2  and  C4_4 
REMARK    2  A    between atoms: C4_4  and  C5_5 
REMARK    3  A    between atoms: C5_5  and  N1_6 
REMARK    4  A    between atoms: C5_5  and  C27_37 
REMARK       I    between atoms: N1_6  and  C6_8 
REMARK    5  A    between atoms: C6_8  and  C7_10 
REMARK    6  A    between atoms: C7_10  and  C8_11 
REMARK    7  A    between atoms: C9_12  and  O2_13 
REMARK    8  A    between atoms: C10_15  and  O3_16 
REMARK    9  A    between atoms: C25_33  and  O4_34 
ROOT
HETATM    1  C8  UNL     1       2.595  16.494 -39.159  1.00  0.00     0.033 C 
HETATM    2  C9  UNL     1       1.575  17.604 -39.029  1.00  0.00     0.152 C 
HETATM    3  C10 UNL     1       0.584  17.124 -37.957  1.00  0.00     0.155 C 
HETATM    4  C11 UNL     1       1.570  16.361 -37.061  1.00  0.00    -0.009 C 
HETATM    5  C12 UNL     1       2.342  17.363 -36.310  1.00  0.00     0.018 C 
HETATM    6  C13 UNL     1       0.858  15.427 -36.121  1.00  0.00     0.013 C 
HETATM    7  C14 UNL     1       1.285  14.007 -36.228  1.00  0.00     0.009 C 
HETATM    8  C15 UNL     1       2.737  13.751 -36.461  1.00  0.00     0.025 C 
HETATM    9  C16 UNL     1       3.671  13.847 -35.328  1.00  0.00     0.003 C 
HETATM   10  C17 UNL     1       3.365  12.972 -34.140  1.00  0.00    -0.014 C 
HETATM   11  C18 UNL     1       2.417  13.570 -33.150  1.00  0.00     0.010 C 
HETATM   12  C19 UNL     1       3.045  11.563 -34.531  1.00  0.00     0.007 C 
HETATM   13  C20 UNL     1       4.319  10.975 -35.127  1.00  0.00     0.038 C 
HETATM   14  C21 UNL     1       4.984  11.848 -36.129  1.00  0.00     0.174 C 
HETATM   15  F1  UNL     1       6.327  11.433 -36.181  1.00  0.00    -0.249 F 
HETATM   16  C22 UNL     1       5.020  13.302 -35.836  1.00  0.00     0.024 C 
HETATM   17  C23 UNL     1       5.543  14.051 -37.018  1.00  0.00     0.011 C 
HETATM   18  C24 UNL     1       4.598  15.208 -37.302  1.00  0.00     0.039 C 
HETATM   19  C25 UNL     1       3.260  14.579 -37.620  1.00  0.00     0.067 C 
HETATM   20  C26 UNL     1       2.242  15.545 -38.088  1.00  0.00     0.038 C 
ENDROOT
BRANCH   1  21
HETATM   21  C7  UNL     1       2.349  15.894 -40.553  1.00  0.00     0.110 C 
BRANCH  21  22
HETATM   22  C6  UNL     1       3.521  16.162 -41.394  1.00  0.00     0.218 C 
HETATM   23  N1  UNL     1       3.912  15.217 -42.367  1.00  0.00    -0.346 N 
ATOM     24  H1  UNL     1       3.374  14.357 -42.473  1.00  0.00     0.163 HD
HETATM   25  O1  UNL     1       4.170  17.231 -41.251  1.00  0.00    -0.274 OA
BRANCH  23  26
HETATM   26  C5  UNL     1       5.093  15.449 -43.242  1.00  0.00     0.185 C 
BRANCH  26  27
HETATM   27  C4  UNL     1       5.804  14.155 -43.296  1.00  0.00     0.040 C 
BRANCH  27  28
HETATM   28  C2  UNL     1       5.089  12.880 -43.040  1.00  0.00    -0.020 C 
HETATM   29  C1  UNL     1       5.059  12.151 -44.412  1.00  0.00     0.009 C 
HETATM   30  C3  UNL     1       5.915  11.916 -42.171  1.00  0.00     0.009 C 
ENDBRANCH  27  28
ENDBRANCH  26  27
BRANCH  26  31
HETATM   31  C27 UNL     1       4.629  16.029 -44.511  1.00  0.00     0.196 C 
HETATM   32  O5  UNL     1       4.478  17.299 -44.627  1.00  0.00    -0.646 OA
HETATM   33  O6  UNL     1       4.329  15.312 -45.654  1.00  0.00    -0.646 OA
ENDBRANCH  26  31
ENDBRANCH  23  26
ENDBRANCH  21  22
ENDBRANCH   1  21
BRANCH   2  34
HETATM   34  O2  UNL     1       2.118  18.829 -38.674  1.00  0.00    -0.393 OA
ATOM     35  H2  UNL     1       2.243  19.422 -39.405  1.00  0.00     0.210 HD
ENDBRANCH   2  34
BRANCH   3  36
HETATM   36  O3  UNL     1      -0.246  16.194 -38.541  1.00  0.00    -0.392 OA
ATOM     37  H3  UNL     1      -1.083  16.234 -38.095  1.00  0.00     0.210 HD
ENDBRANCH   3  36
BRANCH  19  38
HETATM   38  O4  UNL     1       3.535  13.742 -38.735  1.00  0.00    -0.389 OA
ATOM     39  H4  UNL     1       2.898  13.039 -38.782  1.00  0.00     0.210 HD
ENDBRANCH  19  38
TORSDOF 9
ENDMDL
MODEL 3
REMARK VINA RESULT: -8.519473317      1.742      2.907
REMARK  9 active torsions:
REMARK  status: ('A' for Active; 'I' for Inactive)
REMARK    1  A    between atoms: C2_2  and  C4_4 
REMARK    2  A    between atoms: C4_4  and  C5_5 
REMARK    3  A    between atoms: C5_5  and  N1_6 
REMARK    4  A    between atoms: C5_5  and  C27_37 
REMARK       I    between atoms: N1_6  and  C6_8 
REMARK    5  A    between atoms: C6_8  and  C7_10 
REMARK    6  A    between atoms: C7_10  and  C8_11 
REMARK    7  A    between atoms: C9_12  and  O2_13 
REMARK    8  A    between atoms: C10_15  and  O3_16 
REMARK    9  A    between atoms: C25_33  and  O4_34 
ROOT
HETATM    1  C8  UNL     1       3.302  15.474 -39.738  1.00  0.00     0.033 C 
HETATM    2  C9  UNL     1       2.654  16.804 -40.056  1.00  0.00     0.152 C 
HETATM    3  C10 UNL     1       1.607  17.021 -38.952  1.00  0.00     0.155 C 
HETATM    4  C11 UNL     1       2.362  16.359 -37.790  1.00  0.00    -0.009 C 
HETATM    5  C12 UNL     1       3.419  17.292 -37.369  1.00  0.00     0.018 C 
HETATM    6  C13 UNL     1       1.444  16.045 -36.639  1.00  0.00     0.013 C 
HETATM    7  C14 UNL     1       1.435  14.614 -36.236  1.00  0.00     0.009 C 
HETATM    8  C15 UNL     1       2.741  13.891 -36.274  1.00  0.00     0.025 C 
HETATM    9  C16 UNL     1       3.704  14.095 -35.181  1.00  0.00     0.003 C 
HETATM   10  C17 UNL     1       3.201  13.801 -33.790  1.00  0.00    -0.014 C 
HETATM   11  C18 UNL     1       2.505  14.945 -33.123  1.00  0.00     0.010 C 
HETATM   12  C19 UNL     1       2.471  12.497 -33.706  1.00  0.00     0.007 C 
HETATM   13  C20 UNL     1       3.497  11.405 -33.986  1.00  0.00     0.038 C 
HETATM   14  C21 UNL     1       4.348  11.656 -35.177  1.00  0.00     0.174 C 
HETATM   15  F1  UNL     1       5.510  10.883 -34.998  1.00  0.00    -0.249 F 
HETATM   16  C22 UNL     1       4.817  13.048 -35.386  1.00  0.00     0.024 C 
HETATM   17  C23 UNL     1       5.490  13.170 -36.715  1.00  0.00     0.011 C 
HETATM   18  C24 UNL     1       4.912  14.379 -37.431  1.00  0.00     0.039 C 
HETATM   19  C25 UNL     1       3.438  14.090 -37.607  1.00  0.00     0.067 C 
HETATM   20  C26 UNL     1       2.728  15.088 -38.438  1.00  0.00     0.038 C 
ENDROOT
BRANCH   1  21
HETATM   21  C7  UNL     1       2.840  14.533 -40.864  1.00  0.00     0.110 C 
BRANCH  21  22
HETATM   22  C6  UNL     1       4.017  14.100 -41.627  1.00  0.00     0.218 C 
HETATM   23  N1  UNL     1       4.485  14.893 -42.697  1.00  0.00    -0.346 N 
ATOM     24  H1  UNL     1       3.998  15.759 -42.927  1.00  0.00     0.163 HD
HETATM   25  O1  UNL     1       4.606  13.029 -41.326  1.00  0.00    -0.274 OA
BRANCH  23  26
HETATM   26  C5  UNL     1       5.674  14.492 -43.497  1.00  0.00     0.185 C 
BRANCH  26  27
HETATM   27  C4  UNL     1       5.322  14.786 -44.901  1.00  0.00     0.040 C 
BRANCH  27  28
HETATM   28  C2  UNL     1       4.678  16.070 -45.274  1.00  0.00    -0.020 C 
HETATM   29  C1  UNL     1       5.701  16.778 -46.205  1.00  0.00     0.009 C 
HETATM   30  C3  UNL     1       3.471  15.864 -46.205  1.00  0.00     0.009 C 
ENDBRANCH  27  28
ENDBRANCH  26  27
BRANCH  26  31
HETATM   31  C27 UNL     1       6.860  15.154 -42.935  1.00  0.00     0.196 C 
HETATM   32  O5  UNL     1       6.785  16.362 -42.501  1.00  0.00    -0.646 OA
HETATM   33  O6  UNL     1       8.111  14.581 -42.811  1.00  0.00    -0.646 OA
ENDBRANCH  26  31
ENDBRANCH  23  26
ENDBRANCH  21  22
ENDBRANCH   1  21
BRANCH   2  34
HETATM   34  O2  UNL     1       3.543  17.867 -40.097  1.00  0.00    -0.393 OA
ATOM     35  H2  UNL     1       4.058  17.908 -40.893  1.00  0.00     0.210 HD
ENDBRANCH   2  34
BRANCH   3  36
HETATM   36  O3  UNL     1       0.522  16.226 -39.243  1.00  0.00    -0.392 OA
ATOM     37  H3  UNL     1      -0.107  16.328 -38.539  1.00  0.00     0.210 HD
ENDBRANCH   3  36
BRANCH  19  38
HETATM   38  O4  UNL     1       3.417  12.883 -38.356  1.00  0.00    -0.389 OA
ATOM     39  H4  UNL     1       3.389  13.075 -39.286  1.00  0.00     0.210 HD
ENDBRANCH  19  38
TORSDOF 9
ENDMDL
MODEL 4
REMARK VINA RESULT: -8.509590121      1.835      2.616
REMARK  9 active torsions:
REMARK  status: ('A' for Active; 'I' for Inactive)
REMARK    1  A    between atoms: C2_2  and  C4_4 
REMARK    2  A    between atoms: C4_4  and  C5_5 
REMARK    3  A    between atoms: C5_5  and  N1_6 
REMARK    4  A    between atoms: C5_5  and  C27_37 
REMARK       I    between atoms: N1_6  and  C6_8 
REMARK    5  A    between atoms: C6_8  and  C7_10 
REMARK    6  A    between atoms: C7_10  and  C8_11 
REMARK    7  A    between atoms: C9_12  and  O2_13 
REMARK    8  A    between atoms: C10_15  and  O3_16 
REMARK    9  A    between atoms: C25_33  and  O4_34 
ROOT
HETATM    1  C8  UNL     1       2.682  16.209 -39.274  1.00  0.00     0.033 C 
HETATM    2  C9  UNL     1       1.718  17.375 -39.234  1.00  0.00     0.152 C 
HETATM    3  C10 UNL     1       0.720  17.040 -38.114  1.00  0.00     0.155 C 
HETATM    4  C11 UNL     1       1.681  16.311 -37.164  1.00  0.00    -0.009 C 
HETATM    5  C12 UNL     1       2.510  17.337 -36.511  1.00  0.00     0.018 C 
HETATM    6  C13 UNL     1       0.937  15.499 -36.138  1.00  0.00     0.013 C 
HETATM    7  C14 UNL     1       1.294  14.056 -36.123  1.00  0.00     0.009 C 
HETATM    8  C15 UNL     1       2.729  13.710 -36.346  1.00  0.00     0.025 C 
HETATM    9  C16 UNL     1       3.682  13.860 -35.234  1.00  0.00     0.003 C 
HETATM   10  C17 UNL     1       3.350  13.108 -33.970  1.00  0.00    -0.014 C 
HETATM   11  C18 UNL     1       2.445  13.838 -33.028  1.00  0.00     0.010 C 
HETATM   12  C19 UNL     1       2.958  11.688 -34.232  1.00  0.00     0.007 C 
HETATM   13  C20 UNL     1       4.194  10.988 -34.785  1.00  0.00     0.038 C 
HETATM   14  C21 UNL     1       4.886  11.736 -35.867  1.00  0.00     0.174 C 
HETATM   15  F1  UNL     1       6.207  11.252 -35.894  1.00  0.00    -0.249 F 
HETATM   16  C22 UNL     1       4.996  13.206 -35.704  1.00  0.00     0.024 C 
HETATM   17  C23 UNL     1       5.538  13.822 -36.952  1.00  0.00     0.011 C 
HETATM   18  C24 UNL     1       4.646  14.994 -37.329  1.00  0.00     0.039 C 
HETATM   19  C25 UNL     1       3.275  14.406 -37.578  1.00  0.00     0.067 C 
HETATM   20  C26 UNL     1       2.298  15.376 -38.121  1.00  0.00     0.038 C 
ENDROOT
BRANCH   1  21
HETATM   21  C7  UNL     1       2.388  15.500 -40.607  1.00  0.00     0.110 C 
BRANCH  21  22
HETATM   22  C6  UNL     1       3.658  15.267 -41.306  1.00  0.00     0.218 C 
HETATM   23  N1  UNL     1       4.137  16.229 -42.222  1.00  0.00    -0.346 N 
ATOM     24  H1  UNL     1       3.594  17.076 -42.387  1.00  0.00     0.163 HD
HETATM   25  O1  UNL     1       4.316  14.218 -41.086  1.00  0.00    -0.274 OA
BRANCH  23  26
HETATM   26  C5  UNL     1       5.420  16.033 -42.951  1.00  0.00     0.185 C 
BRANCH  26  27
HETATM   27  C4  UNL     1       5.045  15.471 -44.264  1.00  0.00     0.040 C 
BRANCH  27  28
HETATM   28  C2  UNL     1       5.727  14.268 -44.803  1.00  0.00    -0.020 C 
HETATM   29  C1  UNL     1       5.213  13.088 -43.931  1.00  0.00     0.009 C 
HETATM   30  C3  UNL     1       5.217  13.891 -46.204  1.00  0.00     0.009 C 
ENDBRANCH  27  28
ENDBRANCH  26  27
BRANCH  26  31
HETATM   31  C27 UNL     1       6.164  17.301 -42.936  1.00  0.00     0.196 C 
HETATM   32  O5  UNL     1       7.323  17.381 -43.486  1.00  0.00    -0.646 OA
HETATM   33  O6  UNL     1       5.721  18.481 -42.369  1.00  0.00    -0.646 OA
ENDBRANCH  26  31
ENDBRANCH  23  26
ENDBRANCH  21  22
ENDBRANCH   1  21
BRANCH   2  34
HETATM   34  O2  UNL     1       2.325  18.597 -38.994  1.00  0.00    -0.393 OA
ATOM     35  H2  UNL     1       1.840  19.341 -39.331  1.00  0.00     0.210 HD
ENDBRANCH   2  34
BRANCH   3  36
HETATM   36  O3  UNL     1      -0.161  16.104 -38.606  1.00  0.00    -0.392 OA
ATOM     37  H3  UNL     1      -1.031  16.343 -38.309  1.00  0.00     0.210 HD
ENDBRANCH   3  36
BRANCH  19  38
HETATM   38  O4  UNL     1       3.495  13.462 -38.617  1.00  0.00    -0.389 OA
ATOM     39  H4  UNL     1       2.681  13.026 -38.841  1.00  0.00     0.210 HD
ENDBRANCH  19  38
TORSDOF 9
ENDMDL
MODEL 5
REMARK VINA RESULT: -8.450118370      2.041      3.372
REMARK  9 active torsions:
REMARK  status: ('A' for Active; 'I' for Inactive)
REMARK    1  A    between atoms: C2_2  and  C4_4 
REMARK    2  A    between atoms: C4_4  and  C5_5 
REMARK    3  A    between atoms: C5_5  and  N1_6 
REMARK    4  A    between atoms: C5_5  and  C27_37 
REMARK       I    between atoms: N1_6  and  C6_8 
REMARK    5  A    between atoms: C6_8  and  C7_10 
REMARK    6  A    between atoms: C7_10  and  C8_11 
REMARK    7  A    between atoms: C9_12  and  O2_13 
REMARK    8  A    between atoms: C10_15  and  O3_16 
REMARK    9  A    between atoms: C25_33  and  O4_34 
ROOT
HETATM    1  C8  UNL     1       2.637  16.082 -39.444  1.00  0.00     0.033 C 
HETATM    2  C9  UNL     1       1.685  17.258 -39.441  1.00  0.00     0.152 C 
HETATM    3  C10 UNL     1       0.714  16.994 -38.279  1.00  0.00     0.155 C 
HETATM    4  C11 UNL     1       1.693  16.307 -37.317  1.00  0.00    -0.009 C 
HETATM    5  C12 UNL     1       2.549  17.357 -36.742  1.00  0.00     0.018 C 
HETATM    6  C13 UNL     1       0.970  15.558 -36.229  1.00  0.00     0.013 C 
HETATM    7  C14 UNL     1       1.314  14.115 -36.146  1.00  0.00     0.009 C 
HETATM    8  C15 UNL     1       2.740  13.743 -36.388  1.00  0.00     0.025 C 
HETATM    9  C16 UNL     1       3.723  13.941 -35.312  1.00  0.00     0.003 C 
HETATM   10  C17 UNL     1       3.419  13.262 -34.001  1.00  0.00    -0.014 C 
HETATM   11  C18 UNL     1       2.546  14.049 -33.076  1.00  0.00     0.010 C 
HETATM   12  C19 UNL     1       3.007  11.833 -34.176  1.00  0.00     0.007 C 
HETATM   13  C20 UNL     1       4.222  11.093 -34.723  1.00  0.00     0.038 C 
HETATM   14  C21 UNL     1       4.892  11.774 -35.862  1.00  0.00     0.174 C 
HETATM   15  F1  UNL     1       6.208  11.277 -35.897  1.00  0.00    -0.249 F 
HETATM   16  C22 UNL     1       5.019  13.250 -35.780  1.00  0.00     0.024 C 
HETATM   17  C23 UNL     1       5.533  13.794 -37.074  1.00  0.00     0.011 C 
HETATM   18  C24 UNL     1       4.641  14.953 -37.489  1.00  0.00     0.039 C 
HETATM   19  C25 UNL     1       3.259  14.367 -37.670  1.00  0.00     0.067 C 
HETATM   20  C26 UNL     1       2.277  15.316 -38.238  1.00  0.00     0.038 C 
ENDROOT
BRANCH   1  21
HETATM   21  C7  UNL     1       2.302  15.307 -40.729  1.00  0.00     0.110 C 
BRANCH  21  22
HETATM   22  C6  UNL     1       3.512  15.219 -41.554  1.00  0.00     0.218 C 
HETATM   23  N1  UNL     1       3.714  16.147 -42.599  1.00  0.00    -0.346 N 
ATOM     24  H1  UNL     1       3.014  16.869 -42.767  1.00  0.00     0.163 HD
HETATM   25  O1  UNL     1       4.366  14.322 -41.328  1.00  0.00    -0.274 OA
BRANCH  23  26
HETATM   26  C5  UNL     1       4.927  16.094 -43.459  1.00  0.00     0.185 C 
BRANCH  26  27
HETATM   27  C4  UNL     1       4.459  16.425 -44.820  1.00  0.00     0.040 C 
BRANCH  27  28
HETATM   28  C2  UNL     1       3.270  17.288 -45.030  1.00  0.00    -0.020 C 
HETATM   29  C1  UNL     1       3.838  18.633 -45.564  1.00  0.00     0.009 C 
HETATM   30  C3  UNL     1       2.404  16.806 -46.206  1.00  0.00     0.009 C 
ENDBRANCH  27  28
ENDBRANCH  26  27
BRANCH  26  31
HETATM   31  C27 UNL     1       5.961  16.952 -42.862  1.00  0.00     0.196 C 
HETATM   32  O5  UNL     1       7.172  16.535 -42.762  1.00  0.00    -0.646 OA
HETATM   33  O6  UNL     1       5.757  18.231 -42.380  1.00  0.00    -0.646 OA
ENDBRANCH  26  31
ENDBRANCH  23  26
ENDBRANCH  21  22
ENDBRANCH   1  21
BRANCH   2  34
HETATM   34  O2  UNL     1       2.308  18.486 -39.282  1.00  0.00    -0.393 OA
ATOM     35  H2  UNL     1       3.210  18.426 -38.991  1.00  0.00     0.210 HD
ENDBRANCH   2  34
BRANCH   3  36
HETATM   36  O3  UNL     1      -0.188  16.042 -38.697  1.00  0.00    -0.392 OA
ATOM     37  H3  UNL     1      -0.365  15.469 -37.960  1.00  0.00     0.210 HD
ENDBRANCH   3  36
BRANCH  19  38
HETATM   38  O4  UNL     1       3.443  13.366 -38.662  1.00  0.00    -0.389 OA
ATOM     39  H4  UNL     1       3.100  13.665 -39.496  1.00  0.00     0.210 HD
ENDBRANCH  19  38
TORSDOF 9
ENDMDL
