MODEL 1
REMARK VINA RESULT: -7.322348987      0.000      0.000
REMARK  10 active torsions:
REMARK  status: ('A' for Active; 'I' for Inactive)
REMARK    1  A    between atoms: C2_2  and  C3_4 
REMARK    2  A    between atoms: C7_8  and  O1_9 
REMARK    3  A    between atoms: C10_15  and  C11_16 
REMARK    4  A    between atoms: C11_16  and  O2_17 
REMARK    5  A    between atoms: C11_16  and  C12_19 
REMARK    6  A    between atoms: C12_19  and  O3_20 
REMARK    7  A    between atoms: C12_19  and  C13_22 
REMARK    8  A    between atoms: C13_22  and  C14_23 
REMARK    9  A    between atoms: C14_23  and  C15_25 
REMARK   10  A    between atoms: C15_25  and  O5_26 
ROOT
HETATM    1  C3  UNL     1       3.201  14.804 -36.572  1.00  0.00    -0.040 C 
HETATM    2  C4  UNL     1       3.573  16.075 -36.493  1.00  0.00    -0.006 C 
HETATM    3  C5  UNL     1       2.855  16.904 -37.491  1.00  0.00     0.005 C 
HETATM    4  C6  UNL     1       3.886  17.102 -38.618  1.00  0.00     0.022 C 
HETATM    5  C7  UNL     1       2.565  18.209 -36.835  1.00  0.00     0.132 C 
HETATM    6  C8  UNL     1       1.819  19.209 -37.664  1.00  0.00     0.057 C 
HETATM    7  C9  UNL     1       0.352  19.222 -37.441  1.00  0.00     0.084 C 
HETATM    8  N1  UNL     1      -0.184  20.548 -37.201  1.00  0.00    -0.410 N 
ATOM      9  H1  UNL     1      -0.401  20.882 -36.263  1.00  0.00     0.154 HD
HETATM   10  C10 UNL     1      -0.384  21.346 -38.345  1.00  0.00     0.108 C 
HETATM   11  C16 UNL     1       0.039  20.742 -39.642  1.00  0.00     0.032 C 
HETATM   12  C17 UNL     1      -0.321  19.292 -39.844  1.00  0.00    -0.011 C 
HETATM   13  C18 UNL     1       0.615  18.758 -40.859  1.00  0.00     0.010 C 
HETATM   14  C19 UNL     1      -0.459  18.554 -38.547  1.00  0.00     0.012 C 
HETATM   15  C20 UNL     1      -0.421  17.095 -38.592  1.00  0.00     0.012 C 
HETATM   16  C21 UNL     1       0.392  16.346 -37.569  1.00  0.00    -0.008 C 
HETATM   17  C22 UNL     1      -0.159  14.927 -37.559  1.00  0.00     0.006 C 
HETATM   18  C23 UNL     1       0.939  14.064 -37.039  1.00  0.00     0.010 C 
HETATM   19  C24 UNL     1       2.171  14.674 -37.615  1.00  0.00     0.025 C 
HETATM   20  C25 UNL     1       1.776  16.100 -38.024  1.00  0.00     0.012 C 
ENDROOT
BRANCH  10  21
HETATM   21  C11 UNL     1      -1.793  21.956 -38.458  1.00  0.00     0.169 C 
BRANCH  21  22
HETATM   22  O2  UNL     1      -1.631  23.278 -38.059  1.00  0.00    -0.391 OA
ATOM     23  H2  UNL     1      -2.463  23.510 -37.664  1.00  0.00     0.210 HD
ENDBRANCH  21  22
BRANCH  21  24
HETATM   24  C12 UNL     1      -2.770  21.271 -37.569  1.00  0.00     0.155 C 
BRANCH  24  25
HETATM   25  O3  UNL     1      -3.411  20.185 -38.167  1.00  0.00    -0.393 OA
ATOM     26  H3  UNL     1      -3.838  20.397 -38.989  1.00  0.00     0.210 HD
ENDBRANCH  24  25
BRANCH  24  27
HETATM   27  C13 UNL     1      -3.690  22.170 -36.830  1.00  0.00     0.115 C 
BRANCH  27  28
HETATM   28  C14 UNL     1      -3.790  21.967 -35.390  1.00  0.00     0.152 C 
HETATM   29  O4  UNL     1      -4.827  21.463 -34.949  1.00  0.00    -0.296 OA
BRANCH  28  30
HETATM   30  C15 UNL     1      -2.757  22.313 -34.412  1.00  0.00     0.242 C 
BRANCH  30  31
HETATM   31  O5  UNL     1      -1.612  21.537 -34.473  1.00  0.00    -0.394 OA
ATOM     32  H5  UNL     1      -1.432  21.028 -33.691  1.00  0.00     0.209 HD
ENDBRANCH  30  31
ENDBRANCH  28  30
ENDBRANCH  27  28
ENDBRANCH  24  27
ENDBRANCH  21  24
ENDBRANCH  10  21
BRANCH   5  33
HETATM   33  O1  UNL     1       2.038  18.068 -35.542  1.00  0.00    -0.394 OA
ATOM     34  H1  UNL     1       2.190  18.829 -34.995  1.00  0.00     0.210 HD
ENDBRANCH   5  33
BRANCH   1  35
HETATM   35  C2  UNL     1       3.720  13.760 -35.742  1.00  0.00     0.008 C 
HETATM   36  C1  UNL     1       4.702  12.977 -36.085  1.00  0.00     0.032 C 
HETATM   37 BR1  UNL     1       2.932  13.457 -34.016  1.00  0.00    -0.051 Br
ENDBRANCH   1  35
TORSDOF 10
ENDMDL
MODEL 2
REMARK VINA RESULT: -7.272000102      1.024      1.350
REMARK  10 active torsions:
REMARK  status: ('A' for Active; 'I' for Inactive)
REMARK    1  A    between atoms: C2_2  and  C3_4 
REMARK    2  A    between atoms: C7_8  and  O1_9 
REMARK    3  A    between atoms: C10_15  and  C11_16 
REMARK    4  A    between atoms: C11_16  and  O2_17 
REMARK    5  A    between atoms: C11_16  and  C12_19 
REMARK    6  A    between atoms: C12_19  and  O3_20 
REMARK    7  A    between atoms: C12_19  and  C13_22 
REMARK    8  A    between atoms: C13_22  and  C14_23 
REMARK    9  A    between atoms: C14_23  and  C15_25 
REMARK   10  A    between atoms: C15_25  and  O5_26 
ROOT
HETATM    1  C3  UNL     1       3.462  14.810 -37.306  1.00  0.00    -0.040 C 
HETATM    2  C4  UNL     1       3.912  16.058 -37.347  1.00  0.00    -0.006 C 
HETATM    3  C5  UNL     1       2.974  16.939 -38.083  1.00  0.00     0.005 C 
HETATM    4  C6  UNL     1       3.625  17.096 -39.470  1.00  0.00     0.022 C 
HETATM    5  C7  UNL     1       2.971  18.248 -37.374  1.00  0.00     0.132 C 
HETATM    6  C8  UNL     1       2.067  19.299 -37.942  1.00  0.00     0.057 C 
HETATM    7  C9  UNL     1       0.740  19.390 -37.285  1.00  0.00     0.084 C 
HETATM    8  N1  UNL     1       0.377  20.740 -36.898  1.00  0.00    -0.410 N 
ATOM      9  H1  UNL     1       0.473  21.072 -35.939  1.00  0.00     0.154 HD
HETATM   10  C10 UNL     1      -0.114  21.563 -37.930  1.00  0.00     0.108 C 
HETATM   11  C16 UNL     1      -0.139  20.956 -39.292  1.00  0.00     0.032 C 
HETATM   12  C17 UNL     1      -0.624  19.530 -39.372  1.00  0.00    -0.011 C 
HETATM   13  C18 UNL     1      -0.071  18.961 -40.620  1.00  0.00     0.010 C 
HETATM   14  C19 UNL     1      -0.405  18.783 -38.091  1.00  0.00     0.012 C 
HETATM   15  C20 UNL     1      -0.464  17.326 -38.140  1.00  0.00     0.012 C 
HETATM   16  C21 UNL     1       0.575  16.518 -37.409  1.00  0.00    -0.008 C 
HETATM   17  C22 UNL     1      -0.026  15.132 -37.229  1.00  0.00     0.006 C 
HETATM   18  C23 UNL     1       1.127  14.203 -37.063  1.00  0.00     0.010 C 
HETATM   19  C24 UNL     1       2.159  14.752 -37.987  1.00  0.00     0.025 C 
HETATM   20  C25 UNL     1       1.741  16.203 -38.262  1.00  0.00     0.012 C 
ENDROOT
BRANCH  10  21
HETATM   21  C11 UNL     1      -1.454  22.252 -37.613  1.00  0.00     0.169 C 
BRANCH  21  22
HETATM   22  O2  UNL     1      -1.948  22.639 -38.853  1.00  0.00    -0.391 OA
ATOM     23  H2  UNL     1      -2.831  22.290 -38.875  1.00  0.00     0.210 HD
ENDBRANCH  21  22
BRANCH  21  24
HETATM   24  C12 UNL     1      -1.275  23.445 -36.740  1.00  0.00     0.155 C 
BRANCH  24  25
HETATM   25  O3  UNL     1       0.008  23.561 -36.202  1.00  0.00    -0.393 OA
ATOM     26  H3  UNL     1       0.027  23.962 -35.340  1.00  0.00     0.210 HD
ENDBRANCH  24  25
BRANCH  24  27
HETATM   27  C13 UNL     1      -2.356  23.671 -35.751  1.00  0.00     0.115 C 
BRANCH  27  28
HETATM   28  C14 UNL     1      -2.685  22.556 -34.871  1.00  0.00     0.152 C 
HETATM   29  O4  UNL     1      -3.760  21.978 -35.050  1.00  0.00    -0.296 OA
BRANCH  28  30
HETATM   30  C15 UNL     1      -1.841  22.059 -33.783  1.00  0.00     0.242 C 
BRANCH  30  31
HETATM   31  O5  UNL     1      -0.781  21.263 -34.184  1.00  0.00    -0.394 OA
ATOM     32  H5  UNL     1       0.077  21.658 -34.082  1.00  0.00     0.209 HD
ENDBRANCH  30  31
ENDBRANCH  28  30
ENDBRANCH  27  28
ENDBRANCH  24  27
ENDBRANCH  21  24
ENDBRANCH  10  21
BRANCH   5  33
HETATM   33  O1  UNL     1       2.853  18.118 -35.982  1.00  0.00    -0.394 OA
ATOM     34  H1  UNL     1       3.195  17.294 -35.656  1.00  0.00     0.210 HD
ENDBRANCH   5  33
BRANCH   1  35
HETATM   35  C2  UNL     1       4.148  13.728 -36.669  1.00  0.00     0.008 C 
HETATM   36  C1  UNL     1       5.117  13.055 -37.219  1.00  0.00     0.032 C 
HETATM   37 BR1  UNL     1       3.622  13.198 -34.898  1.00  0.00    -0.051 Br
ENDBRANCH   1  35
TORSDOF 10
ENDMDL
MODEL 3
REMARK VINA RESULT: -7.241198895      3.226      5.282
REMARK  10 active torsions:
REMARK  status: ('A' for Active; 'I' for Inactive)
REMARK    1  A    between atoms: C2_2  and  C3_4 
REMARK    2  A    between atoms: C7_8  and  O1_9 
REMARK    3  A    between atoms: C10_15  and  C11_16 
REMARK    4  A    between atoms: C11_16  and  O2_17 
REMARK    5  A    between atoms: C11_16  and  C12_19 
REMARK    6  A    between atoms: C12_19  and  O3_20 
REMARK    7  A    between atoms: C12_19  and  C13_22 
REMARK    8  A    between atoms: C13_22  and  C14_23 
REMARK    9  A    between atoms: C14_23  and  C15_25 
REMARK   10  A    between atoms: C15_25  and  O5_26 
ROOT
HETATM    1  C3  UNL     1       3.523  12.933 -35.185  1.00  0.00    -0.040 C 
HETATM    2  C4  UNL     1       2.328  13.472 -34.974  1.00  0.00    -0.006 C 
HETATM    3  C5  UNL     1       2.295  14.884 -35.423  1.00  0.00     0.005 C 
HETATM    4  C6  UNL     1       2.432  15.690 -34.118  1.00  0.00     0.022 C 
HETATM    5  C7  UNL     1       0.950  15.112 -36.019  1.00  0.00     0.132 C 
HETATM    6  C8  UNL     1       0.696  16.485 -36.562  1.00  0.00     0.057 C 
HETATM    7  C9  UNL     1       0.929  16.623 -38.021  1.00  0.00     0.084 C 
HETATM    8  N1  UNL     1      -0.171  17.254 -38.724  1.00  0.00    -0.410 N 
ATOM      9  H1  UNL     1      -0.858  16.714 -39.250  1.00  0.00     0.154 HD
HETATM   10  C10 UNL     1      -0.232  18.658 -38.635  1.00  0.00     0.108 C 
HETATM   11  C16 UNL     1       0.807  19.302 -37.780  1.00  0.00     0.032 C 
HETATM   12  C17 UNL     1       2.208  18.765 -37.924  1.00  0.00    -0.011 C 
HETATM   13  C18 UNL     1       2.926  19.107 -36.677  1.00  0.00     0.010 C 
HETATM   14  C19 UNL     1       2.225  17.339 -38.387  1.00  0.00     0.012 C 
HETATM   15  C20 UNL     1       3.460  16.584 -38.203  1.00  0.00     0.012 C 
HETATM   16  C21 UNL     1       3.393  15.174 -37.680  1.00  0.00    -0.008 C 
HETATM   17  C22 UNL     1       4.711  14.521 -38.074  1.00  0.00     0.006 C 
HETATM   18  C23 UNL     1       4.915  13.399 -37.115  1.00  0.00     0.010 C 
HETATM   19  C24 UNL     1       4.390  13.934 -35.827  1.00  0.00     0.025 C 
HETATM   20  C25 UNL     1       3.489  15.118 -36.206  1.00  0.00     0.012 C 
ENDROOT
BRANCH  10  21
HETATM   21  C11 UNL     1      -0.350  19.379 -39.991  1.00  0.00     0.169 C 
BRANCH  21  22
HETATM   22  O2  UNL     1      -1.341  18.681 -40.670  1.00  0.00    -0.391 OA
ATOM     23  H2  UNL     1      -2.028  19.322 -40.813  1.00  0.00     0.210 HD
ENDBRANCH  21  22
BRANCH  21  24
HETATM   24  C12 UNL     1       0.924  19.334 -40.759  1.00  0.00     0.155 C 
BRANCH  24  25
HETATM   25  O3  UNL     1       1.361  20.584 -41.200  1.00  0.00    -0.393 OA
ATOM     26  H3  UNL     1       1.108  20.786 -42.093  1.00  0.00     0.210 HD
ENDBRANCH  24  25
BRANCH  24  27
HETATM   27  C13 UNL     1       0.997  18.279 -41.798  1.00  0.00     0.115 C 
BRANCH  27  28
HETATM   28  C14 UNL     1       2.323  17.771 -42.126  1.00  0.00     0.152 C 
HETATM   29  O4  UNL     1       3.121  18.544 -42.664  1.00  0.00    -0.296 OA
BRANCH  28  30
HETATM   30  C15 UNL     1       2.796  16.409 -41.870  1.00  0.00     0.242 C 
BRANCH  30  31
HETATM   31  O5  UNL     1       1.812  15.511 -41.492  1.00  0.00    -0.394 OA
ATOM     32  H5  UNL     1       1.079  15.445 -42.093  1.00  0.00     0.209 HD
ENDBRANCH  30  31
ENDBRANCH  28  30
ENDBRANCH  27  28
ENDBRANCH  24  27
ENDBRANCH  21  24
ENDBRANCH  10  21
BRANCH   5  33
HETATM   33  O1  UNL     1       0.562  14.093 -36.904  1.00  0.00    -0.394 OA
ATOM     34  H1  UNL     1       0.375  13.272 -36.464  1.00  0.00     0.210 HD
ENDBRANCH   5  33
BRANCH   1  35
HETATM   35  C2  UNL     1       3.867  11.584 -34.853  1.00  0.00     0.008 C 
HETATM   36  C1  UNL     1       3.102  10.785 -34.167  1.00  0.00     0.032 C 
HETATM   37 BR1  UNL     1       5.561  10.881 -35.424  1.00  0.00    -0.051 Br
ENDBRANCH   1  35
TORSDOF 10
ENDMDL
MODEL 4
REMARK VINA RESULT: -7.006278526      4.828      8.379
REMARK  10 active torsions:
REMARK  status: ('A' for Active; 'I' for Inactive)
REMARK    1  A    between atoms: C2_2  and  C3_4 
REMARK    2  A    between atoms: C7_8  and  O1_9 
REMARK    3  A    between atoms: C10_15  and  C11_16 
REMARK    4  A    between atoms: C11_16  and  O2_17 
REMARK    5  A    between atoms: C11_16  and  C12_19 
REMARK    6  A    between atoms: C12_19  and  O3_20 
REMARK    7  A    between atoms: C12_19  and  C13_22 
REMARK    8  A    between atoms: C13_22  and  C14_23 
REMARK    9  A    between atoms: C14_23  and  C15_25 
REMARK   10  A    between atoms: C15_25  and  O5_26 
ROOT
HETATM    1  C3  UNL     1       1.801  18.097 -43.284  1.00  0.00    -0.040 C 
HETATM    2  C4  UNL     1       2.528  17.044 -42.931  1.00  0.00    -0.006 C 
HETATM    3  C5  UNL     1       2.860  17.086 -41.487  1.00  0.00     0.005 C 
HETATM    4  C6  UNL     1       4.316  17.584 -41.455  1.00  0.00     0.022 C 
HETATM    5  C7  UNL     1       2.794  15.683 -40.991  1.00  0.00     0.132 C 
HETATM    6  C8  UNL     1       3.079  15.487 -39.534  1.00  0.00     0.057 C 
HETATM    7  C9  UNL     1       1.872  15.428 -38.673  1.00  0.00     0.084 C 
HETATM    8  N1  UNL     1       1.859  14.289 -37.775  1.00  0.00    -0.410 N 
ATOM      9  H1  UNL     1       1.315  13.449 -37.975  1.00  0.00     0.154 HD
HETATM   10  C10 UNL     1       2.642  14.415 -36.611  1.00  0.00     0.108 C 
HETATM   11  C16 UNL     1       3.428  15.677 -36.489  1.00  0.00     0.032 C 
HETATM   12  C17 UNL     1       2.707  16.944 -36.873  1.00  0.00    -0.011 C 
HETATM   13  C18 UNL     1       3.748  17.940 -37.211  1.00  0.00     0.010 C 
HETATM   14  C19 UNL     1       1.612  16.696 -37.866  1.00  0.00     0.012 C 
HETATM   15  C20 UNL     1       1.098  17.845 -38.606  1.00  0.00     0.012 C 
HETATM   16  C21 UNL     1       0.854  17.720 -40.087  1.00  0.00    -0.008 C 
HETATM   17  C22 UNL     1      -0.112  18.841 -40.444  1.00  0.00     0.006 C 
HETATM   18  C23 UNL     1       0.087  19.105 -41.897  1.00  0.00     0.010 C 
HETATM   19  C24 UNL     1       1.553  18.924 -42.093  1.00  0.00     0.025 C 
HETATM   20  C25 UNL     1       2.036  18.111 -40.884  1.00  0.00     0.012 C 
ENDROOT
BRANCH  10  21
HETATM   21  C11 UNL     1       1.893  14.105 -35.302  1.00  0.00     0.169 C 
BRANCH  21  22
HETATM   22  O2  UNL     1       2.126  15.215 -34.499  1.00  0.00    -0.391 OA
ATOM     23  H2  UNL     1       1.272  15.433 -34.143  1.00  0.00     0.210 HD
ENDBRANCH  21  22
BRANCH  21  24
HETATM   24  C12 UNL     1       2.412  12.877 -34.640  1.00  0.00     0.155 C 
BRANCH  24  25
HETATM   25  O3  UNL     1       1.670  12.481 -33.526  1.00  0.00    -0.393 OA
ATOM     26  H3  UNL     1       1.554  11.540 -33.458  1.00  0.00     0.210 HD
ENDBRANCH  24  25
BRANCH  24  27
HETATM   27  C13 UNL     1       3.878  12.854 -34.416  1.00  0.00     0.115 C 
BRANCH  27  28
HETATM   28  C14 UNL     1       4.619  11.764 -35.039  1.00  0.00     0.152 C 
HETATM   29  O4  UNL     1       4.392  10.615 -34.650  1.00  0.00    -0.296 OA
BRANCH  28  30
HETATM   30  C15 UNL     1       5.621  11.916 -36.096  1.00  0.00     0.242 C 
BRANCH  30  31
HETATM   31  O5  UNL     1       5.889  10.763 -36.815  1.00  0.00    -0.394 OA
ATOM     32  H5  UNL     1       5.151  10.174 -36.917  1.00  0.00     0.209 HD
ENDBRANCH  30  31
ENDBRANCH  28  30
ENDBRANCH  27  28
ENDBRANCH  24  27
ENDBRANCH  21  24
ENDBRANCH  10  21
BRANCH   5  33
HETATM   33  O1  UNL     1       1.643  15.003 -41.421  1.00  0.00    -0.394 OA
ATOM     34  H1  UNL     1       1.729  14.059 -41.366  1.00  0.00     0.210 HD
ENDBRANCH   5  33
BRANCH   1  35
HETATM   35  C2  UNL     1       1.330  18.340 -44.613  1.00  0.00     0.008 C 
HETATM   36  C1  UNL     1       1.349  17.453 -45.566  1.00  0.00     0.032 C 
HETATM   37 BR1  UNL     1       0.637  20.075 -45.059  1.00  0.00    -0.051 Br
ENDBRANCH   1  35
TORSDOF 10
ENDMDL
MODEL 5
REMARK VINA RESULT: -6.946711155      2.192      3.809
REMARK  10 active torsions:
REMARK  status: ('A' for Active; 'I' for Inactive)
REMARK    1  A    between atoms: C2_2  and  C3_4 
REMARK    2  A    between atoms: C7_8  and  O1_9 
REMARK    3  A    between atoms: C10_15  and  C11_16 
REMARK    4  A    between atoms: C11_16  and  O2_17 
REMARK    5  A    between atoms: C11_16  and  C12_19 
REMARK    6  A    between atoms: C12_19  and  O3_20 
REMARK    7  A    between atoms: C12_19  and  C13_22 
REMARK    8  A    between atoms: C13_22  and  C14_23 
REMARK    9  A    between atoms: C14_23  and  C15_25 
REMARK   10  A    between atoms: C15_25  and  O5_26 
ROOT
HETATM    1  C3  UNL     1       3.399  12.826 -35.012  1.00  0.00    -0.040 C 
HETATM    2  C4  UNL     1       2.213  13.414 -34.918  1.00  0.00    -0.006 C 
HETATM    3  C5  UNL     1       2.261  14.797 -35.449  1.00  0.00     0.005 C 
HETATM    4  C6  UNL     1       2.337  15.676 -34.186  1.00  0.00     0.022 C 
HETATM    5  C7  UNL     1       0.969  15.031 -36.151  1.00  0.00     0.132 C 
HETATM    6  C8  UNL     1       0.802  16.376 -36.789  1.00  0.00     0.057 C 
HETATM    7  C9  UNL     1       1.140  16.418 -38.233  1.00  0.00     0.084 C 
HETATM    8  N1  UNL     1       0.113  17.041 -39.048  1.00  0.00    -0.410 N 
ATOM      9  H1  UNL     1      -0.554  16.492 -39.589  1.00  0.00     0.154 HD
HETATM   10  C10 UNL     1       0.097  18.449 -39.045  1.00  0.00     0.108 C 
HETATM   11  C16 UNL     1       1.097  19.110 -38.157  1.00  0.00     0.032 C 
HETATM   12  C17 UNL     1       2.485  18.521 -38.171  1.00  0.00    -0.011 C 
HETATM   13  C18 UNL     1       3.127  18.914 -36.897  1.00  0.00     0.010 C 
HETATM   14  C19 UNL     1       2.483  17.071 -38.548  1.00  0.00     0.012 C 
HETATM   15  C20 UNL     1       3.675  16.289 -38.233  1.00  0.00     0.012 C 
HETATM   16  C21 UNL     1       3.521  14.915 -37.636  1.00  0.00    -0.008 C 
HETATM   17  C22 UNL     1       4.838  14.199 -37.897  1.00  0.00     0.006 C 
HETATM   18  C23 UNL     1       4.937  13.131 -36.863  1.00  0.00     0.010 C 
HETATM   19  C24 UNL     1       4.343  13.758 -35.648  1.00  0.00     0.025 C 
HETATM   20  C25 UNL     1       3.513  14.945 -36.158  1.00  0.00     0.012 C 
ENDROOT
BRANCH  10  21
HETATM   21  C11 UNL     1       0.098  19.090 -40.445  1.00  0.00     0.169 C 
BRANCH  21  22
HETATM   22  O2  UNL     1       1.350  19.683 -40.553  1.00  0.00    -0.391 OA
ATOM     23  H2  UNL     1       1.826  19.123 -41.156  1.00  0.00     0.210 HD
ENDBRANCH  21  22
BRANCH  21  24
HETATM   24  C12 UNL     1      -0.969  20.119 -40.587  1.00  0.00     0.155 C 
BRANCH  24  25
HETATM   25  O3  UNL     1      -1.221  20.490 -41.909  1.00  0.00    -0.393 OA
ATOM     26  H3  UNL     1      -0.470  20.868 -42.351  1.00  0.00     0.210 HD
ENDBRANCH  24  25
BRANCH  24  27
HETATM   27  C13 UNL     1      -0.864  21.269 -39.657  1.00  0.00     0.115 C 
BRANCH  27  28
HETATM   28  C14 UNL     1      -2.025  21.544 -38.820  1.00  0.00     0.152 C 
HETATM   29  O4  UNL     1      -2.724  22.519 -39.105  1.00  0.00    -0.296 OA
BRANCH  28  30
HETATM   30  C15 UNL     1      -2.436  20.755 -37.657  1.00  0.00     0.242 C 
BRANCH  30  31
HETATM   31  O5  UNL     1      -3.429  19.822 -37.906  1.00  0.00    -0.394 OA
ATOM     32  H5  UNL     1      -3.148  18.916 -37.856  1.00  0.00     0.209 HD
ENDBRANCH  30  31
ENDBRANCH  28  30
ENDBRANCH  27  28
ENDBRANCH  24  27
ENDBRANCH  21  24
ENDBRANCH  10  21
BRANCH   5  33
HETATM   33  O1  UNL     1       0.607  13.974 -37.000  1.00  0.00    -0.394 OA
ATOM     34  H1  UNL     1       0.686  13.122 -36.586  1.00  0.00     0.210 HD
ENDBRANCH   5  33
BRANCH   1  35
HETATM   35  C2  UNL     1       3.671  11.489 -34.579  1.00  0.00     0.008 C 
HETATM   36  C1  UNL     1       2.841  10.765 -33.886  1.00  0.00     0.032 C 
HETATM   37 BR1  UNL     1       5.363  10.689 -35.016  1.00  0.00    -0.051 Br
ENDBRANCH   1  35
TORSDOF 10
ENDMDL
