MODEL 1
REMARK VINA RESULT: -9.079838028      0.000      0.000
REMARK  10 active torsions:
REMARK  status: ('A' for Active; 'I' for Inactive)
REMARK    1  A    between atoms: C2_2  and  O2_4 
REMARK    2  A    between atoms: O2_4  and  C3_5 
REMARK    3  A    between atoms: C3_5  and  C4_6 
REMARK    4  A    between atoms: C4_6  and  C5_7 
REMARK    5  A    between atoms: C5_7  and  C6_8 
REMARK    6  A    between atoms: C6_8  and  C7_9 
REMARK    7  A    between atoms: C7_9  and  O3_10 
REMARK    8  A    between atoms: C8_12  and  C9_13 
REMARK    9  A    between atoms: C19_24  and  C20_25 
REMARK   10  A    between atoms: C27_37  and  O4_38 
ROOT
HETATM    1  C7  UNL     1       2.478  16.797 -37.843  1.00  0.00     0.085 C 
HETATM    2  C8  UNL     1       1.105  17.458 -37.835  1.00  0.00     0.042 C 
HETATM    3  C10 UNL     1       1.132  18.358 -39.068  1.00  0.00    -0.010 C 
HETATM    4  C11 UNL     1      -0.005  19.315 -39.129  1.00  0.00     0.010 C 
HETATM    5  C12 UNL     1       1.284  17.548 -40.337  1.00  0.00     0.013 C 
HETATM    6  C13 UNL     1       2.541  16.797 -40.249  1.00  0.00     0.040 C 
HETATM    7  C14 UNL     1       2.516  15.899 -38.998  1.00  0.00     0.033 C 
HETATM    8  C15 UNL     1       3.835  15.190 -39.259  1.00  0.00     0.022 C 
HETATM    9  C16 UNL     1       3.458  14.595 -40.633  1.00  0.00     0.068 C 
HETATM   10  C17 UNL     1       4.524  13.910 -41.301  1.00  0.00    -0.023 A 
HETATM   11  C18 UNL     1       4.605  12.635 -40.743  1.00  0.00     0.024 A 
HETATM   12  C19 UNL     1       5.508  11.674 -41.117  1.00  0.00     0.005 A 
HETATM   13  C21 UNL     1       6.405  11.952 -42.104  1.00  0.00     0.017 A 
HETATM   14  C22 UNL     1       6.387  13.191 -42.703  1.00  0.00     0.031 A 
HETATM   15  C23 UNL     1       5.470  14.142 -42.310  1.00  0.00     0.037 A 
HETATM   16  N3  UNL     1       5.669  15.327 -43.094  1.00  0.00    -0.375 N 
HETATM   17  C24 UNL     1       6.969  15.478 -43.643  1.00  0.00     0.150 C 
HETATM   18  C25 UNL     1       4.647  16.401 -43.379  1.00  0.00     0.206 C 
HETATM   19  C26 UNL     1       3.640  16.199 -42.390  1.00  0.00    -0.125 C 
HETATM   20  C27 UNL     1       2.784  15.787 -41.359  1.00  0.00     0.123 C 
ENDROOT
BRANCH   1  21
HETATM   21  C6  UNL     1       2.993  16.361 -36.532  1.00  0.00     0.011 C 
BRANCH  21  22
HETATM   22  C5  UNL     1       3.189  14.980 -36.214  1.00  0.00    -0.003 C 
BRANCH  22  23
HETATM   23  C4  UNL     1       3.143  14.333 -35.073  1.00  0.00    -0.001 C 
BRANCH  23  24
HETATM   24  C3  UNL     1       3.158  12.862 -34.989  1.00  0.00     0.206 C 
BRANCH  24  25
HETATM   25  O2  UNL     1       4.457  12.442 -34.646  1.00  0.00    -0.318 OA
BRANCH  25  26
HETATM   26  C2  UNL     1       5.132  11.533 -35.429  1.00  0.00     0.255 C 
HETATM   27  C1  UNL     1       5.528  12.053 -36.793  1.00  0.00     0.126 C 
HETATM   28  O1  UNL     1       5.406  10.376 -35.074  1.00  0.00    -0.266 OA
ENDBRANCH  25  26
ENDBRANCH  24  25
ENDBRANCH  23  24
ENDBRANCH  22  23
ENDBRANCH  21  22
ENDBRANCH   1  21
BRANCH   1  29
HETATM   29  O3  UNL     1       3.374  17.871 -38.186  1.00  0.00    -0.385 OA
ATOM     30  H3  UNL     1       3.018  18.179 -39.011  1.00  0.00     0.211 HD
ENDBRANCH   1  29
BRANCH   2  31
HETATM   31  C9  UNL     1      -0.016  16.503 -37.990  1.00  0.00     0.123 C 
HETATM   32 CL1  UNL     1       0.160  15.159 -36.836  1.00  0.00    -0.130 Cl
ENDBRANCH   2  31
BRANCH  20  33
HETATM   33  O4  UNL     1       1.464  15.407 -41.730  1.00  0.00    -0.377 OA
ATOM     34  H4  UNL     1       1.372  14.551 -41.327  1.00  0.00     0.211 HD
ENDBRANCH  20  33
BRANCH  12  35
HETATM   35  C20 UNL     1       5.534  10.358 -40.489  1.00  0.00     0.120 C 
HETATM   36  N1  UNL     1       4.535   9.929 -39.815  1.00  0.00    -0.387 N 
ATOM     37  H12 UNL     1       3.706  10.515 -39.716  1.00  0.00     0.157 HD
ATOM     38  H11 UNL     1       4.554   9.009 -39.376  1.00  0.00     0.157 HD
HETATM   39  N2  UNL     1       6.681   9.549 -40.626  1.00  0.00    -0.082 NA
ENDBRANCH  12  35
TORSDOF 10
ENDMDL
MODEL 2
REMARK VINA RESULT: -8.790373716      4.753      7.159
REMARK  10 active torsions:
REMARK  status: ('A' for Active; 'I' for Inactive)
REMARK    1  A    between atoms: C2_2  and  O2_4 
REMARK    2  A    between atoms: O2_4  and  C3_5 
REMARK    3  A    between atoms: C3_5  and  C4_6 
REMARK    4  A    between atoms: C4_6  and  C5_7 
REMARK    5  A    between atoms: C5_7  and  C6_8 
REMARK    6  A    between atoms: C6_8  and  C7_9 
REMARK    7  A    between atoms: C7_9  and  O3_10 
REMARK    8  A    between atoms: C8_12  and  C9_13 
REMARK    9  A    between atoms: C19_24  and  C20_25 
REMARK   10  A    between atoms: C27_37  and  O4_38 
ROOT
HETATM    1  C7  UNL     1      -0.243  22.441 -35.588  1.00  0.00     0.085 C 
HETATM    2  C8  UNL     1      -1.494  23.151 -35.090  1.00  0.00     0.042 C 
HETATM    3  C10 UNL     1      -2.018  23.870 -36.331  1.00  0.00    -0.010 C 
HETATM    4  C11 UNL     1      -3.094  24.854 -36.036  1.00  0.00     0.010 C 
HETATM    5  C12 UNL     1      -2.405  22.887 -37.414  1.00  0.00     0.013 C 
HETATM    6  C13 UNL     1      -1.214  22.105 -37.765  1.00  0.00     0.040 C 
HETATM    7  C14 UNL     1      -0.682  21.391 -36.509  1.00  0.00     0.033 C 
HETATM    8  C15 UNL     1       0.415  20.600 -37.204  1.00  0.00     0.022 C 
HETATM    9  C16 UNL     1      -0.500  19.837 -38.185  1.00  0.00     0.068 C 
HETATM   10  C17 UNL     1       0.194  19.023 -39.140  1.00  0.00    -0.023 A 
HETATM   11  C18 UNL     1       0.534  17.835 -38.494  1.00  0.00     0.024 A 
HETATM   12  C19 UNL     1       1.213  16.796 -39.078  1.00  0.00     0.005 A 
HETATM   13  C21 UNL     1       1.595  16.899 -40.381  1.00  0.00     0.017 A 
HETATM   14  C22 UNL     1       1.294  18.043 -41.084  1.00  0.00     0.031 A 
HETATM   15  C23 UNL     1       0.612  19.075 -40.477  1.00  0.00     0.037 A 
HETATM   16  N3  UNL     1       0.428  20.131 -41.431  1.00  0.00    -0.375 N 
HETATM   17  C24 UNL     1       1.364  20.153 -42.497  1.00  0.00     0.150 C 
HETATM   18  C25 UNL     1      -0.641  21.196 -41.402  1.00  0.00     0.206 C 
HETATM   19  C26 UNL     1      -1.124  21.173 -40.061  1.00  0.00    -0.125 C 
HETATM   20  C27 UNL     1      -1.447  20.942 -38.716  1.00  0.00     0.123 C 
ENDROOT
BRANCH   1  21
HETATM   21  C6  UNL     1       0.794  22.169 -34.576  1.00  0.00     0.011 C 
BRANCH  21  22
HETATM   22  C5  UNL     1       2.163  21.951 -34.928  1.00  0.00    -0.003 C 
BRANCH  22  23
HETATM   23  C4  UNL     1       3.181  21.502 -34.233  1.00  0.00    -0.001 C 
BRANCH  23  24
HETATM   24  C3  UNL     1       3.925  20.285 -34.603  1.00  0.00     0.206 C 
BRANCH  24  25
HETATM   25  O2  UNL     1       3.667  19.990 -35.955  1.00  0.00    -0.318 OA
BRANCH  25  26
HETATM   26  C2  UNL     1       3.377  18.705 -36.352  1.00  0.00     0.255 C 
HETATM   27  C1  UNL     1       2.373  17.991 -35.474  1.00  0.00     0.126 C 
HETATM   28  O1  UNL     1       3.878  18.151 -37.342  1.00  0.00    -0.266 OA
ENDBRANCH  25  26
ENDBRANCH  24  25
ENDBRANCH  23  24
ENDBRANCH  22  23
ENDBRANCH  21  22
ENDBRANCH   1  21
BRANCH   1  29
HETATM   29  O3  UNL     1       0.396  23.420 -36.430  1.00  0.00    -0.385 OA
ATOM     30  H3  UNL     1       1.310  23.169 -36.379  1.00  0.00     0.211 HD
ENDBRANCH   1  29
BRANCH   2  31
HETATM   31  C9  UNL     1      -2.552  22.229 -34.614  1.00  0.00     0.123 C 
HETATM   32 CL1  UNL     1      -2.156  21.629 -32.987  1.00  0.00    -0.130 Cl
ENDBRANCH   2  31
BRANCH  20  33
HETATM   33  O4  UNL     1      -2.789  20.568 -38.430  1.00  0.00    -0.377 OA
ATOM     34  H4  UNL     1      -3.178  20.508 -39.295  1.00  0.00     0.211 HD
ENDBRANCH  20  33
BRANCH  12  35
HETATM   35  C20 UNL     1       1.536  15.580 -38.340  1.00  0.00     0.120 C 
HETATM   36  N1  UNL     1       2.739  15.317 -37.997  1.00  0.00    -0.387 N 
ATOM     37  H12 UNL     1       3.486  15.966 -38.242  1.00  0.00     0.157 HD
ATOM     38  H11 UNL     1       2.964  14.466 -37.481  1.00  0.00     0.157 HD
HETATM   39  N2  UNL     1       0.502  14.682 -38.002  1.00  0.00    -0.082 NA
ENDBRANCH  12  35
TORSDOF 10
ENDMDL
MODEL 3
REMARK VINA RESULT: -8.500204750      5.657      8.384
REMARK  10 active torsions:
REMARK  status: ('A' for Active; 'I' for Inactive)
REMARK    1  A    between atoms: C2_2  and  O2_4 
REMARK    2  A    between atoms: O2_4  and  C3_5 
REMARK    3  A    between atoms: C3_5  and  C4_6 
REMARK    4  A    between atoms: C4_6  and  C5_7 
REMARK    5  A    between atoms: C5_7  and  C6_8 
REMARK    6  A    between atoms: C6_8  and  C7_9 
REMARK    7  A    between atoms: C7_9  and  O3_10 
REMARK    8  A    between atoms: C8_12  and  C9_13 
REMARK    9  A    between atoms: C19_24  and  C20_25 
REMARK   10  A    between atoms: C27_37  and  O4_38 
ROOT
HETATM    1  C7  UNL     1      -0.765  22.555 -36.300  1.00  0.00     0.085 C 
HETATM    2  C8  UNL     1      -2.140  23.190 -36.137  1.00  0.00     0.042 C 
HETATM    3  C10 UNL     1      -2.591  23.446 -37.573  1.00  0.00    -0.010 C 
HETATM    4  C11 UNL     1      -3.799  24.308 -37.671  1.00  0.00     0.010 C 
HETATM    5  C12 UNL     1      -2.731  22.152 -38.345  1.00  0.00     0.013 C 
HETATM    6  C13 UNL     1      -1.426  21.483 -38.351  1.00  0.00     0.040 C 
HETATM    7  C14 UNL     1      -0.969  21.236 -36.902  1.00  0.00     0.033 C 
HETATM    8  C15 UNL     1       0.285  20.447 -37.240  1.00  0.00     0.022 C 
HETATM    9  C16 UNL     1      -0.413  19.315 -38.023  1.00  0.00     0.068 C 
HETATM   10  C17 UNL     1       0.477  18.373 -38.634  1.00  0.00    -0.023 A 
HETATM   11  C18 UNL     1       0.871  17.477 -37.641  1.00  0.00     0.024 A 
HETATM   12  C19 UNL     1       1.728  16.424 -37.834  1.00  0.00     0.005 A 
HETATM   13  C21 UNL     1       2.249  16.209 -39.074  1.00  0.00     0.017 A 
HETATM   14  C22 UNL     1       1.906  17.052 -40.106  1.00  0.00     0.031 A 
HETATM   15  C23 UNL     1       1.043  18.104 -39.889  1.00  0.00     0.037 A 
HETATM   16  N3  UNL     1       0.856  18.810 -41.124  1.00  0.00    -0.375 N 
HETATM   17  C24 UNL     1       1.904  18.664 -42.069  1.00  0.00     0.150 C 
HETATM   18  C25 UNL     1      -0.324  19.675 -41.498  1.00  0.00     0.206 C 
HETATM   19  C26 UNL     1      -0.957  19.963 -40.253  1.00  0.00    -0.125 C 
HETATM   20  C27 UNL     1      -1.410  20.078 -38.932  1.00  0.00     0.123 C 
ENDROOT
BRANCH   1  21
HETATM   21  C6  UNL     1       0.167  22.733 -35.172  1.00  0.00     0.011 C 
BRANCH  21  22
HETATM   22  C5  UNL     1      -0.069  22.143 -33.890  1.00  0.00    -0.003 C 
BRANCH  22  23
HETATM   23  C4  UNL     1      -0.231  22.675 -32.702  1.00  0.00    -0.001 C 
BRANCH  23  24
HETATM   24  C3  UNL     1      -0.982  22.007 -31.624  1.00  0.00     0.206 C 
BRANCH  24  25
HETATM   25  O2  UNL     1      -1.793  22.960 -30.980  1.00  0.00    -0.318 OA
BRANCH  25  26
HETATM   26  C2  UNL     1      -1.243  24.101 -30.440  1.00  0.00     0.255 C 
HETATM   27  C1  UNL     1      -1.945  25.381 -30.834  1.00  0.00     0.126 C 
HETATM   28  O1  UNL     1      -0.256  24.111 -29.689  1.00  0.00    -0.266 OA
ENDBRANCH  25  26
ENDBRANCH  24  25
ENDBRANCH  23  24
ENDBRANCH  22  23
ENDBRANCH  21  22
ENDBRANCH   1  21
BRANCH   1  29
HETATM   29  O3  UNL     1      -0.147  23.338 -37.339  1.00  0.00    -0.385 OA
ATOM     30  H3  UNL     1       0.502  22.739 -37.687  1.00  0.00     0.211 HD
ENDBRANCH   1  29
BRANCH   2  31
HETATM   31  C9  UNL     1      -3.135  22.298 -35.498  1.00  0.00     0.123 C 
HETATM   32 CL1  UNL     1      -3.595  22.937 -33.902  1.00  0.00    -0.130 Cl
ENDBRANCH   2  31
BRANCH  20  33
HETATM   33  O4  UNL     1      -2.725  19.610 -38.657  1.00  0.00    -0.377 OA
ATOM     34  H4  UNL     1      -2.578  18.707 -38.404  1.00  0.00     0.211 HD
ENDBRANCH  20  33
BRANCH  12  35
HETATM   35  C20 UNL     1       2.097  15.526 -36.746  1.00  0.00     0.120 C 
HETATM   36  N1  UNL     1       1.432  15.505 -35.654  1.00  0.00    -0.387 N 
ATOM     37  H12 UNL     1       0.630  16.125 -35.541  1.00  0.00     0.157 HD
ATOM     38  H11 UNL     1       1.690  14.876 -34.894  1.00  0.00     0.157 HD
HETATM   39  N2  UNL     1       3.206  14.669 -36.903  1.00  0.00    -0.082 NA
ENDBRANCH  12  35
TORSDOF 10
ENDMDL
MODEL 4
REMARK VINA RESULT: -8.458878548      2.358      3.771
REMARK  10 active torsions:
REMARK  status: ('A' for Active; 'I' for Inactive)
REMARK    1  A    between atoms: C2_2  and  O2_4 
REMARK    2  A    between atoms: O2_4  and  C3_5 
REMARK    3  A    between atoms: C3_5  and  C4_6 
REMARK    4  A    between atoms: C4_6  and  C5_7 
REMARK    5  A    between atoms: C5_7  and  C6_8 
REMARK    6  A    between atoms: C6_8  and  C7_9 
REMARK    7  A    between atoms: C7_9  and  O3_10 
REMARK    8  A    between atoms: C8_12  and  C9_13 
REMARK    9  A    between atoms: C19_24  and  C20_25 
REMARK   10  A    between atoms: C27_37  and  O4_38 
ROOT
HETATM    1  C7  UNL     1       2.374  16.996 -38.008  1.00  0.00     0.085 C 
HETATM    2  C8  UNL     1       0.991  17.634 -38.003  1.00  0.00     0.042 C 
HETATM    3  C10 UNL     1       0.991  18.503 -39.259  1.00  0.00    -0.010 C 
HETATM    4  C11 UNL     1      -0.163  19.438 -39.332  1.00  0.00     0.010 C 
HETATM    5  C12 UNL     1       1.144  17.663 -40.508  1.00  0.00     0.013 C 
HETATM    6  C13 UNL     1       2.415  16.936 -40.415  1.00  0.00     0.040 C 
HETATM    7  C14 UNL     1       2.417  16.070 -39.141  1.00  0.00     0.033 C 
HETATM    8  C15 UNL     1       3.745  15.376 -39.397  1.00  0.00     0.022 C 
HETATM    9  C16 UNL     1       3.365  14.741 -40.752  1.00  0.00     0.068 C 
HETATM   10  C17 UNL     1       4.436  14.057 -41.414  1.00  0.00    -0.023 A 
HETATM   11  C18 UNL     1       4.543  12.798 -40.825  1.00  0.00     0.024 A 
HETATM   12  C19 UNL     1       5.460  11.843 -41.184  1.00  0.00     0.005 A 
HETATM   13  C21 UNL     1       6.342  12.111 -42.186  1.00  0.00     0.017 A 
HETATM   14  C22 UNL     1       6.297  13.334 -42.816  1.00  0.00     0.031 A 
HETATM   15  C23 UNL     1       5.368  14.279 -42.438  1.00  0.00     0.037 A 
HETATM   16  N3  UNL     1       5.539  15.447 -43.253  1.00  0.00    -0.375 N 
HETATM   17  C24 UNL     1       6.831  15.606 -43.819  1.00  0.00     0.150 C 
HETATM   18  C25 UNL     1       4.497  16.496 -43.554  1.00  0.00     0.206 C 
HETATM   19  C26 UNL     1       3.502  16.302 -42.551  1.00  0.00    -0.125 C 
HETATM   20  C27 UNL     1       2.664  15.902 -41.501  1.00  0.00     0.123 C 
ENDROOT
BRANCH   1  21
HETATM   21  C6  UNL     1       2.910  16.601 -36.693  1.00  0.00     0.011 C 
BRANCH  21  22
HETATM   22  C5  UNL     1       2.466  17.211 -35.477  1.00  0.00    -0.003 C 
BRANCH  22  23
HETATM   23  C4  UNL     1       2.609  18.429 -35.010  1.00  0.00    -0.001 C 
BRANCH  23  24
HETATM   24  C3  UNL     1       3.636  19.360 -35.511  1.00  0.00     0.206 C 
BRANCH  24  25
HETATM   25  O2  UNL     1       2.996  20.457 -36.118  1.00  0.00    -0.318 OA
BRANCH  25  26
HETATM   26  C2  UNL     1       2.343  21.399 -35.357  1.00  0.00     0.255 C 
HETATM   27  C1  UNL     1       0.908  21.647 -35.764  1.00  0.00     0.126 C 
HETATM   28  O1  UNL     1       2.860  22.011 -34.410  1.00  0.00    -0.266 OA
ENDBRANCH  25  26
ENDBRANCH  24  25
ENDBRANCH  23  24
ENDBRANCH  22  23
ENDBRANCH  21  22
ENDBRANCH   1  21
BRANCH   1  29
HETATM   29  O3  UNL     1       3.249  18.075 -38.387  1.00  0.00    -0.385 OA
ATOM     30  H3  UNL     1       3.701  17.717 -39.142  1.00  0.00     0.211 HD
ENDBRANCH   1  29
BRANCH   2  31
HETATM   31  C9  UNL     1      -0.115  16.656 -38.123  1.00  0.00     0.123 C 
HETATM   32 CL1  UNL     1       0.185  15.258 -37.063  1.00  0.00    -0.130 Cl
ENDBRANCH   2  31
BRANCH  20  33
HETATM   33  O4  UNL     1       1.347  15.491 -41.849  1.00  0.00    -0.377 OA
ATOM     34  H4  UNL     1       1.198  15.940 -42.673  1.00  0.00     0.211 HD
ENDBRANCH  20  33
BRANCH  12  35
HETATM   35  C20 UNL     1       5.514  10.544 -40.523  1.00  0.00     0.120 C 
HETATM   36  N1  UNL     1       4.519  10.104 -39.852  1.00  0.00    -0.387 N 
ATOM     37  H12 UNL     1       3.673  10.668 -39.777  1.00  0.00     0.157 HD
ATOM     38  H11 UNL     1       4.558   9.196 -39.389  1.00  0.00     0.157 HD
HETATM   39  N2  UNL     1       6.685   9.764 -40.627  1.00  0.00    -0.082 NA
ENDBRANCH  12  35
TORSDOF 10
ENDMDL
MODEL 5
REMARK VINA RESULT: -8.035862467      2.351      6.026
REMARK  10 active torsions:
REMARK  status: ('A' for Active; 'I' for Inactive)
REMARK    1  A    between atoms: C2_2  and  O2_4 
REMARK    2  A    between atoms: O2_4  and  C3_5 
REMARK    3  A    between atoms: C3_5  and  C4_6 
REMARK    4  A    between atoms: C4_6  and  C5_7 
REMARK    5  A    between atoms: C5_7  and  C6_8 
REMARK    6  A    between atoms: C6_8  and  C7_9 
REMARK    7  A    between atoms: C7_9  and  O3_10 
REMARK    8  A    between atoms: C8_12  and  C9_13 
REMARK    9  A    between atoms: C19_24  and  C20_25 
REMARK   10  A    between atoms: C27_37  and  O4_38 
ROOT
HETATM    1  C7  UNL     1       1.237  15.988 -37.459  1.00  0.00     0.085 C 
HETATM    2  C8  UNL     1       1.461  16.696 -36.129  1.00  0.00     0.042 C 
HETATM    3  C10 UNL     1       2.047  15.605 -35.236  1.00  0.00    -0.010 C 
HETATM    4  C11 UNL     1       2.104  15.983 -33.798  1.00  0.00     0.010 C 
HETATM    5  C12 UNL     1       3.377  15.115 -35.766  1.00  0.00     0.013 C 
HETATM    6  C13 UNL     1       3.160  14.582 -37.115  1.00  0.00     0.040 C 
HETATM    7  C14 UNL     1       2.558  15.680 -38.010  1.00  0.00     0.033 C 
HETATM    8  C15 UNL     1       2.581  14.888 -39.308  1.00  0.00     0.022 C 
HETATM    9  C16 UNL     1       4.102  14.627 -39.339  1.00  0.00     0.068 C 
HETATM   10  C17 UNL     1       4.540  13.774 -40.404  1.00  0.00    -0.023 A 
HETATM   11  C18 UNL     1       4.627  14.562 -41.550  1.00  0.00     0.024 A 
HETATM   12  C19 UNL     1       5.013  14.106 -42.785  1.00  0.00     0.005 A 
HETATM   13  C21 UNL     1       5.344  12.793 -42.935  1.00  0.00     0.017 A 
HETATM   14  C22 UNL     1       5.283  11.953 -41.848  1.00  0.00     0.031 A 
HETATM   15  C23 UNL     1       4.891  12.433 -40.616  1.00  0.00     0.037 A 
HETATM   16  N3  UNL     1       4.921  11.356 -39.669  1.00  0.00    -0.375 N 
HETATM   17  C24 UNL     1       4.801  10.056 -40.227  1.00  0.00     0.150 C 
HETATM   18  C25 UNL     1       5.063  11.476 -38.172  1.00  0.00     0.206 C 
HETATM   19  C26 UNL     1       4.739  12.837 -37.896  1.00  0.00    -0.125 C 
HETATM   20  C27 UNL     1       4.416  14.200 -37.882  1.00  0.00     0.123 C 
ENDROOT
BRANCH   1  21
HETATM   21  C6  UNL     1       0.174  16.544 -38.317  1.00  0.00     0.011 C 
BRANCH  21  22
HETATM   22  C5  UNL     1       0.450  17.495 -39.349  1.00  0.00    -0.003 C 
BRANCH  22  23
HETATM   23  C4  UNL     1      -0.320  18.363 -39.963  1.00  0.00    -0.001 C 
BRANCH  23  24
HETATM   24  C3  UNL     1      -0.374  19.787 -39.585  1.00  0.00     0.206 C 
BRANCH  24  25
HETATM   25  O2  UNL     1      -1.715  20.140 -39.344  1.00  0.00    -0.318 OA
BRANCH  25  26
HETATM   26  C2  UNL     1      -2.171  20.339 -38.061  1.00  0.00     0.255 C 
HETATM   27  C1  UNL     1      -1.334  21.296 -37.241  1.00  0.00     0.126 C 
HETATM   28  O1  UNL     1      -3.179  19.795 -37.587  1.00  0.00    -0.266 OA
ENDBRANCH  25  26
ENDBRANCH  24  25
ENDBRANCH  23  24
ENDBRANCH  22  23
ENDBRANCH  21  22
ENDBRANCH   1  21
BRANCH   1  29
HETATM   29  O3  UNL     1       0.693  14.710 -37.081  1.00  0.00    -0.385 OA
ATOM     30  H3  UNL     1       0.759  14.731 -36.134  1.00  0.00     0.211 HD
ENDBRANCH   1  29
BRANCH   2  31
HETATM   31  C9  UNL     1       2.441  17.803 -36.202  1.00  0.00     0.123 C 
HETATM   32 CL1  UNL     1       1.604  19.344 -36.506  1.00  0.00    -0.130 Cl
ENDBRANCH   2  31
BRANCH  20  33
HETATM   33  O4  UNL     1       5.390  15.089 -37.348  1.00  0.00    -0.377 OA
ATOM     34  H4  UNL     1       4.859  15.747 -36.915  1.00  0.00     0.211 HD
ENDBRANCH  20  33
BRANCH  12  35
HETATM   35  C20 UNL     1       5.081  14.990 -43.942  1.00  0.00     0.120 C 
HETATM   36  N1  UNL     1       4.201  15.897 -44.132  1.00  0.00    -0.387 N 
ATOM     37  H12 UNL     1       3.438  16.007 -43.463  1.00  0.00     0.157 HD
ATOM     38  H11 UNL     1       4.248  16.515 -44.942  1.00  0.00     0.157 HD
HETATM   39  N2  UNL     1       6.135  14.838 -44.867  1.00  0.00    -0.082 NA
ENDBRANCH  12  35
TORSDOF 10
ENDMDL
