MODEL 1
REMARK VINA RESULT: -6.382738798      0.000      0.000
REMARK  15 active torsions:
REMARK  status: ('A' for Active; 'I' for Inactive)
REMARK    1  A    between atoms: C3_4  and  S1_5 
REMARK    2  A    between atoms: S1_5  and  S2_6 
REMARK    3  A    between atoms: S2_6  and  C4_7 
REMARK    4  A    between atoms: C4_7  and  C5_8 
REMARK    5  A    between atoms: C5_8  and  N1_9 
REMARK    6  A    between atoms: N1_9  and  C6_11 
REMARK    7  A    between atoms: C6_11  and  O2_12 
REMARK    8  A    between atoms: C6_11  and  C7_14 
REMARK    9  A    between atoms: C8_17  and  C9_18 
REMARK   10  A    between atoms: C9_18  and  S3_20 
REMARK   11  A    between atoms: S3_20  and  N3_21 
REMARK   12  A    between atoms: N3_21  and  N4_22 
REMARK   13  A    between atoms: C12_31  and  O4_32 
REMARK   14  A    between atoms: C13_34  and  O5_35 
REMARK   15  A    between atoms: C14_37  and  N6_38 
ROOT
HETATM    1  N1  UNL     1      22.547  38.134 -22.051  1.00  0.00    -0.371 N 
ATOM      2  H1  UNL     1      22.064  37.591 -22.768  1.00  0.00     0.161 HD
ENDROOT
BRANCH   1   3
HETATM    3  C5  UNL     1      23.808  38.576 -22.390  1.00  0.00     0.069 C 
BRANCH   3   4
HETATM    4  C4  UNL     1      24.357  38.053 -23.706  1.00  0.00     0.130 C 
BRANCH   4   5
HETATM    5  S2  UNL     1      25.820  37.032 -23.372  1.00  0.00    -0.090 SA
BRANCH   5   6
HETATM    6  S1  UNL     1      25.320  34.962 -23.613  1.00  0.00    -0.062 SA
BRANCH   6   7
HETATM    7  C3  UNL     1      25.563  34.171 -21.985  1.00  0.00     0.225 C 
HETATM    8  O1  UNL     1      26.535  34.861 -21.313  1.00  0.00    -0.365 OA
HETATM    9  C2  UNL     1      26.748  34.519 -20.007  1.00  0.00     0.152 C 
HETATM   10  C1  UNL     1      27.642  33.307 -19.828  1.00  0.00     0.042 C 
HETATM   11  C14 UNL     1      25.493  34.423 -19.196  1.00  0.00     0.243 C 
HETATM   12  C13 UNL     1      24.559  33.455 -19.897  1.00  0.00     0.183 C 
HETATM   13  C12 UNL     1      24.250  34.039 -21.255  1.00  0.00     0.188 C 
BRANCH  11  14
HETATM   14  N6  UNL     1      24.839  35.693 -19.121  1.00  0.00    -0.070 N 
ATOM     15  H63 UNL     1      25.041  36.170 -18.242  1.00  0.00     0.274 HD
ATOM     16  H62 UNL     1      25.252  36.369 -19.763  1.00  0.00     0.274 HD
ATOM     17  H61 UNL     1      23.835  35.593 -19.272  1.00  0.00     0.274 HD
ENDBRANCH  11  14
BRANCH  12  18
HETATM   18  O5  UNL     1      23.448  33.130 -19.157  1.00  0.00    -0.391 OA
ATOM     19  H5  UNL     1      23.487  33.414 -18.251  1.00  0.00     0.210 HD
ENDBRANCH  12  18
BRANCH  13  20
HETATM   20  O4  UNL     1      23.549  35.230 -21.190  1.00  0.00    -0.389 OA
ATOM     21  H4  UNL     1      23.200  35.498 -22.032  1.00  0.00     0.210 HD
ENDBRANCH  13  20
ENDBRANCH   6   7
ENDBRANCH   5   6
ENDBRANCH   4   5
ENDBRANCH   3   4
ENDBRANCH   1   3
BRANCH   1  22
HETATM   22  C6  UNL     1      21.842  38.325 -20.865  1.00  0.00     0.267 C 
BRANCH  22  23
HETATM   23  O2  UNL     1      22.630  37.519 -19.911  1.00  0.00    -0.371 OA
ATOM     24  H2  UNL     1      22.568  38.041 -19.119  1.00  0.00     0.212 HD
ENDBRANCH  22  23
BRANCH  22  25
HETATM   25  C7  UNL     1      20.435  37.837 -20.749  1.00  0.00     0.073 C 
HETATM   26  N2  UNL     1      19.914  37.516 -22.061  1.00  0.00    -0.377 N 
HETATM   27  C8  UNL     1      18.577  37.065 -22.112  1.00  0.00     0.190 C 
ATOM     28  H2  UNL     1      20.482  37.611 -22.903  1.00  0.00     0.160 HD
HETATM   29  C10 UNL     1      17.737  38.019 -21.255  1.00  0.00     0.267 C 
HETATM   30  N5  UNL     1      18.168  37.733 -19.891  1.00  0.00    -0.054 N 
HETATM   31  C11 UNL     1      19.530  38.289 -19.716  1.00  0.00     0.307 C 
ATOM     32  H52 UNL     1      17.510  38.072 -19.190  1.00  0.00     0.279 HD
ATOM     33  H51 UNL     1      18.115  36.741 -19.660  1.00  0.00     0.279 HD
HETATM   34  S4  UNL     1      19.314  40.022 -19.367  1.00  0.00    -0.056 SA
BRANCH  27  35
HETATM   35  C9  UNL     1      18.331  35.685 -21.627  1.00  0.00     0.228 C 
HETATM   36  O3  UNL     1      17.378  35.297 -21.011  1.00  0.00    -0.282 OA
BRANCH  35  37
HETATM   37  S3  UNL     1      19.618  34.489 -22.017  1.00  0.00     0.039 SA
BRANCH  37  38
HETATM   38  N3  UNL     1      20.743  34.368 -20.670  1.00  0.00    -0.065 NA
BRANCH  38  39
HETATM   39  N4  UNL     1      20.849  33.036 -20.192  1.00  0.00    -0.337 N 
ATOM     40  H42 UNL     1      20.561  32.753 -19.255  1.00  0.00     0.173 HD
ATOM     41  H41 UNL     1      21.243  32.413 -20.897  1.00  0.00     0.173 HD
ENDBRANCH  38  39
ENDBRANCH  37  38
ENDBRANCH  35  37
ENDBRANCH  27  35
ENDBRANCH  22  25
ENDBRANCH   1  22
TORSDOF 15
ENDMDL
MODEL 2
REMARK VINA RESULT: -6.310522050      2.077      2.621
REMARK  15 active torsions:
REMARK  status: ('A' for Active; 'I' for Inactive)
REMARK    1  A    between atoms: C3_4  and  S1_5 
REMARK    2  A    between atoms: S1_5  and  S2_6 
REMARK    3  A    between atoms: S2_6  and  C4_7 
REMARK    4  A    between atoms: C4_7  and  C5_8 
REMARK    5  A    between atoms: C5_8  and  N1_9 
REMARK    6  A    between atoms: N1_9  and  C6_11 
REMARK    7  A    between atoms: C6_11  and  O2_12 
REMARK    8  A    between atoms: C6_11  and  C7_14 
REMARK    9  A    between atoms: C8_17  and  C9_18 
REMARK   10  A    between atoms: C9_18  and  S3_20 
REMARK   11  A    between atoms: S3_20  and  N3_21 
REMARK   12  A    between atoms: N3_21  and  N4_22 
REMARK   13  A    between atoms: C12_31  and  O4_32 
REMARK   14  A    between atoms: C13_34  and  O5_35 
REMARK   15  A    between atoms: C14_37  and  N6_38 
ROOT
HETATM    1  N1  UNL     1      23.440  36.801 -24.250  1.00  0.00    -0.371 N 
ATOM      2  H1  UNL     1      22.700  36.501 -24.885  1.00  0.00     0.161 HD
ENDROOT
BRANCH   1   3
HETATM    3  C5  UNL     1      24.272  37.789 -24.731  1.00  0.00     0.069 C 
BRANCH   3   4
HETATM    4  C4  UNL     1      25.716  37.380 -24.957  1.00  0.00     0.130 C 
BRANCH   4   5
HETATM    5  S2  UNL     1      26.773  38.262 -23.774  1.00  0.00    -0.090 SA
BRANCH   5   6
HETATM    6  S1  UNL     1      27.936  36.849 -22.659  1.00  0.00    -0.062 SA
BRANCH   6   7
HETATM    7  C3  UNL     1      26.757  35.856 -21.680  1.00  0.00     0.225 C 
HETATM    8  O1  UNL     1      27.360  34.672 -21.353  1.00  0.00    -0.365 OA
HETATM    9  C2  UNL     1      26.694  33.856 -20.481  1.00  0.00     0.152 C 
HETATM   10  C1  UNL     1      25.625  33.002 -21.136  1.00  0.00     0.042 C 
HETATM   11  C14 UNL     1      26.188  34.562 -19.261  1.00  0.00     0.243 C 
HETATM   12  C13 UNL     1      25.335  35.730 -19.720  1.00  0.00     0.183 C 
HETATM   13  C12 UNL     1      26.231  36.651 -20.512  1.00  0.00     0.188 C 
BRANCH  11  14
HETATM   14  N6  UNL     1      27.274  35.083 -18.489  1.00  0.00    -0.070 N 
ATOM     15  H63 UNL     1      27.186  36.089 -18.345  1.00  0.00     0.274 HD
ATOM     16  H62 UNL     1      27.223  34.783 -17.515  1.00  0.00     0.274 HD
ATOM     17  H61 UNL     1      28.169  34.840 -18.913  1.00  0.00     0.274 HD
ENDBRANCH  11  14
BRANCH  12  18
HETATM   18  O5  UNL     1      24.654  36.346 -18.698  1.00  0.00    -0.391 OA
ATOM     19  H5  UNL     1      24.218  35.748 -18.103  1.00  0.00     0.210 HD
ENDBRANCH  12  18
BRANCH  13  20
HETATM   20  O4  UNL     1      27.239  37.220 -19.752  1.00  0.00    -0.389 OA
ATOM     21  H4  UNL     1      26.973  38.032 -19.336  1.00  0.00     0.210 HD
ENDBRANCH  13  20
ENDBRANCH   6   7
ENDBRANCH   5   6
ENDBRANCH   4   5
ENDBRANCH   3   4
ENDBRANCH   1   3
BRANCH   1  22
HETATM   22  C6  UNL     1      23.471  36.154 -23.016  1.00  0.00     0.267 C 
BRANCH  22  23
HETATM   23  O2  UNL     1      23.770  34.763 -23.410  1.00  0.00    -0.371 OA
ATOM     24  H2  UNL     1      24.069  34.389 -22.590  1.00  0.00     0.212 HD
ENDBRANCH  22  23
BRANCH  22  25
HETATM   25  C7  UNL     1      22.235  36.087 -22.181  1.00  0.00     0.073 C 
HETATM   26  N2  UNL     1      21.079  35.869 -23.025  1.00  0.00    -0.377 N 
HETATM   27  C8  UNL     1      19.828  35.810 -22.372  1.00  0.00     0.190 C 
ATOM     28  H2  UNL     1      21.164  35.763 -24.036  1.00  0.00     0.160 HD
HETATM   29  C10 UNL     1      19.757  36.997 -21.405  1.00  0.00     0.267 C 
HETATM   30  N5  UNL     1      20.726  36.661 -20.369  1.00  0.00    -0.054 N 
HETATM   31  C11 UNL     1      22.083  36.820 -20.943  1.00  0.00     0.307 C 
ATOM     32  H52 UNL     1      20.594  37.202 -19.515  1.00  0.00     0.279 HD
ATOM     33  H51 UNL     1      20.573  35.735 -19.970  1.00  0.00     0.279 HD
HETATM   34  S4  UNL     1      22.461  38.557 -20.842  1.00  0.00    -0.056 SA
BRANCH  27  35
HETATM   35  C9  UNL     1      19.551  34.577 -21.596  1.00  0.00     0.228 C 
HETATM   36  O3  UNL     1      18.774  34.454 -20.691  1.00  0.00    -0.282 OA
BRANCH  35  37
HETATM   37  S3  UNL     1      20.497  33.126 -22.086  1.00  0.00     0.039 SA
BRANCH  37  38
HETATM   38  N3  UNL     1      22.016  33.082 -21.198  1.00  0.00    -0.065 NA
BRANCH  38  39
HETATM   39  N4  UNL     1      21.839  33.444 -19.838  1.00  0.00    -0.337 N 
ATOM     40  H42 UNL     1      21.049  33.131 -19.273  1.00  0.00     0.173 HD
ATOM     41  H41 UNL     1      22.592  34.048 -19.508  1.00  0.00     0.173 HD
ENDBRANCH  38  39
ENDBRANCH  37  38
ENDBRANCH  35  37
ENDBRANCH  27  35
ENDBRANCH  22  25
ENDBRANCH   1  22
TORSDOF 15
ENDMDL
MODEL 3
REMARK VINA RESULT: -6.283927461      2.174      2.803
REMARK  15 active torsions:
REMARK  status: ('A' for Active; 'I' for Inactive)
REMARK    1  A    between atoms: C3_4  and  S1_5 
REMARK    2  A    between atoms: S1_5  and  S2_6 
REMARK    3  A    between atoms: S2_6  and  C4_7 
REMARK    4  A    between atoms: C4_7  and  C5_8 
REMARK    5  A    between atoms: C5_8  and  N1_9 
REMARK    6  A    between atoms: N1_9  and  C6_11 
REMARK    7  A    between atoms: C6_11  and  O2_12 
REMARK    8  A    between atoms: C6_11  and  C7_14 
REMARK    9  A    between atoms: C8_17  and  C9_18 
REMARK   10  A    between atoms: C9_18  and  S3_20 
REMARK   11  A    between atoms: S3_20  and  N3_21 
REMARK   12  A    between atoms: N3_21  and  N4_22 
REMARK   13  A    between atoms: C12_31  and  O4_32 
REMARK   14  A    between atoms: C13_34  and  O5_35 
REMARK   15  A    between atoms: C14_37  and  N6_38 
ROOT
HETATM    1  N1  UNL     1      24.490  39.635 -22.985  1.00  0.00    -0.371 N 
ATOM      2  H1  UNL     1      24.852  39.379 -22.067  1.00  0.00     0.161 HD
ENDROOT
BRANCH   1   3
HETATM    3  C5  UNL     1      25.347  40.366 -23.780  1.00  0.00     0.069 C 
BRANCH   3   4
HETATM    4  C4  UNL     1      26.729  39.770 -23.978  1.00  0.00     0.130 C 
BRANCH   4   5
HETATM    5  S2  UNL     1      26.568  37.983 -24.253  1.00  0.00    -0.090 SA
BRANCH   5   6
HETATM    6  S1  UNL     1      27.715  36.926 -22.783  1.00  0.00    -0.062 SA
BRANCH   6   7
HETATM    7  C3  UNL     1      26.528  35.967 -21.781  1.00  0.00     0.225 C 
HETATM    8  O1  UNL     1      27.074  34.739 -21.524  1.00  0.00    -0.365 OA
HETATM    9  C2  UNL     1      26.404  33.932 -20.648  1.00  0.00     0.152 C 
HETATM   10  C1  UNL     1      25.257  33.165 -21.277  1.00  0.00     0.042 C 
HETATM   11  C14 UNL     1      25.999  34.621 -19.381  1.00  0.00     0.243 C 
HETATM   12  C13 UNL     1      25.196  35.852 -19.758  1.00  0.00     0.183 C 
HETATM   13  C12 UNL     1      26.106  36.749 -20.562  1.00  0.00     0.188 C 
BRANCH  11  14
HETATM   14  N6  UNL     1      27.149  35.051 -18.647  1.00  0.00    -0.070 N 
ATOM     15  H63 UNL     1      27.180  34.632 -17.717  1.00  0.00     0.274 HD
ATOM     16  H62 UNL     1      28.009  34.652 -19.025  1.00  0.00     0.274 HD
ATOM     17  H61 UNL     1      27.192  36.069 -18.604  1.00  0.00     0.274 HD
ENDBRANCH  11  14
BRANCH  12  18
HETATM   18  O5  UNL     1      24.601  36.469 -18.684  1.00  0.00    -0.391 OA
ATOM     19  H5  UNL     1      25.126  36.464 -17.892  1.00  0.00     0.210 HD
ENDBRANCH  12  18
BRANCH  13  20
HETATM   20  O4  UNL     1      27.180  37.231 -19.834  1.00  0.00    -0.389 OA
ATOM     21  H4  UNL     1      27.121  38.163 -19.664  1.00  0.00     0.210 HD
ENDBRANCH  13  20
ENDBRANCH   6   7
ENDBRANCH   5   6
ENDBRANCH   4   5
ENDBRANCH   3   4
ENDBRANCH   1   3
BRANCH   1  22
HETATM   22  C6  UNL     1      23.196  39.198 -23.264  1.00  0.00     0.267 C 
BRANCH  22  23
HETATM   23  O2  UNL     1      22.411  40.432 -23.071  1.00  0.00    -0.371 OA
ATOM     24  H2  UNL     1      21.526  40.129 -23.242  1.00  0.00     0.212 HD
ENDBRANCH  22  23
BRANCH  22  25
HETATM   25  C7  UNL     1      22.557  38.165 -22.395  1.00  0.00     0.073 C 
HETATM   26  N2  UNL     1      21.362  37.654 -23.033  1.00  0.00    -0.377 N 
HETATM   27  C8  UNL     1      20.633  36.682 -22.312  1.00  0.00     0.190 C 
ATOM     28  H2  UNL     1      21.064  37.977 -23.953  1.00  0.00     0.160 HD
HETATM   29  C10 UNL     1      20.477  37.196 -20.876  1.00  0.00     0.267 C 
HETATM   30  N5  UNL     1      21.827  37.119 -20.331  1.00  0.00    -0.054 N 
HETATM   31  C11 UNL     1      22.634  38.196 -20.951  1.00  0.00     0.307 C 
ATOM     32  H52 UNL     1      21.844  37.152 -19.312  1.00  0.00     0.279 HD
ATOM     33  H51 UNL     1      22.247  36.197 -20.445  1.00  0.00     0.279 HD
HETATM   34  S4  UNL     1      22.265  39.678 -20.036  1.00  0.00    -0.056 SA
BRANCH  27  35
HETATM   35  C9  UNL     1      21.232  35.328 -22.245  1.00  0.00     0.228 C 
HETATM   36  O3  UNL     1      22.394  35.048 -22.348  1.00  0.00    -0.282 OA
BRANCH  35  37
HETATM   37  S3  UNL     1      20.068  33.980 -21.979  1.00  0.00     0.039 SA
BRANCH  37  38
HETATM   38  N3  UNL     1      20.467  33.140 -20.486  1.00  0.00    -0.065 NA
BRANCH  38  39
HETATM   39  N4  UNL     1      21.660  33.641 -19.904  1.00  0.00    -0.337 N 
ATOM     40  H42 UNL     1      22.592  33.361 -20.209  1.00  0.00     0.173 HD
ATOM     41  H41 UNL     1      21.464  34.305 -19.155  1.00  0.00     0.173 HD
ENDBRANCH  38  39
ENDBRANCH  37  38
ENDBRANCH  35  37
ENDBRANCH  27  35
ENDBRANCH  22  25
ENDBRANCH   1  22
TORSDOF 15
ENDMDL
MODEL 4
REMARK VINA RESULT: -6.270200013      2.684      7.084
REMARK  15 active torsions:
REMARK  status: ('A' for Active; 'I' for Inactive)
REMARK    1  A    between atoms: C3_4  and  S1_5 
REMARK    2  A    between atoms: S1_5  and  S2_6 
REMARK    3  A    between atoms: S2_6  and  C4_7 
REMARK    4  A    between atoms: C4_7  and  C5_8 
REMARK    5  A    between atoms: C5_8  and  N1_9 
REMARK    6  A    between atoms: N1_9  and  C6_11 
REMARK    7  A    between atoms: C6_11  and  O2_12 
REMARK    8  A    between atoms: C6_11  and  C7_14 
REMARK    9  A    between atoms: C8_17  and  C9_18 
REMARK   10  A    between atoms: C9_18  and  S3_20 
REMARK   11  A    between atoms: S3_20  and  N3_21 
REMARK   12  A    between atoms: N3_21  and  N4_22 
REMARK   13  A    between atoms: C12_31  and  O4_32 
REMARK   14  A    between atoms: C13_34  and  O5_35 
REMARK   15  A    between atoms: C14_37  and  N6_38 
ROOT
HETATM    1  N1  UNL     1      20.932  35.116 -20.712  1.00  0.00    -0.371 N 
ATOM      2  H1  UNL     1      20.928  35.853 -20.007  1.00  0.00     0.161 HD
ENDROOT
BRANCH   1   3
HETATM    3  C5  UNL     1      19.740  34.926 -21.379  1.00  0.00     0.069 C 
BRANCH   3   4
HETATM    4  C4  UNL     1      19.505  35.831 -22.575  1.00  0.00     0.130 C 
BRANCH   4   5
HETATM    5  S2  UNL     1      18.141  36.967 -22.197  1.00  0.00    -0.090 SA
BRANCH   5   6
HETATM    6  S1  UNL     1      18.335  37.675 -20.183  1.00  0.00    -0.062 SA
BRANCH   6   7
HETATM    7  C3  UNL     1      19.261  39.247 -20.267  1.00  0.00     0.225 C 
HETATM    8  O1  UNL     1      19.181  39.859 -19.045  1.00  0.00    -0.365 OA
HETATM    9  C2  UNL     1      19.948  40.975 -18.859  1.00  0.00     0.152 C 
HETATM   10  C1  UNL     1      19.327  42.244 -19.410  1.00  0.00     0.042 C 
HETATM   11  C14 UNL     1      21.372  40.807 -19.288  1.00  0.00     0.243 C 
HETATM   12  C13 UNL     1      21.371  40.347 -20.734  1.00  0.00     0.183 C 
HETATM   13  C12 UNL     1      20.661  39.015 -20.777  1.00  0.00     0.188 C 
BRANCH  11  14
HETATM   14  N6  UNL     1      22.024  39.803 -18.506  1.00  0.00    -0.070 N 
ATOM     15  H63 UNL     1      22.618  40.213 -17.785  1.00  0.00     0.274 HD
ATOM     16  H62 UNL     1      21.366  39.310 -17.901  1.00  0.00     0.274 HD
ATOM     17  H61 UNL     1      22.544  39.159 -19.102  1.00  0.00     0.274 HD
ENDBRANCH  11  14
BRANCH  12  18
HETATM   18  O5  UNL     1      22.619  40.340 -21.309  1.00  0.00    -0.391 OA
ATOM     19  H5  UNL     1      22.667  39.865 -22.130  1.00  0.00     0.210 HD
ENDBRANCH  12  18
BRANCH  13  20
HETATM   20  O4  UNL     1      21.327  38.019 -20.085  1.00  0.00    -0.389 OA
ATOM     21  H4  UNL     1      21.370  37.201 -20.567  1.00  0.00     0.210 HD
ENDBRANCH  13  20
ENDBRANCH   6   7
ENDBRANCH   5   6
ENDBRANCH   4   5
ENDBRANCH   3   4
ENDBRANCH   1   3
BRANCH   1  22
HETATM   22  C6  UNL     1      22.140  34.440 -20.868  1.00  0.00     0.267 C 
BRANCH  22  23
HETATM   23  O2  UNL     1      22.254  33.721 -19.584  1.00  0.00    -0.371 OA
ATOM     24  H2  UNL     1      23.111  33.319 -19.661  1.00  0.00     0.212 HD
ENDBRANCH  22  23
BRANCH  22  25
HETATM   25  C7  UNL     1      23.410  35.212 -21.020  1.00  0.00     0.073 C 
HETATM   26  N2  UNL     1      23.578  36.111 -19.898  1.00  0.00    -0.377 N 
HETATM   27  C8  UNL     1      24.729  36.930 -19.917  1.00  0.00     0.190 C 
ATOM     28  H2  UNL     1      22.903  36.151 -19.135  1.00  0.00     0.160 HD
HETATM   29  C10 UNL     1      24.828  37.551 -21.315  1.00  0.00     0.267 C 
HETATM   30  N5  UNL     1      25.167  36.423 -22.174  1.00  0.00    -0.054 N 
HETATM   31  C11 UNL     1      23.963  35.571 -22.307  1.00  0.00     0.307 C 
ATOM     32  H52 UNL     1      25.546  36.713 -23.075  1.00  0.00     0.279 HD
ATOM     33  H51 UNL     1      25.982  35.906 -21.843  1.00  0.00     0.279 HD
HETATM   34  S4  UNL     1      22.959  36.328 -23.568  1.00  0.00    -0.056 SA
BRANCH  27  35
HETATM   35  C9  UNL     1      26.018  36.256 -19.629  1.00  0.00     0.228 C 
HETATM   36  O3  UNL     1      27.102  36.572 -20.033  1.00  0.00    -0.282 OA
BRANCH  35  37
HETATM   37  S3  UNL     1      25.914  34.814 -18.557  1.00  0.00     0.039 SA
BRANCH  37  38
HETATM   38  N3  UNL     1      27.529  34.187 -18.250  1.00  0.00    -0.065 NA
BRANCH  38  39
HETATM   39  N4  UNL     1      28.120  33.660 -19.427  1.00  0.00    -0.337 N 
ATOM     40  H42 UNL     1      28.075  34.126 -20.333  1.00  0.00     0.173 HD
ATOM     41  H41 UNL     1      28.585  32.770 -19.249  1.00  0.00     0.173 HD
ENDBRANCH  38  39
ENDBRANCH  37  38
ENDBRANCH  35  37
ENDBRANCH  27  35
ENDBRANCH  22  25
ENDBRANCH   1  22
TORSDOF 15
ENDMDL
MODEL 5
REMARK VINA RESULT: -6.263503295      2.346      6.956
REMARK  15 active torsions:
REMARK  status: ('A' for Active; 'I' for Inactive)
REMARK    1  A    between atoms: C3_4  and  S1_5 
REMARK    2  A    between atoms: S1_5  and  S2_6 
REMARK    3  A    between atoms: S2_6  and  C4_7 
REMARK    4  A    between atoms: C4_7  and  C5_8 
REMARK    5  A    between atoms: C5_8  and  N1_9 
REMARK    6  A    between atoms: N1_9  and  C6_11 
REMARK    7  A    between atoms: C6_11  and  O2_12 
REMARK    8  A    between atoms: C6_11  and  C7_14 
REMARK    9  A    between atoms: C8_17  and  C9_18 
REMARK   10  A    between atoms: C9_18  and  S3_20 
REMARK   11  A    between atoms: S3_20  and  N3_21 
REMARK   12  A    between atoms: N3_21  and  N4_22 
REMARK   13  A    between atoms: C12_31  and  O4_32 
REMARK   14  A    between atoms: C13_34  and  O5_35 
REMARK   15  A    between atoms: C14_37  and  N6_38 
ROOT
HETATM    1  N1  UNL     1      21.835  34.117 -21.297  1.00  0.00    -0.371 N 
ATOM      2  H1  UNL     1      21.839  34.482 -20.344  1.00  0.00     0.161 HD
ENDROOT
BRANCH   1   3
HETATM    3  C5  UNL     1      20.630  33.614 -21.737  1.00  0.00     0.069 C 
BRANCH   3   4
HETATM    4  C4  UNL     1      19.413  34.475 -21.447  1.00  0.00     0.130 C 
BRANCH   4   5
HETATM    5  S2  UNL     1      19.031  35.470 -22.916  1.00  0.00    -0.090 SA
BRANCH   5   6
HETATM    6  S1  UNL     1      20.617  36.867 -23.268  1.00  0.00    -0.062 SA
BRANCH   6   7
HETATM    7  C3  UNL     1      20.356  38.259 -22.116  1.00  0.00     0.225 C 
HETATM    8  O1  UNL     1      19.056  38.225 -21.688  1.00  0.00    -0.365 OA
HETATM    9  C2  UNL     1      18.708  39.094 -20.692  1.00  0.00     0.152 C 
HETATM   10  C1  UNL     1      18.393  40.494 -21.181  1.00  0.00     0.042 C 
HETATM   11  C14 UNL     1      19.659  39.097 -19.535  1.00  0.00     0.243 C 
HETATM   12  C13 UNL     1      21.049  39.373 -20.076  1.00  0.00     0.183 C 
HETATM   13  C12 UNL     1      21.391  38.245 -21.019  1.00  0.00     0.188 C 
BRANCH  11  14
HETATM   14  N6  UNL     1      19.680  37.820 -18.891  1.00  0.00    -0.070 N 
ATOM     15  H63 UNL     1      19.396  37.073 -19.526  1.00  0.00     0.274 HD
ATOM     16  H62 UNL     1      20.633  37.508 -18.703  1.00  0.00     0.274 HD
ATOM     17  H61 UNL     1      19.112  37.831 -18.044  1.00  0.00     0.274 HD
ENDBRANCH  11  14
BRANCH  12  18
HETATM   18  O5  UNL     1      21.986  39.593 -19.096  1.00  0.00    -0.391 OA
ATOM     19  H5  UNL     1      21.620  39.726 -18.229  1.00  0.00     0.210 HD
ENDBRANCH  12  18
BRANCH  13  20
HETATM   20  O4  UNL     1      21.490  37.017 -20.389  1.00  0.00    -0.389 OA
ATOM     21  H4  UNL     1      20.880  36.923 -19.667  1.00  0.00     0.210 HD
ENDBRANCH  13  20
ENDBRANCH   6   7
ENDBRANCH   5   6
ENDBRANCH   4   5
ENDBRANCH   3   4
ENDBRANCH   1   3
BRANCH   1  22
HETATM   22  C6  UNL     1      23.051  34.195 -21.974  1.00  0.00     0.267 C 
BRANCH  22  23
HETATM   23  O2  UNL     1      23.437  32.774 -22.069  1.00  0.00    -0.371 OA
ATOM     24  H2  UNL     1      24.039  32.686 -21.339  1.00  0.00     0.212 HD
ENDBRANCH  22  23
BRANCH  22  25
HETATM   25  C7  UNL     1      24.210  34.894 -21.344  1.00  0.00     0.073 C 
HETATM   26  N2  UNL     1      23.933  35.148 -19.946  1.00  0.00    -0.377 N 
HETATM   27  C8  UNL     1      24.935  35.831 -19.221  1.00  0.00     0.190 C 
ATOM     28  H2  UNL     1      23.062  34.849 -19.507  1.00  0.00     0.160 HD
HETATM   29  C10 UNL     1      25.371  37.035 -20.063  1.00  0.00     0.267 C 
HETATM   30  N5  UNL     1      26.078  36.435 -21.189  1.00  0.00    -0.054 N 
HETATM   31  C11 UNL     1      25.074  35.797 -22.072  1.00  0.00     0.307 C 
ATOM     32  H52 UNL     1      26.671  37.101 -21.683  1.00  0.00     0.279 HD
ATOM     33  H51 UNL     1      26.812  35.790 -20.896  1.00  0.00     0.279 HD
HETATM   34  S4  UNL     1      24.409  37.101 -23.085  1.00  0.00    -0.056 SA
BRANCH  27  35
HETATM   35  C9  UNL     1      26.150  35.049 -18.886  1.00  0.00     0.228 C 
HETATM   36  O3  UNL     1      27.183  35.474 -18.449  1.00  0.00    -0.282 OA
BRANCH  35  37
HETATM   37  S3  UNL     1      26.032  33.276 -19.175  1.00  0.00     0.039 SA
BRANCH  37  38
HETATM   38  N3  UNL     1      27.073  32.825 -20.520  1.00  0.00    -0.065 NA
BRANCH  38  39
HETATM   39  N4  UNL     1      28.270  33.586 -20.535  1.00  0.00    -0.337 N 
ATOM     40  H42 UNL     1      28.337  34.532 -20.157  1.00  0.00     0.173 HD
ATOM     41  H41 UNL     1      29.038  33.072 -20.965  1.00  0.00     0.173 HD
ENDBRANCH  38  39
ENDBRANCH  37  38
ENDBRANCH  35  37
ENDBRANCH  27  35
ENDBRANCH  22  25
ENDBRANCH   1  22
TORSDOF 15
ENDMDL
