MODEL 1
REMARK VINA RESULT: -7.500019152      0.000      0.000
REMARK  16 active torsions:
REMARK  status: ('A' for Active; 'I' for Inactive)
REMARK    1  A    between atoms: C1_2  and  S1_21 
REMARK    2  A    between atoms: N2_3  and  C2_5 
REMARK    3  A    between atoms: C2_5  and  C3_6 
REMARK    4  A    between atoms: C3_6  and  C4_7 
REMARK    5  A    between atoms: C5_8  and  O1_9 
REMARK    6  A    between atoms: C7_14  and  C8_15 
REMARK    7  A    between atoms: C8_15  and  O4_16 
REMARK    8  A    between atoms: C9_18  and  O5_19 
REMARK    9  A    between atoms: S1_21  and  S2_22 
REMARK   10  A    between atoms: S2_22  and  C10_23 
REMARK   11  A    between atoms: C11_27  and  N4_28 
REMARK   12  A    between atoms: C12_35  and  C13_36 
REMARK   13  A    between atoms: C13_36  and  O6_37 
REMARK   14  A    between atoms: C14_42  and  C15_43 
REMARK   15  A    between atoms: C15_43  and  O7_44 
REMARK   16  A    between atoms: C15_43  and  O8_46 
ROOT
HETATM    1  C10 UNL     1      26.215  37.009 -21.939  1.00  0.00     0.298 C 
HETATM    2  N3  UNL     1      26.454  38.118 -22.835  1.00  0.00    -0.005 N 
ATOM      3  H31 UNL     1      27.112  37.849 -23.566  1.00  0.00     0.283 HD
ATOM      4  H32 UNL     1      26.998  38.842 -22.367  1.00  0.00     0.283 HD
HETATM    5  C11 UNL     1      25.268  38.678 -23.410  1.00  0.00     0.581 C 
HETATM    6  N5  UNL     1      24.433  39.419 -22.527  1.00  0.00     0.010 N 
ATOM      7  H51 UNL     1      24.035  40.230 -23.002  1.00  0.00     0.284 HD
ATOM      8  H52 UNL     1      24.991  39.893 -21.817  1.00  0.00     0.284 HD
HETATM    9  C12 UNL     1      23.390  38.630 -21.910  1.00  0.00     0.411 C 
HETATM   10  N6  UNL     1      23.889  37.373 -21.404  1.00  0.00    -0.032 N 
ATOM     11  H61 UNL     1      23.821  36.642 -22.113  1.00  0.00     0.280 HD
ATOM     12  H62 UNL     1      23.258  36.984 -20.704  1.00  0.00     0.280 HD
HETATM   13  C14 UNL     1      25.230  37.468 -20.891  1.00  0.00     0.284 C 
ENDROOT
BRANCH   1  14
HETATM   14  S2  UNL     1      25.666  35.510 -22.795  1.00  0.00    -0.054 SA
BRANCH  14  15
HETATM   15  S1  UNL     1      26.543  33.775 -21.990  1.00  0.00    -0.023 SA
BRANCH  15  16
HETATM   16  C1  UNL     1      26.002  33.401 -20.341  1.00  0.00     0.160 C 
HETATM   17  N1  UNL     1      26.925  33.320 -19.270  1.00  0.00    -0.074 NA
HETATM   18  N2  UNL     1      24.762  33.189 -20.044  1.00  0.00    -0.372 N 
ATOM     19  H2  UNL     1      24.522  32.979 -19.074  1.00  0.00     0.161 HD
BRANCH  18  20
HETATM   20  C2  UNL     1      23.711  33.236 -21.015  1.00  0.00     0.126 C 
BRANCH  20  21
HETATM   21  C3  UNL     1      22.372  33.182 -20.363  1.00  0.00     0.066 C 
BRANCH  21  22
HETATM   22  C4  UNL     1      21.289  33.898 -21.061  1.00  0.00     0.036 A 
HETATM   23  C5  UNL     1      20.487  33.250 -21.969  1.00  0.00     0.195 A 
HETATM   24  O2  UNL     1      19.521  33.888 -22.624  1.00  0.00    -0.251 OA
HETATM   25  C6  UNL     1      19.264  35.158 -22.459  1.00  0.00     0.301 A 
HETATM   26  O3  UNL     1      18.338  35.747 -23.095  1.00  0.00    -0.259 OA
HETATM   27  C7  UNL     1      20.004  35.907 -21.575  1.00  0.00     0.074 A 
HETATM   28  C9  UNL     1      21.021  35.256 -20.878  1.00  0.00     0.091 A 
BRANCH  23  29
HETATM   29  O1  UNL     1      20.601  31.894 -22.280  1.00  0.00    -0.340 OA
ATOM     30  H1  UNL     1      20.270  31.194 -21.730  1.00  0.00     0.220 HD
ENDBRANCH  23  29
BRANCH  27  31
HETATM   31  C8  UNL     1      19.719  37.353 -21.380  1.00  0.00     0.212 C 
BRANCH  31  32
HETATM   32  O4  UNL     1      19.892  38.050 -22.552  1.00  0.00    -0.396 OA
ATOM     33  H4  UNL     1      19.206  38.697 -22.667  1.00  0.00     0.209 HD
ENDBRANCH  31  32
ENDBRANCH  27  31
BRANCH  28  34
HETATM   34  O5  UNL     1      21.757  35.996 -20.002  1.00  0.00    -0.359 OA
ATOM     35  H5  UNL     1      21.385  36.766 -19.588  1.00  0.00     0.217 HD
ENDBRANCH  28  34
ENDBRANCH  21  22
ENDBRANCH  20  21
ENDBRANCH  18  20
ENDBRANCH  15  16
ENDBRANCH  14  15
ENDBRANCH   1  14
BRANCH  13  36
HETATM   36  C15 UNL     1      25.378  36.531 -19.694  1.00  0.00     0.287 C 
BRANCH  36  37
HETATM   37  O7  UNL     1      24.496  36.955 -18.709  1.00  0.00    -0.369 OA
ATOM     38  H7  UNL     1      24.993  37.091 -17.910  1.00  0.00     0.212 HD
ENDBRANCH  36  37
BRANCH  36  39
HETATM   39  O8  UNL     1      26.668  36.643 -19.164  1.00  0.00    -0.369 OA
ATOM     40  H8  UNL     1      26.718  36.169 -18.342  1.00  0.00     0.212 HD
ENDBRANCH  36  39
ENDBRANCH  13  36
BRANCH   5  41
HETATM   41  N4  UNL     1      25.711  39.611 -24.460  1.00  0.00    -0.026 N 
ATOM     42  H43 UNL     1      26.725  39.647 -24.566  1.00  0.00     0.278 HD
ATOM     43  H42 UNL     1      25.496  39.289 -25.404  1.00  0.00     0.278 HD
ATOM     44  H41 UNL     1      25.297  40.517 -24.239  1.00  0.00     0.278 HD
ENDBRANCH   5  41
BRANCH   9  45
HETATM   45  C13 UNL     1      22.694  39.467 -20.887  1.00  0.00     0.226 C 
BRANCH  45  46
HETATM   46  O6  UNL     1      22.464  38.764 -19.692  1.00  0.00    -0.397 OA
ATOM     47  H6  UNL     1      23.123  38.950 -19.034  1.00  0.00     0.209 HD
ENDBRANCH  45  46
ENDBRANCH   9  45
TORSDOF 16
ENDMDL
MODEL 2
REMARK VINA RESULT: -7.489131741      3.092      5.705
REMARK  16 active torsions:
REMARK  status: ('A' for Active; 'I' for Inactive)
REMARK    1  A    between atoms: C1_2  and  S1_21 
REMARK    2  A    between atoms: N2_3  and  C2_5 
REMARK    3  A    between atoms: C2_5  and  C3_6 
REMARK    4  A    between atoms: C3_6  and  C4_7 
REMARK    5  A    between atoms: C5_8  and  O1_9 
REMARK    6  A    between atoms: C7_14  and  C8_15 
REMARK    7  A    between atoms: C8_15  and  O4_16 
REMARK    8  A    between atoms: C9_18  and  O5_19 
REMARK    9  A    between atoms: S1_21  and  S2_22 
REMARK   10  A    between atoms: S2_22  and  C10_23 
REMARK   11  A    between atoms: C11_27  and  N4_28 
REMARK   12  A    between atoms: C12_35  and  C13_36 
REMARK   13  A    between atoms: C13_36  and  O6_37 
REMARK   14  A    between atoms: C14_42  and  C15_43 
REMARK   15  A    between atoms: C15_43  and  O7_44 
REMARK   16  A    between atoms: C15_43  and  O8_46 
ROOT
HETATM    1  C10 UNL     1      23.422  35.357 -21.850  1.00  0.00     0.298 C 
HETATM    2  N3  UNL     1      24.529  36.117 -22.384  1.00  0.00    -0.005 N 
ATOM      3  H31 UNL     1      24.202  36.764 -23.101  1.00  0.00     0.283 HD
ATOM      4  H32 UNL     1      25.131  35.520 -22.950  1.00  0.00     0.283 HD
HETATM    5  C11 UNL     1      25.299  36.812 -21.397  1.00  0.00     0.581 C 
HETATM    6  N5  UNL     1      26.111  36.002 -20.552  1.00  0.00     0.010 N 
ATOM      7  H51 UNL     1      26.999  36.464 -20.356  1.00  0.00     0.284 HD
ATOM      8  H52 UNL     1      26.450  35.183 -21.056  1.00  0.00     0.284 HD
HETATM    9  C12 UNL     1      25.460  35.607 -19.322  1.00  0.00     0.411 C 
HETATM   10  N6  UNL     1      24.114  35.136 -19.548  1.00  0.00    -0.032 N 
ATOM     11  H61 UNL     1      23.444  35.903 -19.484  1.00  0.00     0.280 HD
ATOM     12  H62 UNL     1      23.790  34.568 -18.765  1.00  0.00     0.280 HD
HETATM   13  C14 UNL     1      23.969  34.428 -20.792  1.00  0.00     0.284 C 
ENDROOT
BRANCH   1  14
HETATM   14  S2  UNL     1      22.079  36.400 -21.227  1.00  0.00    -0.054 SA
BRANCH  14  15
HETATM   15  S1  UNL     1      20.289  36.103 -22.293  1.00  0.00    -0.023 SA
BRANCH  15  16
HETATM   16  C1  UNL     1      19.112  35.081 -21.443  1.00  0.00     0.160 C 
HETATM   17  N1  UNL     1      19.436  33.757 -21.059  1.00  0.00    -0.074 NA
HETATM   18  N2  UNL     1      17.924  35.489 -21.138  1.00  0.00    -0.372 N 
ATOM     19  H2  UNL     1      17.298  34.849 -20.648  1.00  0.00     0.161 HD
BRANCH  18  20
HETATM   20  C2  UNL     1      17.447  36.801 -21.457  1.00  0.00     0.126 C 
BRANCH  20  21
HETATM   21  C3  UNL     1      17.228  37.610 -20.225  1.00  0.00     0.066 C 
BRANCH  21  22
HETATM   22  C4  UNL     1      18.023  38.847 -20.120  1.00  0.00     0.036 A 
HETATM   23  C5  UNL     1      17.570  40.024 -20.666  1.00  0.00     0.195 A 
HETATM   24  O2  UNL     1      18.286  41.142 -20.600  1.00  0.00    -0.251 OA
HETATM   25  C6  UNL     1      19.456  41.209 -20.022  1.00  0.00     0.301 A 
HETATM   26  O3  UNL     1      20.122  42.287 -19.971  1.00  0.00    -0.259 OA
HETATM   27  C7  UNL     1      20.009  40.092 -19.442  1.00  0.00     0.074 A 
HETATM   28  C9  UNL     1      19.273  38.909 -19.501  1.00  0.00     0.091 A 
BRANCH  23  29
HETATM   29  O1  UNL     1      16.345  40.158 -21.321  1.00  0.00    -0.340 OA
ATOM     30  H1  UNL     1      15.515  40.272 -20.873  1.00  0.00     0.220 HD
ENDBRANCH  23  29
BRANCH  27  31
HETATM   31  C8  UNL     1      21.339  40.158 -18.781  1.00  0.00     0.212 C 
BRANCH  31  32
HETATM   32  O4  UNL     1      21.224  39.957 -17.426  1.00  0.00    -0.396 OA
ATOM     33  H4  UNL     1      22.031  39.610 -17.065  1.00  0.00     0.209 HD
ENDBRANCH  31  32
ENDBRANCH  27  31
BRANCH  28  34
HETATM   34  O5  UNL     1      19.819  37.800 -18.927  1.00  0.00    -0.359 OA
ATOM     35  H5  UNL     1      20.695  37.516 -19.160  1.00  0.00     0.217 HD
ENDBRANCH  28  34
ENDBRANCH  21  22
ENDBRANCH  20  21
ENDBRANCH  18  20
ENDBRANCH  15  16
ENDBRANCH  14  15
ENDBRANCH   1  14
BRANCH  13  36
HETATM   36  C15 UNL     1      22.955  33.301 -20.614  1.00  0.00     0.287 C 
BRANCH  36  37
HETATM   37  O7  UNL     1      22.322  33.100 -21.833  1.00  0.00    -0.369 OA
ATOM     38  H7  UNL     1      22.088  33.951 -22.186  1.00  0.00     0.212 HD
ENDBRANCH  36  37
BRANCH  36  39
HETATM   39  O8  UNL     1      21.969  33.694 -19.702  1.00  0.00    -0.369 OA
ATOM     40  H8  UNL     1      21.125  33.356 -19.978  1.00  0.00     0.212 HD
ENDBRANCH  36  39
ENDBRANCH  13  36
BRANCH   5  41
HETATM   41  N4  UNL     1      26.209  37.709 -22.129  1.00  0.00    -0.026 N 
ATOM     42  H43 UNL     1      25.958  37.824 -23.110  1.00  0.00     0.278 HD
ATOM     43  H42 UNL     1      26.116  38.688 -21.857  1.00  0.00     0.278 HD
ATOM     44  H41 UNL     1      27.151  37.341 -21.994  1.00  0.00     0.278 HD
ENDBRANCH   5  41
BRANCH   9  45
HETATM   45  C13 UNL     1      26.337  34.632 -18.606  1.00  0.00     0.226 C 
BRANCH  45  46
HETATM   46  O6  UNL     1      27.411  35.263 -17.954  1.00  0.00    -0.397 OA
ATOM     47  H6  UNL     1      28.097  34.651 -17.717  1.00  0.00     0.209 HD
ENDBRANCH  45  46
ENDBRANCH   9  45
TORSDOF 16
ENDMDL
MODEL 3
REMARK VINA RESULT: -7.287766154      3.514      6.471
REMARK  16 active torsions:
REMARK  status: ('A' for Active; 'I' for Inactive)
REMARK    1  A    between atoms: C1_2  and  S1_21 
REMARK    2  A    between atoms: N2_3  and  C2_5 
REMARK    3  A    between atoms: C2_5  and  C3_6 
REMARK    4  A    between atoms: C3_6  and  C4_7 
REMARK    5  A    between atoms: C5_8  and  O1_9 
REMARK    6  A    between atoms: C7_14  and  C8_15 
REMARK    7  A    between atoms: C8_15  and  O4_16 
REMARK    8  A    between atoms: C9_18  and  O5_19 
REMARK    9  A    between atoms: S1_21  and  S2_22 
REMARK   10  A    between atoms: S2_22  and  C10_23 
REMARK   11  A    between atoms: C11_27  and  N4_28 
REMARK   12  A    between atoms: C12_35  and  C13_36 
REMARK   13  A    between atoms: C13_36  and  O6_37 
REMARK   14  A    between atoms: C14_42  and  C15_43 
REMARK   15  A    between atoms: C15_43  and  O7_44 
REMARK   16  A    between atoms: C15_43  and  O8_46 
ROOT
HETATM    1  C10 UNL     1      24.909  36.002 -20.598  1.00  0.00     0.298 C 
HETATM    2  N3  UNL     1      24.270  35.063 -19.703  1.00  0.00    -0.005 N 
ATOM      3  H31 UNL     1      23.269  35.249 -19.648  1.00  0.00     0.283 HD
ATOM      4  H32 UNL     1      24.537  35.255 -18.738  1.00  0.00     0.283 HD
HETATM    5  C11 UNL     1      24.507  33.688 -20.023  1.00  0.00     0.581 C 
HETATM    6  N5  UNL     1      25.825  33.205 -19.779  1.00  0.00     0.010 N 
ATOM      7  H51 UNL     1      25.797  32.248 -19.428  1.00  0.00     0.284 HD
ATOM      8  H52 UNL     1      26.234  33.673 -18.970  1.00  0.00     0.284 HD
HETATM    9  C12 UNL     1      26.704  33.303 -20.923  1.00  0.00     0.411 C 
HETATM   10  N6  UNL     1      26.611  34.592 -21.569  1.00  0.00    -0.032 N 
ATOM     11  H61 UNL     1      25.900  34.582 -22.301  1.00  0.00     0.280 HD
ATOM     12  H62 UNL     1      27.436  34.773 -22.141  1.00  0.00     0.280 HD
HETATM   13  C14 UNL     1      26.381  35.668 -20.642  1.00  0.00     0.284 C 
ENDROOT
BRANCH   1  14
HETATM   14  S2  UNL     1      24.158  36.035 -22.246  1.00  0.00    -0.054 SA
BRANCH  14  15
HETATM   15  S1  UNL     1      22.156  36.680 -22.190  1.00  0.00    -0.023 SA
BRANCH  15  16
HETATM   16  C1  UNL     1      21.210  35.958 -20.873  1.00  0.00     0.160 C 
HETATM   17  N1  UNL     1      21.256  34.566 -20.618  1.00  0.00    -0.074 NA
HETATM   18  N2  UNL     1      20.447  36.656 -20.097  1.00  0.00    -0.372 N 
ATOM     19  H2  UNL     1      19.931  36.175 -19.359  1.00  0.00     0.161 HD
BRANCH  18  20
HETATM   20  C2  UNL     1      20.294  38.073 -20.226  1.00  0.00     0.126 C 
BRANCH  20  21
HETATM   21  C3  UNL     1      19.356  38.610 -19.202  1.00  0.00     0.066 C 
BRANCH  21  22
HETATM   22  C4  UNL     1      19.364  40.074 -19.028  1.00  0.00     0.036 A 
HETATM   23  C5  UNL     1      18.548  40.878 -19.787  1.00  0.00     0.195 A 
HETATM   24  O2  UNL     1      18.562  42.202 -19.659  1.00  0.00    -0.251 OA
HETATM   25  C6  UNL     1      19.339  42.831 -18.816  1.00  0.00     0.301 A 
HETATM   26  O3  UNL     1      19.335  44.095 -18.711  1.00  0.00    -0.259 OA
HETATM   27  C7  UNL     1      20.197  42.127 -18.006  1.00  0.00     0.074 A 
HETATM   28  C9  UNL     1      20.198  40.738 -18.125  1.00  0.00     0.091 A 
BRANCH  23  29
HETATM   29  O1  UNL     1      17.647  40.397 -20.737  1.00  0.00    -0.340 OA
ATOM     30  H1  UNL     1      17.311  40.915 -21.459  1.00  0.00     0.220 HD
ENDBRANCH  23  29
BRANCH  27  31
HETATM   31  C8  UNL     1      21.084  42.833 -17.044  1.00  0.00     0.212 C 
BRANCH  31  32
HETATM   32  O4  UNL     1      20.644  42.661 -15.753  1.00  0.00    -0.396 OA
ATOM     33  H4  UNL     1      21.357  42.763 -15.134  1.00  0.00     0.209 HD
ENDBRANCH  31  32
ENDBRANCH  27  31
BRANCH  28  34
HETATM   34  O5  UNL     1      21.049  40.038 -17.323  1.00  0.00    -0.359 OA
ATOM     35  H5  UNL     1      21.265  40.355 -16.455  1.00  0.00     0.217 HD
ENDBRANCH  28  34
ENDBRANCH  21  22
ENDBRANCH  20  21
ENDBRANCH  18  20
ENDBRANCH  15  16
ENDBRANCH  14  15
ENDBRANCH   1  14
BRANCH  13  36
HETATM   36  C15 UNL     1      27.111  36.917 -21.131  1.00  0.00     0.287 C 
BRANCH  36  37
HETATM   37  O7  UNL     1      28.264  36.507 -21.787  1.00  0.00    -0.369 OA
ATOM     38  H7  UNL     1      28.892  36.229 -21.130  1.00  0.00     0.212 HD
ENDBRANCH  36  37
BRANCH  36  39
HETATM   39  O8  UNL     1      27.516  37.686 -20.034  1.00  0.00    -0.369 OA
ATOM     40  H8  UNL     1      26.997  38.480 -19.992  1.00  0.00     0.212 HD
ENDBRANCH  36  39
ENDBRANCH  13  36
BRANCH   5  41
HETATM   41  N4  UNL     1      23.599  32.897 -19.175  1.00  0.00    -0.026 N 
ATOM     42  H43 UNL     1      22.815  33.437 -18.811  1.00  0.00     0.278 HD
ATOM     43  H42 UNL     1      23.051  32.213 -19.698  1.00  0.00     0.278 HD
ATOM     44  H41 UNL     1      24.175  32.478 -18.444  1.00  0.00     0.278 HD
ENDBRANCH   5  41
BRANCH   9  45
HETATM   45  C13 UNL     1      28.087  32.930 -20.499  1.00  0.00     0.226 C 
BRANCH  45  46
HETATM   46  O6  UNL     1      29.068  33.677 -21.173  1.00  0.00    -0.397 OA
ATOM     47  H6  UNL     1      29.744  33.125 -21.548  1.00  0.00     0.209 HD
ENDBRANCH  45  46
ENDBRANCH   9  45
TORSDOF 16
ENDMDL
MODEL 4
REMARK VINA RESULT: -7.242107357      3.165      5.829
REMARK  16 active torsions:
REMARK  status: ('A' for Active; 'I' for Inactive)
REMARK    1  A    between atoms: C1_2  and  S1_21 
REMARK    2  A    between atoms: N2_3  and  C2_5 
REMARK    3  A    between atoms: C2_5  and  C3_6 
REMARK    4  A    between atoms: C3_6  and  C4_7 
REMARK    5  A    between atoms: C5_8  and  O1_9 
REMARK    6  A    between atoms: C7_14  and  C8_15 
REMARK    7  A    between atoms: C8_15  and  O4_16 
REMARK    8  A    between atoms: C9_18  and  O5_19 
REMARK    9  A    between atoms: S1_21  and  S2_22 
REMARK   10  A    between atoms: S2_22  and  C10_23 
REMARK   11  A    between atoms: C11_27  and  N4_28 
REMARK   12  A    between atoms: C12_35  and  C13_36 
REMARK   13  A    between atoms: C13_36  and  O6_37 
REMARK   14  A    between atoms: C14_42  and  C15_43 
REMARK   15  A    between atoms: C15_43  and  O7_44 
REMARK   16  A    between atoms: C15_43  and  O8_46 
ROOT
HETATM    1  C10 UNL     1      24.621  35.653 -21.403  1.00  0.00     0.298 C 
HETATM    2  N3  UNL     1      25.863  36.360 -21.625  1.00  0.00    -0.005 N 
ATOM      3  H31 UNL     1      25.699  37.202 -22.177  1.00  0.00     0.283 HD
ATOM      4  H32 UNL     1      26.457  35.840 -22.271  1.00  0.00     0.283 HD
HETATM    5  C11 UNL     1      26.583  36.677 -20.429  1.00  0.00     0.581 C 
HETATM    6  N5  UNL     1      27.192  35.580 -19.754  1.00  0.00     0.010 N 
ATOM      7  H51 UNL     1      28.097  35.852 -19.370  1.00  0.00     0.284 HD
ATOM      8  H52 UNL     1      27.495  34.871 -20.422  1.00  0.00     0.284 HD
HETATM    9  C12 UNL     1      26.359  34.992 -18.729  1.00  0.00     0.411 C 
HETATM   10  N6  UNL     1      25.005  34.782 -19.185  1.00  0.00    -0.032 N 
ATOM     11  H61 UNL     1      24.423  35.596 -18.984  1.00  0.00     0.280 HD
ATOM     12  H62 UNL     1      24.528  34.091 -18.607  1.00  0.00     0.280 HD
HETATM   13  C14 UNL     1      24.930  34.428 -20.577  1.00  0.00     0.284 C 
ENDROOT
BRANCH   1  14
HETATM   14  S2  UNL     1      23.339  36.689 -20.651  1.00  0.00    -0.054 SA
BRANCH  14  15
HETATM   15  S1  UNL     1      21.600  36.774 -21.832  1.00  0.00    -0.023 SA
BRANCH  15  16
HETATM   16  C1  UNL     1      20.293  35.721 -21.255  1.00  0.00     0.160 C 
HETATM   17  N1  UNL     1      20.572  34.454 -20.687  1.00  0.00    -0.074 NA
HETATM   18  N2  UNL     1      19.046  36.053 -21.323  1.00  0.00    -0.372 N 
ATOM     19  H2  UNL     1      18.346  35.398 -20.972  1.00  0.00     0.161 HD
BRANCH  18  20
HETATM   20  C2  UNL     1      18.603  37.300 -21.870  1.00  0.00     0.126 C 
BRANCH  20  21
HETATM   21  C3  UNL     1      17.686  38.005 -20.931  1.00  0.00     0.066 C 
BRANCH  21  22
HETATM   22  C4  UNL     1      18.206  39.251 -20.339  1.00  0.00     0.036 A 
HETATM   23  C5  UNL     1      17.781  40.477 -20.792  1.00  0.00     0.195 A 
HETATM   24  O2  UNL     1      18.259  41.609 -20.285  1.00  0.00    -0.251 OA
HETATM   25  C6  UNL     1      19.154  41.645 -19.333  1.00  0.00     0.301 A 
HETATM   26  O3  UNL     1      19.596  42.738 -18.865  1.00  0.00    -0.259 OA
HETATM   27  C7  UNL     1      19.652  40.478 -18.804  1.00  0.00     0.074 A 
HETATM   28  C9  UNL     1      19.162  39.280 -19.323  1.00  0.00     0.091 A 
BRANCH  23  29
HETATM   29  O1  UNL     1      16.830  40.648 -21.798  1.00  0.00    -0.340 OA
ATOM     30  H1  UNL     1      17.042  40.881 -22.695  1.00  0.00     0.220 HD
ENDBRANCH  23  29
BRANCH  27  31
HETATM   31  C8  UNL     1      20.669  40.508 -17.721  1.00  0.00     0.212 C 
BRANCH  31  32
HETATM   32  O4  UNL     1      21.867  39.994 -18.158  1.00  0.00    -0.396 OA
ATOM     33  H4  UNL     1      21.971  39.092 -17.881  1.00  0.00     0.209 HD
ENDBRANCH  31  32
ENDBRANCH  27  31
BRANCH  28  34
HETATM   34  O5  UNL     1      19.654  38.121 -18.800  1.00  0.00    -0.359 OA
ATOM     35  H5  UNL     1      19.491  37.892 -17.893  1.00  0.00     0.217 HD
ENDBRANCH  28  34
ENDBRANCH  21  22
ENDBRANCH  20  21
ENDBRANCH  18  20
ENDBRANCH  15  16
ENDBRANCH  14  15
ENDBRANCH   1  14
BRANCH  13  36
HETATM   36  C15 UNL     1      23.781  33.444 -20.784  1.00  0.00     0.287 C 
BRANCH  36  37
HETATM   37  O7  UNL     1      23.144  33.268 -19.563  1.00  0.00    -0.369 OA
ATOM     38  H7  UNL     1      23.570  32.549 -19.112  1.00  0.00     0.212 HD
ENDBRANCH  36  37
BRANCH  36  39
HETATM   39  O8  UNL     1      24.290  32.197 -21.163  1.00  0.00    -0.369 OA
ATOM     40  H8  UNL     1      23.574  31.590 -21.307  1.00  0.00     0.212 HD
ENDBRANCH  36  39
ENDBRANCH  13  36
BRANCH   5  41
HETATM   41  N4  UNL     1      27.669  37.590 -20.823  1.00  0.00    -0.026 N 
ATOM     42  H43 UNL     1      27.923  37.514 -21.808  1.00  0.00     0.278 HD
ATOM     43  H42 UNL     1      27.387  38.571 -20.839  1.00  0.00     0.278 HD
ATOM     44  H41 UNL     1      28.449  37.406 -20.191  1.00  0.00     0.278 HD
ENDBRANCH   5  41
BRANCH   9  45
HETATM   45  C13 UNL     1      27.029  33.759 -18.216  1.00  0.00     0.226 C 
BRANCH  45  46
HETATM   46  O6  UNL     1      27.655  33.972 -16.976  1.00  0.00    -0.397 OA
ATOM     47  H6  UNL     1      28.192  33.235 -16.713  1.00  0.00     0.209 HD
ENDBRANCH  45  46
ENDBRANCH   9  45
TORSDOF 16
ENDMDL
MODEL 5
REMARK VINA RESULT: -7.203341019      3.523      6.502
REMARK  16 active torsions:
REMARK  status: ('A' for Active; 'I' for Inactive)
REMARK    1  A    between atoms: C1_2  and  S1_21 
REMARK    2  A    between atoms: N2_3  and  C2_5 
REMARK    3  A    between atoms: C2_5  and  C3_6 
REMARK    4  A    between atoms: C3_6  and  C4_7 
REMARK    5  A    between atoms: C5_8  and  O1_9 
REMARK    6  A    between atoms: C7_14  and  C8_15 
REMARK    7  A    between atoms: C8_15  and  O4_16 
REMARK    8  A    between atoms: C9_18  and  O5_19 
REMARK    9  A    between atoms: S1_21  and  S2_22 
REMARK   10  A    between atoms: S2_22  and  C10_23 
REMARK   11  A    between atoms: C11_27  and  N4_28 
REMARK   12  A    between atoms: C12_35  and  C13_36 
REMARK   13  A    between atoms: C13_36  and  O6_37 
REMARK   14  A    between atoms: C14_42  and  C15_43 
REMARK   15  A    between atoms: C15_43  and  O7_44 
REMARK   16  A    between atoms: C15_43  and  O8_46 
ROOT
HETATM    1  C10 UNL     1      24.895  36.041 -20.582  1.00  0.00     0.298 C 
HETATM    2  N3  UNL     1      24.226  35.112 -19.699  1.00  0.00    -0.005 N 
ATOM      3  H31 UNL     1      23.227  35.313 -19.662  1.00  0.00     0.283 HD
ATOM      4  H32 UNL     1      24.478  35.299 -18.729  1.00  0.00     0.283 HD
HETATM    5  C11 UNL     1      24.448  33.734 -20.015  1.00  0.00     0.581 C 
HETATM    6  N5  UNL     1      25.754  33.231 -19.747  1.00  0.00     0.010 N 
ATOM      7  H51 UNL     1      25.706  32.274 -19.398  1.00  0.00     0.284 HD
ATOM      8  H52 UNL     1      26.155  33.692 -18.931  1.00  0.00     0.284 HD
HETATM    9  C12 UNL     1      26.655  33.316 -20.875  1.00  0.00     0.411 C 
HETATM   10  N6  UNL     1      26.593  34.606 -21.522  1.00  0.00    -0.032 N 
ATOM     11  H61 UNL     1      25.896  34.607 -22.266  1.00  0.00     0.280 HD
ATOM     12  H62 UNL     1      27.431  34.775 -22.078  1.00  0.00     0.280 HD
HETATM   13  C14 UNL     1      26.362  35.685 -20.599  1.00  0.00     0.284 C 
ENDROOT
BRANCH   1  14
HETATM   14  S2  UNL     1      24.175  36.086 -22.243  1.00  0.00    -0.054 SA
BRANCH  14  15
HETATM   15  S1  UNL     1      22.171  36.727 -22.219  1.00  0.00    -0.023 SA
BRANCH  15  16
HETATM   16  C1  UNL     1      21.205  36.001 -20.919  1.00  0.00     0.160 C 
HETATM   17  N1  UNL     1      21.211  34.603 -20.697  1.00  0.00    -0.074 NA
HETATM   18  N2  UNL     1      20.463  36.702 -20.125  1.00  0.00    -0.372 N 
ATOM     19  H2  UNL     1      19.933  36.219 -19.399  1.00  0.00     0.161 HD
BRANCH  18  20
HETATM   20  C2  UNL     1      20.351  38.126 -20.221  1.00  0.00     0.126 C 
BRANCH  20  21
HETATM   21  C3  UNL     1      19.441  38.667 -19.173  1.00  0.00     0.066 C 
BRANCH  21  22
HETATM   22  C4  UNL     1      19.448  40.133 -19.010  1.00  0.00     0.036 A 
HETATM   23  C5  UNL     1      20.329  40.741 -18.149  1.00  0.00     0.195 A 
HETATM   24  O2  UNL     1      20.332  42.059 -17.974  1.00  0.00    -0.251 OA
HETATM   25  C6  UNL     1      19.512  42.865 -18.594  1.00  0.00     0.301 A 
HETATM   26  O3  UNL     1      19.532  44.120 -18.411  1.00  0.00    -0.259 OA
HETATM   27  C7  UNL     1      18.586  42.366 -19.480  1.00  0.00     0.074 A 
HETATM   28  C9  UNL     1      18.567  40.986 -19.677  1.00  0.00     0.091 A 
BRANCH  23  29
HETATM   29  O1  UNL     1      21.285  40.054 -17.399  1.00  0.00    -0.340 OA
ATOM     30  H1  UNL     1      22.175  40.359 -17.269  1.00  0.00     0.220 HD
ENDBRANCH  23  29
BRANCH  27  31
HETATM   31  C8  UNL     1      17.649  43.275 -20.191  1.00  0.00     0.212 C 
BRANCH  31  32
HETATM   32  O4  UNL     1      16.614  43.655 -19.368  1.00  0.00    -0.396 OA
ATOM     33  H4  UNL     1      16.084  44.328 -19.778  1.00  0.00     0.209 HD
ENDBRANCH  31  32
ENDBRANCH  27  31
BRANCH  28  34
HETATM   34  O5  UNL     1      17.650  40.489 -20.554  1.00  0.00    -0.359 OA
ATOM     35  H5  UNL     1      17.770  39.632 -20.946  1.00  0.00     0.217 HD
ENDBRANCH  28  34
ENDBRANCH  21  22
ENDBRANCH  20  21
ENDBRANCH  18  20
ENDBRANCH  15  16
ENDBRANCH  14  15
ENDBRANCH   1  14
BRANCH  13  36
HETATM   36  C15 UNL     1      27.120  36.923 -21.073  1.00  0.00     0.287 C 
BRANCH  36  37
HETATM   37  O7  UNL     1      28.269  36.496 -21.727  1.00  0.00    -0.369 OA
ATOM     38  H7  UNL     1      28.491  37.147 -22.382  1.00  0.00     0.212 HD
ENDBRANCH  36  37
BRANCH  36  39
HETATM   39  O8  UNL     1      27.534  37.675 -19.968  1.00  0.00    -0.369 OA
ATOM     40  H8  UNL     1      27.629  38.586 -20.220  1.00  0.00     0.212 HD
ENDBRANCH  36  39
ENDBRANCH  13  36
BRANCH   5  41
HETATM   41  N4  UNL     1      23.513  32.956 -19.184  1.00  0.00    -0.026 N 
ATOM     42  H43 UNL     1      23.268  32.053 -19.591  1.00  0.00     0.278 HD
ATOM     43  H42 UNL     1      23.936  32.599 -18.327  1.00  0.00     0.278 HD
ATOM     44  H41 UNL     1      22.705  33.555 -19.017  1.00  0.00     0.278 HD
ENDBRANCH   5  41
BRANCH   9  45
HETATM   45  C13 UNL     1      28.024  32.922 -20.426  1.00  0.00     0.226 C 
BRANCH  45  46
HETATM   46  O6  UNL     1      29.028  33.660 -21.075  1.00  0.00    -0.397 OA
ATOM     47  H6  UNL     1      29.523  33.130 -21.690  1.00  0.00     0.209 HD
ENDBRANCH  45  46
ENDBRANCH   9  45
TORSDOF 16
ENDMDL
