MODEL 1
REMARK VINA RESULT: -7.967427206      0.000      0.000
REMARK  12 active torsions:
REMARK  status: ('A' for Active; 'I' for Inactive)
REMARK    1  A    between atoms: C2_2  and  C3_3 
REMARK    2  A    between atoms: C2_2  and  C4_6 
REMARK    3  A    between atoms: C2_2  and  C16_41 
REMARK    4  A    between atoms: C5_8  and  C6_9 
REMARK    5  A    between atoms: C6_9  and  C7_13 
REMARK    6  A    between atoms: C7_13  and  O3_14 
REMARK    7  A    between atoms: C7_13  and  N3_16 
REMARK    8  A    between atoms: N7_28  and  O4_29 
REMARK    9  A    between atoms: C14_37  and  O5_38 
REMARK   10  A    between atoms: C16_41  and  O6_42 
REMARK   11  A    between atoms: C16_41  and  C17_44 
REMARK   12  A    between atoms: C17_44  and  O7_45 
ROOT
HETATM    1  C4  UNL     1      25.058  36.207 -21.208  1.00  0.00     0.089 A 
HETATM    2  O2  UNL     1      25.074  37.452 -21.669  1.00  0.00    -0.308 OA
HETATM    3  C5  UNL     1      23.886  37.927 -21.874  1.00  0.00     0.130 A 
HETATM    4  C10 UNL     1      22.957  36.965 -21.542  1.00  0.00     0.085 A 
HETATM    5  N6  UNL     1      21.608  36.910 -21.560  1.00  0.00    -0.348 N 
ATOM      6  H6  UNL     1      21.095  37.733 -21.875  1.00  0.00     0.166 HD
HETATM    7  C11 UNL     1      20.915  35.835 -21.190  1.00  0.00     0.109 A 
HETATM    8  C12 UNL     1      19.469  35.777 -21.209  1.00  0.00     0.191 C 
HETATM    9  N7  UNL     1      18.685  36.810 -21.013  1.00  0.00    -0.129 N 
HETATM   10  N8  UNL     1      17.359  36.396 -21.099  1.00  0.00     0.022 NA
HETATM   11  N9  UNL     1      17.310  35.005 -21.016  1.00  0.00    -0.005 NA
HETATM   12  N10 UNL     1      18.613  34.674 -21.431  1.00  0.00    -0.266 N 
ATOM     13  H10 UNL     1      18.895  33.779 -21.829  1.00  0.00     0.185 HD
HETATM   14  C13 UNL     1      21.624  34.744 -20.772  1.00  0.00     0.111 A 
HETATM   15  N11 UNL     1      21.006  33.536 -20.350  1.00  0.00    -0.097 NA
HETATM   16  C14 UNL     1      23.026  34.759 -20.736  1.00  0.00     0.107 A 
HETATM   17  C15 UNL     1      23.732  35.876 -21.120  1.00  0.00     0.060 A 
ENDROOT
BRANCH   3  18
HETATM   18  C6  UNL     1      23.570  39.279 -22.383  1.00  0.00     0.090 C 
HETATM   19  N2  UNL     1      24.532  39.941 -22.919  1.00  0.00    -0.396 N 
ATOM     20  H22 UNL     1      25.470  39.543 -22.976  1.00  0.00     0.156 HD
ATOM     21  H21 UNL     1      24.314  40.873 -23.271  1.00  0.00     0.156 HD
BRANCH  18  22
HETATM   22  C7  UNL     1      22.225  39.850 -22.302  1.00  0.00     0.295 C 
BRANCH  22  23
HETATM   23  O3  UNL     1      22.071  40.750 -23.369  1.00  0.00    -0.369 OA
ATOM     24  H3  UNL     1      21.796  41.585 -23.011  1.00  0.00     0.212 HD
ENDBRANCH  22  23
BRANCH  22  25
HETATM   25  N3  UNL     1      22.078  40.583 -21.068  1.00  0.00    -0.252 N 
HETATM   26  C8  UNL     1      21.861  40.106 -19.813  1.00  0.00     0.204 A 
HETATM   27  N4  UNL     1      21.786  41.148 -18.973  1.00  0.00    -0.346 N 
HETATM   28  C9  UNL     1      21.951  42.249 -19.689  1.00  0.00     0.198 A 
ATOM     29  H4  UNL     1      21.630  41.101 -17.967  1.00  0.00     0.167 HD
HETATM   30  N5  UNL     1      22.129  41.912 -20.967  1.00  0.00    -0.290 N 
ATOM     31  H5  UNL     1      22.280  42.562 -21.739  1.00  0.00     0.188 HD
ENDBRANCH  22  25
ENDBRANCH  18  22
ENDBRANCH   3  18
BRANCH   1  32
HETATM   32  C2  UNL     1      26.252  35.393 -20.870  1.00  0.00     0.113 C 
HETATM   33  C1  UNL     1      26.552  34.381 -21.964  1.00  0.00     0.035 C 
BRANCH  32  34
HETATM   34  C3  UNL     1      26.269  34.790 -19.537  1.00  0.00     0.248 C 
HETATM   35  N1  UNL     1      26.766  33.432 -19.471  1.00  0.00    -0.061 NA
HETATM   36  O1  UNL     1      25.896  35.355 -18.501  1.00  0.00    -0.276 OA
ENDBRANCH  32  34
BRANCH  32  37
HETATM   37  C16 UNL     1      27.442  36.334 -20.875  1.00  0.00     0.165 C 
BRANCH  37  38
HETATM   38  O6  UNL     1      27.237  37.430 -20.049  1.00  0.00    -0.392 OA
ATOM     39  H6  UNL     1      27.629  38.219 -20.405  1.00  0.00     0.210 HD
ENDBRANCH  37  38
BRANCH  37  40
HETATM   40  C17 UNL     1      27.835  36.714 -22.283  1.00  0.00     0.197 C 
BRANCH  40  41
HETATM   41  O7  UNL     1      27.580  38.070 -22.474  1.00  0.00    -0.398 OA
ATOM     42  H7  UNL     1      26.678  38.178 -22.752  1.00  0.00     0.209 HD
ENDBRANCH  40  41
ENDBRANCH  37  40
ENDBRANCH  32  37
ENDBRANCH   1  32
BRANCH  16  43
HETATM   43  O5  UNL     1      23.727  33.659 -20.319  1.00  0.00    -0.358 OA
ATOM     44  H5  UNL     1      24.519  33.390 -20.768  1.00  0.00     0.217 HD
ENDBRANCH  16  43
BRANCH   9  45
HETATM   45  O4  UNL     1      19.066  38.104 -20.760  1.00  0.00    -0.268 OA
ATOM     46  H4  UNL     1      18.498  38.853 -20.625  1.00  0.00     0.246 HD
ENDBRANCH   9  45
TORSDOF 12
ENDMDL
MODEL 2
REMARK VINA RESULT: -7.933406444      1.763      2.755
REMARK  12 active torsions:
REMARK  status: ('A' for Active; 'I' for Inactive)
REMARK    1  A    between atoms: C2_2  and  C3_3 
REMARK    2  A    between atoms: C2_2  and  C4_6 
REMARK    3  A    between atoms: C2_2  and  C16_41 
REMARK    4  A    between atoms: C5_8  and  C6_9 
REMARK    5  A    between atoms: C6_9  and  C7_13 
REMARK    6  A    between atoms: C7_13  and  O3_14 
REMARK    7  A    between atoms: C7_13  and  N3_16 
REMARK    8  A    between atoms: N7_28  and  O4_29 
REMARK    9  A    between atoms: C14_37  and  O5_38 
REMARK   10  A    between atoms: C16_41  and  O6_42 
REMARK   11  A    between atoms: C16_41  and  C17_44 
REMARK   12  A    between atoms: C17_44  and  O7_45 
ROOT
HETATM    1  C4  UNL     1      23.745  35.616 -20.701  1.00  0.00     0.089 A 
HETATM    2  O2  UNL     1      23.844  36.893 -20.349  1.00  0.00    -0.308 OA
HETATM    3  C5  UNL     1      22.766  37.568 -20.595  1.00  0.00     0.130 A 
HETATM    4  C10 UNL     1      21.833  36.726 -21.161  1.00  0.00     0.085 A 
HETATM    5  N6  UNL     1      20.570  36.885 -21.612  1.00  0.00    -0.348 N 
ATOM      6  H6  UNL     1      20.144  37.809 -21.543  1.00  0.00     0.166 HD
HETATM    7  C11 UNL     1      19.852  35.896 -22.141  1.00  0.00     0.109 A 
HETATM    8  C12 UNL     1      18.498  36.066 -22.623  1.00  0.00     0.191 C 
HETATM    9  N7  UNL     1      17.638  36.923 -22.125  1.00  0.00    -0.129 N 
HETATM   10  N8  UNL     1      16.438  36.819 -22.822  1.00  0.00     0.022 NA
HETATM   11  N9  UNL     1      16.441  35.635 -23.557  1.00  0.00    -0.005 NA
HETATM   12  N10 UNL     1      17.823  35.402 -23.672  1.00  0.00    -0.266 N 
ATOM     13  H10 UNL     1      18.268  34.842 -24.398  1.00  0.00     0.185 HD
HETATM   14  C13 UNL     1      20.442  34.666 -22.222  1.00  0.00     0.111 A 
HETATM   15  N11 UNL     1      19.786  33.528 -22.764  1.00  0.00    -0.097 NA
HETATM   16  C14 UNL     1      21.751  34.457 -21.765  1.00  0.00     0.107 A 
HETATM   17  C15 UNL     1      22.483  35.486 -21.218  1.00  0.00     0.060 A 
ENDROOT
BRANCH   3  18
HETATM   18  C6  UNL     1      22.562  39.005 -20.319  1.00  0.00     0.090 C 
HETATM   19  N2  UNL     1      22.495  39.360 -19.086  1.00  0.00    -0.396 N 
ATOM     20  H22 UNL     1      22.570  38.668 -18.341  1.00  0.00     0.156 HD
ATOM     21  H21 UNL     1      22.355  40.352 -18.896  1.00  0.00     0.156 HD
BRANCH  18  22
HETATM   22  C7  UNL     1      22.455  39.999 -21.389  1.00  0.00     0.295 C 
BRANCH  22  23
HETATM   23  O3  UNL     1      21.107  40.072 -21.779  1.00  0.00    -0.369 OA
ATOM     24  H3  UNL     1      20.752  40.889 -21.452  1.00  0.00     0.212 HD
ENDBRANCH  22  23
BRANCH  22  25
HETATM   25  N3  UNL     1      23.233  39.578 -22.528  1.00  0.00    -0.252 N 
HETATM   26  C8  UNL     1      22.824  39.365 -23.808  1.00  0.00     0.204 A 
HETATM   27  N4  UNL     1      23.885  38.977 -24.530  1.00  0.00    -0.346 N 
HETATM   28  C9  UNL     1      24.930  38.948 -23.717  1.00  0.00     0.198 A 
ATOM     29  H4  UNL     1      23.888  38.746 -25.523  1.00  0.00     0.167 HD
HETATM   30  N5  UNL     1      24.540  39.313 -22.496  1.00  0.00    -0.290 N 
ATOM     31  H5  UNL     1      25.140  39.380 -21.674  1.00  0.00     0.188 HD
ENDBRANCH  22  25
ENDBRANCH  18  22
ENDBRANCH   3  18
BRANCH   1  32
HETATM   32  C2  UNL     1      24.803  34.589 -20.542  1.00  0.00     0.113 C 
HETATM   33  C1  UNL     1      25.687  34.517 -21.778  1.00  0.00     0.035 C 
BRANCH  32  34
HETATM   34  C3  UNL     1      24.362  33.267 -20.098  1.00  0.00     0.248 C 
HETATM   35  N1  UNL     1      24.760  32.159 -20.940  1.00  0.00    -0.061 NA
HETATM   36  O1  UNL     1      23.691  33.051 -19.080  1.00  0.00    -0.276 OA
ENDBRANCH  32  34
BRANCH  32  37
HETATM   37  C16 UNL     1      25.723  35.072 -19.436  1.00  0.00     0.165 C 
BRANCH  37  38
HETATM   38  O6  UNL     1      25.012  35.517 -18.331  1.00  0.00    -0.392 OA
ATOM     39  H6  UNL     1      25.378  36.317 -17.974  1.00  0.00     0.210 HD
ENDBRANCH  37  38
BRANCH  37  40
HETATM   40  C17 UNL     1      26.717  36.086 -19.952  1.00  0.00     0.197 C 
BRANCH  40  41
HETATM   41  O7  UNL     1      26.515  37.295 -19.291  1.00  0.00    -0.398 OA
ATOM     42  H7  UNL     1      27.019  37.973 -19.727  1.00  0.00     0.209 HD
ENDBRANCH  40  41
ENDBRANCH  37  40
ENDBRANCH  32  37
ENDBRANCH   1  32
BRANCH  16  43
HETATM   43  O5  UNL     1      22.335  33.221 -21.854  1.00  0.00    -0.358 OA
ATOM     44  H5  UNL     1      22.665  32.783 -21.079  1.00  0.00     0.217 HD
ENDBRANCH  16  43
BRANCH   9  45
HETATM   45  O4  UNL     1      17.845  37.796 -21.086  1.00  0.00    -0.268 OA
ATOM     46  H4  UNL     1      17.188  38.301 -20.622  1.00  0.00     0.246 HD
ENDBRANCH   9  45
TORSDOF 12
ENDMDL
MODEL 3
REMARK VINA RESULT: -7.925682106      1.283      1.802
REMARK  12 active torsions:
REMARK  status: ('A' for Active; 'I' for Inactive)
REMARK    1  A    between atoms: C2_2  and  C3_3 
REMARK    2  A    between atoms: C2_2  and  C4_6 
REMARK    3  A    between atoms: C2_2  and  C16_41 
REMARK    4  A    between atoms: C5_8  and  C6_9 
REMARK    5  A    between atoms: C6_9  and  C7_13 
REMARK    6  A    between atoms: C7_13  and  O3_14 
REMARK    7  A    between atoms: C7_13  and  N3_16 
REMARK    8  A    between atoms: N7_28  and  O4_29 
REMARK    9  A    between atoms: C14_37  and  O5_38 
REMARK   10  A    between atoms: C16_41  and  O6_42 
REMARK   11  A    between atoms: C16_41  and  C17_44 
REMARK   12  A    between atoms: C17_44  and  O7_45 
ROOT
HETATM    1  C4  UNL     1      24.934  36.245 -20.946  1.00  0.00     0.089 A 
HETATM    2  O2  UNL     1      24.956  37.504 -21.369  1.00  0.00    -0.308 OA
HETATM    3  C5  UNL     1      23.773  37.976 -21.606  1.00  0.00     0.130 A 
HETATM    4  C10 UNL     1      22.841  36.996 -21.340  1.00  0.00     0.085 A 
HETATM    5  N6  UNL     1      21.495  36.931 -21.414  1.00  0.00    -0.348 N 
ATOM      6  H6  UNL     1      20.986  37.759 -21.723  1.00  0.00     0.166 HD
HETATM    7  C11 UNL     1      20.797  35.840 -21.103  1.00  0.00     0.109 A 
HETATM    8  C12 UNL     1      19.353  35.771 -21.181  1.00  0.00     0.191 C 
HETATM    9  N7  UNL     1      18.553  36.791 -20.986  1.00  0.00    -0.129 N 
HETATM   10  N8  UNL     1      17.235  36.369 -21.136  1.00  0.00     0.022 NA
HETATM   11  N9  UNL     1      17.196  34.976 -21.097  1.00  0.00    -0.005 NA
HETATM   12  N10 UNL     1      18.517  34.669 -21.470  1.00  0.00    -0.266 N 
ATOM     13  H10 UNL     1      18.823  33.788 -21.883  1.00  0.00     0.185 HD
HETATM   14  C13 UNL     1      21.499  34.743 -20.691  1.00  0.00     0.111 A 
HETATM   15  N11 UNL     1      20.876  33.517 -20.330  1.00  0.00    -0.097 NA
HETATM   16  C14 UNL     1      22.898  34.768 -20.599  1.00  0.00     0.107 A 
HETATM   17  C15 UNL     1      23.609  35.901 -20.921  1.00  0.00     0.060 A 
ENDROOT
BRANCH   3  18
HETATM   18  C6  UNL     1      23.465  39.339 -22.086  1.00  0.00     0.090 C 
HETATM   19  N2  UNL     1      22.704  40.062 -21.345  1.00  0.00    -0.396 N 
ATOM     20  H22 UNL     1      22.327  39.694 -20.471  1.00  0.00     0.156 HD
ATOM     21  H21 UNL     1      22.491  41.003 -21.676  1.00  0.00     0.156 HD
BRANCH  18  22
HETATM   22  C7  UNL     1      24.006  39.868 -23.340  1.00  0.00     0.295 C 
BRANCH  22  23
HETATM   23  O3  UNL     1      25.403  39.944 -23.210  1.00  0.00    -0.369 OA
ATOM     24  H3  UNL     1      25.705  40.680 -23.728  1.00  0.00     0.212 HD
ENDBRANCH  22  23
BRANCH  22  25
HETATM   25  N3  UNL     1      23.500  41.199 -23.568  1.00  0.00    -0.252 N 
HETATM   26  C8  UNL     1      22.326  41.579 -24.140  1.00  0.00     0.204 A 
HETATM   27  N4  UNL     1      22.276  42.918 -24.150  1.00  0.00    -0.346 N 
HETATM   28  C9  UNL     1      23.394  43.362 -23.598  1.00  0.00     0.198 A 
ATOM     29  H4  UNL     1      21.516  43.491 -24.516  1.00  0.00     0.167 HD
HETATM   30  N5  UNL     1      24.145  42.320 -23.240  1.00  0.00    -0.290 N 
ATOM     31  H5  UNL     1      25.059  42.371 -22.790  1.00  0.00     0.188 HD
ENDBRANCH  22  25
ENDBRANCH  18  22
ENDBRANCH   3  18
BRANCH   1  32
HETATM   32  C2  UNL     1      26.121  35.431 -20.586  1.00  0.00     0.113 C 
HETATM   33  C1  UNL     1      26.270  34.239 -21.518  1.00  0.00     0.035 C 
BRANCH  32  34
HETATM   34  C3  UNL     1      26.245  35.053 -19.178  1.00  0.00     0.248 C 
HETATM   35  N1  UNL     1      27.495  34.426 -18.807  1.00  0.00    -0.061 NA
HETATM   36  O1  UNL     1      25.372  35.234 -18.319  1.00  0.00    -0.276 OA
ENDBRANCH  32  34
BRANCH  32  37
HETATM   37  C16 UNL     1      27.343  36.290 -20.857  1.00  0.00     0.165 C 
BRANCH  37  38
HETATM   38  O6  UNL     1      27.346  37.441 -20.082  1.00  0.00    -0.392 OA
ATOM     39  H6  UNL     1      27.999  38.064 -20.379  1.00  0.00     0.210 HD
ENDBRANCH  37  38
BRANCH  37  40
HETATM   40  C17 UNL     1      27.504  36.564 -22.334  1.00  0.00     0.197 C 
BRANCH  40  41
HETATM   41  O7  UNL     1      27.482  37.942 -22.542  1.00  0.00    -0.398 OA
ATOM     42  H7  UNL     1      27.269  38.112 -23.453  1.00  0.00     0.209 HD
ENDBRANCH  40  41
ENDBRANCH  37  40
ENDBRANCH  32  37
ENDBRANCH   1  32
BRANCH  16  43
HETATM   43  O5  UNL     1      23.592  33.661 -20.188  1.00  0.00    -0.358 OA
ATOM     44  H5  UNL     1      24.132  33.172 -20.799  1.00  0.00     0.217 HD
ENDBRANCH  16  43
BRANCH   9  45
HETATM   45  O4  UNL     1      18.912  38.080 -20.678  1.00  0.00    -0.268 OA
ATOM     46  H4  UNL     1      19.528  38.631 -21.146  1.00  0.00     0.246 HD
ENDBRANCH   9  45
TORSDOF 12
ENDMDL
MODEL 4
REMARK VINA RESULT: -7.893021225      2.882      6.526
REMARK  12 active torsions:
REMARK  status: ('A' for Active; 'I' for Inactive)
REMARK    1  A    between atoms: C2_2  and  C3_3 
REMARK    2  A    between atoms: C2_2  and  C4_6 
REMARK    3  A    between atoms: C2_2  and  C16_41 
REMARK    4  A    between atoms: C5_8  and  C6_9 
REMARK    5  A    between atoms: C6_9  and  C7_13 
REMARK    6  A    between atoms: C7_13  and  O3_14 
REMARK    7  A    between atoms: C7_13  and  N3_16 
REMARK    8  A    between atoms: N7_28  and  O4_29 
REMARK    9  A    between atoms: C14_37  and  O5_38 
REMARK   10  A    between atoms: C16_41  and  O6_42 
REMARK   11  A    between atoms: C16_41  and  C17_44 
REMARK   12  A    between atoms: C17_44  and  O7_45 
ROOT
HETATM    1  C4  UNL     1      19.113  37.219 -22.057  1.00  0.00     0.089 A 
HETATM    2  O2  UNL     1      19.419  38.344 -21.420  1.00  0.00    -0.308 OA
HETATM    3  C5  UNL     1      20.474  38.230 -20.676  1.00  0.00     0.130 A 
HETATM    4  C10 UNL     1      20.957  36.943 -20.783  1.00  0.00     0.085 A 
HETATM    5  N6  UNL     1      22.000  36.280 -20.240  1.00  0.00    -0.348 N 
ATOM      6  H6  UNL     1      22.615  36.785 -19.602  1.00  0.00     0.166 HD
HETATM    7  C11 UNL     1      22.266  35.001 -20.494  1.00  0.00     0.109 A 
HETATM    8  C12 UNL     1      23.385  34.290 -19.913  1.00  0.00     0.191 C 
HETATM    9  N7  UNL     1      24.526  34.848 -19.588  1.00  0.00    -0.129 N 
HETATM   10  N8  UNL     1      25.372  33.877 -19.060  1.00  0.00     0.022 NA
HETATM   11  N9  UNL     1      24.866  32.616 -19.370  1.00  0.00    -0.005 NA
HETATM   12  N10 UNL     1      23.509  32.923 -19.576  1.00  0.00    -0.266 N 
ATOM     13  H10 UNL     1      22.736  32.263 -19.494  1.00  0.00     0.185 HD
HETATM   14  C13 UNL     1      21.428  34.345 -21.351  1.00  0.00     0.111 A 
HETATM   15  N11 UNL     1      21.600  32.979 -21.707  1.00  0.00    -0.097 NA
HETATM   16  C14 UNL     1      20.334  34.996 -21.939  1.00  0.00     0.107 A 
HETATM   17  C15 UNL     1      20.069  36.319 -21.670  1.00  0.00     0.060 A 
ENDROOT
BRANCH   3  18
HETATM   18  C6  UNL     1      21.067  39.299 -19.846  1.00  0.00     0.090 C 
HETATM   19  N2  UNL     1      22.148  39.843 -20.278  1.00  0.00    -0.396 N 
ATOM     20  H22 UNL     1      22.573  39.533 -21.152  1.00  0.00     0.156 HD
ATOM     21  H21 UNL     1      22.558  40.580 -19.705  1.00  0.00     0.156 HD
BRANCH  18  22
HETATM   22  C7  UNL     1      20.458  39.743 -18.591  1.00  0.00     0.295 C 
BRANCH  22  23
HETATM   23  O3  UNL     1      19.557  38.750 -18.172  1.00  0.00    -0.369 OA
ATOM     24  H3  UNL     1      19.782  38.508 -17.282  1.00  0.00     0.212 HD
ENDBRANCH  22  23
BRANCH  22  25
HETATM   25  N3  UNL     1      19.717  40.961 -18.811  1.00  0.00    -0.252 N 
HETATM   26  C8  UNL     1      19.576  42.034 -17.988  1.00  0.00     0.204 A 
HETATM   27  N4  UNL     1      18.795  42.935 -18.600  1.00  0.00    -0.346 N 
HETATM   28  C9  UNL     1      18.456  42.434 -19.777  1.00  0.00     0.198 A 
ATOM     29  H4  UNL     1      18.513  43.842 -18.228  1.00  0.00     0.167 HD
HETATM   30  N5  UNL     1      19.015  41.230 -19.913  1.00  0.00    -0.290 N 
ATOM     31  H5  UNL     1      18.921  40.618 -20.724  1.00  0.00     0.188 HD
ENDBRANCH  22  25
ENDBRANCH  18  22
ENDBRANCH   3  18
BRANCH   1  32
HETATM   32  C2  UNL     1      17.970  37.033 -22.984  1.00  0.00     0.113 C 
HETATM   33  C1  UNL     1      16.982  36.014 -22.438  1.00  0.00     0.035 C 
BRANCH  32  34
HETATM   34  C3  UNL     1      18.307  36.782 -24.386  1.00  0.00     0.248 C 
HETATM   35  N1  UNL     1      17.804  35.542 -24.938  1.00  0.00    -0.061 NA
HETATM   36  O1  UNL     1      18.974  37.542 -25.099  1.00  0.00    -0.276 OA
ENDBRANCH  32  34
BRANCH  32  37
HETATM   37  C16 UNL     1      17.204  38.342 -23.008  1.00  0.00     0.165 C 
BRANCH  37  38
HETATM   38  O6  UNL     1      18.033  39.421 -23.272  1.00  0.00    -0.392 OA
ATOM     39  H6  UNL     1      17.763  40.199 -22.799  1.00  0.00     0.210 HD
ENDBRANCH  37  38
BRANCH  37  40
HETATM   40  C17 UNL     1      16.378  38.517 -21.755  1.00  0.00     0.197 C 
BRANCH  40  41
HETATM   41  O7  UNL     1      16.773  39.689 -21.113  1.00  0.00    -0.398 OA
ATOM     42  H7  UNL     1      16.023  40.267 -21.038  1.00  0.00     0.209 HD
ENDBRANCH  40  41
ENDBRANCH  37  40
ENDBRANCH  32  37
ENDBRANCH   1  32
BRANCH  16  43
HETATM   43  O5  UNL     1      19.498  34.327 -22.794  1.00  0.00    -0.358 OA
ATOM     44  H5  UNL     1      18.651  34.014 -22.499  1.00  0.00     0.217 HD
ENDBRANCH  16  43
BRANCH   9  45
HETATM   45  O4  UNL     1      24.874  36.168 -19.730  1.00  0.00    -0.268 OA
ATOM     46  H4  UNL     1      25.202  36.594 -20.513  1.00  0.00     0.246 HD
ENDBRANCH   9  45
TORSDOF 12
ENDMDL
MODEL 5
REMARK VINA RESULT: -7.887803435      1.630      2.935
REMARK  12 active torsions:
REMARK  status: ('A' for Active; 'I' for Inactive)
REMARK    1  A    between atoms: C2_2  and  C3_3 
REMARK    2  A    between atoms: C2_2  and  C4_6 
REMARK    3  A    between atoms: C2_2  and  C16_41 
REMARK    4  A    between atoms: C5_8  and  C6_9 
REMARK    5  A    between atoms: C6_9  and  C7_13 
REMARK    6  A    between atoms: C7_13  and  O3_14 
REMARK    7  A    between atoms: C7_13  and  N3_16 
REMARK    8  A    between atoms: N7_28  and  O4_29 
REMARK    9  A    between atoms: C14_37  and  O5_38 
REMARK   10  A    between atoms: C16_41  and  O6_42 
REMARK   11  A    between atoms: C16_41  and  C17_44 
REMARK   12  A    between atoms: C17_44  and  O7_45 
ROOT
HETATM    1  C4  UNL     1      25.093  35.601 -20.989  1.00  0.00     0.089 A 
HETATM    2  O2  UNL     1      25.221  36.838 -21.455  1.00  0.00    -0.308 OA
HETATM    3  C5  UNL     1      24.081  37.400 -21.711  1.00  0.00     0.130 A 
HETATM    4  C10 UNL     1      23.070  36.512 -21.412  1.00  0.00     0.085 A 
HETATM    5  N6  UNL     1      21.723  36.559 -21.485  1.00  0.00    -0.348 N 
ATOM      6  H6  UNL     1      21.286  37.416 -21.824  1.00  0.00     0.166 HD
HETATM    7  C11 UNL     1      20.936  35.542 -21.138  1.00  0.00     0.109 A 
HETATM    8  C12 UNL     1      19.491  35.592 -21.216  1.00  0.00     0.191 C 
HETATM    9  N7  UNL     1      18.780  36.683 -21.057  1.00  0.00    -0.129 N 
HETATM   10  N8  UNL     1      17.431  36.369 -21.195  1.00  0.00     0.022 NA
HETATM   11  N9  UNL     1      17.275  34.987 -21.107  1.00  0.00    -0.005 NA
HETATM   12  N10 UNL     1      18.564  34.556 -21.467  1.00  0.00    -0.266 N 
ATOM     13  H10 UNL     1      18.794  33.639 -21.848  1.00  0.00     0.185 HD
HETATM   14  C13 UNL     1      21.543  34.405 -20.687  1.00  0.00     0.111 A 
HETATM   15  N11 UNL     1      20.819  33.249 -20.284  1.00  0.00    -0.097 NA
HETATM   16  C14 UNL     1      22.939  34.314 -20.593  1.00  0.00     0.107 A 
HETATM   17  C15 UNL     1      23.743  35.371 -20.953  1.00  0.00     0.060 A 
ENDROOT
BRANCH   3  18
HETATM   18  C6  UNL     1      23.889  38.767 -22.239  1.00  0.00     0.090 C 
HETATM   19  N2  UNL     1      23.428  39.648 -21.425  1.00  0.00    -0.396 N 
ATOM     20  H22 UNL     1      23.199  39.399 -20.463  1.00  0.00     0.156 HD
ATOM     21  H21 UNL     1      23.295  40.591 -21.789  1.00  0.00     0.156 HD
BRANCH  18  22
HETATM   22  C7  UNL     1      24.218  39.125 -23.620  1.00  0.00     0.295 C 
BRANCH  22  23
HETATM   23  O3  UNL     1      23.222  38.592 -24.454  1.00  0.00    -0.369 OA
ATOM     24  H3  UNL     1      23.433  37.680 -24.616  1.00  0.00     0.212 HD
ENDBRANCH  22  23
BRANCH  22  25
HETATM   25  N3  UNL     1      25.481  38.535 -23.990  1.00  0.00    -0.252 N 
HETATM   26  C8  UNL     1      25.750  37.655 -24.992  1.00  0.00     0.204 A 
HETATM   27  N4  UNL     1      27.060  37.373 -24.964  1.00  0.00    -0.346 N 
HETATM   28  C9  UNL     1      27.595  38.062 -23.968  1.00  0.00     0.198 A 
ATOM     29  H4  UNL     1      27.555  36.744 -25.596  1.00  0.00     0.167 HD
HETATM   30  N5  UNL     1      26.638  38.773 -23.371  1.00  0.00    -0.290 N 
ATOM     31  H5  UNL     1      26.768  39.395 -22.572  1.00  0.00     0.188 HD
ENDBRANCH  22  25
ENDBRANCH  18  22
ENDBRANCH   3  18
BRANCH   1  32
HETATM   32  C2  UNL     1      26.207  34.703 -20.599  1.00  0.00     0.113 C 
HETATM   33  C1  UNL     1      26.270  33.483 -21.505  1.00  0.00     0.035 C 
BRANCH  32  34
HETATM   34  C3  UNL     1      26.286  34.345 -19.182  1.00  0.00     0.248 C 
HETATM   35  N1  UNL     1      26.985  35.289 -18.337  1.00  0.00    -0.061 NA
HETATM   36  O1  UNL     1      25.805  33.318 -18.685  1.00  0.00    -0.276 OA
ENDBRANCH  32  34
BRANCH  32  37
HETATM   37  C16 UNL     1      27.496  35.455 -20.872  1.00  0.00     0.165 C 
BRANCH  37  38
HETATM   38  O6  UNL     1      27.327  36.827 -20.755  1.00  0.00    -0.392 OA
ATOM     39  H6  UNL     1      26.792  37.055 -20.004  1.00  0.00     0.210 HD
ENDBRANCH  37  38
BRANCH  37  40
HETATM   40  C17 UNL     1      28.105  35.040 -22.190  1.00  0.00     0.197 C 
BRANCH  40  41
HETATM   41  O7  UNL     1      29.487  35.207 -22.122  1.00  0.00    -0.398 OA
ATOM     42  H7  UNL     1      29.895  34.357 -22.005  1.00  0.00     0.209 HD
ENDBRANCH  40  41
ENDBRANCH  37  40
ENDBRANCH  32  37
ENDBRANCH   1  32
BRANCH  16  43
HETATM   43  O5  UNL     1      23.538  33.167 -20.143  1.00  0.00    -0.358 OA
ATOM     44  H5  UNL     1      23.653  32.421 -20.719  1.00  0.00     0.217 HD
ENDBRANCH  16  43
BRANCH   9  45
HETATM   45  O4  UNL     1      19.247  37.947 -20.795  1.00  0.00    -0.268 OA
ATOM     46  H4  UNL     1      19.087  38.734 -21.301  1.00  0.00     0.246 HD
ENDBRANCH   9  45
TORSDOF 12
ENDMDL
