MODEL 1
REMARK VINA RESULT: -8.585258914      0.000      0.000
REMARK  15 active torsions:
REMARK  status: ('A' for Active; 'I' for Inactive)
REMARK    1  A    between atoms: O1_2  and  N1_3 
REMARK       I    between atoms: N1_3  and  C2_5 
REMARK       I    between atoms: C2_5  and  N2_7 
REMARK    2  A    between atoms: C4_9  and  C5_10 
REMARK    3  A    between atoms: C5_10  and  C6_11 
REMARK    4  A    between atoms: C6_11  and  O3_12 
REMARK    5  A    between atoms: C6_11  and  C7_14 
REMARK    6  A    between atoms: C8_17  and  C9_18 
REMARK    7  A    between atoms: C9_18  and  N4_19 
REMARK    8  A    between atoms: C10_22  and  N6_23 
REMARK    9  A    between atoms: C11_28  and  C12_29 
REMARK   10  A    between atoms: C12_29  and  O4_30 
REMARK   11  A    between atoms: C12_29  and  C13_32 
REMARK   12  A    between atoms: C12_29  and  N8_35 
REMARK   13  A    between atoms: C13_32  and  O5_33 
REMARK   14  A    between atoms: N8_35  and  O6_37 
REMARK   15  A    between atoms: C15_43  and  O8_44 
ROOT
HETATM    1  C7  UNL     1      22.276  35.341 -20.557  1.00  0.00     0.090 A 
HETATM    2  N3  UNL     1      23.538  35.498 -20.245  1.00  0.00    -0.351 N 
ATOM      3  H3  UNL     1      23.935  36.429 -20.369  1.00  0.00     0.166 HD
HETATM    4  C8  UNL     1      24.376  34.520 -19.765  1.00  0.00     0.098 A 
HETATM    5  C14 UNL     1      23.826  33.273 -19.611  1.00  0.00     0.271 A 
HETATM    6  O7  UNL     1      24.435  32.277 -19.201  1.00  0.00    -0.266 OA
HETATM    7  N9  UNL     1      22.507  33.068 -19.927  1.00  0.00    -0.301 N 
ATOM      8  H9  UNL     1      22.114  32.134 -19.805  1.00  0.00     0.171 HD
HETATM    9  C15 UNL     1      21.722  34.034 -20.383  1.00  0.00     0.168 A 
ENDROOT
BRANCH   4  10
HETATM   10  C9  UNL     1      25.713  34.922 -19.355  1.00  0.00     0.214 C 
BRANCH  10  11
HETATM   11  N4  UNL     1      26.849  34.491 -20.095  1.00  0.00    -0.255 N 
HETATM   12  N5  UNL     1      27.620  33.416 -19.811  1.00  0.00    -0.128 N 
HETATM   13  C10 UNL     1      28.561  33.328 -20.733  1.00  0.00     0.692 A 
ATOM     14  H5  UNL     1      27.495  32.782 -19.021  1.00  0.00     0.206 HD
HETATM   15  N7  UNL     1      28.421  34.313 -21.600  1.00  0.00    -0.173 N 
HETATM   16  C11 UNL     1      27.342  35.042 -21.190  1.00  0.00     0.175 A 
ATOM     17  H7  UNL     1      29.005  34.493 -22.418  1.00  0.00     0.185 HD
BRANCH  13  18
HETATM   18  N6  UNL     1      29.492  32.417 -20.811  1.00  0.00    -0.233 N 
ATOM     19  H62 UNL     1      30.490  32.618 -20.765  1.00  0.00     0.174 HD
ATOM     20  H61 UNL     1      29.352  31.414 -20.936  1.00  0.00     0.174 HD
ENDBRANCH  13  18
BRANCH  16  21
HETATM   21  C12 UNL     1      26.961  36.323 -21.910  1.00  0.00     0.233 C 
BRANCH  21  22
HETATM   22  O4  UNL     1      25.720  36.326 -22.446  1.00  0.00    -0.361 OA
ATOM     23  H4  UNL     1      25.696  36.384 -23.394  1.00  0.00     0.213 HD
ENDBRANCH  21  22
BRANCH  21  24
HETATM   24  C13 UNL     1      28.024  36.649 -22.944  1.00  0.00     0.235 C 
BRANCH  24  25
HETATM   25  O5  UNL     1      27.664  37.722 -23.720  1.00  0.00    -0.396 OA
ATOM     26  H5  UNL     1      28.294  37.879 -24.414  1.00  0.00     0.209 HD
ENDBRANCH  24  25
ENDBRANCH  21  24
BRANCH  21  27
HETATM   27  N8  UNL     1      27.068  37.361 -20.881  1.00  0.00    -0.261 N 
ATOM     28  H8  UNL     1      26.256  37.716 -20.375  1.00  0.00     0.191 HD
BRANCH  27  29
HETATM   29  O6  UNL     1      28.286  37.801 -20.656  1.00  0.00    -0.291 OA
ATOM     30  H6  UNL     1      28.789  37.296 -20.029  1.00  0.00     0.244 HD
ENDBRANCH  27  29
ENDBRANCH  21  27
ENDBRANCH  16  21
ENDBRANCH  10  11
ENDBRANCH   4  10
BRANCH   1  31
HETATM   31  C6  UNL     1      21.277  36.315 -20.998  1.00  0.00     0.178 C 
BRANCH  31  32
HETATM   32  C5  UNL     1      21.780  37.600 -21.585  1.00  0.00     0.098 C 
BRANCH  32  33
HETATM   33  C4  UNL     1      21.632  38.619 -20.476  1.00  0.00     0.047 A 
HETATM   34  C3  UNL     1      20.611  39.479 -20.246  1.00  0.00     0.149 A 
HETATM   35  N2  UNL     1      20.915  40.210 -19.149  1.00  0.00    -0.199 N 
HETATM   36  C2  UNL     1      20.173  41.194 -18.454  1.00  0.00     0.366 C 
HETATM   37  N11 UNL     1      22.115  39.806 -18.708  1.00  0.00    -0.232 N 
HETATM   38  N1  UNL     1      20.766  41.852 -17.293  1.00  0.00    -0.215 N 
HETATM   39  O2  UNL     1      19.021  41.554 -18.755  1.00  0.00    -0.243 OA
ATOM     40  H1  UNL     1      21.705  41.593 -16.992  1.00  0.00     0.199 HD
HETATM   41  N10 UNL     1      22.543  38.854 -19.503  1.00  0.00    -0.288 N 
ATOM     42  H11 UNL     1      22.609  40.175 -17.895  1.00  0.00     0.209 HD
ATOM     43  H10 UNL     1      23.432  38.363 -19.402  1.00  0.00     0.188 HD
BRANCH  38  44
HETATM   44  O1  UNL     1      20.089  42.797 -16.615  1.00  0.00    -0.281 OA
HETATM   45  C1  UNL     1      20.967  43.494 -15.766  1.00  0.00     0.237 C 
ENDBRANCH  38  44
ENDBRANCH  32  33
ENDBRANCH  31  32
BRANCH  31  46
HETATM   46  O3  UNL     1      20.473  36.652 -19.860  1.00  0.00    -0.389 OA
ATOM     47  H3  UNL     1      21.033  37.114 -19.247  1.00  0.00     0.210 HD
ENDBRANCH  31  46
ENDBRANCH   1  31
BRANCH   9  48
HETATM   48  O8  UNL     1      20.373  33.827 -20.702  1.00  0.00    -0.344 OA
ATOM     49  H8  UNL     1      20.099  32.964 -20.990  1.00  0.00     0.219 HD
ENDBRANCH   9  48
TORSDOF 15
ENDMDL
MODEL 2
REMARK VINA RESULT: -8.554475010      1.523      1.977
REMARK  15 active torsions:
REMARK  status: ('A' for Active; 'I' for Inactive)
REMARK    1  A    between atoms: O1_2  and  N1_3 
REMARK       I    between atoms: N1_3  and  C2_5 
REMARK       I    between atoms: C2_5  and  N2_7 
REMARK    2  A    between atoms: C4_9  and  C5_10 
REMARK    3  A    between atoms: C5_10  and  C6_11 
REMARK    4  A    between atoms: C6_11  and  O3_12 
REMARK    5  A    between atoms: C6_11  and  C7_14 
REMARK    6  A    between atoms: C8_17  and  C9_18 
REMARK    7  A    between atoms: C9_18  and  N4_19 
REMARK    8  A    between atoms: C10_22  and  N6_23 
REMARK    9  A    between atoms: C11_28  and  C12_29 
REMARK   10  A    between atoms: C12_29  and  O4_30 
REMARK   11  A    between atoms: C12_29  and  C13_32 
REMARK   12  A    between atoms: C12_29  and  N8_35 
REMARK   13  A    between atoms: C13_32  and  O5_33 
REMARK   14  A    between atoms: N8_35  and  O6_37 
REMARK   15  A    between atoms: C15_43  and  O8_44 
ROOT
HETATM    1  C7  UNL     1      22.030  35.364 -21.478  1.00  0.00     0.090 A 
HETATM    2  N3  UNL     1      23.284  35.440 -21.847  1.00  0.00    -0.351 N 
ATOM      3  H3  UNL     1      23.635  36.360 -22.114  1.00  0.00     0.166 HD
HETATM    4  C8  UNL     1      24.171  34.392 -21.907  1.00  0.00     0.098 A 
HETATM    5  C14 UNL     1      23.680  33.162 -21.550  1.00  0.00     0.271 A 
HETATM    6  O7  UNL     1      24.333  32.111 -21.553  1.00  0.00    -0.266 OA
HETATM    7  N9  UNL     1      22.371  33.041 -21.157  1.00  0.00    -0.301 N 
ATOM      8  H9  UNL     1      22.022  32.119 -20.894  1.00  0.00     0.171 HD
HETATM    9  C15 UNL     1      21.540  34.074 -21.105  1.00  0.00     0.168 A 
ENDROOT
BRANCH   4  10
HETATM   10  C9  UNL     1      25.558  34.701 -22.218  1.00  0.00     0.214 C 
BRANCH  10  11
HETATM   11  N4  UNL     1      26.610  34.122 -21.455  1.00  0.00    -0.255 N 
HETATM   12  N5  UNL     1      27.495  33.199 -21.897  1.00  0.00    -0.128 N 
HETATM   13  C10 UNL     1      28.329  32.923 -20.911  1.00  0.00     0.692 A 
ATOM     14  H5  UNL     1      27.514  32.787 -22.830  1.00  0.00     0.206 HD
HETATM   15  N7  UNL     1      28.010  33.639 -19.850  1.00  0.00    -0.173 N 
HETATM   16  C11 UNL     1      26.924  34.390 -20.200  1.00  0.00     0.175 A 
ATOM     17  H7  UNL     1      28.482  33.633 -18.945  1.00  0.00     0.185 HD
BRANCH  13  18
HETATM   18  N6  UNL     1      29.332  32.088 -20.950  1.00  0.00    -0.233 N 
ATOM     19  H62 UNL     1      29.466  31.395 -21.686  1.00  0.00     0.174 HD
ATOM     20  H61 UNL     1      30.087  32.011 -20.269  1.00  0.00     0.174 HD
ENDBRANCH  13  18
BRANCH  16  21
HETATM   21  C12 UNL     1      26.226  35.259 -19.170  1.00  0.00     0.233 C 
BRANCH  21  22
HETATM   22  O4  UNL     1      25.041  34.779 -18.731  1.00  0.00    -0.361 OA
ATOM     23  H4  UNL     1      25.090  33.944 -18.283  1.00  0.00     0.213 HD
ENDBRANCH  21  22
BRANCH  21  24
HETATM   24  C13 UNL     1      26.095  36.670 -19.716  1.00  0.00     0.235 C 
BRANCH  24  25
HETATM   25  O5  UNL     1      27.320  37.218 -20.003  1.00  0.00    -0.396 OA
ATOM     26  H5  UNL     1      27.235  38.046 -20.461  1.00  0.00     0.209 HD
ENDBRANCH  24  25
ENDBRANCH  21  24
BRANCH  21  27
HETATM   27  N8  UNL     1      27.179  35.342 -18.061  1.00  0.00    -0.261 N 
ATOM     28  H8  UNL     1      27.868  36.091 -17.986  1.00  0.00     0.191 HD
BRANCH  27  29
HETATM   29  O6  UNL     1      27.082  34.381 -17.168  1.00  0.00    -0.291 OA
ATOM     30  H6  UNL     1      27.083  33.500 -17.522  1.00  0.00     0.244 HD
ENDBRANCH  27  29
ENDBRANCH  21  27
ENDBRANCH  16  21
ENDBRANCH  10  11
ENDBRANCH   4  10
BRANCH   1  31
HETATM   31  C6  UNL     1      21.025  36.413 -21.303  1.00  0.00     0.178 C 
BRANCH  31  32
HETATM   32  C5  UNL     1      21.342  37.770 -21.857  1.00  0.00     0.098 C 
BRANCH  32  33
HETATM   33  C4  UNL     1      21.282  38.701 -20.665  1.00  0.00     0.047 A 
HETATM   34  C3  UNL     1      20.328  39.608 -20.345  1.00  0.00     0.149 A 
HETATM   35  N2  UNL     1      20.698  40.222 -19.197  1.00  0.00    -0.199 N 
HETATM   36  C2  UNL     1      20.039  41.193 -18.409  1.00  0.00     0.366 C 
HETATM   37  N11 UNL     1      21.872  39.698 -18.814  1.00  0.00    -0.232 N 
HETATM   38  N1  UNL     1      20.693  41.709 -17.210  1.00  0.00    -0.215 N 
HETATM   39  O2  UNL     1      18.912  41.658 -18.658  1.00  0.00    -0.243 OA
ATOM     40  H1  UNL     1      21.615  41.359 -16.949  1.00  0.00     0.199 HD
HETATM   41  N10 UNL     1      22.220  38.788 -19.693  1.00  0.00    -0.288 N 
ATOM     42  H11 UNL     1      22.403  39.962 -17.984  1.00  0.00     0.209 HD
ATOM     43  H10 UNL     1      23.073  38.229 -19.650  1.00  0.00     0.188 HD
BRANCH  38  44
HETATM   44  O1  UNL     1      20.094  42.639 -16.443  1.00  0.00    -0.281 OA
HETATM   45  C1  UNL     1      21.068  43.438 -15.819  1.00  0.00     0.237 C 
ENDBRANCH  38  44
ENDBRANCH  32  33
ENDBRANCH  31  32
BRANCH  31  46
HETATM   46  O3  UNL     1      20.805  36.567 -19.895  1.00  0.00    -0.389 OA
ATOM     47  H3  UNL     1      20.157  35.921 -19.638  1.00  0.00     0.210 HD
ENDBRANCH  31  46
ENDBRANCH   1  31
BRANCH   9  48
HETATM   48  O8  UNL     1      20.204  33.951 -20.699  1.00  0.00    -0.344 OA
ATOM     49  H8  UNL     1      19.532  34.390 -21.206  1.00  0.00     0.219 HD
ENDBRANCH   9  48
TORSDOF 15
ENDMDL
MODEL 3
REMARK VINA RESULT: -8.546312108      1.408      1.980
REMARK  15 active torsions:
REMARK  status: ('A' for Active; 'I' for Inactive)
REMARK    1  A    between atoms: O1_2  and  N1_3 
REMARK       I    between atoms: N1_3  and  C2_5 
REMARK       I    between atoms: C2_5  and  N2_7 
REMARK    2  A    between atoms: C4_9  and  C5_10 
REMARK    3  A    between atoms: C5_10  and  C6_11 
REMARK    4  A    between atoms: C6_11  and  O3_12 
REMARK    5  A    between atoms: C6_11  and  C7_14 
REMARK    6  A    between atoms: C8_17  and  C9_18 
REMARK    7  A    between atoms: C9_18  and  N4_19 
REMARK    8  A    between atoms: C10_22  and  N6_23 
REMARK    9  A    between atoms: C11_28  and  C12_29 
REMARK   10  A    between atoms: C12_29  and  O4_30 
REMARK   11  A    between atoms: C12_29  and  C13_32 
REMARK   12  A    between atoms: C12_29  and  N8_35 
REMARK   13  A    between atoms: C13_32  and  O5_33 
REMARK   14  A    between atoms: N8_35  and  O6_37 
REMARK   15  A    between atoms: C15_43  and  O8_44 
ROOT
HETATM    1  C7  UNL     1      21.871  35.528 -21.520  1.00  0.00     0.090 A 
HETATM    2  N3  UNL     1      23.126  35.610 -21.886  1.00  0.00    -0.351 N 
ATOM      3  H3  UNL     1      23.482  36.538 -22.119  1.00  0.00     0.166 HD
HETATM    4  C8  UNL     1      24.006  34.559 -21.985  1.00  0.00     0.098 A 
HETATM    5  C14 UNL     1      23.507  33.321 -21.675  1.00  0.00     0.271 A 
HETATM    6  O7  UNL     1      24.154  32.266 -21.718  1.00  0.00    -0.266 OA
HETATM    7  N9  UNL     1      22.198  33.192 -21.287  1.00  0.00    -0.301 N 
ATOM      8  H9  UNL     1      21.844  32.263 -21.058  1.00  0.00     0.171 HD
HETATM    9  C15 UNL     1      21.373  34.227 -21.195  1.00  0.00     0.168 A 
ENDROOT
BRANCH   4  10
HETATM   10  C9  UNL     1      25.395  34.872 -22.285  1.00  0.00     0.214 C 
BRANCH  10  11
HETATM   11  N4  UNL     1      26.444  34.248 -21.555  1.00  0.00    -0.255 N 
HETATM   12  N5  UNL     1      27.146  33.161 -21.947  1.00  0.00    -0.128 N 
HETATM   13  C10 UNL     1      28.046  32.893 -21.017  1.00  0.00     0.692 A 
ATOM     14  H5  UNL     1      27.005  32.638 -22.811  1.00  0.00     0.206 HD
HETATM   15  N7  UNL     1      27.944  33.774 -20.040  1.00  0.00    -0.173 N 
HETATM   16  C11 UNL     1      26.931  34.623 -20.384  1.00  0.00     0.175 A 
ATOM     17  H7  UNL     1      28.512  33.813 -19.192  1.00  0.00     0.185 HD
BRANCH  13  18
HETATM   18  N6  UNL     1      28.922  31.926 -21.037  1.00  0.00    -0.233 N 
ATOM     19  H62 UNL     1      28.765  31.026 -21.490  1.00  0.00     0.174 HD
ATOM     20  H61 UNL     1      29.846  31.934 -20.607  1.00  0.00     0.174 HD
ENDBRANCH  13  18
BRANCH  16  21
HETATM   21  C12 UNL     1      26.472  35.704 -19.423  1.00  0.00     0.233 C 
BRANCH  21  22
HETATM   22  O4  UNL     1      27.252  35.861 -18.330  1.00  0.00    -0.361 OA
ATOM     23  H4  UNL     1      26.808  35.736 -17.501  1.00  0.00     0.213 HD
ENDBRANCH  21  22
BRANCH  21  24
HETATM   24  C13 UNL     1      25.022  35.454 -19.049  1.00  0.00     0.235 C 
BRANCH  24  25
HETATM   25  O5  UNL     1      24.268  36.596 -19.151  1.00  0.00    -0.396 OA
ATOM     26  H5  UNL     1      24.162  37.023 -18.309  1.00  0.00     0.209 HD
ENDBRANCH  24  25
ENDBRANCH  21  24
BRANCH  21  27
HETATM   27  N8  UNL     1      26.477  36.928 -20.227  1.00  0.00    -0.261 N 
ATOM     28  H8  UNL     1      25.630  37.307 -20.652  1.00  0.00     0.191 HD
BRANCH  27  29
HETATM   29  O6  UNL     1      27.651  37.504 -20.362  1.00  0.00    -0.291 OA
ATOM     30  H6  UNL     1      27.686  38.206 -21.000  1.00  0.00     0.244 HD
ENDBRANCH  27  29
ENDBRANCH  21  27
ENDBRANCH  16  21
ENDBRANCH  10  11
ENDBRANCH   4  10
BRANCH   1  31
HETATM   31  C6  UNL     1      20.872  36.575 -21.305  1.00  0.00     0.178 C 
BRANCH  31  32
HETATM   32  C5  UNL     1      21.184  37.944 -21.834  1.00  0.00     0.098 C 
BRANCH  32  33
HETATM   33  C4  UNL     1      21.151  38.848 -20.621  1.00  0.00     0.047 A 
HETATM   34  C3  UNL     1      20.243  39.800 -20.298  1.00  0.00     0.149 A 
HETATM   35  N2  UNL     1      20.622  40.364 -19.127  1.00  0.00    -0.199 N 
HETATM   36  C2  UNL     1      20.001  41.352 -18.329  1.00  0.00     0.366 C 
HETATM   37  N11 UNL     1      21.756  39.765 -18.734  1.00  0.00    -0.232 N 
HETATM   38  N1  UNL     1      20.657  41.801 -17.104  1.00  0.00    -0.215 N 
HETATM   39  O2  UNL     1      18.908  41.886 -18.589  1.00  0.00    -0.243 OA
ATOM     40  H1  UNL     1      21.552  41.393 -16.834  1.00  0.00     0.199 HD
HETATM   41  N10 UNL     1      22.071  38.858 -19.628  1.00  0.00    -0.288 N 
ATOM     42  H11 UNL     1      22.282  39.978 -17.886  1.00  0.00     0.209 HD
ATOM     43  H10 UNL     1      22.890  38.250 -19.582  1.00  0.00     0.188 HD
BRANCH  38  44
HETATM   44  O1  UNL     1      20.095  42.745 -16.327  1.00  0.00    -0.281 OA
HETATM   45  C1  UNL     1      21.100  43.499 -15.695  1.00  0.00     0.237 C 
ENDBRANCH  38  44
ENDBRANCH  32  33
ENDBRANCH  31  32
BRANCH  31  46
HETATM   46  O3  UNL     1      20.676  36.700 -19.891  1.00  0.00    -0.389 OA
ATOM     47  H3  UNL     1      21.389  36.236 -19.466  1.00  0.00     0.210 HD
ENDBRANCH  31  46
ENDBRANCH   1  31
BRANCH   9  48
HETATM   48  O8  UNL     1      20.037  34.098 -20.794  1.00  0.00    -0.344 OA
ATOM     49  H8  UNL     1      19.830  33.505 -20.082  1.00  0.00     0.219 HD
ENDBRANCH   9  48
TORSDOF 15
ENDMDL
MODEL 4
REMARK VINA RESULT: -8.541442318      1.764      2.102
REMARK  15 active torsions:
REMARK  status: ('A' for Active; 'I' for Inactive)
REMARK    1  A    between atoms: O1_2  and  N1_3 
REMARK       I    between atoms: N1_3  and  C2_5 
REMARK       I    between atoms: C2_5  and  N2_7 
REMARK    2  A    between atoms: C4_9  and  C5_10 
REMARK    3  A    between atoms: C5_10  and  C6_11 
REMARK    4  A    between atoms: C6_11  and  O3_12 
REMARK    5  A    between atoms: C6_11  and  C7_14 
REMARK    6  A    between atoms: C8_17  and  C9_18 
REMARK    7  A    between atoms: C9_18  and  N4_19 
REMARK    8  A    between atoms: C10_22  and  N6_23 
REMARK    9  A    between atoms: C11_28  and  C12_29 
REMARK   10  A    between atoms: C12_29  and  O4_30 
REMARK   11  A    between atoms: C12_29  and  C13_32 
REMARK   12  A    between atoms: C12_29  and  N8_35 
REMARK   13  A    between atoms: C13_32  and  O5_33 
REMARK   14  A    between atoms: N8_35  and  O6_37 
REMARK   15  A    between atoms: C15_43  and  O8_44 
ROOT
HETATM    1  C7  UNL     1      21.427  36.214 -20.917  1.00  0.00     0.090 A 
HETATM    2  N3  UNL     1      22.445  35.738 -20.243  1.00  0.00    -0.351 N 
ATOM      3  H3  UNL     1      22.811  36.315 -19.485  1.00  0.00     0.166 HD
HETATM    4  C8  UNL     1      23.065  34.532 -20.466  1.00  0.00     0.098 A 
HETATM    5  C14 UNL     1      22.563  33.774 -21.493  1.00  0.00     0.271 A 
HETATM    6  O7  UNL     1      23.003  32.670 -21.837  1.00  0.00    -0.266 OA
HETATM    7  N9  UNL     1      21.497  34.237 -22.222  1.00  0.00    -0.301 N 
ATOM      8  H9  UNL     1      21.137  33.659 -22.982  1.00  0.00     0.171 HD
HETATM    9  C15 UNL     1      20.917  35.404 -21.979  1.00  0.00     0.168 A 
ENDROOT
BRANCH   4  10
HETATM   10  C9  UNL     1      24.098  34.124 -19.527  1.00  0.00     0.214 C 
BRANCH  10  11
HETATM   11  N4  UNL     1      25.466  34.130 -19.920  1.00  0.00    -0.255 N 
HETATM   12  N5  UNL     1      26.240  33.038 -20.116  1.00  0.00    -0.128 N 
HETATM   13  C10 UNL     1      27.439  33.445 -20.492  1.00  0.00     0.692 A 
ATOM     14  H5  UNL     1      25.949  32.069 -19.993  1.00  0.00     0.206 HD
HETATM   15  N7  UNL     1      27.461  34.764 -20.545  1.00  0.00    -0.173 N 
HETATM   16  C11 UNL     1      26.215  35.188 -20.180  1.00  0.00     0.175 A 
ATOM     17  H7  UNL     1      28.253  35.351 -20.807  1.00  0.00     0.185 HD
BRANCH  13  18
HETATM   18  N6  UNL     1      28.461  32.689 -20.787  1.00  0.00    -0.233 N 
ATOM     19  H62 UNL     1      29.394  32.816 -20.396  1.00  0.00     0.174 HD
ATOM     20  H61 UNL     1      28.468  31.901 -21.435  1.00  0.00     0.174 HD
ENDBRANCH  13  18
BRANCH  16  21
HETATM   21  C12 UNL     1      25.920  36.669 -20.029  1.00  0.00     0.233 C 
BRANCH  21  22
HETATM   22  O4  UNL     1      25.094  36.983 -19.006  1.00  0.00    -0.361 OA
ATOM     23  H4  UNL     1      25.394  37.696 -18.456  1.00  0.00     0.213 HD
ENDBRANCH  21  22
BRANCH  21  24
HETATM   24  C13 UNL     1      25.410  37.213 -21.352  1.00  0.00     0.235 C 
BRANCH  24  25
HETATM   25  O5  UNL     1      25.630  36.332 -22.381  1.00  0.00    -0.396 OA
ATOM     26  H5  UNL     1      26.545  36.083 -22.440  1.00  0.00     0.209 HD
ENDBRANCH  24  25
ENDBRANCH  21  24
BRANCH  21  27
HETATM   27  N8  UNL     1      27.235  37.280 -19.821  1.00  0.00    -0.261 N 
ATOM     28  H8  UNL     1      27.609  37.471 -18.891  1.00  0.00     0.191 HD
BRANCH  27  29
HETATM   29  O6  UNL     1      27.899  37.563 -20.920  1.00  0.00    -0.291 OA
ATOM     30  H6  UNL     1      28.576  38.223 -20.824  1.00  0.00     0.244 HD
ENDBRANCH  27  29
ENDBRANCH  21  27
ENDBRANCH  16  21
ENDBRANCH  10  11
ENDBRANCH   4  10
BRANCH   1  31
HETATM   31  C6  UNL     1      20.645  37.434 -20.722  1.00  0.00     0.178 C 
BRANCH  31  32
HETATM   32  C5  UNL     1      21.336  38.743 -20.969  1.00  0.00     0.098 C 
BRANCH  32  33
HETATM   33  C4  UNL     1      20.695  39.712 -19.999  1.00  0.00     0.047 A 
HETATM   34  C3  UNL     1      21.271  40.404 -18.987  1.00  0.00     0.149 A 
HETATM   35  N2  UNL     1      20.311  41.139 -18.380  1.00  0.00    -0.199 N 
HETATM   36  C2  UNL     1      20.387  42.072 -17.320  1.00  0.00     0.366 C 
HETATM   37  N11 UNL     1      19.152  40.900 -19.011  1.00  0.00    -0.232 N 
HETATM   38  N1  UNL     1      19.167  42.711 -16.837  1.00  0.00    -0.215 N 
HETATM   39  O2  UNL     1      21.440  42.406 -16.747  1.00  0.00    -0.243 OA
ATOM     40  H1  UNL     1      18.273  42.484 -17.273  1.00  0.00     0.199 HD
HETATM   41  N10 UNL     1      19.383  40.045 -19.980  1.00  0.00    -0.288 N 
ATOM     42  H11 UNL     1      18.248  41.310 -18.778  1.00  0.00     0.209 HD
ATOM     43  H10 UNL     1      18.678  39.686 -20.624  1.00  0.00     0.188 HD
BRANCH  38  44
HETATM   44  O1  UNL     1      19.205  43.598 -15.826  1.00  0.00    -0.281 OA
HETATM   45  C1  UNL     1      18.766  44.855 -16.278  1.00  0.00     0.237 C 
ENDBRANCH  38  44
ENDBRANCH  32  33
ENDBRANCH  31  32
BRANCH  31  46
HETATM   46  O3  UNL     1      20.191  37.442 -19.362  1.00  0.00    -0.389 OA
ATOM     47  H3  UNL     1      19.504  36.790 -19.291  1.00  0.00     0.210 HD
ENDBRANCH  31  46
ENDBRANCH   1  31
BRANCH   9  48
HETATM   48  O8  UNL     1      19.825  35.876 -22.720  1.00  0.00    -0.344 OA
ATOM     49  H8  UNL     1      19.668  35.513 -23.584  1.00  0.00     0.219 HD
ENDBRANCH   9  48
TORSDOF 15
ENDMDL
MODEL 5
REMARK VINA RESULT: -8.485942988      2.269      3.087
REMARK  15 active torsions:
REMARK  status: ('A' for Active; 'I' for Inactive)
REMARK    1  A    between atoms: O1_2  and  N1_3 
REMARK       I    between atoms: N1_3  and  C2_5 
REMARK       I    between atoms: C2_5  and  N2_7 
REMARK    2  A    between atoms: C4_9  and  C5_10 
REMARK    3  A    between atoms: C5_10  and  C6_11 
REMARK    4  A    between atoms: C6_11  and  O3_12 
REMARK    5  A    between atoms: C6_11  and  C7_14 
REMARK    6  A    between atoms: C8_17  and  C9_18 
REMARK    7  A    between atoms: C9_18  and  N4_19 
REMARK    8  A    between atoms: C10_22  and  N6_23 
REMARK    9  A    between atoms: C11_28  and  C12_29 
REMARK   10  A    between atoms: C12_29  and  O4_30 
REMARK   11  A    between atoms: C12_29  and  C13_32 
REMARK   12  A    between atoms: C12_29  and  N8_35 
REMARK   13  A    between atoms: C13_32  and  O5_33 
REMARK   14  A    between atoms: N8_35  and  O6_37 
REMARK   15  A    between atoms: C15_43  and  O8_44 
ROOT
HETATM    1  C7  UNL     1      20.438  36.467 -20.592  1.00  0.00     0.090 A 
HETATM    2  N3  UNL     1      21.582  35.848 -20.435  1.00  0.00    -0.351 N 
ATOM      3  H3  UNL     1      22.367  36.402 -20.092  1.00  0.00     0.166 HD
HETATM    4  C8  UNL     1      21.819  34.519 -20.693  1.00  0.00     0.098 A 
HETATM    5  C14 UNL     1      20.755  33.792 -21.159  1.00  0.00     0.271 A 
HETATM    6  O7  UNL     1      20.791  32.590 -21.450  1.00  0.00    -0.266 OA
HETATM    7  N9  UNL     1      19.540  34.404 -21.337  1.00  0.00    -0.301 N 
ATOM      8  H9  UNL     1      18.758  33.848 -21.684  1.00  0.00     0.171 HD
HETATM    9  C15 UNL     1      19.340  35.689 -21.074  1.00  0.00     0.168 A 
ENDROOT
BRANCH   4  10
HETATM   10  C9  UNL     1      23.125  33.988 -20.333  1.00  0.00     0.214 C 
BRANCH  10  11
HETATM   11  N4  UNL     1      24.284  34.382 -21.059  1.00  0.00    -0.255 N 
HETATM   12  N5  UNL     1      24.608  33.984 -22.311  1.00  0.00    -0.128 N 
HETATM   13  C10 UNL     1      25.739  34.576 -22.651  1.00  0.00     0.692 A 
ATOM     14  H5  UNL     1      24.072  33.340 -22.892  1.00  0.00     0.206 HD
HETATM   15  N7  UNL     1      26.152  35.341 -21.658  1.00  0.00    -0.173 N 
HETATM   16  C11 UNL     1      25.232  35.211 -20.658  1.00  0.00     0.175 A 
ATOM     17  H7  UNL     1      26.995  35.917 -21.641  1.00  0.00     0.185 HD
BRANCH  13  18
HETATM   18  N6  UNL     1      26.369  34.456 -23.788  1.00  0.00    -0.233 N 
ATOM     19  H62 UNL     1      26.474  33.574 -24.289  1.00  0.00     0.174 HD
ATOM     20  H61 UNL     1      26.836  35.200 -24.306  1.00  0.00     0.174 HD
ENDBRANCH  13  18
BRANCH  16  21
HETATM   21  C12 UNL     1      25.456  35.880 -19.314  1.00  0.00     0.233 C 
BRANCH  21  22
HETATM   22  O4  UNL     1      25.165  35.111 -18.241  1.00  0.00    -0.361 OA
ATOM     23  H4  UNL     1      24.800  35.581 -17.501  1.00  0.00     0.213 HD
ENDBRANCH  21  22
BRANCH  21  24
HETATM   24  C13 UNL     1      24.704  37.199 -19.283  1.00  0.00     0.235 C 
BRANCH  24  25
HETATM   25  O5  UNL     1      24.339  37.605 -20.542  1.00  0.00    -0.396 OA
ATOM     26  H5  UNL     1      24.825  38.373 -20.817  1.00  0.00     0.209 HD
ENDBRANCH  24  25
ENDBRANCH  21  24
BRANCH  21  27
HETATM   27  N8  UNL     1      26.879  36.226 -19.316  1.00  0.00    -0.261 N 
ATOM     28  H8  UNL     1      27.589  35.626 -18.894  1.00  0.00     0.191 HD
BRANCH  27  29
HETATM   29  O6  UNL     1      27.176  37.366 -19.901  1.00  0.00    -0.291 OA
ATOM     30  H6  UNL     1      27.053  37.381 -20.842  1.00  0.00     0.244 HD
ENDBRANCH  27  29
ENDBRANCH  21  27
ENDBRANCH  16  21
ENDBRANCH  10  11
ENDBRANCH   4  10
BRANCH   1  31
HETATM   31  C6  UNL     1      20.051  37.843 -20.281  1.00  0.00     0.178 C 
BRANCH  31  32
HETATM   32  C5  UNL     1      21.145  38.867 -20.210  1.00  0.00     0.098 C 
BRANCH  32  33
HETATM   33  C4  UNL     1      20.558  40.010 -19.410  1.00  0.00     0.047 A 
HETATM   34  C3  UNL     1      21.098  40.673 -18.359  1.00  0.00     0.149 A 
HETATM   35  N2  UNL     1      20.212  41.611 -17.953  1.00  0.00    -0.199 N 
HETATM   36  C2  UNL     1      20.303  42.601 -16.947  1.00  0.00     0.366 C 
HETATM   37  N11 UNL     1      19.134  41.526 -18.747  1.00  0.00    -0.232 N 
HETATM   38  N1  UNL     1      19.164  43.481 -16.701  1.00  0.00    -0.215 N 
HETATM   39  O2  UNL     1      21.304  42.794 -16.234  1.00  0.00    -0.243 OA
ATOM     40  H1  UNL     1      18.318  43.377 -17.261  1.00  0.00     0.199 HD
HETATM   41  N10 UNL     1      19.343  40.567 -19.618  1.00  0.00    -0.288 N 
ATOM     42  H11 UNL     1      18.297  42.105 -18.684  1.00  0.00     0.209 HD
ATOM     43  H10 UNL     1      18.686  40.284 -20.345  1.00  0.00     0.188 HD
BRANCH  38  44
HETATM   44  O1  UNL     1      19.217  44.428 -15.747  1.00  0.00    -0.281 OA
HETATM   45  C1  UNL     1      18.339  44.098 -14.700  1.00  0.00     0.237 C 
ENDBRANCH  38  44
ENDBRANCH  32  33
ENDBRANCH  31  32
BRANCH  31  46
HETATM   46  O3  UNL     1      19.399  37.828 -19.004  1.00  0.00    -0.389 OA
ATOM     47  H3  UNL     1      18.854  37.051 -18.975  1.00  0.00     0.210 HD
ENDBRANCH  31  46
ENDBRANCH   1  31
BRANCH   9  48
HETATM   48  O8  UNL     1      18.098  36.314 -21.250  1.00  0.00    -0.344 OA
ATOM     49  H8  UNL     1      17.687  36.280 -22.106  1.00  0.00     0.219 HD
ENDBRANCH   9  48
TORSDOF 15
ENDMDL
