MODEL 1
REMARK VINA RESULT: -8.412979793      0.000      0.000
REMARK  15 active torsions:
REMARK  status: ('A' for Active; 'I' for Inactive)
REMARK    1  A    between atoms: C3_4  and  N2_5 
REMARK    2  A    between atoms: N2_5  and  C4_7 
REMARK    3  A    between atoms: C4_7  and  O1_8 
REMARK    4  A    between atoms: C4_7  and  C5_10 
REMARK    5  A    between atoms: C5_10  and  O2_11 
REMARK    6  A    between atoms: C5_10  and  C6_13 
REMARK    7  A    between atoms: C6_13  and  N3_14 
REMARK    8  A    between atoms: C6_13  and  C7_18 
REMARK    9  A    between atoms: C8_19  and  O3_20 
REMARK   10  A    between atoms: O3_20  and  C9_21 
REMARK   11  A    between atoms: C9_21  and  C10_22 
REMARK   12  A    between atoms: C13_29  and  N6_30 
REMARK   13  A    between atoms: C14_35  and  N8_36 
REMARK   14  A    between atoms: N11_46  and  N12_47 
REMARK   15  A    between atoms: N12_47  and  N13_49 
ROOT
HETATM    1  C7  UNL     1      27.410  33.519 -20.292  1.00  0.00     0.188 C 
HETATM    2  C8  UNL     1      26.389  33.395 -21.386  1.00  0.00     0.136 C 
HETATM    3  N10 UNL     1      26.479  34.164 -22.412  1.00  0.00    -0.372 N 
ATOM      4  H10 UNL     1      25.791  34.089 -23.161  1.00  0.00     0.161 HD
HETATM    5  C16 UNL     1      27.543  35.130 -22.515  1.00  0.00     0.138 C 
HETATM    6  C17 UNL     1      28.798  34.781 -21.796  1.00  0.00     0.135 C 
HETATM    7  N11 UNL     1      28.711  33.631 -20.920  1.00  0.00    -0.201 NA
ENDROOT
BRANCH   2   8
HETATM    8  O3  UNL     1      25.367  32.468 -21.295  1.00  0.00    -0.332 OA
BRANCH   8   9
HETATM    9  C9  UNL     1      24.183  32.547 -22.037  1.00  0.00     0.235 C 
BRANCH   9  10
HETATM   10  C10 UNL     1      23.210  33.548 -21.580  1.00  0.00     0.050 A 
HETATM   11  C11 UNL     1      22.738  33.565 -20.261  1.00  0.00     0.117 A 
HETATM   12  N4  UNL     1      21.841  34.465 -19.825  1.00  0.00    -0.348 N 
HETATM   13  C12 UNL     1      21.359  35.395 -20.660  1.00  0.00     0.151 A 
ATOM     14  H4  UNL     1      21.527  34.439 -18.855  1.00  0.00     0.167 HD
HETATM   15  N5  UNL     1      20.451  36.311 -20.234  1.00  0.00    -0.174 N 
HETATM   16  C15 UNL     1      21.799  35.410 -21.965  1.00  0.00     0.122 A 
HETATM   17  C13 UNL     1      19.958  37.252 -21.064  1.00  0.00     0.679 A 
ATOM     18  H5  UNL     1      20.136  36.286 -19.264  1.00  0.00     0.186 HD
HETATM   19  N7  UNL     1      20.386  37.267 -22.335  1.00  0.00    -0.175 N 
HETATM   20  C14 UNL     1      21.289  36.374 -22.805  1.00  0.00     0.145 A 
ATOM     21  H7  UNL     1      20.019  37.977 -22.969  1.00  0.00     0.186 HD
HETATM   22  N9  UNL     1      22.697  34.500 -22.380  1.00  0.00    -0.351 N 
ATOM     23  H9  UNL     1      23.007  34.533 -23.351  1.00  0.00     0.166 HD
BRANCH  17  24
HETATM   24  N6  UNL     1      19.096  38.137 -20.691  1.00  0.00    -0.234 N 
ATOM     25  H62 UNL     1      18.164  37.826 -20.416  1.00  0.00     0.174 HD
ATOM     26  H61 UNL     1      19.302  39.135 -20.658  1.00  0.00     0.174 HD
ENDBRANCH  17  24
BRANCH  20  27
HETATM   27  N8  UNL     1      21.702  36.392 -24.036  1.00  0.00    -0.383 N 
ATOM     28  H82 UNL     1      22.628  36.775 -24.227  1.00  0.00     0.157 HD
ATOM     29  H81 UNL     1      21.131  36.038 -24.804  1.00  0.00     0.157 HD
ENDBRANCH  20  27
ENDBRANCH   9  10
ENDBRANCH   8   9
ENDBRANCH   2   8
BRANCH   1  30
HETATM   30  C6  UNL     1      27.128  34.609 -19.327  1.00  0.00     0.243 C 
BRANCH  30  31
HETATM   31  C5  UNL     1      25.738  35.137 -19.290  1.00  0.00     0.199 C 
BRANCH  31  32
HETATM   32  C4  UNL     1      25.608  36.532 -19.850  1.00  0.00     0.250 C 
BRANCH  32  33
HETATM   33  N2  UNL     1      24.306  37.046 -19.499  1.00  0.00    -0.346 N 
ATOM     34  H2  UNL     1      23.816  36.648 -18.697  1.00  0.00     0.163 HD
BRANCH  33  35
HETATM   35  C3  UNL     1      23.683  38.095 -20.238  1.00  0.00     0.136 A 
HETATM   36  C2  UNL     1      23.841  38.429 -21.562  1.00  0.00     0.160 A 
HETATM   37  N1  UNL     1      23.061  39.486 -21.848  1.00  0.00    -0.290 N 
HETATM   38  C1  UNL     1      22.918  40.165 -23.120  1.00  0.00     0.178 C 
HETATM   39  N15 UNL     1      22.438  39.792 -20.725  1.00  0.00    -0.240 N 
HETATM   40  N14 UNL     1      22.794  38.977 -19.755  1.00  0.00    -0.270 N 
ATOM     41  H15 UNL     1      21.771  40.557 -20.623  1.00  0.00     0.208 HD
ATOM     42  H14 UNL     1      22.451  39.011 -18.794  1.00  0.00     0.190 HD
ENDBRANCH  33  35
ENDBRANCH  32  33
BRANCH  32  43
HETATM   43  O1  UNL     1      26.547  37.420 -19.378  1.00  0.00    -0.374 OA
ATOM     44  H1  UNL     1      26.787  37.994 -20.097  1.00  0.00     0.212 HD
ENDBRANCH  32  43
ENDBRANCH  31  32
BRANCH  31  45
HETATM   45  O2  UNL     1      25.078  35.066 -18.098  1.00  0.00    -0.389 OA
ATOM     46  H2  UNL     1      24.375  34.432 -18.165  1.00  0.00     0.210 HD
ENDBRANCH  31  45
ENDBRANCH  30  31
BRANCH  30  47
HETATM   47  N3  UNL     1      27.496  34.276 -17.964  1.00  0.00    -0.070 N 
ATOM     48  H33 UNL     1      28.293  34.815 -17.622  1.00  0.00     0.274 HD
ATOM     49  H32 UNL     1      26.816  34.598 -17.277  1.00  0.00     0.274 HD
ATOM     50  H31 UNL     1      27.652  33.269 -17.932  1.00  0.00     0.274 HD
ENDBRANCH  30  47
ENDBRANCH   1  30
BRANCH   7  51
HETATM   51  N12 UNL     1      29.071  32.521 -21.639  1.00  0.00    -0.268 N 
ATOM     52  H12 UNL     1      28.724  32.354 -22.584  1.00  0.00     0.201 HD
BRANCH  51  53
HETATM   53  N13 UNL     1      29.923  31.648 -21.017  1.00  0.00    -0.335 N 
ATOM     54 2H13 UNL     1      30.241  31.815 -20.062  1.00  0.00     0.177 HD
ATOM     55 1H13 UNL     1      30.212  30.836 -21.561  1.00  0.00     0.177 HD
ENDBRANCH  51  53
ENDBRANCH   7  51
TORSDOF 15
ENDMDL
MODEL 2
REMARK VINA RESULT: -8.079350304      2.622      5.182
REMARK  15 active torsions:
REMARK  status: ('A' for Active; 'I' for Inactive)
REMARK    1  A    between atoms: C3_4  and  N2_5 
REMARK    2  A    between atoms: N2_5  and  C4_7 
REMARK    3  A    between atoms: C4_7  and  O1_8 
REMARK    4  A    between atoms: C4_7  and  C5_10 
REMARK    5  A    between atoms: C5_10  and  O2_11 
REMARK    6  A    between atoms: C5_10  and  C6_13 
REMARK    7  A    between atoms: C6_13  and  N3_14 
REMARK    8  A    between atoms: C6_13  and  C7_18 
REMARK    9  A    between atoms: C8_19  and  O3_20 
REMARK   10  A    between atoms: O3_20  and  C9_21 
REMARK   11  A    between atoms: C9_21  and  C10_22 
REMARK   12  A    between atoms: C13_29  and  N6_30 
REMARK   13  A    between atoms: C14_35  and  N8_36 
REMARK   14  A    between atoms: N11_46  and  N12_47 
REMARK   15  A    between atoms: N12_47  and  N13_49 
ROOT
HETATM    1  C7  UNL     1      25.533  36.014 -21.103  1.00  0.00     0.188 C 
HETATM    2  C8  UNL     1      24.622  36.298 -19.945  1.00  0.00     0.136 C 
HETATM    3  N10 UNL     1      24.776  35.638 -18.853  1.00  0.00    -0.372 N 
ATOM      4  H10 UNL     1      24.162  35.822 -18.060  1.00  0.00     0.161 HD
HETATM    5  C16 UNL     1      25.809  34.640 -18.739  1.00  0.00     0.138 C 
HETATM    6  C17 UNL     1      27.005  34.854 -19.596  1.00  0.00     0.135 C 
HETATM    7  N11 UNL     1      26.881  35.908 -20.581  1.00  0.00    -0.201 NA
ENDROOT
BRANCH   2   8
HETATM    8  O3  UNL     1      23.631  37.257 -20.046  1.00  0.00    -0.332 OA
BRANCH   8   9
HETATM    9  C9  UNL     1      23.674  38.322 -20.953  1.00  0.00     0.235 C 
BRANCH   9  10
HETATM   10  C10 UNL     1      22.576  39.291 -20.852  1.00  0.00     0.050 A 
HETATM   11  C11 UNL     1      22.156  40.043 -21.957  1.00  0.00     0.117 A 
HETATM   12  N4  UNL     1      21.161  40.941 -21.885  1.00  0.00    -0.348 N 
HETATM   13  C12 UNL     1      20.524  41.152 -20.725  1.00  0.00     0.151 A 
ATOM     14  H4  UNL     1      20.889  41.466 -22.717  1.00  0.00     0.167 HD
HETATM   15  N5  UNL     1      19.516  42.057 -20.637  1.00  0.00    -0.174 N 
HETATM   16  C15 UNL     1      20.909  40.432 -19.615  1.00  0.00     0.122 A 
HETATM   17  C13 UNL     1      18.868  42.278 -19.475  1.00  0.00     0.679 A 
ATOM     18  H5  UNL     1      19.244  42.582 -21.468  1.00  0.00     0.186 HD
HETATM   19  N7  UNL     1      19.242  41.578 -18.395  1.00  0.00    -0.175 N 
HETATM   20  C14 UNL     1      20.242  40.664 -18.434  1.00  0.00     0.145 A 
ATOM     21  H7  UNL     1      18.757  41.738 -17.512  1.00  0.00     0.186 HD
HETATM   22  N9  UNL     1      21.908  39.537 -19.711  1.00  0.00    -0.351 N 
ATOM     23  H9  UNL     1      22.174  39.017 -18.874  1.00  0.00     0.166 HD
BRANCH  17  24
HETATM   24  N6  UNL     1      17.907  43.130 -19.357  1.00  0.00    -0.234 N 
ATOM     25  H62 UNL     1      17.548  43.583 -20.198  1.00  0.00     0.174 HD
ATOM     26  H61 UNL     1      17.486  43.374 -18.461  1.00  0.00     0.174 HD
ENDBRANCH  17  24
BRANCH  20  27
HETATM   27  N8  UNL     1      20.602  39.988 -17.387  1.00  0.00    -0.383 N 
ATOM     28  H82 UNL     1      20.589  38.970 -17.445  1.00  0.00     0.157 HD
ATOM     29  H81 UNL     1      20.891  40.442 -16.521  1.00  0.00     0.157 HD
ENDBRANCH  20  27
ENDBRANCH   9  10
ENDBRANCH   8   9
ENDBRANCH   2   8
BRANCH   1  30
HETATM   30  C6  UNL     1      25.126  34.843 -21.916  1.00  0.00     0.243 C 
BRANCH  30  31
HETATM   31  C5  UNL     1      23.706  34.787 -22.355  1.00  0.00     0.199 C 
BRANCH  31  32
HETATM   32  C4  UNL     1      22.909  33.698 -21.681  1.00  0.00     0.250 C 
BRANCH  32  33
HETATM   33  N2  UNL     1      21.505  33.983 -21.854  1.00  0.00    -0.346 N 
ATOM     34  H2  UNL     1      20.932  33.336 -22.396  1.00  0.00     0.163 HD
BRANCH  33  35
HETATM   35  C3  UNL     1      20.894  35.142 -21.291  1.00  0.00     0.136 A 
HETATM   36  C2  UNL     1      19.897  35.932 -21.813  1.00  0.00     0.160 A 
HETATM   37  N1  UNL     1      19.618  36.922 -20.948  1.00  0.00    -0.290 N 
HETATM   38  C1  UNL     1      18.638  37.979 -21.096  1.00  0.00     0.178 C 
HETATM   39  N15 UNL     1      20.424  36.743 -19.918  1.00  0.00    -0.240 N 
HETATM   40  N14 UNL     1      21.192  35.690 -20.102  1.00  0.00    -0.270 N 
ATOM     41  H15 UNL     1      20.449  37.340 -19.092  1.00  0.00     0.208 HD
ATOM     42  H14 UNL     1      21.897  35.347 -19.449  1.00  0.00     0.190 HD
ENDBRANCH  33  35
ENDBRANCH  32  33
BRANCH  32  43
HETATM   43  O1  UNL     1      23.142  32.436 -22.179  1.00  0.00    -0.374 OA
ATOM     44  H1  UNL     1      22.674  32.362 -23.003  1.00  0.00     0.212 HD
ENDBRANCH  32  43
ENDBRANCH  31  32
BRANCH  31  45
HETATM   45  O2  UNL     1      23.473  34.749 -23.700  1.00  0.00    -0.389 OA
ATOM     46  H2  UNL     1      24.196  34.310 -24.132  1.00  0.00     0.210 HD
ENDBRANCH  31  45
ENDBRANCH  30  31
BRANCH  30  47
HETATM   47  N3  UNL     1      25.948  34.653 -23.096  1.00  0.00    -0.070 N 
ATOM     48  H33 UNL     1      25.843  33.727 -23.511  1.00  0.00     0.274 HD
ATOM     49  H32 UNL     1      25.626  35.193 -23.898  1.00  0.00     0.274 HD
ATOM     50  H31 UNL     1      26.910  34.865 -22.831  1.00  0.00     0.274 HD
ENDBRANCH  30  47
ENDBRANCH   1  30
BRANCH   7  51
HETATM   51  N12 UNL     1      27.346  37.070 -20.020  1.00  0.00    -0.268 N 
ATOM     52  H12 UNL     1      27.072  37.363 -19.082  1.00  0.00     0.201 HD
BRANCH  51  53
HETATM   53  N13 UNL     1      28.199  37.814 -20.790  1.00  0.00    -0.335 N 
ATOM     54 2H13 UNL     1      28.959  37.373 -21.308  1.00  0.00     0.177 HD
ATOM     55 1H13 UNL     1      28.027  38.819 -20.810  1.00  0.00     0.177 HD
ENDBRANCH  51  53
ENDBRANCH   7  51
TORSDOF 15
ENDMDL
MODEL 3
REMARK VINA RESULT: -7.866673196      2.912      6.443
REMARK  15 active torsions:
REMARK  status: ('A' for Active; 'I' for Inactive)
REMARK    1  A    between atoms: C3_4  and  N2_5 
REMARK    2  A    between atoms: N2_5  and  C4_7 
REMARK    3  A    between atoms: C4_7  and  O1_8 
REMARK    4  A    between atoms: C4_7  and  C5_10 
REMARK    5  A    between atoms: C5_10  and  O2_11 
REMARK    6  A    between atoms: C5_10  and  C6_13 
REMARK    7  A    between atoms: C6_13  and  N3_14 
REMARK    8  A    between atoms: C6_13  and  C7_18 
REMARK    9  A    between atoms: C8_19  and  O3_20 
REMARK   10  A    between atoms: O3_20  and  C9_21 
REMARK   11  A    between atoms: C9_21  and  C10_22 
REMARK   12  A    between atoms: C13_29  and  N6_30 
REMARK   13  A    between atoms: C14_35  and  N8_36 
REMARK   14  A    between atoms: N11_46  and  N12_47 
REMARK   15  A    between atoms: N12_47  and  N13_49 
ROOT
HETATM    1  C7  UNL     1      23.728  36.139 -20.334  1.00  0.00     0.188 C 
HETATM    2  C8  UNL     1      23.624  36.904 -21.622  1.00  0.00     0.136 C 
HETATM    3  N10 UNL     1      23.412  36.260 -22.714  1.00  0.00    -0.372 N 
ATOM      4  H10 UNL     1      23.340  36.769 -23.595  1.00  0.00     0.161 HD
HETATM    5  C16 UNL     1      23.275  34.826 -22.706  1.00  0.00     0.138 C 
HETATM    6  C17 UNL     1      22.757  34.238 -21.442  1.00  0.00     0.135 C 
HETATM    7  N11 UNL     1      22.665  35.154 -20.325  1.00  0.00    -0.201 NA
ENDROOT
BRANCH   2   8
HETATM    8  O3  UNL     1      23.751  38.281 -21.636  1.00  0.00    -0.332 OA
BRANCH   8   9
HETATM    9  C9  UNL     1      22.674  39.155 -21.825  1.00  0.00     0.235 C 
BRANCH   9  10
HETATM   10  C10 UNL     1      22.107  39.741 -20.604  1.00  0.00     0.050 A 
HETATM   11  C11 UNL     1      21.327  38.985 -19.720  1.00  0.00     0.117 A 
HETATM   12  N4  UNL     1      20.791  39.503 -18.603  1.00  0.00    -0.348 N 
HETATM   13  C12 UNL     1      20.990  40.792 -18.294  1.00  0.00     0.151 A 
ATOM     14  H4  UNL     1      20.230  38.914 -17.988  1.00  0.00     0.167 HD
HETATM   15  N5  UNL     1      20.454  41.330 -17.169  1.00  0.00    -0.174 N 
HETATM   16  C15 UNL     1      21.751  41.568 -19.140  1.00  0.00     0.122 A 
HETATM   17  C13 UNL     1      20.647  42.625 -16.847  1.00  0.00     0.679 A 
ATOM     18  H5  UNL     1      19.892  40.742 -16.554  1.00  0.00     0.186 HD
HETATM   19  N7  UNL     1      21.388  43.381 -17.670  1.00  0.00    -0.175 N 
HETATM   20  C14 UNL     1      21.943  42.889 -18.803  1.00  0.00     0.145 A 
ATOM     21  H7  UNL     1      21.540  44.362 -17.433  1.00  0.00     0.186 HD
HETATM   22  N9  UNL     1      22.279  41.028 -20.252  1.00  0.00    -0.351 N 
ATOM     23  H9  UNL     1      22.839  41.625 -20.861  1.00  0.00     0.166 HD
BRANCH  17  24
HETATM   24  N6  UNL     1      20.152  43.168 -15.786  1.00  0.00    -0.234 N 
ATOM     25  H62 UNL     1      19.170  43.006 -15.567  1.00  0.00     0.174 HD
ATOM     26  H61 UNL     1      20.699  43.752 -15.154  1.00  0.00     0.174 HD
ENDBRANCH  17  24
BRANCH  20  27
HETATM   27  N8  UNL     1      22.660  43.624 -19.597  1.00  0.00    -0.383 N 
ATOM     28  H82 UNL     1      22.187  44.345 -20.141  1.00  0.00     0.157 HD
ATOM     29  H81 UNL     1      23.668  43.499 -19.689  1.00  0.00     0.157 HD
ENDBRANCH  20  27
ENDBRANCH   9  10
ENDBRANCH   8   9
ENDBRANCH   2   8
BRANCH   1  30
HETATM   30  C6  UNL     1      25.069  35.556 -20.089  1.00  0.00     0.243 C 
BRANCH  30  31
HETATM   31  C5  UNL     1      26.205  36.506 -19.951  1.00  0.00     0.199 C 
BRANCH  31  32
HETATM   32  C4  UNL     1      27.102  36.553 -21.163  1.00  0.00     0.250 C 
BRANCH  32  33
HETATM   33  N2  UNL     1      27.015  35.284 -21.846  1.00  0.00    -0.346 N 
ATOM     34  H2  UNL     1      26.326  35.170 -22.590  1.00  0.00     0.163 HD
BRANCH  33  35
HETATM   35  C3  UNL     1      27.863  34.187 -21.515  1.00  0.00     0.136 A 
HETATM   36  C2  UNL     1      28.447  33.264 -22.350  1.00  0.00     0.160 A 
HETATM   37  N1  UNL     1      29.170  32.399 -21.618  1.00  0.00    -0.290 N 
HETATM   38  C1  UNL     1      29.948  31.271 -22.090  1.00  0.00     0.178 C 
HETATM   39  N15 UNL     1      29.033  32.783 -20.363  1.00  0.00    -0.240 N 
HETATM   40  N14 UNL     1      28.259  33.844 -20.279  1.00  0.00    -0.270 N 
ATOM     41  H15 UNL     1      29.469  32.319 -19.565  1.00  0.00     0.208 HD
ATOM     42  H14 UNL     1      28.002  34.326 -19.417  1.00  0.00     0.190 HD
ENDBRANCH  33  35
ENDBRANCH  32  33
BRANCH  32  43
HETATM   43  O1  UNL     1      26.778  37.537 -22.069  1.00  0.00    -0.374 OA
ATOM     44  H1  UNL     1      27.590  37.930 -22.368  1.00  0.00     0.212 HD
ENDBRANCH  32  43
ENDBRANCH  31  32
BRANCH  31  45
HETATM   45  O2  UNL     1      26.971  36.400 -18.826  1.00  0.00    -0.389 OA
ATOM     46  H2  UNL     1      26.472  35.963 -18.147  1.00  0.00     0.210 HD
ENDBRANCH  31  45
ENDBRANCH  30  31
BRANCH  30  47
HETATM   47  N3  UNL     1      25.107  34.674 -18.938  1.00  0.00    -0.070 N 
ATOM     48  H33 UNL     1      25.663  33.833 -19.096  1.00  0.00     0.274 HD
ATOM     49  H32 UNL     1      25.653  35.050 -18.164  1.00  0.00     0.274 HD
ATOM     50  H31 UNL     1      24.140  34.470 -18.683  1.00  0.00     0.274 HD
ENDBRANCH  30  47
ENDBRANCH   1  30
BRANCH   7  51
HETATM   51  N12 UNL     1      21.408  35.703 -20.328  1.00  0.00    -0.268 N 
ATOM     52  H12 UNL     1      21.241  36.669 -20.046  1.00  0.00     0.201 HD
BRANCH  51  53
HETATM   53  N13 UNL     1      20.391  34.881 -20.733  1.00  0.00    -0.335 N 
ATOM     54 2H13 UNL     1      20.563  34.114 -21.383  1.00  0.00     0.177 HD
ATOM     55 1H13 UNL     1      19.469  35.083 -20.348  1.00  0.00     0.177 HD
ENDBRANCH  51  53
ENDBRANCH   7  51
TORSDOF 15
ENDMDL
MODEL 4
REMARK VINA RESULT: -7.860818578      2.092      2.671
REMARK  15 active torsions:
REMARK  status: ('A' for Active; 'I' for Inactive)
REMARK    1  A    between atoms: C3_4  and  N2_5 
REMARK    2  A    between atoms: N2_5  and  C4_7 
REMARK    3  A    between atoms: C4_7  and  O1_8 
REMARK    4  A    between atoms: C4_7  and  C5_10 
REMARK    5  A    between atoms: C5_10  and  O2_11 
REMARK    6  A    between atoms: C5_10  and  C6_13 
REMARK    7  A    between atoms: C6_13  and  N3_14 
REMARK    8  A    between atoms: C6_13  and  C7_18 
REMARK    9  A    between atoms: C8_19  and  O3_20 
REMARK   10  A    between atoms: O3_20  and  C9_21 
REMARK   11  A    between atoms: C9_21  and  C10_22 
REMARK   12  A    between atoms: C13_29  and  N6_30 
REMARK   13  A    between atoms: C14_35  and  N8_36 
REMARK   14  A    between atoms: N11_46  and  N12_47 
REMARK   15  A    between atoms: N12_47  and  N13_49 
ROOT
HETATM    1  C7  UNL     1      26.319  34.759 -20.324  1.00  0.00     0.188 C 
HETATM    2  C8  UNL     1      25.443  33.891 -21.181  1.00  0.00     0.136 C 
HETATM    3  N10 UNL     1      25.698  33.797 -22.438  1.00  0.00    -0.372 N 
ATOM      4  H10 UNL     1      25.110  33.211 -23.030  1.00  0.00     0.161 HD
HETATM    5  C16 UNL     1      26.806  34.512 -23.018  1.00  0.00     0.138 C 
HETATM    6  C17 UNL     1      27.942  34.790 -22.098  1.00  0.00     0.135 C 
HETATM    7  N11 UNL     1      27.693  34.499 -20.702  1.00  0.00    -0.201 NA
ENDROOT
BRANCH   2   8
HETATM    8  O3  UNL     1      24.380  33.199 -20.631  1.00  0.00    -0.332 OA
BRANCH   8   9
HETATM    9  C9  UNL     1      23.379  33.804 -19.862  1.00  0.00     0.235 C 
BRANCH   9  10
HETATM   10  C10 UNL     1      22.138  34.132 -20.575  1.00  0.00     0.050 A 
HETATM   11  C11 UNL     1      21.643  33.317 -21.601  1.00  0.00     0.117 A 
HETATM   12  N4  UNL     1      20.516  33.604 -22.273  1.00  0.00    -0.348 N 
HETATM   13  C12 UNL     1      19.815  34.707 -21.976  1.00  0.00     0.151 A 
ATOM     14  H4  UNL     1      20.193  32.980 -23.012  1.00  0.00     0.167 HD
HETATM   15  N5  UNL     1      18.674  35.010 -22.646  1.00  0.00    -0.174 N 
HETATM   16  C15 UNL     1      20.271  35.534 -20.973  1.00  0.00     0.122 A 
HETATM   17  C13 UNL     1      17.960  36.117 -22.357  1.00  0.00     0.679 A 
ATOM     18  H5  UNL     1      18.351  34.387 -23.386  1.00  0.00     0.186 HD
HETATM   19  N7  UNL     1      18.404  36.922 -21.380  1.00  0.00    -0.175 N 
HETATM   20  C14 UNL     1      19.536  36.661 -20.684  1.00  0.00     0.145 A 
ATOM     21  H7  UNL     1      17.869  37.761 -21.154  1.00  0.00     0.186 HD
HETATM   22  N9  UNL     1      21.402  35.226 -20.313  1.00  0.00    -0.351 N 
ATOM     23  H9  UNL     1      21.718  35.856 -19.575  1.00  0.00     0.166 HD
BRANCH  17  24
HETATM   24  N6  UNL     1      16.873  36.434 -22.974  1.00  0.00    -0.234 N 
ATOM     25  H62 UNL     1      16.066  35.815 -22.893  1.00  0.00     0.174 HD
ATOM     26  H61 UNL     1      16.780  37.277 -23.540  1.00  0.00     0.174 HD
ENDBRANCH  17  24
BRANCH  20  27
HETATM   27  N8  UNL     1      19.962  37.443 -19.740  1.00  0.00    -0.383 N 
ATOM     28  H82 UNL     1      19.408  38.269 -19.514  1.00  0.00     0.157 HD
ATOM     29  H81 UNL     1      20.824  37.255 -19.228  1.00  0.00     0.157 HD
ENDBRANCH  20  27
ENDBRANCH   9  10
ENDBRANCH   8   9
ENDBRANCH   2   8
BRANCH   1  30
HETATM   30  C6  UNL     1      25.962  36.197 -20.363  1.00  0.00     0.243 C 
BRANCH  30  31
HETATM   31  C5  UNL     1      24.664  36.588 -19.751  1.00  0.00     0.199 C 
BRANCH  31  32
HETATM   32  C4  UNL     1      24.025  37.787 -20.408  1.00  0.00     0.250 C 
BRANCH  32  33
HETATM   33  N2  UNL     1      24.124  37.632 -21.839  1.00  0.00    -0.346 N 
ATOM     34  H2  UNL     1      23.681  36.826 -22.281  1.00  0.00     0.163 HD
BRANCH  33  35
HETATM   35  C3  UNL     1      24.820  38.572 -22.655  1.00  0.00     0.136 A 
HETATM   36  C2  UNL     1      25.940  38.379 -23.429  1.00  0.00     0.160 A 
HETATM   37  N1  UNL     1      26.263  39.534 -24.036  1.00  0.00    -0.290 N 
HETATM   38  C1  UNL     1      27.369  39.784 -24.938  1.00  0.00     0.178 C 
HETATM   39  N15 UNL     1      25.361  40.415 -23.645  1.00  0.00    -0.240 N 
HETATM   40  N14 UNL     1      24.493  39.863 -22.823  1.00  0.00    -0.270 N 
ATOM     41  H15 UNL     1      25.338  41.391 -23.940  1.00  0.00     0.208 HD
ATOM     42  H14 UNL     1      23.703  40.338 -22.386  1.00  0.00     0.190 HD
ENDBRANCH  33  35
ENDBRANCH  32  33
BRANCH  32  43
HETATM   43  O1  UNL     1      22.695  37.959 -20.099  1.00  0.00    -0.374 OA
ATOM     44  H1  UNL     1      22.426  38.801 -20.447  1.00  0.00     0.212 HD
ENDBRANCH  32  43
ENDBRANCH  31  32
BRANCH  31  45
HETATM   45  O2  UNL     1      24.638  36.749 -18.396  1.00  0.00    -0.389 OA
ATOM     46  H2  UNL     1      24.647  35.896 -17.978  1.00  0.00     0.210 HD
ENDBRANCH  31  45
ENDBRANCH  30  31
BRANCH  30  47
HETATM   47  N3  UNL     1      26.981  37.055 -19.789  1.00  0.00    -0.070 N 
ATOM     48  H33 UNL     1      26.993  37.034 -18.769  1.00  0.00     0.274 HD
ATOM     49  H32 UNL     1      27.927  36.706 -19.939  1.00  0.00     0.274 HD
ATOM     50  H31 UNL     1      26.836  37.990 -20.168  1.00  0.00     0.274 HD
ENDBRANCH  30  47
ENDBRANCH   1  30
BRANCH   7  51
HETATM   51  N12 UNL     1      28.096  33.211 -20.458  1.00  0.00    -0.268 N 
ATOM     52  H12 UNL     1      27.427  32.456 -20.305  1.00  0.00     0.201 HD
BRANCH  51  53
HETATM   53  N13 UNL     1      29.448  32.996 -20.432  1.00  0.00    -0.335 N 
ATOM     54 2H13 UNL     1      29.833  32.057 -20.535  1.00  0.00     0.177 HD
ATOM     55 1H13 UNL     1      30.033  33.821 -20.303  1.00  0.00     0.177 HD
ENDBRANCH  51  53
ENDBRANCH   7  51
TORSDOF 15
ENDMDL
MODEL 5
REMARK VINA RESULT: -7.774106581      1.955      5.070
REMARK  15 active torsions:
REMARK  status: ('A' for Active; 'I' for Inactive)
REMARK    1  A    between atoms: C3_4  and  N2_5 
REMARK    2  A    between atoms: N2_5  and  C4_7 
REMARK    3  A    between atoms: C4_7  and  O1_8 
REMARK    4  A    between atoms: C4_7  and  C5_10 
REMARK    5  A    between atoms: C5_10  and  O2_11 
REMARK    6  A    between atoms: C5_10  and  C6_13 
REMARK    7  A    between atoms: C6_13  and  N3_14 
REMARK    8  A    between atoms: C6_13  and  C7_18 
REMARK    9  A    between atoms: C8_19  and  O3_20 
REMARK   10  A    between atoms: O3_20  and  C9_21 
REMARK   11  A    between atoms: C9_21  and  C10_22 
REMARK   12  A    between atoms: C13_29  and  N6_30 
REMARK   13  A    between atoms: C14_35  and  N8_36 
REMARK   14  A    between atoms: N11_46  and  N12_47 
REMARK   15  A    between atoms: N12_47  and  N13_49 
ROOT
HETATM    1  C7  UNL     1      25.645  35.823 -21.512  1.00  0.00     0.188 C 
HETATM    2  C8  UNL     1      24.189  35.898 -21.872  1.00  0.00     0.136 C 
HETATM    3  N10 UNL     1      23.714  37.005 -22.320  1.00  0.00    -0.372 N 
ATOM      4  H10 UNL     1      22.727  37.068 -22.566  1.00  0.00     0.161 HD
HETATM    5  C16 UNL     1      24.563  38.158 -22.477  1.00  0.00     0.138 C 
HETATM    6  C17 UNL     1      26.000  37.867 -22.729  1.00  0.00     0.135 C 
HETATM    7  N11 UNL     1      26.389  36.481 -22.567  1.00  0.00    -0.201 NA
ENDROOT
BRANCH   2   8
HETATM    8  O3  UNL     1      23.369  34.794 -21.726  1.00  0.00    -0.332 OA
BRANCH   8   9
HETATM    9  C9  UNL     1      22.506  34.610 -20.640  1.00  0.00     0.235 C 
BRANCH   9  10
HETATM   10  C10 UNL     1      21.209  35.290 -20.734  1.00  0.00     0.050 A 
HETATM   11  C11 UNL     1      20.122  34.710 -21.400  1.00  0.00     0.117 A 
HETATM   12  N4  UNL     1      18.929  35.319 -21.506  1.00  0.00    -0.348 N 
HETATM   13  C12 UNL     1      18.739  36.530 -20.965  1.00  0.00     0.151 A 
ATOM     14  H4  UNL     1      18.166  34.858 -22.001  1.00  0.00     0.167 HD
HETATM   15  N5  UNL     1      17.540  37.158 -21.064  1.00  0.00    -0.174 N 
HETATM   16  C15 UNL     1      19.785  37.133 -20.302  1.00  0.00     0.122 A 
HETATM   17  C13 UNL     1      17.336  38.377 -20.524  1.00  0.00     0.679 A 
ATOM     18  H5  UNL     1      16.776  36.698 -21.559  1.00  0.00     0.186 HD
HETATM   19  N7  UNL     1      18.354  38.964 -19.878  1.00  0.00    -0.175 N 
HETATM   20  C14 UNL     1      19.568  38.377 -19.753  1.00  0.00     0.145 A 
ATOM     21  H7  UNL     1      18.208  39.885 -19.465  1.00  0.00     0.186 HD
HETATM   22  N9  UNL     1      20.970  36.504 -20.207  1.00  0.00    -0.351 N 
ATOM     23  H9  UNL     1      21.728  36.973 -19.711  1.00  0.00     0.166 HD
BRANCH  17  24
HETATM   24  N6  UNL     1      16.210  39.000 -20.600  1.00  0.00    -0.234 N 
ATOM     25  H62 UNL     1      15.398  38.604 -20.126  1.00  0.00     0.174 HD
ATOM     26  H61 UNL     1      16.091  39.874 -21.112  1.00  0.00     0.174 HD
ENDBRANCH  17  24
BRANCH  20  27
HETATM   27  N8  UNL     1      20.551  38.948 -19.127  1.00  0.00    -0.383 N 
ATOM     28  H82 UNL     1      20.375  39.843 -18.671  1.00  0.00     0.157 HD
ATOM     29  H81 UNL     1      21.481  38.531 -19.081  1.00  0.00     0.157 HD
ENDBRANCH  20  27
ENDBRANCH   9  10
ENDBRANCH   8   9
ENDBRANCH   2   8
BRANCH   1  30
HETATM   30  C6  UNL     1      25.959  36.345 -20.161  1.00  0.00     0.243 C 
BRANCH  30  31
HETATM   31  C5  UNL     1      25.995  35.360 -19.047  1.00  0.00     0.199 C 
BRANCH  31  32
HETATM   32  C4  UNL     1      26.238  33.942 -19.504  1.00  0.00     0.250 C 
BRANCH  32  33
HETATM   33  N2  UNL     1      27.644  33.649 -19.360  1.00  0.00    -0.346 N 
ATOM     34  H2  UNL     1      28.090  33.798 -18.455  1.00  0.00     0.163 HD
BRANCH  33  35
HETATM   35  C3  UNL     1      28.428  33.158 -20.445  1.00  0.00     0.136 A 
HETATM   36  C2  UNL     1      28.830  31.869 -20.705  1.00  0.00     0.160 A 
HETATM   37  N1  UNL     1      29.557  31.852 -21.835  1.00  0.00    -0.290 N 
HETATM   38  C1  UNL     1      30.176  30.708 -22.474  1.00  0.00     0.178 C 
HETATM   39  N15 UNL     1      29.600  33.101 -22.260  1.00  0.00    -0.240 N 
HETATM   40  N14 UNL     1      28.935  33.894 -21.447  1.00  0.00    -0.270 N 
ATOM     41  H15 UNL     1      30.082  33.409 -23.103  1.00  0.00     0.208 HD
ATOM     42  H14 UNL     1      28.823  34.902 -21.559  1.00  0.00     0.190 HD
ENDBRANCH  33  35
ENDBRANCH  32  33
BRANCH  32  43
HETATM   43  O1  UNL     1      25.540  32.992 -18.794  1.00  0.00    -0.374 OA
ATOM     44  H1  UNL     1      25.190  33.414 -18.018  1.00  0.00     0.212 HD
ENDBRANCH  32  43
ENDBRANCH  31  32
BRANCH  31  45
HETATM   45  O2  UNL     1      24.951  35.377 -18.168  1.00  0.00    -0.389 OA
ATOM     46  H2  UNL     1      24.965  34.582 -17.649  1.00  0.00     0.210 HD
ENDBRANCH  31  45
ENDBRANCH  30  31
BRANCH  30  47
HETATM   47  N3  UNL     1      27.200  37.094 -20.111  1.00  0.00    -0.070 N 
ATOM     48  H33 UNL     1      27.162  37.967 -20.637  1.00  0.00     0.274 HD
ATOM     49  H32 UNL     1      27.384  37.501 -19.194  1.00  0.00     0.274 HD
ATOM     50  H31 UNL     1      27.942  36.468 -20.426  1.00  0.00     0.274 HD
ENDBRANCH  30  47
ENDBRANCH   1  30
BRANCH   7  51
HETATM   51  N12 UNL     1      26.276  35.864 -23.787  1.00  0.00    -0.268 N 
ATOM     52  H12 UNL     1      26.071  36.387 -24.639  1.00  0.00     0.201 HD
BRANCH  51  53
HETATM   53  N13 UNL     1      26.454  34.507 -23.796  1.00  0.00    -0.335 N 
ATOM     54 2H13 UNL     1      25.670  33.876 -23.961  1.00  0.00     0.177 HD
ATOM     55 1H13 UNL     1      27.404  34.176 -23.630  1.00  0.00     0.177 HD
ENDBRANCH  51  53
ENDBRANCH   7  51
TORSDOF 15
ENDMDL
