MODEL 1
REMARK VINA RESULT: -7.567183097      0.000      0.000
REMARK  9 active torsions:
REMARK  status: ('A' for Active; 'I' for Inactive)
REMARK    1  A    between atoms: O1_2  and  C2_3 
REMARK    2  A    between atoms: C2_3  and  C3_4 
REMARK    3  A    between atoms: C4_5  and  C5_6 
REMARK    4  A    between atoms: C7_9  and  C8_10 
REMARK    5  A    between atoms: C8_10  and  C9_11 
REMARK    6  A    between atoms: C9_11  and  O3_12 
REMARK    7  A    between atoms: C9_11  and  C10_14 
REMARK    8  A    between atoms: C16_21  and  O5_22 
REMARK    9  A    between atoms: C21_28  and  O6_29 
ROOT
HETATM    1  C5  UNL     1       7.312   5.878   3.702  1.00  0.00     0.035 C 
HETATM    2  C6  UNL     1       7.089   4.903   4.592  1.00  0.00     0.076 C 
HETATM    3  O2  UNL     1       8.022   3.933   4.857  1.00  0.00    -0.346 OA
HETATM    4  C7  UNL     1       7.629   2.629   5.188  1.00  0.00     0.142 C 
HETATM    5  C14 UNL     1       6.575   2.562   6.241  1.00  0.00     0.015 C 
HETATM    6  C15 UNL     1       5.558   1.514   5.849  1.00  0.00     0.021 C 
HETATM    7  C16 UNL     1       7.163   2.158   7.565  1.00  0.00     0.129 C 
HETATM    8  C17 UNL     1       7.077   3.352   8.474  1.00  0.00     0.037 C 
HETATM    9  C18 UNL     1       6.468   4.481   7.709  1.00  0.00    -0.008 C 
HETATM   10  C19 UNL     1       5.402   5.109   8.596  1.00  0.00     0.010 C 
HETATM   11  C20 UNL     1       5.839   3.845   6.477  1.00  0.00     0.038 C 
HETATM   12  C21 UNL     1       5.834   4.798   5.349  1.00  0.00     0.180 C 
ENDROOT
BRANCH   4  13
HETATM   13  C8  UNL     1       7.224   1.952   3.894  1.00  0.00     0.070 C 
BRANCH  13  14
HETATM   14  C9  UNL     1       8.424   1.590   3.053  1.00  0.00     0.155 C 
BRANCH  14  15
HETATM   15  O3  UNL     1       9.616   2.047   3.596  1.00  0.00    -0.391 OA
ATOM     16  H3  UNL     1      10.376   1.760   3.105  1.00  0.00     0.210 HD
ENDBRANCH  14  15
BRANCH  14  17
HETATM   17  C10 UNL     1       8.539   0.113   2.933  1.00  0.00    -0.005 A 
HETATM   18  C11 UNL     1       9.701  -0.585   3.213  1.00  0.00     0.036 A 
HETATM   19  C12 UNL     1       9.406  -1.908   2.984  1.00  0.00     0.142 A 
HETATM   20  O4  UNL     1       8.165  -1.999   2.596  1.00  0.00    -0.334 OA
HETATM   21  C13 UNL     1       7.597  -0.813   2.549  1.00  0.00     0.151 A 
ENDBRANCH  14  17
ENDBRANCH  13  14
ENDBRANCH   4  13
BRANCH   7  22
HETATM   22  O5  UNL     1       8.489   1.771   7.497  1.00  0.00    -0.395 OA
ATOM     23  H5  UNL     1       8.851   1.483   8.327  1.00  0.00     0.210 HD
ENDBRANCH   7  22
BRANCH   1  24
HETATM   24  C4  UNL     1       6.352   6.902   3.408  1.00  0.00     0.001 C 
HETATM   25  C3  UNL     1       5.843   7.060   2.203  1.00  0.00    -0.001 C 
BRANCH  25  26
HETATM   26  C2  UNL     1       4.862   8.129   1.961  1.00  0.00     0.194 C 
BRANCH  26  27
HETATM   27  O1  UNL     1       4.093   8.342   3.081  1.00  0.00    -0.392 OA
HETATM   28  C1  UNL     1       3.777   9.675   3.229  1.00  0.00     0.201 C 
ENDBRANCH  26  27
ENDBRANCH  25  26
ENDBRANCH   1  24
BRANCH  12  29
HETATM   29  O6  UNL     1       4.719   4.585   4.501  1.00  0.00    -0.389 OA
ATOM     30  H6  UNL     1       4.402   5.395   4.119  1.00  0.00     0.210 HD
ENDBRANCH  12  29
TORSDOF 9
ENDMDL
MODEL 2
REMARK VINA RESULT: -7.296406879      1.255      1.862
REMARK  9 active torsions:
REMARK  status: ('A' for Active; 'I' for Inactive)
REMARK    1  A    between atoms: O1_2  and  C2_3 
REMARK    2  A    between atoms: C2_3  and  C3_4 
REMARK    3  A    between atoms: C4_5  and  C5_6 
REMARK    4  A    between atoms: C7_9  and  C8_10 
REMARK    5  A    between atoms: C8_10  and  C9_11 
REMARK    6  A    between atoms: C9_11  and  O3_12 
REMARK    7  A    between atoms: C9_11  and  C10_14 
REMARK    8  A    between atoms: C16_21  and  O5_22 
REMARK    9  A    between atoms: C21_28  and  O6_29 
ROOT
HETATM    1  C5  UNL     1       7.310   6.097   3.801  1.00  0.00     0.035 C 
HETATM    2  C6  UNL     1       7.088   5.129   4.698  1.00  0.00     0.076 C 
HETATM    3  O2  UNL     1       8.083   4.279   5.112  1.00  0.00    -0.346 OA
HETATM    4  C7  UNL     1       7.797   2.948   5.447  1.00  0.00     0.142 C 
HETATM    5  C14 UNL     1       6.636   2.791   6.370  1.00  0.00     0.015 C 
HETATM    6  C15 UNL     1       5.797   1.624   5.904  1.00  0.00     0.021 C 
HETATM    7  C16 UNL     1       7.099   2.493   7.770  1.00  0.00     0.129 C 
HETATM    8  C17 UNL     1       6.772   3.695   8.612  1.00  0.00     0.037 C 
HETATM    9  C18 UNL     1       6.141   4.725   7.735  1.00  0.00    -0.008 C 
HETATM   10  C19 UNL     1       4.912   5.252   8.463  1.00  0.00     0.010 C 
HETATM   11  C20 UNL     1       5.741   3.988   6.464  1.00  0.00     0.038 C 
HETATM   12  C21 UNL     1       5.769   4.902   5.305  1.00  0.00     0.180 C 
ENDROOT
BRANCH   4  13
HETATM   13  C8  UNL     1       7.631   2.194   4.144  1.00  0.00     0.070 C 
BRANCH  13  14
HETATM   14  C9  UNL     1       8.734   1.185   3.936  1.00  0.00     0.155 C 
BRANCH  14  15
HETATM   15  O3  UNL     1       8.263  -0.033   3.466  1.00  0.00    -0.391 OA
ATOM     16  H3  UNL     1       8.192  -0.058   2.520  1.00  0.00     0.210 HD
ENDBRANCH  14  15
BRANCH  14  17
HETATM   17  C10 UNL     1       9.709   1.690   2.934  1.00  0.00    -0.005 A 
HETATM   18  C11 UNL     1      10.434   2.858   3.100  1.00  0.00     0.036 A 
HETATM   19  C12 UNL     1      11.212   2.976   1.973  1.00  0.00     0.142 A 
HETATM   20  O4  UNL     1      10.973   1.961   1.190  1.00  0.00    -0.334 OA
HETATM   21  C13 UNL     1      10.077   1.157   1.721  1.00  0.00     0.151 A 
ENDBRANCH  14  17
ENDBRANCH  13  14
ENDBRANCH   4  13
BRANCH   7  22
HETATM   22  O5  UNL     1       8.458   2.258   7.875  1.00  0.00    -0.395 OA
ATOM     23  H5  UNL     1       8.824   1.773   7.145  1.00  0.00     0.210 HD
ENDBRANCH   7  22
BRANCH   1  24
HETATM   24  C4  UNL     1       6.287   6.998   3.354  1.00  0.00     0.001 C 
HETATM   25  C3  UNL     1       6.018   7.173   2.075  1.00  0.00    -0.001 C 
BRANCH  25  26
HETATM   26  C2  UNL     1       4.957   8.109   1.677  1.00  0.00     0.194 C 
BRANCH  26  27
HETATM   27  O1  UNL     1       3.886   8.020   2.533  1.00  0.00    -0.392 OA
HETATM   28  C1  UNL     1       2.834   8.804   2.110  1.00  0.00     0.201 C 
ENDBRANCH  26  27
ENDBRANCH  25  26
ENDBRANCH   1  24
BRANCH  12  29
HETATM   29  O6  UNL     1       4.796   4.540   4.340  1.00  0.00    -0.389 OA
ATOM     30  H6  UNL     1       3.930   4.460   4.722  1.00  0.00     0.210 HD
ENDBRANCH  12  29
TORSDOF 9
ENDMDL
MODEL 3
REMARK VINA RESULT: -6.899290184      3.130      6.339
REMARK  9 active torsions:
REMARK  status: ('A' for Active; 'I' for Inactive)
REMARK    1  A    between atoms: O1_2  and  C2_3 
REMARK    2  A    between atoms: C2_3  and  C3_4 
REMARK    3  A    between atoms: C4_5  and  C5_6 
REMARK    4  A    between atoms: C7_9  and  C8_10 
REMARK    5  A    between atoms: C8_10  and  C9_11 
REMARK    6  A    between atoms: C9_11  and  O3_12 
REMARK    7  A    between atoms: C9_11  and  C10_14 
REMARK    8  A    between atoms: C16_21  and  O5_22 
REMARK    9  A    between atoms: C21_28  and  O6_29 
ROOT
HETATM    1  C5  UNL     1       9.034   8.804   3.573  1.00  0.00     0.035 C 
HETATM    2  C6  UNL     1       7.797   8.326   3.391  1.00  0.00     0.076 C 
HETATM    3  O2  UNL     1       6.916   8.175   4.433  1.00  0.00    -0.346 OA
HETATM    4  C7  UNL     1       5.984   7.128   4.439  1.00  0.00     0.142 C 
HETATM    5  C14 UNL     1       5.225   6.985   3.163  1.00  0.00     0.015 C 
HETATM    6  C15 UNL     1       5.116   5.516   2.822  1.00  0.00     0.021 C 
HETATM    7  C16 UNL     1       3.829   7.528   3.303  1.00  0.00     0.129 C 
HETATM    8  C17 UNL     1       3.746   8.767   2.455  1.00  0.00     0.037 C 
HETATM    9  C18 UNL     1       5.080   8.993   1.824  1.00  0.00    -0.008 C 
HETATM   10  C19 UNL     1       4.841   9.300   0.352  1.00  0.00     0.010 C 
HETATM   11  C20 UNL     1       5.835   7.681   1.986  1.00  0.00     0.038 C 
HETATM   12  C21 UNL     1       7.289   7.929   2.071  1.00  0.00     0.180 C 
ENDROOT
BRANCH   4  13
HETATM   13  C8  UNL     1       6.736   5.872   4.831  1.00  0.00     0.070 C 
BRANCH  13  14
HETATM   14  C9  UNL     1       6.284   5.344   6.169  1.00  0.00     0.155 C 
BRANCH  14  15
HETATM   15  O3  UNL     1       5.020   5.794   6.524  1.00  0.00    -0.391 OA
ATOM     16  H3  UNL     1       5.037   6.393   7.260  1.00  0.00     0.210 HD
ENDBRANCH  14  15
BRANCH  14  17
HETATM   17  C10 UNL     1       6.223   3.859   6.140  1.00  0.00    -0.005 A 
HETATM   18  C11 UNL     1       5.139   3.132   6.601  1.00  0.00     0.036 A 
HETATM   19  C12 UNL     1       5.465   1.811   6.405  1.00  0.00     0.142 A 
HETATM   20  O4  UNL     1       6.652   1.747   5.869  1.00  0.00    -0.334 OA
HETATM   21  C13 UNL     1       7.153   2.951   5.689  1.00  0.00     0.151 A 
ENDBRANCH  14  17
ENDBRANCH  13  14
ENDBRANCH   4  13
BRANCH   7  22
HETATM   22  O5  UNL     1       3.489   7.876   4.598  1.00  0.00    -0.395 OA
ATOM     23  H5  UNL     1       3.249   8.790   4.702  1.00  0.00     0.210 HD
ENDBRANCH   7  22
BRANCH   1  24
HETATM   24  C4  UNL     1       9.971   8.972   2.500  1.00  0.00     0.001 C 
HETATM   25  C3  UNL     1      11.245   9.230   2.717  1.00  0.00    -0.001 C 
BRANCH  25  26
HETATM   26  C2  UNL     1      12.160   9.392   1.577  1.00  0.00     0.194 C 
BRANCH  26  27
HETATM   27  O1  UNL     1      12.051   8.327   0.714  1.00  0.00    -0.392 OA
HETATM   28  C1  UNL     1      13.076   7.424   0.894  1.00  0.00     0.201 C 
ENDBRANCH  26  27
ENDBRANCH  25  26
ENDBRANCH   1  24
BRANCH  12  29
HETATM   29  O6  UNL     1       8.027   6.851   1.521  1.00  0.00    -0.389 OA
ATOM     30  H6  UNL     1       8.135   6.937   0.581  1.00  0.00     0.210 HD
ENDBRANCH  12  29
TORSDOF 9
ENDMDL
MODEL 4
REMARK VINA RESULT: -6.575206415      2.392      8.361
REMARK  9 active torsions:
REMARK  status: ('A' for Active; 'I' for Inactive)
REMARK    1  A    between atoms: O1_2  and  C2_3 
REMARK    2  A    between atoms: C2_3  and  C3_4 
REMARK    3  A    between atoms: C4_5  and  C5_6 
REMARK    4  A    between atoms: C7_9  and  C8_10 
REMARK    5  A    between atoms: C8_10  and  C9_11 
REMARK    6  A    between atoms: C9_11  and  O3_12 
REMARK    7  A    between atoms: C9_11  and  C10_14 
REMARK    8  A    between atoms: C16_21  and  O5_22 
REMARK    9  A    between atoms: C21_28  and  O6_29 
ROOT
HETATM    1  C5  UNL     1       9.048  -2.019   3.530  1.00  0.00     0.035 C 
HETATM    2  C6  UNL     1       9.426  -0.762   3.270  1.00  0.00     0.076 C 
HETATM    3  O2  UNL     1       9.604   0.164   4.267  1.00  0.00    -0.346 OA
HETATM    4  C7  UNL     1       9.319   1.519   4.049  1.00  0.00     0.142 C 
HETATM    5  C14 UNL     1       9.908   2.067   2.793  1.00  0.00     0.015 C 
HETATM    6  C15 UNL     1       8.883   2.951   2.119  1.00  0.00     0.021 C 
HETATM    7  C16 UNL     1      11.117   2.911   3.090  1.00  0.00     0.129 C 
HETATM    8  C17 UNL     1      12.315   2.175   2.558  1.00  0.00     0.037 C 
HETATM    9  C18 UNL     1      11.849   0.885   1.968  1.00  0.00    -0.008 C 
HETATM   10  C19 UNL     1      12.530   0.732   0.615  1.00  0.00     0.010 C 
HETATM   11  C20 UNL     1      10.343   1.036   1.799  1.00  0.00     0.038 C 
HETATM   12  C21 UNL     1       9.677  -0.278   1.906  1.00  0.00     0.180 C 
ENDROOT
BRANCH   4  13
HETATM   13  C8  UNL     1       7.813   1.667   4.117  1.00  0.00     0.070 C 
BRANCH  13  14
HETATM   14  C9  UNL     1       7.344   1.977   5.518  1.00  0.00     0.155 C 
BRANCH  14  15
HETATM   15  O3  UNL     1       8.326   1.754   6.472  1.00  0.00    -0.391 OA
ATOM     16  H3  UNL     1       8.323   0.863   6.800  1.00  0.00     0.210 HD
ENDBRANCH  14  15
BRANCH  14  17
HETATM   17  C10 UNL     1       6.952   3.407   5.622  1.00  0.00    -0.005 A 
HETATM   18  C11 UNL     1       6.727   4.217   4.522  1.00  0.00     0.036 A 
HETATM   19  C12 UNL     1       6.391   5.449   5.029  1.00  0.00     0.142 A 
HETATM   20  O4  UNL     1       6.413   5.387   6.331  1.00  0.00    -0.334 OA
HETATM   21  C13 UNL     1       6.744   4.181   6.740  1.00  0.00     0.151 A 
ENDBRANCH  14  17
ENDBRANCH  13  14
ENDBRANCH   4  13
BRANCH   7  22
HETATM   22  O5  UNL     1      11.324   3.143   4.438  1.00  0.00    -0.395 OA
ATOM     23  H5  UNL     1      11.638   2.384   4.917  1.00  0.00     0.210 HD
ENDBRANCH   7  22
BRANCH   1  24
HETATM   24  C4  UNL     1       8.856  -3.004   2.505  1.00  0.00     0.001 C 
HETATM   25  C3  UNL     1       9.714  -3.985   2.306  1.00  0.00    -0.001 C 
BRANCH  25  26
HETATM   26  C2  UNL     1       9.464  -4.966   1.240  1.00  0.00     0.194 C 
BRANCH  26  27
HETATM   27  O1  UNL     1      10.509  -5.855   1.145  1.00  0.00    -0.392 OA
HETATM   28  C1  UNL     1      11.550  -5.333   0.408  1.00  0.00     0.201 C 
ENDBRANCH  26  27
ENDBRANCH  25  26
ENDBRANCH   1  24
BRANCH  12  29
HETATM   29  O6  UNL     1       8.512  -0.331   1.101  1.00  0.00    -0.389 OA
ATOM     30  H6  UNL     1       8.072   0.510   1.056  1.00  0.00     0.210 HD
ENDBRANCH  12  29
TORSDOF 9
ENDMDL
MODEL 5
REMARK VINA RESULT: -6.396907431      3.238      8.408
REMARK  9 active torsions:
REMARK  status: ('A' for Active; 'I' for Inactive)
REMARK    1  A    between atoms: O1_2  and  C2_3 
REMARK    2  A    between atoms: C2_3  and  C3_4 
REMARK    3  A    between atoms: C4_5  and  C5_6 
REMARK    4  A    between atoms: C7_9  and  C8_10 
REMARK    5  A    between atoms: C8_10  and  C9_11 
REMARK    6  A    between atoms: C9_11  and  O3_12 
REMARK    7  A    between atoms: C9_11  and  C10_14 
REMARK    8  A    between atoms: C16_21  and  O5_22 
REMARK    9  A    between atoms: C21_28  and  O6_29 
ROOT
HETATM    1  C5  UNL     1       9.184  -2.274   3.558  1.00  0.00     0.035 C 
HETATM    2  C6  UNL     1       9.581  -1.051   3.184  1.00  0.00     0.076 C 
HETATM    3  O2  UNL     1       9.800  -0.049   4.095  1.00  0.00    -0.346 OA
HETATM    4  C7  UNL     1       9.538   1.289   3.768  1.00  0.00     0.142 C 
HETATM    5  C14 UNL     1      10.109   1.716   2.458  1.00  0.00     0.015 C 
HETATM    6  C15 UNL     1       9.087   2.562   1.732  1.00  0.00     0.021 C 
HETATM    7  C16 UNL     1      11.341   2.556   2.657  1.00  0.00     0.129 C 
HETATM    8  C17 UNL     1      12.512   1.751   2.166  1.00  0.00     0.037 C 
HETATM    9  C18 UNL     1      12.007   0.426   1.697  1.00  0.00    -0.008 C 
HETATM   10  C19 UNL     1      12.656   0.144   0.349  1.00  0.00     0.010 C 
HETATM   11  C20 UNL     1      10.502   0.595   1.547  1.00  0.00     0.038 C 
HETATM   12  C21 UNL     1       9.812  -0.691   1.779  1.00  0.00     0.180 C 
ENDROOT
BRANCH   4  13
HETATM   13  C8  UNL     1       8.036   1.474   3.854  1.00  0.00     0.070 C 
BRANCH  13  14
HETATM   14  C9  UNL     1       7.668   2.675   4.690  1.00  0.00     0.155 C 
BRANCH  14  15
HETATM   15  O3  UNL     1       6.565   3.355   4.194  1.00  0.00    -0.391 OA
ATOM     16  H3  UNL     1       5.994   3.678   4.881  1.00  0.00     0.210 HD
ENDBRANCH  14  15
BRANCH  14  17
HETATM   17  C10 UNL     1       7.330   2.251   6.075  1.00  0.00    -0.005 A 
HETATM   18  C11 UNL     1       8.243   2.256   7.116  1.00  0.00     0.036 A 
HETATM   19  C12 UNL     1       7.556   1.802   8.216  1.00  0.00     0.142 A 
HETATM   20  O4  UNL     1       6.327   1.543   7.865  1.00  0.00    -0.334 OA
HETATM   21  C13 UNL     1       6.138   1.796   6.588  1.00  0.00     0.151 A 
ENDBRANCH  14  17
ENDBRANCH  13  14
ENDBRANCH   4  13
BRANCH   7  22
HETATM   22  O5  UNL     1      11.582   2.896   3.976  1.00  0.00    -0.395 OA
ATOM     23  H5  UNL     1      12.019   2.217   4.477  1.00  0.00     0.210 HD
ENDBRANCH   7  22
BRANCH   1  24
HETATM   24  C4  UNL     1       8.950  -3.338   2.624  1.00  0.00     0.001 C 
HETATM   25  C3  UNL     1       9.929  -4.085   2.155  1.00  0.00    -0.001 C 
BRANCH  25  26
HETATM   26  C2  UNL     1       9.628  -5.162   1.199  1.00  0.00     0.194 C 
BRANCH  26  27
HETATM   27  O1  UNL     1      10.733  -5.955   1.000  1.00  0.00    -0.392 OA
HETATM   28  C1  UNL     1      11.722  -5.282   0.316  1.00  0.00     0.201 C 
ENDBRANCH  26  27
ENDBRANCH  25  26
ENDBRANCH   1  24
BRANCH  12  29
HETATM   29  O6  UNL     1       8.629  -0.786   1.005  1.00  0.00    -0.389 OA
ATOM     30  H6  UNL     1       8.305  -1.679   0.959  1.00  0.00     0.210 HD
ENDBRANCH  12  29
TORSDOF 9
ENDMDL
