MODEL 1
REMARK VINA RESULT: -8.937173260      0.000      0.000
REMARK  9 active torsions:
REMARK  status: ('A' for Active; 'I' for Inactive)
REMARK    1  A    between atoms: C11_11  and  O1_12 
REMARK    2  A    between atoms: C11_11  and  C12_14 
REMARK    3  A    between atoms: C12_14  and  N1_15 
REMARK    4  A    between atoms: N1_15  and  C13_16 
REMARK    5  A    between atoms: N1_15  and  S1_20 
REMARK    6  A    between atoms: C13_16  and  C14_17 
REMARK    7  A    between atoms: C14_17  and  O2_18 
REMARK    8  A    between atoms: S1_20  and  C15_21 
REMARK    9  A    between atoms: C15_21  and  C16_22 
ROOT
HETATM    1  C1  UNL     1      12.532   0.493   0.221  1.00  0.00     0.014 C 
HETATM    2  C2  UNL     1      11.936  -0.476   0.886  1.00  0.00    -0.085 C 
HETATM    3  C3  UNL     1      12.334  -1.891   0.681  1.00  0.00     0.034 C 
HETATM    4  C4  UNL     1      11.194  -2.853   0.672  1.00  0.00     0.005 C 
HETATM    5  C5  UNL     1      10.123  -2.545   1.687  1.00  0.00     0.009 C 
HETATM    6  C6  UNL     1       9.705  -1.134   1.514  1.00  0.00     0.032 C 
HETATM    7  C7  UNL     1      10.875  -0.188   1.838  1.00  0.00     0.022 C 
HETATM    8  C8  UNL     1      10.179   1.128   1.674  1.00  0.00     0.024 C 
HETATM    9  C9  UNL     1       8.819   0.866   2.334  1.00  0.00     0.086 C 
HETATM   10  C10 UNL     1       8.809   1.369   3.725  1.00  0.00     0.122 C 
HETATM   11  C11 UNL     1       8.419   2.564   4.122  1.00  0.00     0.094 C 
HETATM   12  O4  UNL     1       9.293   0.307   4.477  1.00  0.00    -0.198 OA
HETATM   13  O5  UNL     1       9.292  -0.823   3.805  1.00  0.00    -0.223 OA
HETATM   14  C17 UNL     1       8.735  -0.629   2.561  1.00  0.00     0.107 C 
HETATM   15  C18 UNL     1       7.361  -1.177   2.406  1.00  0.00     0.050 C 
ENDROOT
BRANCH  11  16
HETATM   16  O1  UNL     1       7.971   3.454   3.166  1.00  0.00    -0.361 OA
ATOM     17  H1  UNL     1       8.470   3.535   2.361  1.00  0.00     0.217 HD
ENDBRANCH  11  16
BRANCH  11  18
HETATM   18  C12 UNL     1       8.445   2.978   5.529  1.00  0.00     0.197 C 
BRANCH  18  19
HETATM   19  N1  UNL     1       7.317   2.630   6.317  1.00  0.00    -0.348 N 
BRANCH  19  20
HETATM   20  C13 UNL     1       7.543   2.343   7.691  1.00  0.00     0.157 C 
BRANCH  20  21
HETATM   21  C14 UNL     1       6.757   3.384   8.500  1.00  0.00     0.184 C 
BRANCH  21  22
HETATM   22  O2  UNL     1       7.537   4.513   8.749  1.00  0.00    -0.399 OA
ATOM     23  H2  UNL     1       7.616   5.049   7.969  1.00  0.00     0.209 HD
ENDBRANCH  21  22
ENDBRANCH  20  21
ENDBRANCH  19  20
BRANCH  19  24
HETATM   24  S1  UNL     1       5.864   3.533   5.976  1.00  0.00    -0.049 SA
BRANCH  24  25
HETATM   25  C15 UNL     1       6.280   5.233   5.511  1.00  0.00     0.196 C 
BRANCH  25  26
HETATM   26  C16 UNL     1       5.149   5.938   4.893  1.00  0.00     0.242 C 
HETATM   27  N2  UNL     1       4.563   5.442   3.703  1.00  0.00    -0.061 NA
HETATM   28  O3  UNL     1       4.680   6.983   5.399  1.00  0.00    -0.276 OA
ENDBRANCH  25  26
ENDBRANCH  24  25
ENDBRANCH  19  24
ENDBRANCH  18  19
ENDBRANCH  11  18
TORSDOF 9
ENDMDL
MODEL 2
REMARK VINA RESULT: -8.793148813      1.393      1.473
REMARK  9 active torsions:
REMARK  status: ('A' for Active; 'I' for Inactive)
REMARK    1  A    between atoms: C11_11  and  O1_12 
REMARK    2  A    between atoms: C11_11  and  C12_14 
REMARK    3  A    between atoms: C12_14  and  N1_15 
REMARK    4  A    between atoms: N1_15  and  C13_16 
REMARK    5  A    between atoms: N1_15  and  S1_20 
REMARK    6  A    between atoms: C13_16  and  C14_17 
REMARK    7  A    between atoms: C14_17  and  O2_18 
REMARK    8  A    between atoms: S1_20  and  C15_21 
REMARK    9  A    between atoms: C15_21  and  C16_22 
ROOT
HETATM    1  C1  UNL     1      12.451   0.711   0.243  1.00  0.00     0.014 C 
HETATM    2  C2  UNL     1      11.916  -0.284   0.922  1.00  0.00    -0.085 C 
HETATM    3  C3  UNL     1      12.414  -1.672   0.749  1.00  0.00     0.034 C 
HETATM    4  C4  UNL     1      11.344  -2.711   0.749  1.00  0.00     0.005 C 
HETATM    5  C5  UNL     1      10.242  -2.458   1.746  1.00  0.00     0.009 C 
HETATM    6  C6  UNL     1       9.729  -1.083   1.540  1.00  0.00     0.032 C 
HETATM    7  C7  UNL     1      10.826  -0.052   1.856  1.00  0.00     0.022 C 
HETATM    8  C8  UNL     1      10.043   1.209   1.658  1.00  0.00     0.024 C 
HETATM    9  C9  UNL     1       8.697   0.866   2.310  1.00  0.00     0.086 C 
HETATM   10  C10 UNL     1       8.636   1.394   3.690  1.00  0.00     0.122 C 
HETATM   11  C11 UNL     1       8.159   2.566   4.059  1.00  0.00     0.094 C 
HETATM   12  O4  UNL     1       9.184   0.383   4.469  1.00  0.00    -0.198 OA
HETATM   13  O5  UNL     1       9.268  -0.757   3.820  1.00  0.00    -0.223 OA
HETATM   14  C17 UNL     1       8.714  -0.627   2.567  1.00  0.00     0.107 C 
HETATM   15  C18 UNL     1       7.384  -1.272   2.408  1.00  0.00     0.050 C 
ENDROOT
BRANCH  11  16
HETATM   16  O1  UNL     1       7.661   3.404   3.080  1.00  0.00    -0.361 OA
ATOM     17  H1  UNL     1       6.848   3.862   3.254  1.00  0.00     0.217 HD
ENDBRANCH  11  16
BRANCH  11  18
HETATM   18  C12 UNL     1       8.139   3.009   5.457  1.00  0.00     0.197 C 
BRANCH  18  19
HETATM   19  N1  UNL     1       6.865   3.125   6.071  1.00  0.00    -0.348 N 
BRANCH  19  20
HETATM   20  C13 UNL     1       6.498   2.123   7.009  1.00  0.00     0.157 C 
BRANCH  20  21
HETATM   21  C14 UNL     1       5.162   1.533   6.534  1.00  0.00     0.184 C 
BRANCH  21  22
HETATM   22  O2  UNL     1       5.364   0.606   5.511  1.00  0.00    -0.399 OA
ATOM     23  H2  UNL     1       4.611   0.570   4.933  1.00  0.00     0.209 HD
ENDBRANCH  21  22
ENDBRANCH  20  21
ENDBRANCH  19  20
BRANCH  19  24
HETATM   24  S1  UNL     1       6.389   4.749   6.494  1.00  0.00    -0.049 SA
BRANCH  24  25
HETATM   25  C15 UNL     1       6.411   5.810   5.026  1.00  0.00     0.196 C 
BRANCH  25  26
HETATM   26  C16 UNL     1       5.061   6.156   4.563  1.00  0.00     0.242 C 
HETATM   27  N2  UNL     1       4.421   7.326   5.040  1.00  0.00    -0.061 NA
HETATM   28  O3  UNL     1       4.450   5.433   3.744  1.00  0.00    -0.276 OA
ENDBRANCH  25  26
ENDBRANCH  24  25
ENDBRANCH  19  24
ENDBRANCH  18  19
ENDBRANCH  11  18
TORSDOF 9
ENDMDL
MODEL 3
REMARK VINA RESULT: -8.615162761      1.613      3.449
REMARK  9 active torsions:
REMARK  status: ('A' for Active; 'I' for Inactive)
REMARK    1  A    between atoms: C11_11  and  O1_12 
REMARK    2  A    between atoms: C11_11  and  C12_14 
REMARK    3  A    between atoms: C12_14  and  N1_15 
REMARK    4  A    between atoms: N1_15  and  C13_16 
REMARK    5  A    between atoms: N1_15  and  S1_20 
REMARK    6  A    between atoms: C13_16  and  C14_17 
REMARK    7  A    between atoms: C14_17  and  O2_18 
REMARK    8  A    between atoms: S1_20  and  C15_21 
REMARK    9  A    between atoms: C15_21  and  C16_22 
ROOT
HETATM    1  C1  UNL     1       9.512  -3.888   2.411  1.00  0.00     0.014 C 
HETATM    2  C2  UNL     1      10.104  -3.009   1.628  1.00  0.00    -0.085 C 
HETATM    3  C3  UNL     1      10.905  -3.454   0.461  1.00  0.00     0.034 C 
HETATM    4  C4  UNL     1      12.151  -2.666   0.236  1.00  0.00     0.005 C 
HETATM    5  C5  UNL     1      11.995  -1.187   0.483  1.00  0.00     0.009 C 
HETATM    6  C6  UNL     1      11.410  -0.995   1.831  1.00  0.00     0.032 C 
HETATM    7  C7  UNL     1       9.989  -1.582   1.884  1.00  0.00     0.022 C 
HETATM    8  C8  UNL     1       9.612  -1.189   3.279  1.00  0.00     0.024 C 
HETATM    9  C9  UNL     1      10.171   0.237   3.381  1.00  0.00     0.086 C 
HETATM   10  C10 UNL     1       9.107   1.233   3.129  1.00  0.00     0.122 C 
HETATM   11  C11 UNL     1       8.340   1.805   4.036  1.00  0.00     0.094 C 
HETATM   12  O4  UNL     1       9.120   1.408   1.752  1.00  0.00    -0.198 OA
HETATM   13  O5  UNL     1      10.207   0.920   1.197  1.00  0.00    -0.223 OA
HETATM   14  C17 UNL     1      11.056   0.438   2.168  1.00  0.00     0.107 C 
HETATM   15  C18 UNL     1      12.243   1.293   2.433  1.00  0.00     0.050 C 
ENDROOT
BRANCH  11  16
HETATM   16  O1  UNL     1       8.527   1.458   5.360  1.00  0.00    -0.361 OA
ATOM     17  H1  UNL     1       7.960   1.854   6.010  1.00  0.00     0.217 HD
ENDBRANCH  11  16
BRANCH  11  18
HETATM   18  C12 UNL     1       7.305   2.786   3.693  1.00  0.00     0.197 C 
BRANCH  18  19
HETATM   19  N1  UNL     1       7.226   3.942   4.513  1.00  0.00    -0.348 N 
BRANCH  19  20
HETATM   20  C13 UNL     1       7.682   5.169   3.958  1.00  0.00     0.157 C 
BRANCH  20  21
HETATM   21  C14 UNL     1       6.626   6.231   4.296  1.00  0.00     0.184 C 
BRANCH  21  22
HETATM   22  O2  UNL     1       7.214   7.341   4.903  1.00  0.00    -0.399 OA
ATOM     23  H2  UNL     1       6.551   7.943   5.221  1.00  0.00     0.209 HD
ENDBRANCH  21  22
ENDBRANCH  20  21
ENDBRANCH  19  20
BRANCH  19  24
HETATM   24  S1  UNL     1       5.790   4.059   5.496  1.00  0.00    -0.049 SA
BRANCH  24  25
HETATM   25  C15 UNL     1       5.928   2.970   6.937  1.00  0.00     0.196 C 
BRANCH  25  26
HETATM   26  C16 UNL     1       7.104   3.278   7.762  1.00  0.00     0.242 C 
HETATM   27  N2  UNL     1       7.998   2.247   8.142  1.00  0.00    -0.061 NA
HETATM   28  O3  UNL     1       7.342   4.446   8.143  1.00  0.00    -0.276 OA
ENDBRANCH  25  26
ENDBRANCH  24  25
ENDBRANCH  19  24
ENDBRANCH  18  19
ENDBRANCH  11  18
TORSDOF 9
ENDMDL
MODEL 4
REMARK VINA RESULT: -8.363045047      2.115      3.498
REMARK  9 active torsions:
REMARK  status: ('A' for Active; 'I' for Inactive)
REMARK    1  A    between atoms: C11_11  and  O1_12 
REMARK    2  A    between atoms: C11_11  and  C12_14 
REMARK    3  A    between atoms: C12_14  and  N1_15 
REMARK    4  A    between atoms: N1_15  and  C13_16 
REMARK    5  A    between atoms: N1_15  and  S1_20 
REMARK    6  A    between atoms: C13_16  and  C14_17 
REMARK    7  A    between atoms: C14_17  and  O2_18 
REMARK    8  A    between atoms: S1_20  and  C15_21 
REMARK    9  A    between atoms: C15_21  and  C16_22 
ROOT
HETATM    1  C1  UNL     1       9.464  -3.911   2.370  1.00  0.00     0.014 C 
HETATM    2  C2  UNL     1      10.094  -3.061   1.585  1.00  0.00    -0.085 C 
HETATM    3  C3  UNL     1      10.893  -3.546   0.431  1.00  0.00     0.034 C 
HETATM    4  C4  UNL     1      12.168  -2.804   0.213  1.00  0.00     0.005 C 
HETATM    5  C5  UNL     1      12.059  -1.318   0.441  1.00  0.00     0.009 C 
HETATM    6  C6  UNL     1      11.467  -1.091   1.780  1.00  0.00     0.032 C 
HETATM    7  C7  UNL     1      10.026  -1.628   1.823  1.00  0.00     0.022 C 
HETATM    8  C8  UNL     1       9.647  -1.207   3.210  1.00  0.00     0.024 C 
HETATM    9  C9  UNL     1      10.253   0.200   3.303  1.00  0.00     0.086 C 
HETATM   10  C10 UNL     1       9.227   1.229   3.028  1.00  0.00     0.122 C 
HETATM   11  C11 UNL     1       8.470   1.837   3.920  1.00  0.00     0.094 C 
HETATM   12  O4  UNL     1       9.261   1.388   1.649  1.00  0.00    -0.198 OA
HETATM   13  O5  UNL     1      10.337   0.857   1.112  1.00  0.00    -0.223 OA
HETATM   14  C17 UNL     1      11.157   0.357   2.098  1.00  0.00     0.107 C 
HETATM   15  C18 UNL     1      12.370   1.174   2.367  1.00  0.00     0.050 C 
ENDROOT
BRANCH  11  16
HETATM   16  O1  UNL     1       8.630   1.498   5.249  1.00  0.00    -0.361 OA
ATOM     17  H1  UNL     1       7.861   1.497   5.806  1.00  0.00     0.217 HD
ENDBRANCH  11  16
BRANCH  11  18
HETATM   18  C12 UNL     1       7.473   2.849   3.554  1.00  0.00     0.197 C 
BRANCH  18  19
HETATM   19  N1  UNL     1       7.674   4.156   4.068  1.00  0.00    -0.348 N 
BRANCH  19  20
HETATM   20  C13 UNL     1       8.425   5.062   3.271  1.00  0.00     0.157 C 
BRANCH  20  21
HETATM   21  C14 UNL     1       7.887   6.470   3.568  1.00  0.00     0.184 C 
BRANCH  21  22
HETATM   22  O2  UNL     1       8.912   7.415   3.516  1.00  0.00    -0.399 OA
ATOM     23  H2  UNL     1       8.593   8.274   3.766  1.00  0.00     0.209 HD
ENDBRANCH  21  22
ENDBRANCH  20  21
ENDBRANCH  19  20
BRANCH  19  24
HETATM   24  S1  UNL     1       6.302   4.851   4.890  1.00  0.00    -0.049 SA
BRANCH  24  25
HETATM   25  C15 UNL     1       6.140   4.138   6.548  1.00  0.00     0.196 C 
BRANCH  25  26
HETATM   26  C16 UNL     1       5.431   2.852   6.538  1.00  0.00     0.242 C 
HETATM   27  N2  UNL     1       6.120   1.655   6.851  1.00  0.00    -0.061 NA
HETATM   28  O3  UNL     1       4.213   2.784   6.258  1.00  0.00    -0.276 OA
ENDBRANCH  25  26
ENDBRANCH  24  25
ENDBRANCH  19  24
ENDBRANCH  18  19
ENDBRANCH  11  18
TORSDOF 9
ENDMDL
MODEL 5
REMARK VINA RESULT: -8.202169040      1.656      2.079
REMARK  9 active torsions:
REMARK  status: ('A' for Active; 'I' for Inactive)
REMARK    1  A    between atoms: C11_11  and  O1_12 
REMARK    2  A    between atoms: C11_11  and  C12_14 
REMARK    3  A    between atoms: C12_14  and  N1_15 
REMARK    4  A    between atoms: N1_15  and  C13_16 
REMARK    5  A    between atoms: N1_15  and  S1_20 
REMARK    6  A    between atoms: C13_16  and  C14_17 
REMARK    7  A    between atoms: C14_17  and  O2_18 
REMARK    8  A    between atoms: S1_20  and  C15_21 
REMARK    9  A    between atoms: C15_21  and  C16_22 
ROOT
HETATM    1  C1  UNL     1      12.543   0.734   0.292  1.00  0.00     0.014 C 
HETATM    2  C2  UNL     1      11.966  -0.282   0.903  1.00  0.00    -0.085 C 
HETATM    3  C3  UNL     1      12.391  -1.675   0.619  1.00  0.00     0.034 C 
HETATM    4  C4  UNL     1      11.270  -2.658   0.558  1.00  0.00     0.005 C 
HETATM    5  C5  UNL     1      10.195  -2.427   1.590  1.00  0.00     0.009 C 
HETATM    6  C6  UNL     1       9.750  -1.017   1.495  1.00  0.00     0.032 C 
HETATM    7  C7  UNL     1      10.901  -0.068   1.870  1.00  0.00     0.022 C 
HETATM    8  C8  UNL     1      10.180   1.242   1.779  1.00  0.00     0.024 C 
HETATM    9  C9  UNL     1       8.827   0.917   2.424  1.00  0.00     0.086 C 
HETATM   10  C10 UNL     1       8.809   1.342   3.841  1.00  0.00     0.122 C 
HETATM   11  C11 UNL     1       8.397   2.505   4.304  1.00  0.00     0.094 C 
HETATM   12  O4  UNL     1       9.315   0.250   4.533  1.00  0.00    -0.198 OA
HETATM   13  O5  UNL     1       9.335  -0.841   3.800  1.00  0.00    -0.223 OA
HETATM   14  C17 UNL     1       8.772  -0.590   2.569  1.00  0.00     0.107 C 
HETATM   15  C18 UNL     1       7.409  -1.155   2.385  1.00  0.00     0.050 C 
ENDROOT
BRANCH  11  16
HETATM   16  O1  UNL     1       7.930   3.438   3.398  1.00  0.00    -0.361 OA
ATOM     17  H1  UNL     1       7.455   4.189   3.734  1.00  0.00     0.217 HD
ENDBRANCH  11  16
BRANCH  11  18
HETATM   18  C12 UNL     1       8.417   2.842   5.732  1.00  0.00     0.197 C 
BRANCH  18  19
HETATM   19  N1  UNL     1       7.160   3.060   6.352  1.00  0.00    -0.348 N 
BRANCH  19  20
HETATM   20  C13 UNL     1       6.002   2.618   5.656  1.00  0.00     0.157 C 
BRANCH  20  21
HETATM   21  C14 UNL     1       5.491   1.367   6.386  1.00  0.00     0.184 C 
BRANCH  21  22
HETATM   22  O2  UNL     1       5.205   0.345   5.481  1.00  0.00    -0.399 OA
ATOM     23  H2  UNL     1       5.445   0.598   4.597  1.00  0.00     0.209 HD
ENDBRANCH  21  22
ENDBRANCH  20  21
ENDBRANCH  19  20
BRANCH  19  24
HETATM   24  S1  UNL     1       7.129   2.808   8.078  1.00  0.00    -0.049 SA
BRANCH  24  25
HETATM   25  C15 UNL     1       6.601   4.322   8.921  1.00  0.00     0.196 C 
BRANCH  25  26
HETATM   26  C16 UNL     1       5.619   5.086   8.140  1.00  0.00     0.242 C 
HETATM   27  N2  UNL     1       4.327   5.333   8.664  1.00  0.00    -0.061 NA
HETATM   28  O3  UNL     1       5.900   5.533   7.005  1.00  0.00    -0.276 OA
ENDBRANCH  25  26
ENDBRANCH  24  25
ENDBRANCH  19  24
ENDBRANCH  18  19
ENDBRANCH  11  18
TORSDOF 9
ENDMDL
