MODEL 1
REMARK VINA RESULT: -7.159384983      0.000      0.000
REMARK  11 active torsions:
REMARK  status: ('A' for Active; 'I' for Inactive)
REMARK    1  A    between atoms: C2_2  and  C4_4 
REMARK    2  A    between atoms: C5_5  and  C6_6 
REMARK    3  A    between atoms: C6_6  and  C9_9 
REMARK    4  A    between atoms: C10_10  and  O1_11 
REMARK    5  A    between atoms: C11_13  and  C12_14 
REMARK    6  A    between atoms: C12_14  and  O2_15 
REMARK    7  A    between atoms: C12_14  and  C15_19 
REMARK    8  A    between atoms: O2_15  and  C13_16 
REMARK    9  A    between atoms: C15_19  and  O4_21 
REMARK   10  A    between atoms: C17_25  and  C18_26 
REMARK   11  A    between atoms: C18_26  and  O7_29 
ROOT
HETATM    1  C9  UNL     1       6.465   4.059   4.449  1.00  0.00     0.064 C 
HETATM    2  C10 UNL     1       5.947   5.190   3.528  1.00  0.00     0.160 C 
HETATM    3  C11 UNL     1       5.660   6.449   4.302  1.00  0.00     0.221 C 
HETATM    4  O5  UNL     1       6.472   6.688   5.369  1.00  0.00    -0.230 OA
HETATM    5  O6  UNL     1       6.778   5.703   6.134  1.00  0.00    -0.231 OA
HETATM    6  C17 UNL     1       6.129   4.511   5.799  1.00  0.00     0.201 C 
ENDROOT
BRANCH   3   7
HETATM    7  C12 UNL     1       5.834   7.612   3.343  1.00  0.00     0.194 C 
BRANCH   7   8
HETATM    8  O2  UNL     1       5.866   7.140   2.010  1.00  0.00    -0.311 OA
BRANCH   8   9
HETATM    9  C13 UNL     1       6.580   7.724   0.987  1.00  0.00     0.255 C 
HETATM   10  C14 UNL     1       5.922   8.483  -0.122  1.00  0.00     0.126 C 
HETATM   11  O3  UNL     1       7.833   7.615   0.982  1.00  0.00    -0.266 OA
ENDBRANCH   8   9
ENDBRANCH   7   8
BRANCH   7  12
HETATM   12  C15 UNL     1       4.740   8.635   3.491  1.00  0.00     0.146 C 
HETATM   13  C16 UNL     1       3.478   8.274   2.771  1.00  0.00     0.042 C 
BRANCH  12  14
HETATM   14  O4  UNL     1       4.426   8.856   4.831  1.00  0.00    -0.393 OA
ATOM     15  H4  UNL     1       4.992   9.515   5.216  1.00  0.00     0.210 HD
ENDBRANCH  12  14
ENDBRANCH   7  12
ENDBRANCH   3   7
BRANCH   2  16
HETATM   16  O1  UNL     1       4.759   4.814   2.895  1.00  0.00    -0.392 OA
ATOM     17  H1  UNL     1       4.132   5.528   2.896  1.00  0.00     0.210 HD
ENDBRANCH   2  16
BRANCH   1  18
HETATM   18  C6  UNL     1       7.845   3.780   4.016  1.00  0.00    -0.021 C 
HETATM   19  C7  UNL     1       8.528   4.870   3.246  1.00  0.00     0.019 C 
HETATM   20  C8  UNL     1       8.792   3.376   5.156  1.00  0.00     0.019 C 
BRANCH  18  21
HETATM   21  C5  UNL     1       7.815   2.584   3.142  1.00  0.00    -0.017 C 
HETATM   22  C4  UNL     1       8.450   1.480   3.461  1.00  0.00     0.002 C 
BRANCH  22  23
HETATM   23  C2  UNL     1       8.413   0.317   2.598  1.00  0.00    -0.072 C 
HETATM   24  C1  UNL     1       9.474  -0.040   1.920  1.00  0.00     0.018 C 
HETATM   25  C3  UNL     1       7.175  -0.479   2.475  1.00  0.00     0.047 C 
ENDBRANCH  22  23
ENDBRANCH  18  21
ENDBRANCH   1  18
BRANCH   6  26
HETATM   26  C18 UNL     1       6.015   3.564   6.930  1.00  0.00     0.080 C 
HETATM   27  C19 UNL     1       5.144   4.291   7.983  1.00  0.00     0.048 C 
HETATM   28  C20 UNL     1       5.135   2.380   6.508  1.00  0.00     0.048 C 
BRANCH  26  29
HETATM   29  O7  UNL     1       7.127   3.199   7.608  1.00  0.00    -0.388 OA
ATOM     30  H7  UNL     1       7.099   2.440   8.178  1.00  0.00     0.210 HD
ENDBRANCH  26  29
ENDBRANCH   6  26
TORSDOF 11
ENDMDL
MODEL 2
REMARK VINA RESULT: -7.153892791      0.875      1.090
REMARK  11 active torsions:
REMARK  status: ('A' for Active; 'I' for Inactive)
REMARK    1  A    between atoms: C2_2  and  C4_4 
REMARK    2  A    between atoms: C5_5  and  C6_6 
REMARK    3  A    between atoms: C6_6  and  C9_9 
REMARK    4  A    between atoms: C10_10  and  O1_11 
REMARK    5  A    between atoms: C11_13  and  C12_14 
REMARK    6  A    between atoms: C12_14  and  O2_15 
REMARK    7  A    between atoms: C12_14  and  C15_19 
REMARK    8  A    between atoms: O2_15  and  C13_16 
REMARK    9  A    between atoms: C15_19  and  O4_21 
REMARK   10  A    between atoms: C17_25  and  C18_26 
REMARK   11  A    between atoms: C18_26  and  O7_29 
ROOT
HETATM    1  C9  UNL     1       6.314   4.018   4.565  1.00  0.00     0.064 C 
HETATM    2  C10 UNL     1       6.052   5.123   3.514  1.00  0.00     0.160 C 
HETATM    3  C11 UNL     1       5.863   6.470   4.160  1.00  0.00     0.221 C 
HETATM    4  O5  UNL     1       6.589   6.692   5.291  1.00  0.00    -0.230 OA
HETATM    5  O6  UNL     1       6.678   5.744   6.154  1.00  0.00    -0.231 OA
HETATM    6  C17 UNL     1       5.909   4.622   5.833  1.00  0.00     0.201 C 
ENDROOT
BRANCH   3   7
HETATM    7  C12 UNL     1       6.292   7.515   3.147  1.00  0.00     0.194 C 
BRANCH   7   8
HETATM    8  O2  UNL     1       5.791   7.183   1.867  1.00  0.00    -0.311 OA
BRANCH   8   9
HETATM    9  C13 UNL     1       6.176   7.788   0.691  1.00  0.00     0.255 C 
HETATM   10  C14 UNL     1       5.218   8.538  -0.180  1.00  0.00     0.126 C 
HETATM   11  O3  UNL     1       7.379   7.708   0.333  1.00  0.00    -0.266 OA
ENDBRANCH   8   9
ENDBRANCH   7   8
BRANCH   7  12
HETATM   12  C15 UNL     1       5.829   8.895   3.528  1.00  0.00     0.146 C 
HETATM   13  C16 UNL     1       4.381   8.962   3.902  1.00  0.00     0.042 C 
BRANCH  12  14
HETATM   14  O4  UNL     1       6.574   9.408   4.589  1.00  0.00    -0.393 OA
ATOM     15  H4  UNL     1       6.078   9.394   5.400  1.00  0.00     0.210 HD
ENDBRANCH  12  14
ENDBRANCH   7  12
ENDBRANCH   3   7
BRANCH   2  16
HETATM   16  O1  UNL     1       4.893   4.851   2.780  1.00  0.00    -0.392 OA
ATOM     17  H1  UNL     1       4.895   5.322   1.955  1.00  0.00     0.210 HD
ENDBRANCH   2  16
BRANCH   1  18
HETATM   18  C6  UNL     1       7.679   3.527   4.309  1.00  0.00    -0.021 C 
HETATM   19  C7  UNL     1       8.577   4.447   3.537  1.00  0.00     0.019 C 
HETATM   20  C8  UNL     1       8.444   3.112   5.574  1.00  0.00     0.019 C 
BRANCH  18  21
HETATM   21  C5  UNL     1       7.574   2.269   3.532  1.00  0.00    -0.017 C 
HETATM   22  C4  UNL     1       8.613   1.494   3.329  1.00  0.00     0.002 C 
BRANCH  22  23
HETATM   23  C2  UNL     1       8.497   0.267   2.567  1.00  0.00    -0.072 C 
HETATM   24  C1  UNL     1       9.539  -0.235   1.955  1.00  0.00     0.018 C 
HETATM   25  C3  UNL     1       7.199  -0.430   2.476  1.00  0.00     0.047 C 
ENDBRANCH  22  23
ENDBRANCH  18  21
ENDBRANCH   1  18
BRANCH   6  26
HETATM   26  C18 UNL     1       5.551   3.797   7.008  1.00  0.00     0.080 C 
HETATM   27  C19 UNL     1       5.220   2.397   6.439  1.00  0.00     0.048 C 
HETATM   28  C20 UNL     1       6.811   3.543   7.847  1.00  0.00     0.048 C 
BRANCH  26  29
HETATM   29  O7  UNL     1       4.466   4.125   7.746  1.00  0.00    -0.388 OA
ATOM     30  H7  UNL     1       4.536   4.808   8.403  1.00  0.00     0.210 HD
ENDBRANCH  26  29
ENDBRANCH   6  26
TORSDOF 11
ENDMDL
MODEL 3
REMARK VINA RESULT: -6.431343380      2.691      5.562
REMARK  11 active torsions:
REMARK  status: ('A' for Active; 'I' for Inactive)
REMARK    1  A    between atoms: C2_2  and  C4_4 
REMARK    2  A    between atoms: C5_5  and  C6_6 
REMARK    3  A    between atoms: C6_6  and  C9_9 
REMARK    4  A    between atoms: C10_10  and  O1_11 
REMARK    5  A    between atoms: C11_13  and  C12_14 
REMARK    6  A    between atoms: C12_14  and  O2_15 
REMARK    7  A    between atoms: C12_14  and  C15_19 
REMARK    8  A    between atoms: O2_15  and  C13_16 
REMARK    9  A    between atoms: C15_19  and  O4_21 
REMARK   10  A    between atoms: C17_25  and  C18_26 
REMARK   11  A    between atoms: C18_26  and  O7_29 
ROOT
HETATM    1  C9  UNL     1       9.482   1.356   3.576  1.00  0.00     0.064 C 
HETATM    2  C10 UNL     1       8.421   1.995   4.504  1.00  0.00     0.160 C 
HETATM    3  C11 UNL     1       8.376   3.493   4.347  1.00  0.00     0.221 C 
HETATM    4  O5  UNL     1       8.636   3.966   3.098  1.00  0.00    -0.230 OA
HETATM    5  O6  UNL     1       9.598   3.433   2.432  1.00  0.00    -0.231 OA
HETATM    6  C17 UNL     1      10.318   2.480   3.157  1.00  0.00     0.201 C 
ENDROOT
BRANCH   3   7
HETATM    7  C12 UNL     1       6.970   3.936   4.705  1.00  0.00     0.194 C 
BRANCH   7   8
HETATM    8  O2  UNL     1       6.772   3.842   6.102  1.00  0.00    -0.311 OA
BRANCH   8   9
HETATM    9  C13 UNL     1       5.654   3.306   6.703  1.00  0.00     0.255 C 
HETATM   10  C14 UNL     1       5.313   1.852   6.617  1.00  0.00     0.126 C 
HETATM   11  O3  UNL     1       4.889   4.067   7.349  1.00  0.00    -0.266 OA
ENDBRANCH   8   9
ENDBRANCH   7   8
BRANCH   7  12
HETATM   12  C15 UNL     1       6.688   5.343   4.249  1.00  0.00     0.146 C 
HETATM   13  C16 UNL     1       5.362   5.502   3.574  1.00  0.00     0.042 C 
BRANCH  12  14
HETATM   14  O4  UNL     1       6.744   6.244   5.312  1.00  0.00    -0.393 OA
ATOM     15  H4  UNL     1       5.935   6.735   5.393  1.00  0.00     0.210 HD
ENDBRANCH  12  14
ENDBRANCH   7  12
ENDBRANCH   3   7
BRANCH   2  16
HETATM   16  O1  UNL     1       8.705   1.729   5.847  1.00  0.00    -0.392 OA
ATOM     17  H1  UNL     1       7.908   1.566   6.337  1.00  0.00     0.210 HD
ENDBRANCH   2  16
BRANCH   1  18
HETATM   18  C6  UNL     1       8.738   0.511   2.627  1.00  0.00    -0.021 C 
HETATM   19  C7  UNL     1       7.252   0.449   2.823  1.00  0.00     0.019 C 
HETATM   20  C8  UNL     1       8.980   0.860   1.151  1.00  0.00     0.019 C 
BRANCH  18  21
HETATM   21  C5  UNL     1       9.250  -0.874   2.751  1.00  0.00    -0.017 C 
HETATM   22  C4  UNL     1       8.444  -1.909   2.780  1.00  0.00     0.002 C 
BRANCH  22  23
HETATM   23  C2  UNL     1       8.958  -3.258   2.901  1.00  0.00    -0.072 C 
HETATM   24  C1  UNL     1       9.949  -3.660   2.147  1.00  0.00     0.018 C 
HETATM   25  C3  UNL     1       8.367  -4.194   3.879  1.00  0.00     0.047 C 
ENDBRANCH  22  23
ENDBRANCH  18  21
ENDBRANCH   1  18
BRANCH   6  26
HETATM   26  C18 UNL     1      11.697   2.279   2.659  1.00  0.00     0.080 C 
HETATM   27  C19 UNL     1      11.819   0.760   2.395  1.00  0.00     0.048 C 
HETATM   28  C20 UNL     1      11.818   2.887   1.255  1.00  0.00     0.048 C 
BRANCH  26  29
HETATM   29  O7  UNL     1      12.744   2.566   3.465  1.00  0.00    -0.388 OA
ATOM     30  H7  UNL     1      13.443   3.123   3.144  1.00  0.00     0.210 HD
ENDBRANCH  26  29
ENDBRANCH   6  26
TORSDOF 11
ENDMDL
MODEL 4
REMARK VINA RESULT: -6.240959256      3.829      7.132
REMARK  11 active torsions:
REMARK  status: ('A' for Active; 'I' for Inactive)
REMARK    1  A    between atoms: C2_2  and  C4_4 
REMARK    2  A    between atoms: C5_5  and  C6_6 
REMARK    3  A    between atoms: C6_6  and  C9_9 
REMARK    4  A    between atoms: C10_10  and  O1_11 
REMARK    5  A    between atoms: C11_13  and  C12_14 
REMARK    6  A    between atoms: C12_14  and  O2_15 
REMARK    7  A    between atoms: C12_14  and  C15_19 
REMARK    8  A    between atoms: O2_15  and  C13_16 
REMARK    9  A    between atoms: C15_19  and  O4_21 
REMARK   10  A    between atoms: C17_25  and  C18_26 
REMARK   11  A    between atoms: C18_26  and  O7_29 
ROOT
HETATM    1  C9  UNL     1       9.968  -0.155   1.600  1.00  0.00     0.064 C 
HETATM    2  C10 UNL     1       8.984   0.959   2.030  1.00  0.00     0.160 C 
HETATM    3  C11 UNL     1       8.510   0.766   3.446  1.00  0.00     0.221 C 
HETATM    4  O5  UNL     1       9.413   0.215   4.304  1.00  0.00    -0.230 OA
HETATM    5  O6  UNL     1      10.126  -0.769   3.888  1.00  0.00    -0.231 OA
HETATM    6  C17 UNL     1       9.787  -1.203   2.603  1.00  0.00     0.201 C 
ENDROOT
BRANCH   3   7
HETATM    7  C12 UNL     1       8.161   2.138   3.991  1.00  0.00     0.194 C 
BRANCH   7   8
HETATM    8  O2  UNL     1       8.173   2.115   5.405  1.00  0.00    -0.311 OA
BRANCH   8   9
HETATM    9  C13 UNL     1       7.094   2.419   6.205  1.00  0.00     0.255 C 
HETATM   10  C14 UNL     1       7.087   3.590   7.136  1.00  0.00     0.126 C 
HETATM   11  O3  UNL     1       6.074   1.684   6.154  1.00  0.00    -0.266 OA
ENDBRANCH   8   9
ENDBRANCH   7   8
BRANCH   7  12
HETATM   12  C15 UNL     1       9.105   3.200   3.494  1.00  0.00     0.146 C 
HETATM   13  C16 UNL     1       8.493   4.564   3.428  1.00  0.00     0.042 C 
BRANCH  12  14
HETATM   14  O4  UNL     1      10.249   3.276   4.287  1.00  0.00    -0.393 OA
ATOM     15  H4  UNL     1      10.032   3.251   5.212  1.00  0.00     0.210 HD
ENDBRANCH  12  14
ENDBRANCH   7  12
ENDBRANCH   3   7
BRANCH   2  16
HETATM   16  O1  UNL     1       7.850   0.968   1.212  1.00  0.00    -0.392 OA
ATOM     17  H1  UNL     1       7.316   0.198   1.363  1.00  0.00     0.210 HD
ENDBRANCH   2  16
BRANCH   1  18
HETATM   18  C6  UNL     1      11.259   0.511   1.358  1.00  0.00    -0.021 C 
HETATM   19  C7  UNL     1      11.200   1.819   0.629  1.00  0.00     0.019 C 
HETATM   20  C8  UNL     1      12.093   0.743   2.627  1.00  0.00     0.019 C 
BRANCH  18  21
HETATM   21  C5  UNL     1      12.099  -0.402   0.547  1.00  0.00    -0.017 C 
HETATM   22  C4  UNL     1      13.058   0.049  -0.228  1.00  0.00     0.002 C 
BRANCH  22  23
HETATM   23  C2  UNL     1      13.872  -0.854  -1.016  1.00  0.00    -0.072 C 
HETATM   24  C1  UNL     1      13.556  -2.121  -1.110  1.00  0.00     0.018 C 
HETATM   25  C3  UNL     1      15.068  -0.352  -1.721  1.00  0.00     0.047 C 
ENDBRANCH  22  23
ENDBRANCH  18  21
ENDBRANCH   1  18
BRANCH   6  26
HETATM   26  C18 UNL     1      10.165  -2.609   2.337  1.00  0.00     0.080 C 
HETATM   27  C19 UNL     1       9.130  -3.463   3.109  1.00  0.00     0.048 C 
HETATM   28  C20 UNL     1       9.865  -2.941   0.869  1.00  0.00     0.048 C 
BRANCH  26  29
HETATM   29  O7  UNL     1      11.364  -3.068   2.763  1.00  0.00    -0.388 OA
ATOM     30  H7  UNL     1      11.501  -4.003   2.855  1.00  0.00     0.210 HD
ENDBRANCH  26  29
ENDBRANCH   6  26
TORSDOF 11
ENDMDL
MODEL 5
REMARK VINA RESULT: -6.166479753      5.204      7.465
REMARK  11 active torsions:
REMARK  status: ('A' for Active; 'I' for Inactive)
REMARK    1  A    between atoms: C2_2  and  C4_4 
REMARK    2  A    between atoms: C5_5  and  C6_6 
REMARK    3  A    between atoms: C6_6  and  C9_9 
REMARK    4  A    between atoms: C10_10  and  O1_11 
REMARK    5  A    between atoms: C11_13  and  C12_14 
REMARK    6  A    between atoms: C12_14  and  O2_15 
REMARK    7  A    between atoms: C12_14  and  C15_19 
REMARK    8  A    between atoms: O2_15  and  C13_16 
REMARK    9  A    between atoms: C15_19  and  O4_21 
REMARK   10  A    between atoms: C17_25  and  C18_26 
REMARK   11  A    between atoms: C18_26  and  O7_29 
ROOT
HETATM    1  C9  UNL     1      11.146   1.120   0.745  1.00  0.00     0.064 C 
HETATM    2  C10 UNL     1      11.910   2.169  -0.099  1.00  0.00     0.160 C 
HETATM    3  C11 UNL     1      12.201   3.416   0.695  1.00  0.00     0.221 C 
HETATM    4  O5  UNL     1      12.439   3.230   2.023  1.00  0.00    -0.230 OA
HETATM    5  O6  UNL     1      11.694   2.404   2.666  1.00  0.00    -0.231 OA
HETATM    6  C17 UNL     1      10.654   1.874   1.897  1.00  0.00     0.201 C 
ENDROOT
BRANCH   3   7
HETATM    7  C12 UNL     1      13.452   4.039   0.104  1.00  0.00     0.194 C 
BRANCH   7   8
HETATM    8  O2  UNL     1      13.436   3.913  -1.305  1.00  0.00    -0.311 OA
BRANCH   8   9
HETATM    9  C13 UNL     1      14.459   3.377  -2.057  1.00  0.00     0.255 C 
HETATM   10  C14 UNL     1      14.247   2.246  -3.013  1.00  0.00     0.126 C 
HETATM   11  O3  UNL     1      15.616   3.854  -1.936  1.00  0.00    -0.266 OA
ENDBRANCH   8   9
ENDBRANCH   7   8
BRANCH   7  12
HETATM   12  C15 UNL     1      13.591   5.489   0.480  1.00  0.00     0.146 C 
HETATM   13  C16 UNL     1      13.449   6.427  -0.679  1.00  0.00     0.042 C 
BRANCH  12  14
HETATM   14  O4  UNL     1      12.661   5.856   1.451  1.00  0.00    -0.393 OA
ATOM     15  H4  UNL     1      12.059   6.515   1.123  1.00  0.00     0.210 HD
ENDBRANCH  12  14
ENDBRANCH   7  12
ENDBRANCH   3   7
BRANCH   2  16
HETATM   16  O1  UNL     1      11.160   2.556  -1.214  1.00  0.00    -0.392 OA
ATOM     17  H1  UNL     1      11.308   1.966  -1.944  1.00  0.00     0.210 HD
ENDBRANCH   2  16
BRANCH   1  18
HETATM   18  C6  UNL     1      12.047  -0.038   0.867  1.00  0.00    -0.021 C 
HETATM   19  C7  UNL     1      13.051  -0.213  -0.232  1.00  0.00     0.019 C 
HETATM   20  C8  UNL     1      12.821  -0.094   2.193  1.00  0.00     0.019 C 
BRANCH  18  21
HETATM   21  C5  UNL     1      11.214  -1.263   0.894  1.00  0.00    -0.017 C 
HETATM   22  C4  UNL     1      11.124  -2.015   1.966  1.00  0.00     0.002 C 
BRANCH  22  23
HETATM   23  C2  UNL     1      10.306  -3.210   1.979  1.00  0.00    -0.072 C 
HETATM   24  C1  UNL     1      10.507  -4.161   1.103  1.00  0.00     0.018 C 
HETATM   25  C3  UNL     1       9.236  -3.367   2.984  1.00  0.00     0.047 C 
ENDBRANCH  22  23
ENDBRANCH  18  21
ENDBRANCH   1  18
BRANCH   6  26
HETATM   26  C18 UNL     1       9.508   1.400   2.704  1.00  0.00     0.080 C 
HETATM   27  C19 UNL     1       8.842   2.681   3.259  1.00  0.00     0.048 C 
HETATM   28  C20 UNL     1       8.435   0.828   1.767  1.00  0.00     0.048 C 
BRANCH  26  29
HETATM   29  O7  UNL     1       9.734   0.637   3.798  1.00  0.00    -0.388 OA
ATOM     30  H7  UNL     1       9.557  -0.295   3.763  1.00  0.00     0.210 HD
ENDBRANCH  26  29
ENDBRANCH   6  26
TORSDOF 11
ENDMDL
