MODEL 1
REMARK VINA RESULT: -7.824682647      0.000      0.000
REMARK  8 active torsions:
REMARK  status: ('A' for Active; 'I' for Inactive)
REMARK    1  A    between atoms: C2_2  and  C3_3 
REMARK    2  A    between atoms: C3_3  and  N1_4 
REMARK    3  A    between atoms: C12_16  and  O2_17 
REMARK    4  A    between atoms: N3_19  and  C13_20 
REMARK    5  A    between atoms: C13_20  and  C14_21 
REMARK    6  A    between atoms: C14_21  and  C15_22 
REMARK    7  A    between atoms: C15_22  and  C16_23 
REMARK    8  A    between atoms: C18_26  and  O4_27 
ROOT
HETATM    1  N1  UNL     1      11.740   1.810   1.083  1.00  0.00    -0.262 N 
HETATM    2  C4  UNL     1      11.601   0.411   1.092  1.00  0.00     0.326 C 
HETATM    3  O1  UNL     1      12.461  -0.235   0.430  1.00  0.00    -0.247 OA
HETATM    4  N2  UNL     1      10.596  -0.316   1.767  1.00  0.00    -0.329 N 
ATOM      5  H2  UNL     1      10.722  -1.320   1.632  1.00  0.00     0.165 HD
HETATM    6  C5  UNL     1       9.465  -0.053   2.577  1.00  0.00     0.067 C 
HETATM    7  C6  UNL     1       9.699  -0.783   3.906  1.00  0.00     0.036 C 
HETATM    8  C7  UNL     1       9.554  -2.222   3.503  1.00  0.00     0.003 C 
HETATM    9  C8  UNL     1       8.510  -2.230   2.418  1.00  0.00     0.003 C 
HETATM   10  C9  UNL     1       8.310  -0.821   1.976  1.00  0.00     0.036 C 
HETATM   11  C10 UNL     1       9.140   1.319   2.894  1.00  0.00     0.041 A 
HETATM   12  C11 UNL     1       9.788   2.495   2.584  1.00  0.00     0.096 A 
HETATM   13  C12 UNL     1       9.069   3.561   3.124  1.00  0.00     0.161 A 
HETATM   14  N3  UNL     1       8.006   3.026   3.751  1.00  0.00    -0.307 N 
HETATM   15  C18 UNL     1       8.040   1.678   3.617  1.00  0.00     0.154 A 
HETATM   16  C19 UNL     1      11.011   2.768   1.837  1.00  0.00     0.267 C 
HETATM   17  O5  UNL     1      11.482   3.934   1.840  1.00  0.00    -0.267 OA
ENDROOT
BRANCH  14  18
HETATM   18  C13 UNL     1       6.998   3.813   4.449  1.00  0.00     0.133 C 
BRANCH  18  19
HETATM   19  C14 UNL     1       7.432   3.885   5.887  1.00  0.00     0.027 C 
BRANCH  19  20
HETATM   20  C15 UNL     1       6.414   3.504   6.892  1.00  0.00     0.079 C 
BRANCH  20  21
HETATM   21  C16 UNL     1       6.554   2.133   7.388  1.00  0.00     0.123 C 
HETATM   22  C17 UNL     1       7.520   1.841   8.519  1.00  0.00     0.091 C 
HETATM   23  O3  UNL     1       5.937   1.203   6.946  1.00  0.00    -0.298 OA
ENDBRANCH  20  21
ENDBRANCH  19  20
ENDBRANCH  18  19
ENDBRANCH  14  18
BRANCH  13  24
HETATM   24  O2  UNL     1       9.407   4.920   3.024  1.00  0.00    -0.345 OA
ATOM     25  H2  UNL     1       9.161   5.603   3.636  1.00  0.00     0.219 HD
ENDBRANCH  13  24
BRANCH  15  26
HETATM   26  O4  UNL     1       7.023   0.888   4.193  1.00  0.00    -0.345 OA
ATOM     27  H4  UNL     1       6.320   1.123   4.788  1.00  0.00     0.219 HD
ENDBRANCH  15  26
BRANCH   1  28
HETATM   28  C3  UNL     1      12.775   2.322   0.175  1.00  0.00     0.163 C 
BRANCH  28  29
HETATM   29  C2  UNL     1      12.249   2.626  -1.157  1.00  0.00    -0.017 C 
HETATM   30  C1  UNL     1      12.737   1.996  -2.211  1.00  0.00     0.008 C 
ENDBRANCH  28  29
ENDBRANCH   1  28
TORSDOF 8
ENDMDL
MODEL 2
REMARK VINA RESULT: -7.634517845      1.255      4.309
REMARK  8 active torsions:
REMARK  status: ('A' for Active; 'I' for Inactive)
REMARK    1  A    between atoms: C2_2  and  C3_3 
REMARK    2  A    between atoms: C3_3  and  N1_4 
REMARK    3  A    between atoms: C12_16  and  O2_17 
REMARK    4  A    between atoms: N3_19  and  C13_20 
REMARK    5  A    between atoms: C13_20  and  C14_21 
REMARK    6  A    between atoms: C14_21  and  C15_22 
REMARK    7  A    between atoms: C15_22  and  C16_23 
REMARK    8  A    between atoms: C18_26  and  O4_27 
ROOT
HETATM    1  N1  UNL     1       9.327  -1.603   2.167  1.00  0.00    -0.262 N 
HETATM    2  C4  UNL     1      10.515  -1.260   1.498  1.00  0.00     0.326 C 
HETATM    3  O1  UNL     1      11.129  -2.212   0.937  1.00  0.00    -0.247 OA
HETATM    4  N2  UNL     1      11.068   0.036   1.404  1.00  0.00    -0.329 N 
ATOM      5  H2  UNL     1      11.925   0.026   0.851  1.00  0.00     0.165 HD
HETATM    6  C5  UNL     1      10.774   1.345   1.856  1.00  0.00     0.067 C 
HETATM    7  C6  UNL     1      10.657   2.225   0.604  1.00  0.00     0.036 C 
HETATM    8  C7  UNL     1      12.081   2.293   0.135  1.00  0.00     0.003 C 
HETATM    9  C8  UNL     1      12.916   2.277   1.389  1.00  0.00     0.003 C 
HETATM   10  C9  UNL     1      12.028   1.871   2.515  1.00  0.00     0.036 C 
HETATM   11  C10 UNL     1       9.579   1.558   2.641  1.00  0.00     0.041 A 
HETATM   12  C11 UNL     1       8.579   0.688   3.018  1.00  0.00     0.096 A 
HETATM   13  C12 UNL     1       7.639   1.385   3.777  1.00  0.00     0.161 A 
HETATM   14  N3  UNL     1       8.073   2.656   3.851  1.00  0.00    -0.307 N 
HETATM   15  C18 UNL     1       9.240   2.769   3.171  1.00  0.00     0.154 A 
HETATM   16  C19 UNL     1       8.375  -0.733   2.762  1.00  0.00     0.267 C 
HETATM   17  O5  UNL     1       7.279  -1.261   3.082  1.00  0.00    -0.267 OA
ENDROOT
BRANCH  14  18
HETATM   18  C13 UNL     1       7.367   3.711   4.564  1.00  0.00     0.133 C 
BRANCH  18  19
HETATM   19  C14 UNL     1       7.754   3.584   6.011  1.00  0.00     0.027 C 
BRANCH  19  20
HETATM   20  C15 UNL     1       6.639   3.381   6.965  1.00  0.00     0.079 C 
BRANCH  20  21
HETATM   21  C16 UNL     1       6.620   2.054   7.583  1.00  0.00     0.123 C 
HETATM   22  C17 UNL     1       7.488   1.779   8.794  1.00  0.00     0.091 C 
HETATM   23  O3  UNL     1       5.944   1.147   7.181  1.00  0.00    -0.298 OA
ENDBRANCH  20  21
ENDBRANCH  19  20
ENDBRANCH  18  19
ENDBRANCH  14  18
BRANCH  13  24
HETATM   24  O2  UNL     1       6.472   0.846   4.343  1.00  0.00    -0.345 OA
ATOM     25  H2  UNL     1       5.591   1.183   4.232  1.00  0.00     0.219 HD
ENDBRANCH  13  24
BRANCH  15  26
HETATM   26  O4  UNL     1       9.896   4.016   3.104  1.00  0.00    -0.345 OA
ATOM     27  H4  UNL     1       9.545   4.897   3.046  1.00  0.00     0.219 HD
ENDBRANCH  15  26
BRANCH   1  28
HETATM   28  C3  UNL     1       9.058  -3.044   2.249  1.00  0.00     0.163 C 
BRANCH  28  29
HETATM   29  C2  UNL     1       9.104  -3.545   3.624  1.00  0.00    -0.017 C 
HETATM   30  C1  UNL     1       8.229  -4.453   4.017  1.00  0.00     0.008 C 
ENDBRANCH  28  29
ENDBRANCH   1  28
TORSDOF 8
ENDMDL
MODEL 3
REMARK VINA RESULT: -7.487750423      0.777      1.012
REMARK  8 active torsions:
REMARK  status: ('A' for Active; 'I' for Inactive)
REMARK    1  A    between atoms: C2_2  and  C3_3 
REMARK    2  A    between atoms: C3_3  and  N1_4 
REMARK    3  A    between atoms: C12_16  and  O2_17 
REMARK    4  A    between atoms: N3_19  and  C13_20 
REMARK    5  A    between atoms: C13_20  and  C14_21 
REMARK    6  A    between atoms: C14_21  and  C15_22 
REMARK    7  A    between atoms: C15_22  and  C16_23 
REMARK    8  A    between atoms: C18_26  and  O4_27 
ROOT
HETATM    1  N1  UNL     1      11.854   1.519   0.909  1.00  0.00    -0.262 N 
HETATM    2  C4  UNL     1      11.669   0.126   0.950  1.00  0.00     0.326 C 
HETATM    3  O1  UNL     1      12.498  -0.562   0.291  1.00  0.00    -0.247 OA
HETATM    4  N2  UNL     1      10.651  -0.552   1.655  1.00  0.00    -0.329 N 
ATOM      5  H2  UNL     1      10.741  -1.562   1.541  1.00  0.00     0.165 HD
HETATM    6  C5  UNL     1       9.541  -0.235   2.475  1.00  0.00     0.067 C 
HETATM    7  C6  UNL     1       9.770  -0.943   3.817  1.00  0.00     0.036 C 
HETATM    8  C7  UNL     1       9.572  -2.385   3.447  1.00  0.00     0.003 C 
HETATM    9  C8  UNL     1       8.512  -2.381   2.378  1.00  0.00     0.003 C 
HETATM   10  C9  UNL     1       8.353  -0.976   1.908  1.00  0.00     0.036 C 
HETATM   11  C10 UNL     1       9.267   1.155   2.767  1.00  0.00     0.041 A 
HETATM   12  C11 UNL     1       9.948   2.301   2.421  1.00  0.00     0.096 A 
HETATM   13  C12 UNL     1       9.272   3.402   2.948  1.00  0.00     0.161 A 
HETATM   14  N3  UNL     1       8.202   2.916   3.601  1.00  0.00    -0.307 N 
HETATM   15  C18 UNL     1       8.189   1.565   3.497  1.00  0.00     0.154 A 
HETATM   16  C19 UNL     1      11.168   2.517   1.651  1.00  0.00     0.267 C 
HETATM   17  O5  UNL     1      11.677   3.666   1.621  1.00  0.00    -0.267 OA
ENDROOT
BRANCH  14  18
HETATM   18  C13 UNL     1       7.232   3.751   4.296  1.00  0.00     0.133 C 
BRANCH  18  19
HETATM   19  C14 UNL     1       7.622   3.744   5.747  1.00  0.00     0.027 C 
BRANCH  19  20
HETATM   20  C15 UNL     1       6.725   2.996   6.657  1.00  0.00     0.079 C 
BRANCH  20  21
HETATM   21  C16 UNL     1       5.411   3.617   6.839  1.00  0.00     0.123 C 
HETATM   22  C17 UNL     1       5.258   4.778   7.801  1.00  0.00     0.091 C 
HETATM   23  O3  UNL     1       4.423   3.256   6.261  1.00  0.00    -0.298 OA
ENDBRANCH  20  21
ENDBRANCH  19  20
ENDBRANCH  18  19
ENDBRANCH  14  18
BRANCH  13  24
HETATM   24  O2  UNL     1       9.654   4.746   2.813  1.00  0.00    -0.345 OA
ATOM     25  H2  UNL     1       9.239   5.391   2.252  1.00  0.00     0.219 HD
ENDBRANCH  13  24
BRANCH  15  26
HETATM   26  O4  UNL     1       7.156   0.823   4.104  1.00  0.00    -0.345 OA
ATOM     27  H4  UNL     1       6.989   0.630   5.020  1.00  0.00     0.219 HD
ENDBRANCH  15  26
BRANCH   1  28
HETATM   28  C3  UNL     1      12.891   1.976  -0.025  1.00  0.00     0.163 C 
BRANCH  28  29
HETATM   29  C2  UNL     1      12.363   2.234  -1.366  1.00  0.00    -0.017 C 
HETATM   30  C1  UNL     1      12.859   1.578  -2.400  1.00  0.00     0.008 C 
ENDBRANCH  28  29
ENDBRANCH   1  28
TORSDOF 8
ENDMDL
MODEL 4
REMARK VINA RESULT: -7.364296917      3.533      8.731
REMARK  8 active torsions:
REMARK  status: ('A' for Active; 'I' for Inactive)
REMARK    1  A    between atoms: C2_2  and  C3_3 
REMARK    2  A    between atoms: C3_3  and  N1_4 
REMARK    3  A    between atoms: C12_16  and  O2_17 
REMARK    4  A    between atoms: N3_19  and  C13_20 
REMARK    5  A    between atoms: C13_20  and  C14_21 
REMARK    6  A    between atoms: C14_21  and  C15_22 
REMARK    7  A    between atoms: C15_22  and  C16_23 
REMARK    8  A    between atoms: C18_26  and  O4_27 
ROOT
HETATM    1  N1  UNL     1       9.451  -1.926   2.320  1.00  0.00    -0.262 N 
HETATM    2  C4  UNL     1       9.422  -0.580   2.723  1.00  0.00     0.326 C 
HETATM    3  O1  UNL     1       8.497  -0.261   3.521  1.00  0.00    -0.247 OA
HETATM    4  N2  UNL     1      10.327   0.425   2.317  1.00  0.00    -0.329 N 
ATOM      5  H2  UNL     1      10.104   1.316   2.762  1.00  0.00     0.165 HD
HETATM    6  C5  UNL     1      11.454   0.553   1.469  1.00  0.00     0.067 C 
HETATM    7  C6  UNL     1      12.607   1.057   2.347  1.00  0.00     0.036 C 
HETATM    8  C7  UNL     1      12.186   2.468   2.637  1.00  0.00     0.003 C 
HETATM    9  C8  UNL     1      11.468   2.934   1.398  1.00  0.00     0.003 C 
HETATM   10  C9  UNL     1      11.187   1.732   0.563  1.00  0.00     0.036 C 
HETATM   11  C10 UNL     1      11.931  -0.617   0.766  1.00  0.00     0.041 A 
HETATM   12  C11 UNL     1      11.507  -1.927   0.800  1.00  0.00     0.096 A 
HETATM   13  C12 UNL     1      12.298  -2.679  -0.067  1.00  0.00     0.161 A 
HETATM   14  N3  UNL     1      13.185  -1.827  -0.612  1.00  0.00    -0.307 N 
HETATM   15  C18 UNL     1      12.971  -0.583  -0.117  1.00  0.00     0.154 A 
HETATM   16  C19 UNL     1      10.442  -2.588   1.547  1.00  0.00     0.267 C 
HETATM   17  O5  UNL     1      10.369  -3.844   1.525  1.00  0.00    -0.267 OA
ENDROOT
BRANCH  14  18
HETATM   18  C13 UNL     1      14.198  -2.224  -1.580  1.00  0.00     0.133 C 
BRANCH  18  19
HETATM   19  C14 UNL     1      13.482  -2.443  -2.884  1.00  0.00     0.027 C 
BRANCH  19  20
HETATM   20  C15 UNL     1      14.168  -3.319  -3.861  1.00  0.00     0.079 C 
BRANCH  20  21
HETATM   21  C16 UNL     1      14.011  -4.750  -3.588  1.00  0.00     0.123 C 
HETATM   22  C17 UNL     1      14.996  -5.738  -4.182  1.00  0.00     0.091 C 
HETATM   23  O3  UNL     1      13.131  -5.201  -2.907  1.00  0.00    -0.298 OA
ENDBRANCH  20  21
ENDBRANCH  19  20
ENDBRANCH  18  19
ENDBRANCH  14  18
BRANCH  13  24
HETATM   24  O2  UNL     1      12.177  -4.057  -0.309  1.00  0.00    -0.345 OA
ATOM     25  H2  UNL     1      12.187  -4.477  -1.161  1.00  0.00     0.219 HD
ENDBRANCH  13  24
BRANCH  15  26
HETATM   26  O4  UNL     1      13.781   0.490  -0.541  1.00  0.00    -0.345 OA
ATOM     27  H4  UNL     1      14.416   0.545  -1.245  1.00  0.00     0.219 HD
ENDBRANCH  15  26
BRANCH   1  28
HETATM   28  C3  UNL     1       8.304  -2.728   2.763  1.00  0.00     0.163 C 
BRANCH  28  29
HETATM   29  C2  UNL     1       8.666  -3.703   3.794  1.00  0.00    -0.017 C 
HETATM   30  C1  UNL     1       7.755  -4.549   4.240  1.00  0.00     0.008 C 
ENDBRANCH  28  29
ENDBRANCH   1  28
TORSDOF 8
ENDMDL
MODEL 5
REMARK VINA RESULT: -7.316622496      1.999      4.902
REMARK  8 active torsions:
REMARK  status: ('A' for Active; 'I' for Inactive)
REMARK    1  A    between atoms: C2_2  and  C3_3 
REMARK    2  A    between atoms: C3_3  and  N1_4 
REMARK    3  A    between atoms: C12_16  and  O2_17 
REMARK    4  A    between atoms: N3_19  and  C13_20 
REMARK    5  A    between atoms: C13_20  and  C14_21 
REMARK    6  A    between atoms: C14_21  and  C15_22 
REMARK    7  A    between atoms: C15_22  and  C16_23 
REMARK    8  A    between atoms: C18_26  and  O4_27 
ROOT
HETATM    1  N1  UNL     1       9.100  -1.448   2.231  1.00  0.00    -0.262 N 
HETATM    2  C4  UNL     1      10.269  -1.132   1.517  1.00  0.00     0.326 C 
HETATM    3  O1  UNL     1      10.812  -2.087   0.895  1.00  0.00    -0.247 OA
HETATM    4  N2  UNL     1      10.872   0.142   1.440  1.00  0.00    -0.329 N 
ATOM      5  H2  UNL     1      11.701   0.116   0.846  1.00  0.00     0.165 HD
HETATM    6  C5  UNL     1      10.658   1.446   1.950  1.00  0.00     0.067 C 
HETATM    7  C6  UNL     1      10.520   2.374   0.736  1.00  0.00     0.036 C 
HETATM    8  C7  UNL     1      11.922   2.399   0.201  1.00  0.00     0.003 C 
HETATM    9  C8  UNL     1      12.814   2.303   1.410  1.00  0.00     0.003 C 
HETATM   10  C9  UNL     1      11.963   1.895   2.564  1.00  0.00     0.036 C 
HETATM   11  C10 UNL     1       9.511   1.681   2.799  1.00  0.00     0.041 A 
HETATM   12  C11 UNL     1       8.493   0.841   3.195  1.00  0.00     0.096 A 
HETATM   13  C12 UNL     1       7.622   1.549   4.022  1.00  0.00     0.161 A 
HETATM   14  N3  UNL     1       8.114   2.796   4.118  1.00  0.00    -0.307 N 
HETATM   15  C18 UNL     1       9.252   2.885   3.386  1.00  0.00     0.154 A 
HETATM   16  C19 UNL     1       8.215  -0.561   2.901  1.00  0.00     0.267 C 
HETATM   17  O5  UNL     1       7.114  -1.053   3.257  1.00  0.00    -0.267 OA
ENDROOT
BRANCH  14  18
HETATM   18  C13 UNL     1       7.490   3.854   4.900  1.00  0.00     0.133 C 
BRANCH  18  19
HETATM   19  C14 UNL     1       6.516   4.545   3.986  1.00  0.00     0.027 C 
BRANCH  19  20
HETATM   20  C15 UNL     1       6.513   6.025   4.040  1.00  0.00     0.079 C 
BRANCH  20  21
HETATM   21  C16 UNL     1       5.217   6.603   4.400  1.00  0.00     0.123 C 
HETATM   22  C17 UNL     1       4.333   7.191   3.318  1.00  0.00     0.091 C 
HETATM   23  O3  UNL     1       4.800   6.643   5.524  1.00  0.00    -0.298 OA
ENDBRANCH  20  21
ENDBRANCH  19  20
ENDBRANCH  18  19
ENDBRANCH  14  18
BRANCH  13  24
HETATM   24  O2  UNL     1       6.461   1.039   4.626  1.00  0.00    -0.345 OA
ATOM     25  H2  UNL     1       6.424   0.325   5.251  1.00  0.00     0.219 HD
ENDBRANCH  13  24
BRANCH  15  26
HETATM   26  O4  UNL     1       9.957   4.105   3.329  1.00  0.00    -0.345 OA
ATOM     27  H4  UNL     1      10.098   4.704   2.605  1.00  0.00     0.219 HD
ENDBRANCH  15  26
BRANCH   1  28
HETATM   28  C3  UNL     1       8.772  -2.879   2.277  1.00  0.00     0.163 C 
BRANCH  28  29
HETATM   29  C2  UNL     1       9.001  -3.463   3.600  1.00  0.00    -0.017 C 
HETATM   30  C1  UNL     1       8.170  -4.380   4.060  1.00  0.00     0.008 C 
ENDBRANCH  28  29
ENDBRANCH   1  28
TORSDOF 8
ENDMDL
