MODEL 1
REMARK VINA RESULT: -6.520080036      0.000      0.000
REMARK  9 active torsions:
REMARK  status: ('A' for Active; 'I' for Inactive)
REMARK    1  A    between atoms: C2_2  and  C3_3 
REMARK    2  A    between atoms: C3_3  and  O1_4 
REMARK    3  A    between atoms: C3_3  and  C17_27 
REMARK    4  A    between atoms: O1_4  and  C4_5 
REMARK    5  A    between atoms: C5_6  and  O2_7 
REMARK    6  A    between atoms: C7_10  and  O3_11 
REMARK    7  A    between atoms: C8_13  and  O4_14 
REMARK    8  A    between atoms: O4_14  and  C9_15 
REMARK    9  A    between atoms: C11_18  and  C12_19 
ROOT
HETATM    1  C4  UNL     1      11.762  -0.433   1.701  1.00  0.00     0.162 C 
HETATM    2  C5  UNL     1      12.991   0.523   1.543  1.00  0.00     0.150 C 
HETATM    3  C6  UNL     1      12.837   1.413   0.369  1.00  0.00     0.068 C 
HETATM    4  C7  UNL     1      11.375   1.655   0.093  1.00  0.00     0.151 C 
HETATM    5  C8  UNL     1      10.566   1.686   1.390  1.00  0.00     0.171 C 
HETATM    6  C11 UNL     1      10.670   0.447   2.204  1.00  0.00     0.083 C 
ENDROOT
BRANCH   1   7
HETATM    7  O1  UNL     1      11.584  -1.162   0.578  1.00  0.00    -0.377 OA
BRANCH   7   8
HETATM    8  C3  UNL     1      12.401  -2.288   0.567  1.00  0.00     0.126 C 
BRANCH   8   9
HETATM    9  C2  UNL     1      12.797  -2.475  -0.912  1.00  0.00     0.028 C 
HETATM   10  C1  UNL     1      13.955  -1.637  -1.318  1.00  0.00     0.007 C 
ENDBRANCH   8   9
BRANCH   8  11
HETATM   11  C17 UNL     1      11.698  -3.494   1.055  1.00  0.00     0.015 C 
HETATM   12  C18 UNL     1      12.149  -4.836   0.590  1.00  0.00     0.007 C 
HETATM   13  C19 UNL     1      10.674  -5.258   0.582  1.00  0.00     0.001 C 
HETATM   14  C20 UNL     1      10.360  -3.789   0.392  1.00  0.00     0.007 C 
ENDBRANCH   8  11
ENDBRANCH   7   8
ENDBRANCH   1   7
BRANCH   2  15
HETATM   15  O2  UNL     1      12.997   1.302   2.704  1.00  0.00    -0.393 OA
ATOM     16  H2  UNL     1      13.496   2.078   2.478  1.00  0.00     0.210 HD
ENDBRANCH   2  15
BRANCH   6  17
HETATM   17  C12 UNL     1       9.342  -0.189   2.367  1.00  0.00    -0.032 A 
HETATM   18  C13 UNL     1       8.179   0.461   1.931  1.00  0.00     0.095 A 
HETATM   19  N1  UNL     1       6.956  -0.075   2.034  1.00  0.00    -0.373 N 
HETATM   20  C14 UNL     1       6.749  -1.281   2.564  1.00  0.00     0.114 A 
ATOM     21  H1  UNL     1       6.154   0.458   1.696  1.00  0.00     0.164 HD
HETATM   22  C15 UNL     1       7.882  -1.956   3.008  1.00  0.00     0.062 A 
HETATM   23  N2  UNL     1       7.638  -3.253   3.576  1.00  0.00    -0.101 NA
HETATM   24  C16 UNL     1       9.141  -1.422   2.911  1.00  0.00     0.037 A 
ENDBRANCH   6  17
BRANCH   5  25
HETATM   25  O4  UNL     1      10.770   2.895   1.976  1.00  0.00    -0.313 OA
BRANCH  25  26
HETATM   26  C9  UNL     1      10.278   3.260   3.191  1.00  0.00     0.255 C 
HETATM   27  C10 UNL     1       8.911   3.723   3.510  1.00  0.00     0.126 C 
HETATM   28  O5  UNL     1      11.113   3.177   4.106  1.00  0.00    -0.266 OA
ENDBRANCH  25  26
ENDBRANCH   5  25
BRANCH   4  29
HETATM   29  O3  UNL     1      11.242   2.891  -0.562  1.00  0.00    -0.393 OA
ATOM     30  H3  UNL     1      10.656   2.780  -1.302  1.00  0.00     0.210 HD
ENDBRANCH   4  29
TORSDOF 9
ENDMDL
MODEL 2
REMARK VINA RESULT: -6.351872974      2.846      5.546
REMARK  9 active torsions:
REMARK  status: ('A' for Active; 'I' for Inactive)
REMARK    1  A    between atoms: C2_2  and  C3_3 
REMARK    2  A    between atoms: C3_3  and  O1_4 
REMARK    3  A    between atoms: C3_3  and  C17_27 
REMARK    4  A    between atoms: O1_4  and  C4_5 
REMARK    5  A    between atoms: C5_6  and  O2_7 
REMARK    6  A    between atoms: C7_10  and  O3_11 
REMARK    7  A    between atoms: C8_13  and  O4_14 
REMARK    8  A    between atoms: O4_14  and  C9_15 
REMARK    9  A    between atoms: C11_18  and  C12_19 
ROOT
HETATM    1  C4  UNL     1      10.474   0.097   2.314  1.00  0.00     0.162 C 
HETATM    2  C5  UNL     1       9.488   0.802   3.304  1.00  0.00     0.150 C 
HETATM    3  C6  UNL     1       8.098   0.775   2.794  1.00  0.00     0.068 C 
HETATM    4  C7  UNL     1       7.894  -0.431   1.912  1.00  0.00     0.151 C 
HETATM    5  C8  UNL     1       8.723  -1.618   2.403  1.00  0.00     0.171 C 
HETATM    6  C11 UNL     1      10.183  -1.356   2.474  1.00  0.00     0.083 C 
ENDROOT
BRANCH   1   7
HETATM    7  O1  UNL     1      10.410   0.673   1.094  1.00  0.00    -0.377 OA
BRANCH   7   8
HETATM    8  C3  UNL     1      11.535   1.450   0.838  1.00  0.00     0.126 C 
BRANCH   8   9
HETATM    9  C2  UNL     1      11.148   2.871   1.296  1.00  0.00     0.028 C 
HETATM   10  C1  UNL     1      11.910   3.330   2.486  1.00  0.00     0.007 C 
ENDBRANCH   8   9
BRANCH   8  11
HETATM   11  C17 UNL     1      11.890   1.464  -0.597  1.00  0.00     0.015 C 
HETATM   12  C18 UNL     1      13.268   1.072  -1.009  1.00  0.00     0.007 C 
HETATM   13  C19 UNL     1      13.182   2.153  -2.094  1.00  0.00     0.001 C 
HETATM   14  C20 UNL     1      12.176   2.837  -1.191  1.00  0.00     0.007 C 
ENDBRANCH   8  11
ENDBRANCH   7   8
ENDBRANCH   1   7
BRANCH   2  15
HETATM   15  O2  UNL     1       9.553   0.048   4.480  1.00  0.00    -0.393 OA
ATOM     16  H2  UNL     1       9.243   0.630   5.164  1.00  0.00     0.210 HD
ENDBRANCH   2  15
BRANCH   6  17
HETATM   17  C12 UNL     1      10.927  -2.272   1.578  1.00  0.00    -0.032 A 
HETATM   18  C13 UNL     1      11.976  -1.794   0.778  1.00  0.00     0.095 A 
HETATM   19  N1  UNL     1      12.695  -2.579  -0.035  1.00  0.00    -0.373 N 
HETATM   20  C14 UNL     1      12.467  -3.888  -0.145  1.00  0.00     0.114 A 
ATOM     21  H1  UNL     1      13.442  -2.161  -0.589  1.00  0.00     0.164 HD
HETATM   22  C15 UNL     1      11.433  -4.398   0.634  1.00  0.00     0.062 A 
HETATM   23  N2  UNL     1      11.204  -5.810   0.501  1.00  0.00    -0.101 NA
HETATM   24  C16 UNL     1      10.687  -3.608   1.471  1.00  0.00     0.037 A 
ENDBRANCH   6  17
BRANCH   5  25
HETATM   25  O4  UNL     1       8.082  -2.155   3.474  1.00  0.00    -0.313 OA
BRANCH  25  26
HETATM   26  C9  UNL     1       7.830  -3.482   3.641  1.00  0.00     0.255 C 
HETATM   27  C10 UNL     1       8.652  -4.622   3.184  1.00  0.00     0.126 C 
HETATM   28  O5  UNL     1       6.775  -3.710   4.254  1.00  0.00    -0.266 OA
ENDBRANCH  25  26
ENDBRANCH   5  25
BRANCH   4  29
HETATM   29  O3  UNL     1       6.532  -0.777   1.936  1.00  0.00    -0.393 OA
ATOM     30  H3  UNL     1       6.074  -0.247   1.294  1.00  0.00     0.210 HD
ENDBRANCH   4  29
TORSDOF 9
ENDMDL
MODEL 3
REMARK VINA RESULT: -6.346806920      2.849      5.409
REMARK  9 active torsions:
REMARK  status: ('A' for Active; 'I' for Inactive)
REMARK    1  A    between atoms: C2_2  and  C3_3 
REMARK    2  A    between atoms: C3_3  and  O1_4 
REMARK    3  A    between atoms: C3_3  and  C17_27 
REMARK    4  A    between atoms: O1_4  and  C4_5 
REMARK    5  A    between atoms: C5_6  and  O2_7 
REMARK    6  A    between atoms: C7_10  and  O3_11 
REMARK    7  A    between atoms: C8_13  and  O4_14 
REMARK    8  A    between atoms: O4_14  and  C9_15 
REMARK    9  A    between atoms: C11_18  and  C12_19 
ROOT
HETATM    1  C4  UNL     1      10.604  -0.927   2.326  1.00  0.00     0.162 C 
HETATM    2  C5  UNL     1       9.804  -0.002   3.304  1.00  0.00     0.150 C 
HETATM    3  C6  UNL     1       8.441   0.274   2.794  1.00  0.00     0.068 C 
HETATM    4  C7  UNL     1       7.970  -0.871   1.933  1.00  0.00     0.151 C 
HETATM    5  C8  UNL     1       8.513  -2.205   2.444  1.00  0.00     0.171 C 
HETATM    6  C11 UNL     1       9.996  -2.275   2.511  1.00  0.00     0.083 C 
ENDROOT
BRANCH   1   7
HETATM    7  O1  UNL     1      10.666  -0.373   1.097  1.00  0.00    -0.377 OA
BRANCH   7   8
HETATM    8  C3  UNL     1      11.884   0.266   0.887  1.00  0.00     0.126 C 
BRANCH   8   9
HETATM    9  C2  UNL     1      11.556   1.772   0.936  1.00  0.00     0.028 C 
HETATM   10  C1  UNL     1      12.198   2.474   2.078  1.00  0.00     0.007 C 
ENDBRANCH   8   9
BRANCH   8  11
HETATM   11  C17 UNL     1      12.476  -0.076  -0.424  1.00  0.00     0.015 C 
HETATM   12  C18 UNL     1      13.832  -0.693  -0.470  1.00  0.00     0.007 C 
HETATM   13  C19 UNL     1      14.090   0.123  -1.744  1.00  0.00     0.001 C 
HETATM   14  C20 UNL     1      13.055   1.093  -1.210  1.00  0.00     0.007 C 
ENDBRANCH   8  11
ENDBRANCH   7   8
ENDBRANCH   1   7
BRANCH   2  15
HETATM   15  O2  UNL     1       9.703  -0.732   4.492  1.00  0.00    -0.393 OA
ATOM     16  H2  UNL     1      10.515  -0.563   4.955  1.00  0.00     0.210 HD
ENDBRANCH   2  15
BRANCH   6  17
HETATM   17  C12 UNL     1      10.513  -3.350   1.631  1.00  0.00    -0.032 A 
HETATM   18  C13 UNL     1       9.710  -4.450   1.298  1.00  0.00     0.095 A 
HETATM   19  N1  UNL     1      10.118  -5.439   0.492  1.00  0.00    -0.373 N 
HETATM   20  C14 UNL     1      11.331  -5.451  -0.061  1.00  0.00     0.114 A 
ATOM     21  H1  UNL     1       9.479  -6.209   0.295  1.00  0.00     0.164 HD
HETATM   22  C15 UNL     1      12.156  -4.375   0.247  1.00  0.00     0.062 A 
HETATM   23  N2  UNL     1      13.458  -4.407  -0.359  1.00  0.00    -0.101 NA
HETATM   24  C16 UNL     1      11.755  -3.355   1.071  1.00  0.00     0.037 A 
ENDBRANCH   6  17
BRANCH   5  25
HETATM   25  O4  UNL     1       7.773  -2.567   3.524  1.00  0.00    -0.313 OA
BRANCH  25  26
HETATM   26  C9  UNL     1       7.677  -3.835   4.008  1.00  0.00     0.255 C 
HETATM   27  C10 UNL     1       6.465  -4.675   4.106  1.00  0.00     0.126 C 
HETATM   28  O5  UNL     1       8.761  -4.297   4.401  1.00  0.00    -0.266 OA
ENDBRANCH  25  26
ENDBRANCH   5  25
BRANCH   4  29
HETATM   29  O3  UNL     1       6.565  -0.904   1.962  1.00  0.00    -0.393 OA
ATOM     30  H3  UNL     1       6.286  -1.123   2.843  1.00  0.00     0.210 HD
ENDBRANCH   4  29
TORSDOF 9
ENDMDL
MODEL 4
REMARK VINA RESULT: -6.130357979      4.462      7.665
REMARK  9 active torsions:
REMARK  status: ('A' for Active; 'I' for Inactive)
REMARK    1  A    between atoms: C2_2  and  C3_3 
REMARK    2  A    between atoms: C3_3  and  O1_4 
REMARK    3  A    between atoms: C3_3  and  C17_27 
REMARK    4  A    between atoms: O1_4  and  C4_5 
REMARK    5  A    between atoms: C5_6  and  O2_7 
REMARK    6  A    between atoms: C7_10  and  O3_11 
REMARK    7  A    between atoms: C8_13  and  O4_14 
REMARK    8  A    between atoms: O4_14  and  C9_15 
REMARK    9  A    between atoms: C11_18  and  C12_19 
ROOT
HETATM    1  C4  UNL     1       7.032   2.736   4.583  1.00  0.00     0.162 C 
HETATM    2  C5  UNL     1       6.652   1.736   5.726  1.00  0.00     0.150 C 
HETATM    3  C6  UNL     1       7.302   2.104   7.005  1.00  0.00     0.068 C 
HETATM    4  C7  UNL     1       7.540   3.592   7.054  1.00  0.00     0.151 C 
HETATM    5  C8  UNL     1       6.430   4.353   6.327  1.00  0.00     0.171 C 
HETATM    6  C11 UNL     1       6.262   3.972   4.901  1.00  0.00     0.083 C 
ENDROOT
BRANCH   1   7
HETATM    7  O1  UNL     1       8.373   2.791   4.430  1.00  0.00    -0.377 OA
BRANCH   7   8
HETATM    8  C3  UNL     1       8.770   2.248   3.212  1.00  0.00     0.126 C 
BRANCH   8   9
HETATM    9  C2  UNL     1       9.049   0.761   3.515  1.00  0.00     0.028 C 
HETATM   10  C1  UNL     1       8.268  -0.167   2.656  1.00  0.00     0.007 C 
ENDBRANCH   8   9
BRANCH   8  11
HETATM   11  C17 UNL     1       9.992   2.891   2.685  1.00  0.00     0.015 C 
HETATM   12  C18 UNL     1      10.804   2.177   1.660  1.00  0.00     0.007 C 
HETATM   13  C19 UNL     1      12.053   2.758   2.337  1.00  0.00     0.001 C 
HETATM   14  C20 UNL     1      11.212   2.832   3.595  1.00  0.00     0.007 C 
ENDBRANCH   8  11
ENDBRANCH   7   8
ENDBRANCH   1   7
BRANCH   2  15
HETATM   15  O2  UNL     1       5.267   1.859   5.870  1.00  0.00    -0.393 OA
ATOM     16  H2  UNL     1       5.040   1.271   6.581  1.00  0.00     0.210 HD
ENDBRANCH   2  15
BRANCH   6  17
HETATM   17  C12 UNL     1       6.500   5.135   4.013  1.00  0.00    -0.032 A 
HETATM   18  C13 UNL     1       7.786   5.675   3.872  1.00  0.00     0.095 A 
HETATM   19  N1  UNL     1       8.062   6.712   3.070  1.00  0.00    -0.373 N 
HETATM   20  C14 UNL     1       7.126   7.313   2.336  1.00  0.00     0.114 A 
ATOM     21  H1  UNL     1       9.022   7.053   3.019  1.00  0.00     0.164 HD
HETATM   22  C15 UNL     1       5.836   6.803   2.451  1.00  0.00     0.062 A 
HETATM   23  N2  UNL     1       4.843   7.465   1.652  1.00  0.00    -0.101 NA
HETATM   24  C16 UNL     1       5.536   5.743   3.268  1.00  0.00     0.037 A 
ENDBRANCH   6  17
BRANCH   5  25
HETATM   25  O4  UNL     1       5.348   4.387   7.147  1.00  0.00    -0.313 OA
BRANCH  25  26
HETATM   26  C9  UNL     1       4.769   5.525   7.619  1.00  0.00     0.255 C 
HETATM   27  C10 UNL     1       4.319   5.803   8.999  1.00  0.00     0.126 C 
HETATM   28  O5  UNL     1       4.623   6.401   6.751  1.00  0.00    -0.266 OA
ENDBRANCH  25  26
ENDBRANCH   5  25
BRANCH   4  29
HETATM   29  O3  UNL     1       7.571   3.996   8.400  1.00  0.00    -0.393 OA
ATOM     30  H3  UNL     1       6.702   4.289   8.648  1.00  0.00     0.210 HD
ENDBRANCH   4  29
TORSDOF 9
ENDMDL
MODEL 5
REMARK VINA RESULT: -6.105138864      3.317      7.827
REMARK  9 active torsions:
REMARK  status: ('A' for Active; 'I' for Inactive)
REMARK    1  A    between atoms: C2_2  and  C3_3 
REMARK    2  A    between atoms: C3_3  and  O1_4 
REMARK    3  A    between atoms: C3_3  and  C17_27 
REMARK    4  A    between atoms: O1_4  and  C4_5 
REMARK    5  A    between atoms: C5_6  and  O2_7 
REMARK    6  A    between atoms: C7_10  and  O3_11 
REMARK    7  A    between atoms: C8_13  and  O4_14 
REMARK    8  A    between atoms: O4_14  and  C9_15 
REMARK    9  A    between atoms: C11_18  and  C12_19 
ROOT
HETATM    1  C4  UNL     1       8.922   3.190   4.044  1.00  0.00     0.162 C 
HETATM    2  C5  UNL     1       8.000   2.497   5.102  1.00  0.00     0.150 C 
HETATM    3  C6  UNL     1       6.933   1.702   4.452  1.00  0.00     0.068 C 
HETATM    4  C7  UNL     1       7.398   1.219   3.102  1.00  0.00     0.151 C 
HETATM    5  C8  UNL     1       8.898   0.922   3.109  1.00  0.00     0.171 C 
HETATM    6  C11 UNL     1       9.748   2.080   3.488  1.00  0.00     0.083 C 
ENDROOT
BRANCH   1   7
HETATM    7  O1  UNL     1       8.191   3.971   3.220  1.00  0.00    -0.377 OA
BRANCH   7   8
HETATM    8  C3  UNL     1       7.910   5.203   3.802  1.00  0.00     0.126 C 
BRANCH   8   9
HETATM    9  C2  UNL     1       6.371   5.266   3.875  1.00  0.00     0.028 C 
HETATM   10  C1  UNL     1       5.863   5.627   5.224  1.00  0.00     0.007 C 
ENDBRANCH   8   9
BRANCH   8  11
HETATM   11  C17 UNL     1       8.421   6.331   2.995  1.00  0.00     0.015 C 
HETATM   12  C18 UNL     1       8.637   7.653   3.649  1.00  0.00     0.007 C 
HETATM   13  C19 UNL     1       8.157   8.304   2.345  1.00  0.00     0.001 C 
HETATM   14  C20 UNL     1       7.398   7.017   2.100  1.00  0.00     0.007 C 
ENDBRANCH   8  11
ENDBRANCH   7   8
ENDBRANCH   1   7
BRANCH   2  15
HETATM   15  O2  UNL     1       8.843   1.632   5.807  1.00  0.00    -0.393 OA
ATOM     16  H2  UNL     1       9.629   1.566   5.276  1.00  0.00     0.210 HD
ENDBRANCH   2  15
BRANCH   6  17
HETATM   17  C12 UNL     1      10.668   2.442   2.384  1.00  0.00    -0.032 A 
HETATM   18  C13 UNL     1      10.847   1.582   1.292  1.00  0.00     0.095 A 
HETATM   19  N1  UNL     1      11.650   1.866   0.258  1.00  0.00    -0.373 N 
HETATM   20  C14 UNL     1      12.346   3.001   0.188  1.00  0.00     0.114 A 
ATOM     21  H1  UNL     1      11.732   1.191  -0.502  1.00  0.00     0.164 HD
HETATM   22  C15 UNL     1      12.193   3.880   1.256  1.00  0.00     0.062 A 
HETATM   23  N2  UNL     1      12.951   5.096   1.162  1.00  0.00    -0.101 NA
HETATM   24  C16 UNL     1      11.376   3.604   2.322  1.00  0.00     0.037 A 
ENDBRANCH   6  17
BRANCH   5  25
HETATM   25  O4  UNL     1       9.080  -0.276   3.724  1.00  0.00    -0.313 OA
BRANCH  25  26
HETATM   26  C9  UNL     1       9.325  -1.449   3.080  1.00  0.00     0.255 C 
HETATM   27  C10 UNL     1      10.548  -1.838   2.348  1.00  0.00     0.126 C 
HETATM   28  O5  UNL     1       8.380  -2.253   3.143  1.00  0.00    -0.266 OA
ENDBRANCH  25  26
ENDBRANCH   5  25
BRANCH   4  29
HETATM   29  O3  UNL     1       6.697   0.043   2.782  1.00  0.00    -0.393 OA
ATOM     30  H3  UNL     1       7.082  -0.336   2.001  1.00  0.00     0.210 HD
ENDBRANCH   4  29
TORSDOF 9
ENDMDL
