MODEL 1
REMARK VINA RESULT: -8.268601110      0.000      0.000
REMARK  10 active torsions:
REMARK  status: ('A' for Active; 'I' for Inactive)
REMARK    1  A    between atoms: O1_2  and  C2_3 
REMARK    2  A    between atoms: C6_7  and  C7_8 
REMARK    3  A    between atoms: C8_9  and  O2_10 
REMARK    4  A    between atoms: C9_13  and  C10_14 
REMARK    5  A    between atoms: C10_14  and  O4_15 
REMARK    6  A    between atoms: C10_14  and  C11_17 
REMARK    7  A    between atoms: C11_17  and  C13_19 
REMARK    8  A    between atoms: C14_20  and  O5_21 
REMARK    9  A    between atoms: C17_25  and  O6_26 
REMARK   10  A    between atoms: C19_28  and  O7_29 
ROOT
HETATM    1  C7  UNL     1       8.236   2.280   3.213  1.00  0.00     0.087 C 
HETATM    2  C8  UNL     1       7.462   1.202   2.502  1.00  0.00     0.272 C 
HETATM    3  O3  UNL     1       8.416   0.459   1.794  1.00  0.00    -0.321 OA
HETATM    4  C9  UNL     1       9.261   0.189   2.864  1.00  0.00     0.084 C 
HETATM    5  C15 UNL     1       9.569   1.505   3.456  1.00  0.00     0.054 C 
HETATM    6  C16 UNL     1      10.715   2.312   2.944  1.00  0.00     0.018 C 
ENDROOT
BRANCH   1   7
HETATM    7  C6  UNL     1       7.743   2.725   4.494  1.00  0.00    -0.012 A 
HETATM    8  C5  UNL     1       7.870   2.060   5.665  1.00  0.00     0.020 A 
HETATM    9  C3  UNL     1       7.559   2.662   6.901  1.00  0.00    -0.025 A 
HETATM   10  C2  UNL     1       7.107   3.960   6.922  1.00  0.00     0.110 A 
HETATM   11  C4  UNL     1       7.784   1.857   8.128  1.00  0.00     0.051 C 
HETATM   12  C19 UNL     1       6.959   4.680   5.727  1.00  0.00     0.136 A 
HETATM   13  C17 UNL     1       7.278   4.052   4.574  1.00  0.00     0.111 A 
BRANCH  10  14
HETATM   14  O1  UNL     1       6.779   4.597   8.098  1.00  0.00    -0.352 OA
HETATM   15  C1  UNL     1       5.445   4.779   8.550  1.00  0.00     0.210 C 
ENDBRANCH  10  14
BRANCH  12  16
HETATM   16  O7  UNL     1       6.504   5.973   5.822  1.00  0.00    -0.351 OA
HETATM   17  C20 UNL     1       5.285   6.398   5.229  1.00  0.00     0.210 C 
ENDBRANCH  12  16
BRANCH  13  18
HETATM   18  O6  UNL     1       7.129   4.776   3.360  1.00  0.00    -0.352 OA
HETATM   19  C18 UNL     1       8.175   5.727   3.066  1.00  0.00     0.210 C 
ENDBRANCH  13  18
ENDBRANCH   1   7
BRANCH   2  20
HETATM   20  O2  UNL     1       6.669   0.395   3.243  1.00  0.00    -0.370 OA
ATOM     21  H2  UNL     1       7.071  -0.349   3.675  1.00  0.00     0.212 HD
ENDBRANCH   2  20
BRANCH   4  22
HETATM   22  C10 UNL     1      10.254  -0.866   2.697  1.00  0.00     0.080 C 
BRANCH  22  23
HETATM   23  O4  UNL     1      11.360  -0.394   2.019  1.00  0.00    -0.362 OA
ATOM     24  H4  UNL     1      12.159  -0.738   2.399  1.00  0.00     0.217 HD
ENDBRANCH  22  23
BRANCH  22  25
HETATM   25  C11 UNL     1       9.813  -2.252   2.341  1.00  0.00     0.065 C 
HETATM   26  C12 UNL     1      11.048  -3.124   2.023  1.00  0.00     0.021 C 
BRANCH  25  27
HETATM   27  C13 UNL     1       9.165  -2.970   3.490  1.00  0.00     0.008 C 
HETATM   28  C14 UNL     1       8.765  -4.184   3.330  1.00  0.00     0.128 C 
BRANCH  28  29
HETATM   29  O5  UNL     1       8.156  -4.898   4.402  1.00  0.00    -0.373 OA
ATOM     30  H5  UNL     1       7.451  -5.514   4.237  1.00  0.00     0.216 HD
ENDBRANCH  28  29
ENDBRANCH  25  27
ENDBRANCH  22  25
ENDBRANCH   4  22
TORSDOF 10
ENDMDL
MODEL 2
REMARK VINA RESULT: -8.224151839      0.879      1.080
REMARK  10 active torsions:
REMARK  status: ('A' for Active; 'I' for Inactive)
REMARK    1  A    between atoms: O1_2  and  C2_3 
REMARK    2  A    between atoms: C6_7  and  C7_8 
REMARK    3  A    between atoms: C8_9  and  O2_10 
REMARK    4  A    between atoms: C9_13  and  C10_14 
REMARK    5  A    between atoms: C10_14  and  O4_15 
REMARK    6  A    between atoms: C10_14  and  C11_17 
REMARK    7  A    between atoms: C11_17  and  C13_19 
REMARK    8  A    between atoms: C14_20  and  O5_21 
REMARK    9  A    between atoms: C17_25  and  O6_26 
REMARK   10  A    between atoms: C19_28  and  O7_29 
ROOT
HETATM    1  C7  UNL     1       8.323   2.118   3.201  1.00  0.00     0.087 C 
HETATM    2  C8  UNL     1       7.485   1.102   2.470  1.00  0.00     0.272 C 
HETATM    3  O3  UNL     1       8.393   0.304   1.762  1.00  0.00    -0.321 OA
HETATM    4  C9  UNL     1       9.207  -0.034   2.837  1.00  0.00     0.084 C 
HETATM    5  C15 UNL     1       9.598   1.250   3.447  1.00  0.00     0.054 C 
HETATM    6  C16 UNL     1      10.801   1.983   2.955  1.00  0.00     0.018 C 
ENDROOT
BRANCH   1   7
HETATM    7  C6  UNL     1       7.848   2.580   4.482  1.00  0.00    -0.012 A 
HETATM    8  C5  UNL     1       7.997   1.935   5.662  1.00  0.00     0.020 A 
HETATM    9  C3  UNL     1       7.703   2.556   6.893  1.00  0.00    -0.025 A 
HETATM   10  C2  UNL     1       7.246   3.851   6.900  1.00  0.00     0.110 A 
HETATM   11  C4  UNL     1       7.951   1.771   8.128  1.00  0.00     0.051 C 
HETATM   12  C19 UNL     1       7.075   4.551   5.696  1.00  0.00     0.136 A 
HETATM   13  C17 UNL     1       7.379   3.906   4.548  1.00  0.00     0.111 A 
BRANCH  10  14
HETATM   14  O1  UNL     1       6.933   4.506   8.070  1.00  0.00    -0.352 OA
HETATM   15  C1  UNL     1       5.606   4.679   8.547  1.00  0.00     0.210 C 
ENDBRANCH  10  14
BRANCH  12  16
HETATM   16  O7  UNL     1       6.615   5.844   5.778  1.00  0.00    -0.351 OA
HETATM   17  C20 UNL     1       5.362   6.243   5.241  1.00  0.00     0.210 C 
ENDBRANCH  12  16
BRANCH  13  18
HETATM   18  O6  UNL     1       7.208   4.611   3.326  1.00  0.00    -0.352 OA
HETATM   19  C18 UNL     1       8.210   5.605   3.030  1.00  0.00     0.210 C 
ENDBRANCH  13  18
ENDBRANCH   1   7
BRANCH   2  20
HETATM   20  O2  UNL     1       6.632   0.343   3.194  1.00  0.00    -0.370 OA
ATOM     21  H2  UNL     1       5.969  -0.152   2.728  1.00  0.00     0.212 HD
ENDBRANCH   2  20
BRANCH   4  22
HETATM   22  C10 UNL     1      10.128  -1.153   2.667  1.00  0.00     0.080 C 
BRANCH  22  23
HETATM   23  O4  UNL     1      10.768  -1.078   1.446  1.00  0.00    -0.362 OA
ATOM     24  H4  UNL     1      10.927  -1.947   1.096  1.00  0.00     0.217 HD
ENDBRANCH  22  23
BRANCH  22  25
HETATM   25  C11 UNL     1       9.720  -2.525   3.107  1.00  0.00     0.065 C 
HETATM   26  C12 UNL     1       8.180  -2.603   3.202  1.00  0.00     0.021 C 
BRANCH  25  27
HETATM   27  C13 UNL     1      10.063  -3.584   2.100  1.00  0.00     0.008 C 
HETATM   28  C14 UNL     1       9.371  -4.671   2.068  1.00  0.00     0.128 C 
BRANCH  28  29
HETATM   29  O5  UNL     1       9.662  -5.693   1.119  1.00  0.00    -0.373 OA
ATOM     30  H5  UNL     1       8.976  -6.056   0.570  1.00  0.00     0.216 HD
ENDBRANCH  28  29
ENDBRANCH  25  27
ENDBRANCH  22  25
ENDBRANCH   4  22
TORSDOF 10
ENDMDL
MODEL 3
REMARK VINA RESULT: -7.544479386      2.545      7.653
REMARK  10 active torsions:
REMARK  status: ('A' for Active; 'I' for Inactive)
REMARK    1  A    between atoms: O1_2  and  C2_3 
REMARK    2  A    between atoms: C6_7  and  C7_8 
REMARK    3  A    between atoms: C8_9  and  O2_10 
REMARK    4  A    between atoms: C9_13  and  C10_14 
REMARK    5  A    between atoms: C10_14  and  O4_15 
REMARK    6  A    between atoms: C10_14  and  C11_17 
REMARK    7  A    between atoms: C11_17  and  C13_19 
REMARK    8  A    between atoms: C14_20  and  O5_21 
REMARK    9  A    between atoms: C17_25  and  O6_26 
REMARK   10  A    between atoms: C19_28  and  O7_29 
ROOT
HETATM    1  C7  UNL     1       9.750   2.118   2.162  1.00  0.00     0.087 C 
HETATM    2  C8  UNL     1      10.292   3.345   2.848  1.00  0.00     0.272 C 
HETATM    3  O3  UNL     1       9.274   3.775   3.709  1.00  0.00    -0.321 OA
HETATM    4  C9  UNL     1       9.084   2.570   4.376  1.00  0.00     0.084 C 
HETATM    5  C15 UNL     1       8.848   1.573   3.315  1.00  0.00     0.054 C 
HETATM    6  C16 UNL     1       7.469   1.335   2.798  1.00  0.00     0.018 C 
ENDROOT
BRANCH   1   7
HETATM    7  C6  UNL     1      10.687   1.081   1.806  1.00  0.00    -0.012 A 
HETATM    8  C5  UNL     1      10.647  -0.202   2.230  1.00  0.00     0.020 A 
HETATM    9  C3  UNL     1      11.465  -1.201   1.663  1.00  0.00    -0.025 A 
HETATM   10  C2  UNL     1      12.335  -0.864   0.655  1.00  0.00     0.110 A 
HETATM   11  C4  UNL     1      11.302  -2.586   2.172  1.00  0.00     0.051 C 
HETATM   12  C19 UNL     1      12.407   0.458   0.190  1.00  0.00     0.136 A 
HETATM   13  C17 UNL     1      11.595   1.370   0.769  1.00  0.00     0.111 A 
BRANCH  10  14
HETATM   14  O1  UNL     1      13.165  -1.794   0.069  1.00  0.00    -0.352 OA
HETATM   15  C1  UNL     1      12.746  -2.697  -0.945  1.00  0.00     0.210 C 
ENDBRANCH  10  14
BRANCH  12  16
HETATM   16  O7  UNL     1      13.298   0.724  -0.822  1.00  0.00    -0.351 OA
HETATM   17  C20 UNL     1      12.893   0.873  -2.175  1.00  0.00     0.210 C 
ENDBRANCH  12  16
BRANCH  13  18
HETATM   18  O6  UNL     1      11.664   2.711   0.302  1.00  0.00    -0.352 OA
HETATM   19  C18 UNL     1      12.921   3.386   0.520  1.00  0.00     0.210 C 
ENDBRANCH  13  18
ENDBRANCH   1   7
BRANCH   2  20
HETATM   20  O2  UNL     1      11.470   3.239   3.502  1.00  0.00    -0.370 OA
ATOM     21  H2  UNL     1      12.258   3.509   3.046  1.00  0.00     0.212 HD
ENDBRANCH   2  20
BRANCH   4  22
HETATM   22  C10 UNL     1       8.341   2.597   5.630  1.00  0.00     0.080 C 
BRANCH  22  23
HETATM   23  O4  UNL     1       8.558   1.440   6.352  1.00  0.00    -0.362 OA
ATOM     24  H4  UNL     1       8.117   1.480   7.192  1.00  0.00     0.217 HD
ENDBRANCH  22  23
BRANCH  22  25
HETATM   25  C11 UNL     1       6.941   3.126   5.654  1.00  0.00     0.065 C 
HETATM   26  C12 UNL     1       5.970   2.007   6.091  1.00  0.00     0.021 C 
BRANCH  25  27
HETATM   27  C13 UNL     1       6.739   4.191   6.694  1.00  0.00     0.008 C 
HETATM   28  C14 UNL     1       6.763   3.866   7.941  1.00  0.00     0.128 C 
BRANCH  28  29
HETATM   29  O5  UNL     1       6.584   4.852   8.954  1.00  0.00    -0.373 OA
ATOM     30  H5  UNL     1       7.288   5.060   9.557  1.00  0.00     0.216 HD
ENDBRANCH  28  29
ENDBRANCH  25  27
ENDBRANCH  22  25
ENDBRANCH   4  22
TORSDOF 10
ENDMDL
MODEL 4
REMARK VINA RESULT: -7.445260467      2.532      7.743
REMARK  10 active torsions:
REMARK  status: ('A' for Active; 'I' for Inactive)
REMARK    1  A    between atoms: O1_2  and  C2_3 
REMARK    2  A    between atoms: C6_7  and  C7_8 
REMARK    3  A    between atoms: C8_9  and  O2_10 
REMARK    4  A    between atoms: C9_13  and  C10_14 
REMARK    5  A    between atoms: C10_14  and  O4_15 
REMARK    6  A    between atoms: C10_14  and  C11_17 
REMARK    7  A    between atoms: C11_17  and  C13_19 
REMARK    8  A    between atoms: C14_20  and  O5_21 
REMARK    9  A    between atoms: C17_25  and  O6_26 
REMARK   10  A    between atoms: C19_28  and  O7_29 
ROOT
HETATM    1  C7  UNL     1       9.754   2.088   2.137  1.00  0.00     0.087 C 
HETATM    2  C8  UNL     1      10.295   3.304   2.841  1.00  0.00     0.272 C 
HETATM    3  O3  UNL     1       9.265   3.738   3.686  1.00  0.00    -0.321 OA
HETATM    4  C9  UNL     1       9.052   2.530   4.340  1.00  0.00     0.084 C 
HETATM    5  C15 UNL     1       8.826   1.543   3.268  1.00  0.00     0.054 C 
HETATM    6  C16 UNL     1       7.454   1.323   2.724  1.00  0.00     0.018 C 
ENDROOT
BRANCH   1   7
HETATM    7  C6  UNL     1      10.687   1.044   1.790  1.00  0.00    -0.012 A 
HETATM    8  C5  UNL     1      10.632  -0.240   2.211  1.00  0.00     0.020 A 
HETATM    9  C3  UNL     1      11.449  -1.243   1.653  1.00  0.00    -0.025 A 
HETATM   10  C2  UNL     1      12.333  -0.912   0.655  1.00  0.00     0.110 A 
HETATM   11  C4  UNL     1      11.269  -2.628   2.157  1.00  0.00     0.051 C 
HETATM   12  C19 UNL     1      12.422   0.411   0.194  1.00  0.00     0.136 A 
HETATM   13  C17 UNL     1      11.609   1.327   0.764  1.00  0.00     0.111 A 
BRANCH  10  14
HETATM   14  O1  UNL     1      13.164  -1.847   0.078  1.00  0.00    -0.352 OA
HETATM   15  C1  UNL     1      12.749  -2.749  -0.939  1.00  0.00     0.210 C 
ENDBRANCH  10  14
BRANCH  12  16
HETATM   16  O7  UNL     1      13.327   0.671  -0.807  1.00  0.00    -0.351 OA
HETATM   17  C20 UNL     1      12.941   0.815  -2.166  1.00  0.00     0.210 C 
ENDBRANCH  12  16
BRANCH  13  18
HETATM   18  O6  UNL     1      11.695   2.668   0.301  1.00  0.00    -0.352 OA
HETATM   19  C18 UNL     1      12.949   3.338   0.546  1.00  0.00     0.210 C 
ENDBRANCH  13  18
ENDBRANCH   1   7
BRANCH   2  20
HETATM   20  O2  UNL     1      11.460   3.182   3.515  1.00  0.00    -0.370 OA
ATOM     21  H2  UNL     1      12.177   2.728   3.088  1.00  0.00     0.212 HD
ENDBRANCH   2  20
BRANCH   4  22
HETATM   22  C10 UNL     1       8.286   2.555   5.581  1.00  0.00     0.080 C 
BRANCH  22  23
HETATM   23  O4  UNL     1       8.573   1.448   6.355  1.00  0.00    -0.362 OA
ATOM     24  H4  UNL     1       8.000   1.409   7.111  1.00  0.00     0.217 HD
ENDBRANCH  22  23
BRANCH  22  25
HETATM   25  C11 UNL     1       6.851   2.982   5.561  1.00  0.00     0.065 C 
HETATM   26  C12 UNL     1       6.067   2.220   6.653  1.00  0.00     0.021 C 
BRANCH  25  27
HETATM   27  C13 UNL     1       6.667   4.423   5.940  1.00  0.00     0.008 C 
HETATM   28  C14 UNL     1       6.437   5.293   5.017  1.00  0.00     0.128 C 
BRANCH  28  29
HETATM   29  O5  UNL     1       6.248   6.668   5.342  1.00  0.00    -0.373 OA
ATOM     30  H5  UNL     1       6.885   7.321   5.079  1.00  0.00     0.216 HD
ENDBRANCH  28  29
ENDBRANCH  25  27
ENDBRANCH  22  25
ENDBRANCH   4  22
TORSDOF 10
ENDMDL
MODEL 5
REMARK VINA RESULT: -7.245124900      3.374      7.939
REMARK  10 active torsions:
REMARK  status: ('A' for Active; 'I' for Inactive)
REMARK    1  A    between atoms: O1_2  and  C2_3 
REMARK    2  A    between atoms: C6_7  and  C7_8 
REMARK    3  A    between atoms: C8_9  and  O2_10 
REMARK    4  A    between atoms: C9_13  and  C10_14 
REMARK    5  A    between atoms: C10_14  and  O4_15 
REMARK    6  A    between atoms: C10_14  and  C11_17 
REMARK    7  A    between atoms: C11_17  and  C13_19 
REMARK    8  A    between atoms: C14_20  and  O5_21 
REMARK    9  A    between atoms: C17_25  and  O6_26 
REMARK   10  A    between atoms: C19_28  and  O7_29 
ROOT
HETATM    1  C7  UNL     1       5.997   6.834   4.519  1.00  0.00     0.087 C 
HETATM    2  C8  UNL     1       4.521   6.861   4.216  1.00  0.00     0.272 C 
HETATM    3  O3  UNL     1       4.270   8.131   3.683  1.00  0.00    -0.321 OA
HETATM    4  C9  UNL     1       5.236   8.100   2.684  1.00  0.00     0.084 C 
HETATM    5  C15 UNL     1       6.497   7.773   3.375  1.00  0.00     0.054 C 
HETATM    6  C16 UNL     1       7.342   8.857   3.956  1.00  0.00     0.018 C 
ENDROOT
BRANCH   1   7
HETATM    7  C6  UNL     1       6.685   5.573   4.389  1.00  0.00    -0.012 A 
HETATM    8  C5  UNL     1       7.756   5.333   3.599  1.00  0.00     0.020 A 
HETATM    9  C3  UNL     1       8.502   4.141   3.697  1.00  0.00    -0.025 A 
HETATM   10  C2  UNL     1       8.131   3.190   4.616  1.00  0.00     0.110 A 
HETATM   11  C4  UNL     1       9.688   4.005   2.815  1.00  0.00     0.051 C 
HETATM   12  C19 UNL     1       7.024   3.402   5.451  1.00  0.00     0.136 A 
HETATM   13  C17 UNL     1       6.351   4.566   5.315  1.00  0.00     0.111 A 
BRANCH  10  14
HETATM   14  O1  UNL     1       8.816   2.003   4.751  1.00  0.00    -0.352 OA
HETATM   15  C1  UNL     1       8.727   0.931   3.823  1.00  0.00     0.210 C 
ENDBRANCH  10  14
BRANCH  12  16
HETATM   16  O7  UNL     1       6.711   2.409   6.348  1.00  0.00    -0.351 OA
HETATM   17  C20 UNL     1       5.513   1.650   6.258  1.00  0.00     0.210 C 
ENDBRANCH  12  16
BRANCH  13  18
HETATM   18  O6  UNL     1       5.228   4.785   6.158  1.00  0.00    -0.352 OA
HETATM   19  C18 UNL     1       5.528   5.055   7.543  1.00  0.00     0.210 C 
ENDBRANCH  13  18
ENDBRANCH   1   7
BRANCH   2  20
HETATM   20  O2  UNL     1       4.020   5.890   3.419  1.00  0.00    -0.370 OA
ATOM     21  H2  UNL     1       3.097   5.927   3.199  1.00  0.00     0.212 HD
ENDBRANCH   2  20
BRANCH   4  22
HETATM   22  C10 UNL     1       5.141   9.087   1.615  1.00  0.00     0.080 C 
BRANCH  22  23
HETATM   23  O4  UNL     1       3.971   9.812   1.721  1.00  0.00    -0.362 OA
ATOM     24  H4  UNL     1       3.651  10.061   0.862  1.00  0.00     0.217 HD
ENDBRANCH  22  23
BRANCH  22  25
HETATM   25  C11 UNL     1       5.557   8.719   0.224  1.00  0.00     0.065 C 
HETATM   26  C12 UNL     1       6.855   7.884   0.274  1.00  0.00     0.021 C 
BRANCH  25  27
HETATM   27  C13 UNL     1       4.578   7.804  -0.453  1.00  0.00     0.008 C 
HETATM   28  C14 UNL     1       4.717   7.549  -1.709  1.00  0.00     0.128 C 
BRANCH  28  29
HETATM   29  O5  UNL     1       3.813   6.678  -2.380  1.00  0.00    -0.373 OA
ATOM     30  H5  UNL     1       2.887   6.884  -2.431  1.00  0.00     0.216 HD
ENDBRANCH  28  29
ENDBRANCH  25  27
ENDBRANCH  22  25
ENDBRANCH   4  22
TORSDOF 10
ENDMDL
