MODEL 1
REMARK VINA RESULT: -4.791143744      0.000      0.000
REMARK  3 active torsions:
REMARK  status: ('A' for Active; 'I' for Inactive)
REMARK    1  A    between atoms: C3_5  and  N2_6 
REMARK    2  A    between atoms: C4_11  and  N4_12 
REMARK       I    between atoms: N4_12  and  C5_14 
REMARK       I    between atoms: C5_14  and  N5_15 
REMARK       I    between atoms: C5_14  and  N6_19 
REMARK    3  A    between atoms: N7_23  and  N8_24 
ROOT
HETATM    1  C1  UNL     1     -20.069 -41.061  23.276  1.00  0.00     0.092 C 
HETATM    2  C2  UNL     1     -20.486 -39.892  24.114  1.00  0.00     0.133 A 
HETATM    3  N1  UNL     1     -21.465 -39.060  23.732  1.00  0.00    -0.178 N 
ATOM      4  H1  UNL     1     -21.954 -39.208  22.850  1.00  0.00     0.185 HD
HETATM    5  C3  UNL     1     -21.794 -38.027  24.528  1.00  0.00     0.691 A 
HETATM    6  N3  UNL     1     -21.153 -37.829  25.691  1.00  0.00    -0.021 N 
ATOM      7  H3  UNL     1     -21.420 -37.040  26.280  1.00  0.00     0.203 HD
HETATM    8  C4  UNL     1     -20.147 -38.666  26.106  1.00  0.00     0.718 A 
HETATM    9  N7  UNL     1     -19.852 -39.663  25.304  1.00  0.00    -0.080 N 
ENDROOT
BRANCH   8  10
HETATM   10  N4  UNL     1     -19.615 -38.409  27.185  1.00  0.00    -0.171 N 
HETATM   11  C5  UNL     1     -19.776 -38.715  28.538  1.00  0.00     0.494 C 
HETATM   12  N5  UNL     1     -20.810 -37.820  29.088  1.00  0.00    -0.032 N 
HETATM   13  N6  UNL     1     -18.576 -38.364  29.337  1.00  0.00    -0.032 N 
ATOM     14  H53 UNL     1     -20.603 -36.834  28.929  1.00  0.00     0.278 HD
ATOM     15  H52 UNL     1     -21.686 -37.862  28.567  1.00  0.00     0.278 HD
ATOM     16  H51 UNL     1     -20.928 -38.043  30.076  1.00  0.00     0.278 HD
ATOM     17  H63 UNL     1     -17.737 -38.803  28.957  1.00  0.00     0.278 HD
ATOM     18  H62 UNL     1     -18.320 -37.385  29.209  1.00  0.00     0.278 HD
ATOM     19  H61 UNL     1     -18.694 -38.588  30.325  1.00  0.00     0.278 HD
ATOM     20  H4  UNL     1     -18.818 -37.786  27.052  1.00  0.00     0.181 HD
ENDBRANCH   8  10
BRANCH   9  21
HETATM   21  N8  UNL     1     -18.840 -40.554  25.659  1.00  0.00    -0.323 N 
ATOM     22  H82 UNL     1     -18.575 -41.298  25.013  1.00  0.00     0.178 HD
ATOM     23  H81 UNL     1     -18.404 -40.415  26.571  1.00  0.00     0.178 HD
ENDBRANCH   9  21
BRANCH   5  24
HETATM   24  N2  UNL     1     -22.744 -37.257  24.110  1.00  0.00    -0.234 N 
ATOM     25  H22 UNL     1     -23.570 -37.609  23.626  1.00  0.00     0.174 HD
ATOM     26  H21 UNL     1     -22.633 -36.259  24.288  1.00  0.00     0.174 HD
ENDBRANCH   5  24
TORSDOF 3
ENDMDL
MODEL 2
REMARK VINA RESULT: -4.570838139      3.657      7.619
REMARK  3 active torsions:
REMARK  status: ('A' for Active; 'I' for Inactive)
REMARK    1  A    between atoms: C3_5  and  N2_6 
REMARK    2  A    between atoms: C4_11  and  N4_12 
REMARK       I    between atoms: N4_12  and  C5_14 
REMARK       I    between atoms: C5_14  and  N5_15 
REMARK       I    between atoms: C5_14  and  N6_19 
REMARK    3  A    between atoms: N7_23  and  N8_24 
ROOT
HETATM    1  C1  UNL     1     -20.396 -34.387  33.160  1.00  0.00     0.092 C 
HETATM    2  C2  UNL     1     -19.495 -35.446  32.606  1.00  0.00     0.133 A 
HETATM    3  N1  UNL     1     -18.499 -35.979  33.328  1.00  0.00    -0.178 N 
ATOM      4  H1  UNL     1     -18.332 -35.670  34.286  1.00  0.00     0.185 HD
HETATM    5  C3  UNL     1     -17.722 -36.927  32.774  1.00  0.00     0.691 A 
HETATM    6  N3  UNL     1     -17.938 -37.338  31.514  1.00  0.00    -0.021 N 
ATOM      7  H3  UNL     1     -17.337 -38.059  31.114  1.00  0.00     0.203 HD
HETATM    8  C4  UNL     1     -18.951 -36.809  30.752  1.00  0.00     0.718 A 
HETATM    9  N7  UNL     1     -19.688 -35.886  31.325  1.00  0.00    -0.080 N 
ENDROOT
BRANCH   8  10
HETATM   10  N4  UNL     1     -19.076 -37.244  29.608  1.00  0.00    -0.171 N 
HETATM   11  C5  UNL     1     -19.329 -38.457  28.966  1.00  0.00     0.494 C 
HETATM   12  N5  UNL     1     -18.057 -39.196  28.868  1.00  0.00    -0.032 N 
HETATM   13  N6  UNL     1     -19.711 -38.268  27.544  1.00  0.00    -0.032 N 
ATOM     14  H53 UNL     1     -17.321 -38.655  28.414  1.00  0.00     0.278 HD
ATOM     15  H52 UNL     1     -17.601 -39.316  29.772  1.00  0.00     0.278 HD
ATOM     16  H51 UNL     1     -18.242 -40.082  28.399  1.00  0.00     0.278 HD
ATOM     17  H63 UNL     1     -20.503 -37.631  27.455  1.00  0.00     0.278 HD
ATOM     18  H62 UNL     1     -19.009 -37.724  27.042  1.00  0.00     0.278 HD
ATOM     19  H61 UNL     1     -19.895 -39.154  27.075  1.00  0.00     0.278 HD
ATOM     20  H4  UNL     1     -18.961 -36.495  28.926  1.00  0.00     0.181 HD
ENDBRANCH   8  10
BRANCH   9  21
HETATM   21  N8  UNL     1     -20.736 -35.302  30.612  1.00  0.00    -0.323 N 
ATOM     22  H82 UNL     1     -21.564 -34.978  31.111  1.00  0.00     0.178 HD
ATOM     23  H81 UNL     1     -20.618 -35.228  29.602  1.00  0.00     0.178 HD
ENDBRANCH   9  21
BRANCH   5  24
HETATM   24  N2  UNL     1     -16.778 -37.405  33.516  1.00  0.00    -0.234 N 
ATOM     25  H22 UNL     1     -16.909 -38.208  34.131  1.00  0.00     0.174 HD
ATOM     26  H21 UNL     1     -15.874 -36.935  33.460  1.00  0.00     0.174 HD
ENDBRANCH   5  24
TORSDOF 3
ENDMDL
MODEL 3
REMARK VINA RESULT: -4.466621027      1.423      4.299
REMARK  3 active torsions:
REMARK  status: ('A' for Active; 'I' for Inactive)
REMARK    1  A    between atoms: C3_5  and  N2_6 
REMARK    2  A    between atoms: C4_11  and  N4_12 
REMARK       I    between atoms: N4_12  and  C5_14 
REMARK       I    between atoms: C5_14  and  N5_15 
REMARK       I    between atoms: C5_14  and  N6_19 
REMARK    3  A    between atoms: N7_23  and  N8_24 
ROOT
HETATM    1  C1  UNL     1     -17.823 -40.046  28.929  1.00  0.00     0.092 C 
HETATM    2  C2  UNL     1     -18.439 -39.975  27.566  1.00  0.00     0.133 A 
HETATM    3  N1  UNL     1     -18.122 -40.847  26.599  1.00  0.00    -0.178 N 
ATOM      4  H1  UNL     1     -17.445 -41.590  26.773  1.00  0.00     0.185 HD
HETATM    5  C3  UNL     1     -18.709 -40.731  25.395  1.00  0.00     0.691 A 
HETATM    6  N3  UNL     1     -19.603 -39.756  25.161  1.00  0.00    -0.021 N 
ATOM      7  H3  UNL     1     -20.036 -39.687  24.240  1.00  0.00     0.203 HD
HETATM    8  C4  UNL     1     -19.945 -38.850  26.133  1.00  0.00     0.718 A 
HETATM    9  N7  UNL     1     -19.352 -38.993  27.296  1.00  0.00    -0.080 N 
ENDROOT
BRANCH   8  10
HETATM   10  N4  UNL     1     -20.772 -37.990  25.831  1.00  0.00    -0.171 N 
HETATM   11  C5  UNL     1     -22.072 -37.910  25.330  1.00  0.00     0.494 C 
HETATM   12  N5  UNL     1     -22.004 -38.042  23.863  1.00  0.00    -0.032 N 
HETATM   13  N6  UNL     1     -22.660 -36.560  25.513  1.00  0.00    -0.032 N 
ATOM     14  H53 UNL     1     -21.374 -37.363  23.435  1.00  0.00     0.278 HD
ATOM     15  H52 UNL     1     -21.518 -38.887  23.565  1.00  0.00     0.278 HD
ATOM     16  H51 UNL     1     -22.954 -37.983  23.496  1.00  0.00     0.278 HD
ATOM     17  H63 UNL     1     -22.623 -36.270  26.491  1.00  0.00     0.278 HD
ATOM     18  H62 UNL     1     -22.063 -35.839  25.108  1.00  0.00     0.278 HD
ATOM     19  H61 UNL     1     -23.609 -36.501  25.147  1.00  0.00     0.278 HD
ATOM     20  H4  UNL     1     -20.394 -37.057  25.997  1.00  0.00     0.181 HD
ENDBRANCH   8  10
BRANCH   9  21
HETATM   21  N8  UNL     1     -19.649 -38.109  28.333  1.00  0.00    -0.323 N 
ATOM     22  H82 UNL     1     -19.376 -37.130  28.253  1.00  0.00     0.178 HD
ATOM     23  H81 UNL     1     -20.137 -38.497  29.141  1.00  0.00     0.178 HD
ENDBRANCH   9  21
BRANCH   5  24
HETATM   24  N2  UNL     1     -18.366 -41.598  24.499  1.00  0.00    -0.234 N 
ATOM     25  H22 UNL     1     -18.992 -42.334  24.173  1.00  0.00     0.174 HD
ATOM     26  H21 UNL     1     -17.422 -41.515  24.124  1.00  0.00     0.174 HD
ENDBRANCH   5  24
TORSDOF 3
ENDMDL
MODEL 4
REMARK VINA RESULT: -4.319006447      4.791      7.242
REMARK  3 active torsions:
REMARK  status: ('A' for Active; 'I' for Inactive)
REMARK    1  A    between atoms: C3_5  and  N2_6 
REMARK    2  A    between atoms: C4_11  and  N4_12 
REMARK       I    between atoms: N4_12  and  C5_14 
REMARK       I    between atoms: C5_14  and  N5_15 
REMARK       I    between atoms: C5_14  and  N6_19 
REMARK    3  A    between atoms: N7_23  and  N8_24 
ROOT
HETATM    1  C1  UNL     1     -14.320 -39.590  32.971  1.00  0.00     0.092 C 
HETATM    2  C2  UNL     1     -15.103 -39.490  31.699  1.00  0.00     0.133 A 
HETATM    3  N1  UNL     1     -14.914 -40.342  30.681  1.00  0.00    -0.178 N 
ATOM      4  H1  UNL     1     -14.223 -41.088  30.753  1.00  0.00     0.185 HD
HETATM    5  C3  UNL     1     -15.648 -40.199  29.563  1.00  0.00     0.691 A 
HETATM    6  N3  UNL     1     -16.560 -39.218  29.464  1.00  0.00    -0.021 N 
ATOM      7  H3  UNL     1     -17.107 -39.130  28.607  1.00  0.00     0.203 HD
HETATM    8  C4  UNL     1     -16.774 -38.333  30.491  1.00  0.00     0.718 A 
HETATM    9  N7  UNL     1     -16.040 -38.501  31.566  1.00  0.00    -0.080 N 
ENDROOT
BRANCH   8  10
HETATM   10  N4  UNL     1     -17.629 -37.466  30.314  1.00  0.00    -0.171 N 
HETATM   11  C5  UNL     1     -19.020 -37.346  30.302  1.00  0.00     0.494 C 
HETATM   12  N5  UNL     1     -19.504 -37.779  28.978  1.00  0.00    -0.032 N 
HETATM   13  N6  UNL     1     -19.460 -35.930  30.368  1.00  0.00    -0.032 N 
ATOM     14  H53 UNL     1     -19.058 -37.275  28.211  1.00  0.00     0.278 HD
ATOM     15  H52 UNL     1     -19.187 -38.715  28.729  1.00  0.00     0.278 HD
ATOM     16  H51 UNL     1     -20.520 -37.691  28.970  1.00  0.00     0.278 HD
ATOM     17  H63 UNL     1     -19.055 -35.455  31.175  1.00  0.00     0.278 HD
ATOM     18  H62 UNL     1     -19.035 -35.377  29.624  1.00  0.00     0.278 HD
ATOM     19  H61 UNL     1     -20.475 -35.843  30.360  1.00  0.00     0.278 HD
ATOM     20  H4  UNL     1     -17.191 -36.566  30.117  1.00  0.00     0.181 HD
ENDBRANCH   8  10
BRANCH   9  21
HETATM   21  N8  UNL     1     -16.201 -37.639  32.651  1.00  0.00    -0.323 N 
ATOM     22  H82 UNL     1     -15.388 -37.156  33.034  1.00  0.00     0.178 HD
ATOM     23  H81 UNL     1     -17.147 -37.533  33.016  1.00  0.00     0.178 HD
ENDBRANCH   9  21
BRANCH   5  24
HETATM   24  N2  UNL     1     -15.424 -41.047  28.614  1.00  0.00    -0.234 N 
ATOM     25  H22 UNL     1     -15.411 -40.785  27.629  1.00  0.00     0.174 HD
ATOM     26  H21 UNL     1     -15.257 -42.013  28.897  1.00  0.00     0.174 HD
ENDBRANCH   5  24
TORSDOF 3
ENDMDL
MODEL 5
REMARK VINA RESULT: -4.312574519      3.485      7.424
REMARK  3 active torsions:
REMARK  status: ('A' for Active; 'I' for Inactive)
REMARK    1  A    between atoms: C3_5  and  N2_6 
REMARK    2  A    between atoms: C4_11  and  N4_12 
REMARK       I    between atoms: N4_12  and  C5_14 
REMARK       I    between atoms: C5_14  and  N5_15 
REMARK       I    between atoms: C5_14  and  N6_19 
REMARK    3  A    between atoms: N7_23  and  N8_24 
ROOT
HETATM    1  C1  UNL     1     -19.642 -34.398  33.412  1.00  0.00     0.092 C 
HETATM    2  C2  UNL     1     -19.240 -35.556  32.552  1.00  0.00     0.133 A 
HETATM    3  N1  UNL     1     -18.143 -36.283  32.809  1.00  0.00    -0.178 N 
ATOM      4  H1  UNL     1     -17.551 -36.060  33.609  1.00  0.00     0.185 HD
HETATM    5  C3  UNL     1     -17.834 -37.310  31.998  1.00  0.00     0.691 A 
HETATM    6  N3  UNL     1     -18.612 -37.608  30.945  1.00  0.00    -0.021 N 
ATOM      7  H3  UNL     1     -18.358 -38.393  30.344  1.00  0.00     0.203 HD
HETATM    8  C4  UNL     1     -19.740 -36.880  30.658  1.00  0.00     0.718 A 
HETATM    9  N7  UNL     1     -20.010 -35.884  31.470  1.00  0.00    -0.080 N 
ENDROOT
BRANCH   8  10
HETATM   10  N4  UNL     1     -20.393 -37.223  29.673  1.00  0.00    -0.171 N 
HETATM   11  C5  UNL     1     -20.555 -38.343  28.856  1.00  0.00     0.494 C 
HETATM   12  N5  UNL     1     -19.469 -38.340  27.858  1.00  0.00    -0.032 N 
HETATM   13  N6  UNL     1     -21.775 -38.250  28.017  1.00  0.00    -0.032 N 
ATOM     14  H53 UNL     1     -19.422 -37.469  27.329  1.00  0.00     0.278 HD
ATOM     15  H52 UNL     1     -18.544 -38.293  28.283  1.00  0.00     0.278 HD
ATOM     16  H51 UNL     1     -19.587 -39.158  27.261  1.00  0.00     0.278 HD
ATOM     17  H63 UNL     1     -22.605 -38.087  28.587  1.00  0.00     0.278 HD
ATOM     18  H62 UNL     1     -21.783 -37.390  27.469  1.00  0.00     0.278 HD
ATOM     19  H61 UNL     1     -21.893 -39.068  27.420  1.00  0.00     0.278 HD
ATOM     20  H4  UNL     1     -20.995 -36.462  29.361  1.00  0.00     0.181 HD
ENDBRANCH   8  10
BRANCH   9  21
HETATM   21  N8  UNL     1     -21.141 -35.099  31.243  1.00  0.00    -0.323 N 
ATOM     22  H82 UNL     1     -21.893 -35.090  31.931  1.00  0.00     0.178 HD
ATOM     23  H81 UNL     1     -21.158 -34.560  30.377  1.00  0.00     0.178 HD
ENDBRANCH   9  21
BRANCH   5  24
HETATM   24  N2  UNL     1     -16.767 -37.976  32.293  1.00  0.00    -0.234 N 
ATOM     25  H22 UNL     1     -15.830 -37.576  32.236  1.00  0.00     0.174 HD
ATOM     26  H21 UNL     1     -16.901 -38.942  32.593  1.00  0.00     0.174 HD
ENDBRANCH   5  24
TORSDOF 3
ENDMDL
