MODEL 1
REMARK VINA RESULT: -5.016885949      0.000      0.000
REMARK  3 active torsions:
REMARK  status: ('A' for Active; 'I' for Inactive)
REMARK       I    between atoms: C1_4  and  N2_5 
REMARK       I    between atoms: C1_4  and  N6_16 
REMARK    1  A    between atoms: N2_5  and  C2_7 
REMARK    2  A    between atoms: N4_11  and  O1_12 
REMARK    3  A    between atoms: N6_16  and  N7_18 
ROOT
HETATM    1  N1  UNL     1     -20.360 -37.944  28.734  1.00  0.00    -0.233 N 
ATOM      2  H11 UNL     1     -20.397 -38.088  29.743  1.00  0.00     0.174 HD
ATOM      3  H12 UNL     1     -20.851 -37.146  28.332  1.00  0.00     0.174 HD
HETATM    4  C1  UNL     1     -19.684 -38.797  28.046  1.00  0.00     0.698 C 
HETATM    5  N2  UNL     1     -19.631 -38.597  26.642  1.00  0.00    -0.159 N 
ATOM      6  H2  UNL     1     -18.762 -38.669  26.112  1.00  0.00     0.187 HD
HETATM    7  N6  UNL     1     -19.001 -39.907  28.606  1.00  0.00    -0.072 N 
ATOM      8  H6  UNL     1     -19.521 -40.697  28.988  1.00  0.00     0.212 HD
ENDROOT
BRANCH   5   9
HETATM    9  C2  UNL     1     -20.903 -38.282  26.014  1.00  0.00     0.207 C 
HETATM   10  N3  UNL     1     -21.931 -39.022  26.036  1.00  0.00    -0.345 N 
HETATM   11  C3  UNL     1     -22.995 -38.399  25.317  1.00  0.00     0.269 C 
ATOM     12  H3  UNL     1     -21.989 -39.929  26.498  1.00  0.00     0.164 HD
HETATM   13  N4  UNL     1     -22.606 -37.018  25.249  1.00  0.00    -0.087 NA
HETATM   14  N5  UNL     1     -21.188 -37.104  25.286  1.00  0.00    -0.265 N 
ATOM     15  H5  UNL     1     -20.518 -36.455  24.875  1.00  0.00     0.186 HD
BRANCH  13  16
HETATM   16  O1  UNL     1     -22.979 -36.496  24.043  1.00  0.00    -0.292 OA
ATOM     17  H1  UNL     1     -22.374 -35.808  23.793  1.00  0.00     0.239 HD
ENDBRANCH  13  16
ENDBRANCH   5   9
BRANCH   7  18
HETATM   18  N7  UNL     1     -17.616 -39.901  28.625  1.00  0.00    -0.024 N 
HETATM   19  O2  UNL     1     -17.005 -40.200  27.571  1.00  0.00    -0.516 OA
HETATM   20  O3  UNL     1     -16.918 -39.583  29.749  1.00  0.00    -0.516 OA
ENDBRANCH   7  18
TORSDOF 3
ENDMDL
MODEL 2
REMARK VINA RESULT: -4.891643379      2.353      3.065
REMARK  3 active torsions:
REMARK  status: ('A' for Active; 'I' for Inactive)
REMARK       I    between atoms: C1_4  and  N2_5 
REMARK       I    between atoms: C1_4  and  N6_16 
REMARK    1  A    between atoms: N2_5  and  C2_7 
REMARK    2  A    between atoms: N4_11  and  O1_12 
REMARK    3  A    between atoms: N6_16  and  N7_18 
ROOT
HETATM    1  N1  UNL     1     -19.909 -38.435  28.058  1.00  0.00    -0.233 N 
ATOM      2  H11 UNL     1     -18.982 -38.140  28.365  1.00  0.00     0.174 HD
ATOM      3  H12 UNL     1     -19.991 -39.002  27.215  1.00  0.00     0.174 HD
HETATM    4  C1  UNL     1     -20.911 -38.060  28.775  1.00  0.00     0.698 C 
HETATM    5  N2  UNL     1     -22.200 -38.471  28.348  1.00  0.00    -0.159 N 
ATOM      6  H2  UNL     1     -22.894 -38.851  28.993  1.00  0.00     0.187 HD
HETATM    7  N6  UNL     1     -20.797 -37.271  29.949  1.00  0.00    -0.072 N 
ATOM      8  H6  UNL     1     -20.530 -36.288  29.889  1.00  0.00     0.212 HD
ENDROOT
BRANCH   5   9
HETATM    9  C2  UNL     1     -22.461 -38.311  26.928  1.00  0.00     0.207 C 
HETATM   10  N3  UNL     1     -22.667 -39.258  26.113  1.00  0.00    -0.345 N 
HETATM   11  C3  UNL     1     -22.887 -38.734  24.803  1.00  0.00     0.269 C 
ATOM     12  H3  UNL     1     -22.675 -40.248  26.356  1.00  0.00     0.164 HD
HETATM   13  N4  UNL     1     -23.220 -37.356  25.031  1.00  0.00    -0.087 NA
HETATM   14  N5  UNL     1     -22.527 -37.078  26.240  1.00  0.00    -0.265 N 
ATOM     15  H5  UNL     1     -22.156 -36.178  26.548  1.00  0.00     0.186 HD
BRANCH  13  16
HETATM   16  O1  UNL     1     -22.687 -36.585  24.037  1.00  0.00    -0.292 OA
ATOM     17  H1  UNL     1     -22.093 -37.108  23.513  1.00  0.00     0.239 HD
ENDBRANCH  13  16
ENDBRANCH   5   9
BRANCH   7  18
HETATM   18  N7  UNL     1     -21.054 -37.857  31.177  1.00  0.00    -0.024 N 
HETATM   19  O2  UNL     1     -21.939 -37.348  31.905  1.00  0.00    -0.516 OA
HETATM   20  O3  UNL     1     -20.373 -38.956  31.601  1.00  0.00    -0.516 OA
ENDBRANCH   7  18
TORSDOF 3
ENDMDL
MODEL 3
REMARK VINA RESULT: -4.871004869      1.924      2.171
REMARK  3 active torsions:
REMARK  status: ('A' for Active; 'I' for Inactive)
REMARK       I    between atoms: C1_4  and  N2_5 
REMARK       I    between atoms: C1_4  and  N6_16 
REMARK    1  A    between atoms: N2_5  and  C2_7 
REMARK    2  A    between atoms: N4_11  and  O1_12 
REMARK    3  A    between atoms: N6_16  and  N7_18 
ROOT
HETATM    1  N1  UNL     1     -19.719 -39.377  27.266  1.00  0.00    -0.233 N 
ATOM      2  H11 UNL     1     -18.710 -39.510  27.199  1.00  0.00     0.174 HD
ATOM      3  H12 UNL     1     -20.329 -39.907  26.644  1.00  0.00     0.174 HD
HETATM    4  C1  UNL     1     -20.141 -38.538  28.147  1.00  0.00     0.698 C 
HETATM    5  N2  UNL     1     -21.545 -38.352  28.242  1.00  0.00    -0.159 N 
ATOM      6  H2  UNL     1     -22.034 -38.330  29.137  1.00  0.00     0.187 HD
HETATM    7  N6  UNL     1     -19.293 -37.801  29.013  1.00  0.00    -0.072 N 
ATOM      8  H6  UNL     1     -18.704 -37.051  28.648  1.00  0.00     0.212 HD
ENDROOT
BRANCH   5   9
HETATM    9  C2  UNL     1     -22.235 -38.198  26.973  1.00  0.00     0.207 C 
HETATM   10  N3  UNL     1     -23.025 -39.047  26.464  1.00  0.00    -0.345 N 
HETATM   11  C3  UNL     1     -23.518 -38.565  25.214  1.00  0.00     0.269 C 
ATOM     12  H3  UNL     1     -23.272 -39.942  26.885  1.00  0.00     0.164 HD
HETATM   13  N4  UNL     1     -23.267 -37.151  25.263  1.00  0.00    -0.087 NA
HETATM   14  N5  UNL     1     -22.133 -37.079  26.116  1.00  0.00    -0.265 N 
ATOM     15  H5  UNL     1     -21.399 -36.369  26.110  1.00  0.00     0.186 HD
BRANCH  13  16
HETATM   16  O1  UNL     1     -22.910 -36.706  24.022  1.00  0.00    -0.292 OA
ATOM     17  H1  UNL     1     -22.002 -36.427  24.034  1.00  0.00     0.239 HD
ENDBRANCH  13  16
ENDBRANCH   5   9
BRANCH   7  18
HETATM   18  N7  UNL     1     -19.277 -38.114  30.362  1.00  0.00    -0.024 N 
HETATM   19  O2  UNL     1     -20.067 -38.995  30.777  1.00  0.00    -0.516 OA
HETATM   20  O3  UNL     1     -18.434 -37.493  31.230  1.00  0.00    -0.516 OA
ENDBRANCH   7  18
TORSDOF 3
ENDMDL
MODEL 4
REMARK VINA RESULT: -4.846362075      3.277      4.723
REMARK  3 active torsions:
REMARK  status: ('A' for Active; 'I' for Inactive)
REMARK       I    between atoms: C1_4  and  N2_5 
REMARK       I    between atoms: C1_4  and  N6_16 
REMARK    1  A    between atoms: N2_5  and  C2_7 
REMARK    2  A    between atoms: N4_11  and  O1_12 
REMARK    3  A    between atoms: N6_16  and  N7_18 
ROOT
HETATM    1  N1  UNL     1     -18.046 -37.259  30.379  1.00  0.00    -0.233 N 
ATOM      2  H11 UNL     1     -17.392 -36.580  30.767  1.00  0.00     0.174 HD
ATOM      3  H12 UNL     1     -17.713 -38.199  30.167  1.00  0.00     0.174 HD
HETATM    4  C1  UNL     1     -19.257 -36.863  30.189  1.00  0.00     0.698 C 
HETATM    5  N2  UNL     1     -20.168 -37.808  29.650  1.00  0.00    -0.159 N 
ATOM      6  H2  UNL     1     -21.107 -37.938  30.026  1.00  0.00     0.187 HD
HETATM    7  N6  UNL     1     -19.721 -35.555  30.484  1.00  0.00    -0.072 N 
ATOM      8  H6  UNL     1     -19.421 -34.759  29.921  1.00  0.00     0.212 HD
ENDROOT
BRANCH   5   9
HETATM    9  C2  UNL     1     -19.667 -38.576  28.523  1.00  0.00     0.207 C 
HETATM   10  N3  UNL     1     -19.074 -39.693  28.607  1.00  0.00    -0.345 N 
HETATM   11  C3  UNL     1     -18.721 -40.156  27.303  1.00  0.00     0.269 C 
ATOM     12  H3  UNL     1     -18.878 -40.187  29.477  1.00  0.00     0.164 HD
HETATM   13  N4  UNL     1     -19.564 -39.395  26.424  1.00  0.00    -0.087 NA
HETATM   14  N5  UNL     1     -19.765 -38.199  27.165  1.00  0.00    -0.265 N 
ATOM     15  H5  UNL     1     -19.942 -37.264  26.794  1.00  0.00     0.186 HD
BRANCH  13  16
HETATM   16  O1  UNL     1     -18.879 -39.091  25.282  1.00  0.00    -0.292 OA
ATOM     17  H1  UNL     1     -19.254 -39.567  24.551  1.00  0.00     0.239 HD
ENDBRANCH  13  16
ENDBRANCH   5   9
BRANCH   7  18
HETATM   18  N7  UNL     1     -20.588 -35.377  31.549  1.00  0.00    -0.024 N 
HETATM   19  O2  UNL     1     -20.271 -34.558  32.444  1.00  0.00    -0.516 OA
HETATM   20  O3  UNL     1     -21.759 -36.065  31.640  1.00  0.00    -0.516 OA
ENDBRANCH   7  18
TORSDOF 3
ENDMDL
MODEL 5
REMARK VINA RESULT: -4.663454945      4.327      5.009
REMARK  3 active torsions:
REMARK  status: ('A' for Active; 'I' for Inactive)
REMARK       I    between atoms: C1_4  and  N2_5 
REMARK       I    between atoms: C1_4  and  N6_16 
REMARK    1  A    between atoms: N2_5  and  C2_7 
REMARK    2  A    between atoms: N4_11  and  O1_12 
REMARK    3  A    between atoms: N6_16  and  N7_18 
ROOT
HETATM    1  N1  UNL     1     -18.602 -39.725  30.764  1.00  0.00    -0.233 N 
ATOM      2  H11 UNL     1     -18.894 -40.657  30.472  1.00  0.00     0.174 HD
ATOM      3  H12 UNL     1     -18.938 -39.358  31.654  1.00  0.00     0.174 HD
HETATM    4  C1  UNL     1     -17.819 -39.081  29.968  1.00  0.00     0.698 C 
HETATM    5  N2  UNL     1     -17.410 -37.784  30.374  1.00  0.00    -0.159 N 
ATOM      6  H2  UNL     1     -16.442 -37.470  30.306  1.00  0.00     0.187 HD
HETATM    7  N6  UNL     1     -17.351 -39.591  28.730  1.00  0.00    -0.072 N 
ATOM      8  H6  UNL     1     -17.988 -39.700  27.940  1.00  0.00     0.212 HD
ENDROOT
BRANCH   5   9
HETATM    9  C2  UNL     1     -18.470 -36.936  30.892  1.00  0.00     0.207 C 
HETATM   10  N3  UNL     1     -18.540 -36.499  32.079  1.00  0.00    -0.345 N 
HETATM   11  C3  UNL     1     -19.713 -35.700  32.236  1.00  0.00     0.269 C 
ATOM     12  H3  UNL     1     -17.859 -36.690  32.814  1.00  0.00     0.164 HD
HETATM   13  N4  UNL     1     -20.086 -35.363  30.890  1.00  0.00    -0.087 NA
HETATM   14  N5  UNL     1     -19.581 -36.469  30.154  1.00  0.00    -0.265 N 
ATOM     15  H5  UNL     1     -19.944 -36.847  29.278  1.00  0.00     0.186 HD
BRANCH  13  16
HETATM   16  O1  UNL     1     -21.447 -35.351  30.781  1.00  0.00    -0.292 OA
ATOM     17  H1  UNL     1     -21.762 -36.235  30.636  1.00  0.00     0.239 HD
ENDBRANCH  13  16
ENDBRANCH   5   9
BRANCH   7  18
HETATM   18  N7  UNL     1     -16.015 -39.937  28.610  1.00  0.00    -0.024 N 
HETATM   19  O2  UNL     1     -15.358 -40.145  29.658  1.00  0.00    -0.516 OA
HETATM   20  O3  UNL     1     -15.413 -40.053  27.395  1.00  0.00    -0.516 OA
ENDBRANCH   7  18
TORSDOF 3
ENDMDL
