MODEL 1
REMARK VINA RESULT: -4.780965035      0.000      0.000
REMARK  3 active torsions:
REMARK  status: ('A' for Active; 'I' for Inactive)
REMARK    1  A    between atoms: N1_1  and  C1_4 
REMARK    2  A    between atoms: C2_7  and  C3_8 
REMARK       I    between atoms: C3_8  and  N3_10 
REMARK    3  A    between atoms: N3_10  and  N4_12 
ROOT
HETATM    1  C1  UNL     1     -20.951 -39.653  23.930  1.00  0.00     0.681 A 
HETATM    2  N2  UNL     1     -20.206 -39.707  25.049  1.00  0.00    -0.171 N 
ATOM      3  H2  UNL     1     -19.560 -40.488  25.162  1.00  0.00     0.186 HD
HETATM    4  C2  UNL     1     -20.270 -38.781  26.029  1.00  0.00     0.195 A 
HETATM    5  N5  UNL     1     -21.126 -37.739  25.889  1.00  0.00    -0.289 N 
ATOM      6  H5  UNL     1     -21.199 -37.023  26.612  1.00  0.00     0.172 HD
HETATM    7  C4  UNL     1     -21.877 -37.673  24.775  1.00  0.00     0.340 A 
HETATM    8  O2  UNL     1     -22.669 -36.708  24.645  1.00  0.00    -0.246 OA
HETATM    9  N6  UNL     1     -21.795 -38.611  23.808  1.00  0.00    -0.141 N 
ATOM     10  H6  UNL     1     -22.378 -38.530  22.975  1.00  0.00     0.189 HD
ENDROOT
BRANCH   4  11
HETATM   11  C3  UNL     1     -19.430 -38.908  27.213  1.00  0.00     0.304 C 
HETATM   12  O1  UNL     1     -18.537 -39.767  27.259  1.00  0.00    -0.263 OA
HETATM   13  N3  UNL     1     -19.634 -38.043  28.315  1.00  0.00    -0.270 N 
ATOM     14  H3  UNL     1     -20.375 -37.345  28.250  1.00  0.00     0.189 HD
BRANCH  13  15
HETATM   15  N4  UNL     1     -18.881 -38.094  29.483  1.00  0.00    -0.342 N 
ATOM     16  H42 UNL     1     -17.971 -37.633  29.470  1.00  0.00     0.176 HD
ATOM     17  H41 UNL     1     -19.191 -38.562  30.335  1.00  0.00     0.176 HD
ENDBRANCH  13  15
ENDBRANCH   4  11
BRANCH   1  18
HETATM   18  N1  UNL     1     -20.873 -40.560  22.995  1.00  0.00    -0.234 N 
ATOM     19  H12 UNL     1     -20.532 -41.498  23.207  1.00  0.00     0.174 HD
ATOM     20  H11 UNL     1     -21.144 -40.373  22.030  1.00  0.00     0.174 HD
ENDBRANCH   1  18
TORSDOF 3
ENDMDL
MODEL 2
REMARK VINA RESULT: -4.740694769      1.498      2.323
REMARK  3 active torsions:
REMARK  status: ('A' for Active; 'I' for Inactive)
REMARK    1  A    between atoms: N1_1  and  C1_4 
REMARK    2  A    between atoms: C2_7  and  C3_8 
REMARK       I    between atoms: C3_8  and  N3_10 
REMARK    3  A    between atoms: N3_10  and  N4_12 
ROOT
HETATM    1  C1  UNL     1     -21.893 -37.602  24.550  1.00  0.00     0.681 A 
HETATM    2  N2  UNL     1     -21.077 -37.825  25.597  1.00  0.00    -0.171 N 
ATOM      3  H2  UNL     1     -21.062 -37.141  26.353  1.00  0.00     0.186 HD
HETATM    4  C2  UNL     1     -20.278 -38.909  25.697  1.00  0.00     0.195 A 
HETATM    5  N5  UNL     1     -20.289 -39.824  24.698  1.00  0.00    -0.289 N 
ATOM      6  H5  UNL     1     -19.696 -40.654  24.743  1.00  0.00     0.172 HD
HETATM    7  C4  UNL     1     -21.099 -39.614  23.646  1.00  0.00     0.340 A 
HETATM    8  O2  UNL     1     -21.111 -40.462  22.721  1.00  0.00    -0.246 OA
HETATM    9  N6  UNL     1     -21.891 -38.522  23.568  1.00  0.00    -0.141 N 
ATOM     10  H6  UNL     1     -22.495 -38.394  22.756  1.00  0.00     0.189 HD
ENDROOT
BRANCH   4  11
HETATM   11  C3  UNL     1     -19.421 -39.081  26.864  1.00  0.00     0.304 C 
HETATM   12  O1  UNL     1     -18.539 -39.952  26.870  1.00  0.00    -0.263 OA
HETATM   13  N3  UNL     1     -19.599 -38.248  27.995  1.00  0.00    -0.270 N 
ATOM     14  H3  UNL     1     -20.333 -37.540  27.962  1.00  0.00     0.189 HD
BRANCH  13  15
HETATM   15  N4  UNL     1     -18.829 -38.344  29.149  1.00  0.00    -0.342 N 
ATOM     16  H42 UNL     1     -18.560 -37.470  29.602  1.00  0.00     0.176 HD
ATOM     17  H41 UNL     1     -18.527 -39.230  29.555  1.00  0.00     0.176 HD
ENDBRANCH  13  15
ENDBRANCH   4  11
BRANCH   1  18
HETATM   18  N1  UNL     1     -22.657 -36.548  24.474  1.00  0.00    -0.234 N 
ATOM     19  H12 UNL     1     -22.498 -35.744  25.082  1.00  0.00     0.174 HD
ATOM     20  H11 UNL     1     -23.433 -36.483  23.815  1.00  0.00     0.174 HD
ENDBRANCH   1  18
TORSDOF 3
ENDMDL
MODEL 3
REMARK VINA RESULT: -4.407639850      2.124      2.495
REMARK  3 active torsions:
REMARK  status: ('A' for Active; 'I' for Inactive)
REMARK    1  A    between atoms: N1_1  and  C1_4 
REMARK    2  A    between atoms: C2_7  and  C3_8 
REMARK       I    between atoms: C3_8  and  N3_10 
REMARK    3  A    between atoms: N3_10  and  N4_12 
ROOT
HETATM    1  C1  UNL     1     -22.492 -37.503  25.207  1.00  0.00     0.681 A 
HETATM    2  N2  UNL     1     -21.285 -37.838  25.699  1.00  0.00    -0.171 N 
ATOM      3  H2  UNL     1     -20.457 -37.589  25.159  1.00  0.00     0.186 HD
HETATM    4  C2  UNL     1     -21.116 -38.485  26.872  1.00  0.00     0.195 A 
HETATM    5  N5  UNL     1     -22.211 -38.821  27.598  1.00  0.00    -0.289 N 
ATOM      6  H5  UNL     1     -22.117 -39.312  28.487  1.00  0.00     0.172 HD
HETATM    7  C4  UNL     1     -23.423 -38.492  27.116  1.00  0.00     0.340 A 
HETATM    8  O2  UNL     1     -24.437 -38.801  27.789  1.00  0.00    -0.246 OA
HETATM    9  N6  UNL     1     -23.568 -37.843  25.941  1.00  0.00    -0.141 N 
ATOM     10  H6  UNL     1     -24.502 -37.608  25.606  1.00  0.00     0.189 HD
ENDROOT
BRANCH   4  11
HETATM   11  C3  UNL     1     -19.776 -38.814  27.340  1.00  0.00     0.304 C 
HETATM   12  O1  UNL     1     -19.006 -39.471  26.625  1.00  0.00    -0.263 OA
HETATM   13  N3  UNL     1     -19.352 -38.378  28.619  1.00  0.00    -0.270 N 
ATOM     14  H3  UNL     1     -20.007 -37.838  29.186  1.00  0.00     0.189 HD
BRANCH  13  15
HETATM   15  N4  UNL     1     -18.093 -38.646  29.145  1.00  0.00    -0.342 N 
ATOM     16  H42 UNL     1     -18.008 -38.666  30.162  1.00  0.00     0.176 HD
ATOM     17  H41 UNL     1     -17.267 -38.821  28.572  1.00  0.00     0.176 HD
ENDBRANCH  13  15
ENDBRANCH   4  11
BRANCH   1  18
HETATM   18  N1  UNL     1     -22.632 -36.876  24.071  1.00  0.00    -0.234 N 
ATOM     19  H12 UNL     1     -22.832 -35.877  24.048  1.00  0.00     0.174 HD
ATOM     20  H11 UNL     1     -22.549 -37.352  23.172  1.00  0.00     0.174 HD
ENDBRANCH   1  18
TORSDOF 3
ENDMDL
MODEL 4
REMARK VINA RESULT: -4.379734102      2.187      3.265
REMARK  3 active torsions:
REMARK  status: ('A' for Active; 'I' for Inactive)
REMARK    1  A    between atoms: N1_1  and  C1_4 
REMARK    2  A    between atoms: C2_7  and  C3_8 
REMARK       I    between atoms: C3_8  and  N3_10 
REMARK    3  A    between atoms: N3_10  and  N4_12 
ROOT
HETATM    1  C1  UNL     1     -22.119 -37.589  25.096  1.00  0.00     0.681 A 
HETATM    2  N2  UNL     1     -20.970 -38.172  25.483  1.00  0.00    -0.171 N 
ATOM      3  H2  UNL     1     -20.485 -37.793  26.297  1.00  0.00     0.186 HD
HETATM    4  C2  UNL     1     -20.426 -39.233  24.850  1.00  0.00     0.195 A 
HETATM    5  N5  UNL     1     -21.061 -39.744  23.767  1.00  0.00    -0.289 N 
ATOM      6  H5  UNL     1     -20.676 -40.545  23.266  1.00  0.00     0.172 HD
HETATM    7  C4  UNL     1     -22.211 -39.170  23.370  1.00  0.00     0.340 A 
HETATM    8  O2  UNL     1     -22.800 -39.644  22.368  1.00  0.00    -0.246 OA
HETATM    9  N6  UNL     1     -22.736 -38.110  24.020  1.00  0.00    -0.141 N 
ATOM     10  H6  UNL     1     -23.610 -37.699  23.692  1.00  0.00     0.189 HD
ENDROOT
BRANCH   4  11
HETATM   11  C3  UNL     1     -19.177 -39.812  25.330  1.00  0.00     0.304 C 
HETATM   12  O1  UNL     1     -18.857 -39.711  26.523  1.00  0.00    -0.263 OA
HETATM   13  N3  UNL     1     -18.326 -40.494  24.427  1.00  0.00    -0.270 N 
ATOM     14  H3  UNL     1     -18.615 -40.563  23.451  1.00  0.00     0.189 HD
BRANCH  13  15
HETATM   15  N4  UNL     1     -17.119 -41.075  24.797  1.00  0.00    -0.342 N 
ATOM     16  H42 UNL     1     -16.341 -40.990  24.141  1.00  0.00     0.176 HD
ATOM     17  H41 UNL     1     -16.977 -41.571  25.677  1.00  0.00     0.176 HD
ENDBRANCH  13  15
ENDBRANCH   4  11
BRANCH   1  18
HETATM   18  N1  UNL     1     -22.626 -36.563  25.724  1.00  0.00    -0.234 N 
ATOM     19  H12 UNL     1     -22.076 -36.048  26.411  1.00  0.00     0.174 HD
ATOM     20  H11 UNL     1     -23.579 -36.238  25.557  1.00  0.00     0.174 HD
ENDBRANCH   1  18
TORSDOF 3
ENDMDL
MODEL 5
REMARK VINA RESULT: -4.371350389      1.950      4.153
REMARK  3 active torsions:
REMARK  status: ('A' for Active; 'I' for Inactive)
REMARK    1  A    between atoms: N1_1  and  C1_4 
REMARK    2  A    between atoms: C2_7  and  C3_8 
REMARK       I    between atoms: C3_8  and  N3_10 
REMARK    3  A    between atoms: N3_10  and  N4_12 
ROOT
HETATM    1  C1  UNL     1     -20.251 -38.537  26.185  1.00  0.00     0.681 A 
HETATM    2  N2  UNL     1     -20.030 -39.496  25.267  1.00  0.00    -0.171 N 
ATOM      3  H2  UNL     1     -19.312 -40.194  25.460  1.00  0.00     0.186 HD
HETATM    4  C2  UNL     1     -20.710 -39.580  24.104  1.00  0.00     0.195 A 
HETATM    5  N5  UNL     1     -21.666 -38.656  23.836  1.00  0.00    -0.289 N 
ATOM      6  H5  UNL     1     -22.197 -38.692  22.966  1.00  0.00     0.172 HD
HETATM    7  C4  UNL     1     -21.896 -37.693  24.746  1.00  0.00     0.340 A 
HETATM    8  O2  UNL     1     -22.781 -36.837  24.499  1.00  0.00    -0.246 OA
HETATM    9  N6  UNL     1     -21.203 -37.629  25.903  1.00  0.00    -0.141 N 
ATOM     10  H6  UNL     1     -21.404 -36.885  26.572  1.00  0.00     0.189 HD
ENDROOT
BRANCH   4  11
HETATM   11  C3  UNL     1     -20.415 -40.649  23.158  1.00  0.00     0.304 C 
HETATM   12  O1  UNL     1     -21.268 -41.011  22.335  1.00  0.00    -0.263 OA
HETATM   13  N3  UNL     1     -19.145 -41.276  23.181  1.00  0.00    -0.270 N 
ATOM     14  H3  UNL     1     -18.462 -40.957  23.869  1.00  0.00     0.189 HD
BRANCH  13  15
HETATM   15  N4  UNL     1     -18.778 -42.302  22.318  1.00  0.00    -0.342 N 
ATOM     16  H42 UNL     1     -19.524 -42.903  21.965  1.00  0.00     0.176 HD
ATOM     17  H41 UNL     1     -17.816 -42.478  22.026  1.00  0.00     0.176 HD
ENDBRANCH  13  15
ENDBRANCH   4  11
BRANCH   1  18
HETATM   18  N1  UNL     1     -19.581 -38.475  27.303  1.00  0.00    -0.234 N 
ATOM     19  H12 UNL     1     -18.571 -38.336  27.298  1.00  0.00     0.174 HD
ATOM     20  H11 UNL     1     -20.031 -38.561  28.215  1.00  0.00     0.174 HD
ENDBRANCH   1  18
TORSDOF 3
ENDMDL
