MODEL 1
REMARK VINA RESULT: -4.847333789      0.000      0.000
REMARK  4 active torsions:
REMARK  status: ('A' for Active; 'I' for Inactive)
REMARK    1  A    between atoms: N1_1  and  N2_4 
REMARK       I    between atoms: N2_4  and  C1_5 
REMARK    2  A    between atoms: C1_5  and  C2_7 
REMARK    3  A    between atoms: C5_13  and  N4_14 
REMARK    4  A    between atoms: N4_14  and  N5_16 
ROOT
HETATM    1  C2  UNL     1     -19.952 -38.999  27.143  1.00  0.00     0.134 A 
HETATM    2  C3  UNL     1     -19.388 -39.994  26.393  1.00  0.00     0.128 A 
HETATM    3  N3  UNL     1     -19.673 -40.135  25.068  1.00  0.00    -0.328 N 
ATOM      4  H3  UNL     1     -19.243 -40.882  24.523  1.00  0.00     0.168 HD
HETATM    5  C4  UNL     1     -20.527 -39.277  24.491  1.00  0.00     0.290 A 
HETATM    6  O2  UNL     1     -20.819 -39.381  23.244  1.00  0.00    -0.264 OA
HETATM    7  C5  UNL     1     -21.101 -38.277  25.223  1.00  0.00     0.189 A 
HETATM    8  N6  UNL     1     -20.802 -38.158  26.534  1.00  0.00    -0.330 N 
ATOM      9  H6  UNL     1     -21.233 -37.409  27.075  1.00  0.00     0.168 HD
ENDROOT
BRANCH   1  10
HETATM   10  C1  UNL     1     -19.643 -38.851  28.617  1.00  0.00     0.362 C 
HETATM   11  N2  UNL     1     -19.317 -37.680  29.146  1.00  0.00    -0.287 NA
HETATM   12  O1  UNL     1     -19.737 -39.971  29.251  1.00  0.00    -0.247 OA
BRANCH  11  13
HETATM   13  N1  UNL     1     -18.985 -36.490  29.684  1.00  0.00    -0.276 N 
ATOM     14  H12 UNL     1     -19.281 -37.388  29.301  1.00  0.00     0.191 HD
ATOM     15  H11 UNL     1     -18.732 -35.589  30.091  1.00  0.00     0.191 HD
ENDBRANCH  11  13
ENDBRANCH   1  10
BRANCH   7  16
HETATM   16  N4  UNL     1     -22.008 -37.370  24.588  1.00  0.00    -0.287 N 
ATOM     17  H4  UNL     1     -21.768 -36.379  24.568  1.00  0.00     0.188 HD
BRANCH  16  18
HETATM   18  N5  UNL     1     -23.206 -37.774  23.993  1.00  0.00    -0.343 N 
ATOM     19  H52 UNL     1     -23.731 -38.515  24.457  1.00  0.00     0.176 HD
ATOM     20  H51 UNL     1     -23.569 -37.367  23.132  1.00  0.00     0.176 HD
ENDBRANCH  16  18
ENDBRANCH   7  16
TORSDOF 4
ENDMDL
MODEL 2
REMARK VINA RESULT: -4.825723929      2.033      2.497
REMARK  4 active torsions:
REMARK  status: ('A' for Active; 'I' for Inactive)
REMARK    1  A    between atoms: N1_1  and  N2_4 
REMARK       I    between atoms: N2_4  and  C1_5 
REMARK    2  A    between atoms: C1_5  and  C2_7 
REMARK    3  A    between atoms: C5_13  and  N4_14 
REMARK    4  A    between atoms: N4_14  and  N5_16 
ROOT
HETATM    1  C2  UNL     1     -21.438 -38.554  27.724  1.00  0.00     0.134 A 
HETATM    2  C3  UNL     1     -22.698 -38.859  28.160  1.00  0.00     0.128 A 
HETATM    3  N3  UNL     1     -23.788 -38.691  27.358  1.00  0.00    -0.328 N 
ATOM      4  H3  UNL     1     -24.721 -38.923  27.698  1.00  0.00     0.168 HD
HETATM    5  C4  UNL     1     -23.616 -38.216  26.116  1.00  0.00     0.290 A 
HETATM    6  O2  UNL     1     -24.621 -38.045  25.334  1.00  0.00    -0.264 OA
HETATM    7  C5  UNL     1     -22.365 -37.906  25.663  1.00  0.00     0.189 A 
HETATM    8  N6  UNL     1     -21.302 -38.082  26.476  1.00  0.00    -0.330 N 
ATOM      9  H6  UNL     1     -20.370 -37.849  26.132  1.00  0.00     0.168 HD
ENDROOT
BRANCH   1  10
HETATM   10  C1  UNL     1     -20.231 -38.731  28.619  1.00  0.00     0.362 C 
HETATM   11  N2  UNL     1     -19.604 -37.693  29.154  1.00  0.00    -0.287 NA
HETATM   12  O1  UNL     1     -19.917 -39.972  28.777  1.00  0.00    -0.247 OA
BRANCH  11  13
HETATM   13  N1  UNL     1     -18.965 -36.637  29.699  1.00  0.00    -0.276 N 
ATOM     14  H12 UNL     1     -19.424 -37.427  29.243  1.00  0.00     0.191 HD
ATOM     15  H11 UNL     1     -18.482 -35.839  30.111  1.00  0.00     0.191 HD
ENDBRANCH  11  13
ENDBRANCH   1  10
BRANCH   7  16
HETATM   16  N4  UNL     1     -22.202 -37.402  24.333  1.00  0.00    -0.287 N 
ATOM     17  H4  UNL     1     -22.056 -36.400  24.210  1.00  0.00     0.188 HD
BRANCH  16  18
HETATM   18  N5  UNL     1     -22.232 -38.213  23.196  1.00  0.00    -0.343 N 
ATOM     19  H52 UNL     1     -21.907 -37.802  22.321  1.00  0.00     0.176 HD
ATOM     20  H51 UNL     1     -22.560 -39.178  23.205  1.00  0.00     0.176 HD
ENDBRANCH  16  18
ENDBRANCH   7  16
TORSDOF 4
ENDMDL
MODEL 3
REMARK VINA RESULT: -4.806102854      1.617      5.190
REMARK  4 active torsions:
REMARK  status: ('A' for Active; 'I' for Inactive)
REMARK    1  A    between atoms: N1_1  and  N2_4 
REMARK       I    between atoms: N2_4  and  C1_5 
REMARK    2  A    between atoms: C1_5  and  C2_7 
REMARK    3  A    between atoms: C5_13  and  N4_14 
REMARK    4  A    between atoms: N4_14  and  N5_16 
ROOT
HETATM    1  C2  UNL     1     -20.514 -38.575  26.936  1.00  0.00     0.134 A 
HETATM    2  C3  UNL     1     -21.724 -38.746  27.552  1.00  0.00     0.128 A 
HETATM    3  N3  UNL     1     -21.832 -38.780  28.909  1.00  0.00    -0.328 N 
ATOM      4  H3  UNL     1     -22.743 -38.907  29.353  1.00  0.00     0.168 HD
HETATM    5  C4  UNL     1     -20.727 -38.642  29.655  1.00  0.00     0.290 A 
HETATM    6  O2  UNL     1     -20.793 -38.670  30.938  1.00  0.00    -0.264 OA
HETATM    7  C5  UNL     1     -19.510 -38.470  29.060  1.00  0.00     0.189 A 
HETATM    8  N6  UNL     1     -19.428 -38.440  27.713  1.00  0.00    -0.330 N 
ATOM      9  H6  UNL     1     -18.517 -38.311  27.273  1.00  0.00     0.168 HD
ENDROOT
BRANCH   1  10
HETATM   10  C1  UNL     1     -20.394 -38.549  25.428  1.00  0.00     0.362 C 
HETATM   11  N2  UNL     1     -21.346 -38.034  24.663  1.00  0.00    -0.287 NA
HETATM   12  O1  UNL     1     -19.289 -39.074  25.017  1.00  0.00    -0.247 OA
BRANCH  11  13
HETATM   13  N1  UNL     1     -22.314 -37.512  23.883  1.00  0.00    -0.276 N 
ATOM     14  H12 UNL     1     -21.550 -37.869  24.458  1.00  0.00     0.191 HD
ATOM     15  H11 UNL     1     -23.048 -37.117  23.294  1.00  0.00     0.191 HD
ENDBRANCH  11  13
ENDBRANCH   1  10
BRANCH   7  16
HETATM   16  N4  UNL     1     -18.341 -38.324  29.873  1.00  0.00    -0.287 N 
ATOM     17  H4  UNL     1     -17.703 -39.117  29.951  1.00  0.00     0.188 HD
BRANCH  16  18
HETATM   18  N5  UNL     1     -18.030 -37.152  30.565  1.00  0.00    -0.343 N 
ATOM     19  H52 UNL     1     -18.477 -36.291  30.250  1.00  0.00     0.176 HD
ATOM     20  H51 UNL     1     -17.386 -37.122  31.356  1.00  0.00     0.176 HD
ENDBRANCH  16  18
ENDBRANCH   7  16
TORSDOF 4
ENDMDL
MODEL 4
REMARK VINA RESULT: -4.772848483      1.640      4.779
REMARK  4 active torsions:
REMARK  status: ('A' for Active; 'I' for Inactive)
REMARK    1  A    between atoms: N1_1  and  N2_4 
REMARK       I    between atoms: N2_4  and  C1_5 
REMARK    2  A    between atoms: C1_5  and  C2_7 
REMARK    3  A    between atoms: C5_13  and  N4_14 
REMARK    4  A    between atoms: N4_14  and  N5_16 
ROOT
HETATM    1  C2  UNL     1     -21.325 -38.611  25.012  1.00  0.00     0.134 A 
HETATM    2  C3  UNL     1     -20.653 -39.650  24.428  1.00  0.00     0.128 A 
HETATM    3  N3  UNL     1     -19.587 -40.240  25.038  1.00  0.00    -0.328 N 
ATOM      4  H3  UNL     1     -19.097 -41.014  24.589  1.00  0.00     0.168 HD
HETATM    5  C4  UNL     1     -19.190 -39.790  26.237  1.00  0.00     0.290 A 
HETATM    6  O2  UNL     1     -18.188 -40.323  26.840  1.00  0.00    -0.264 OA
HETATM    7  C5  UNL     1     -19.848 -38.754  26.837  1.00  0.00     0.189 A 
HETATM    8  N6  UNL     1     -20.902 -38.186  26.213  1.00  0.00    -0.330 N 
ATOM      9  H6  UNL     1     -21.390 -37.413  26.665  1.00  0.00     0.168 HD
ENDROOT
BRANCH   1  10
HETATM   10  C1  UNL     1     -22.501 -37.950  24.328  1.00  0.00     0.362 C 
HETATM   11  N2  UNL     1     -23.227 -38.587  23.421  1.00  0.00    -0.287 NA
HETATM   12  O1  UNL     1     -22.685 -36.739  24.736  1.00  0.00    -0.247 OA
BRANCH  11  13
HETATM   13  N1  UNL     1     -23.965 -39.234  22.496  1.00  0.00    -0.276 N 
ATOM     14  H12 UNL     1     -23.400 -38.706  23.163  1.00  0.00     0.191 HD
ATOM     15  H11 UNL     1     -24.524 -39.724  21.797  1.00  0.00     0.191 HD
ENDBRANCH  11  13
ENDBRANCH   1  10
BRANCH   7  16
HETATM   16  N4  UNL     1     -19.411 -38.288  28.118  1.00  0.00    -0.287 N 
ATOM     17  H4  UNL     1     -18.414 -38.324  28.331  1.00  0.00     0.188 HD
BRANCH  16  18
HETATM   18  N5  UNL     1     -20.279 -37.787  29.090  1.00  0.00    -0.343 N 
ATOM     19  H52 UNL     1     -19.992 -36.941  29.581  1.00  0.00     0.176 HD
ATOM     20  H51 UNL     1     -21.171 -38.224  29.323  1.00  0.00     0.176 HD
ENDBRANCH  16  18
ENDBRANCH   7  16
TORSDOF 4
ENDMDL
MODEL 5
REMARK VINA RESULT: -4.720194737      2.062      2.584
REMARK  4 active torsions:
REMARK  status: ('A' for Active; 'I' for Inactive)
REMARK    1  A    between atoms: N1_1  and  N2_4 
REMARK       I    between atoms: N2_4  and  C1_5 
REMARK    2  A    between atoms: C1_5  and  C2_7 
REMARK    3  A    between atoms: C5_13  and  N4_14 
REMARK    4  A    between atoms: N4_14  and  N5_16 
ROOT
HETATM    1  C2  UNL     1     -20.251 -38.923  26.756  1.00  0.00     0.134 A 
HETATM    2  C3  UNL     1     -21.116 -38.549  27.748  1.00  0.00     0.128 A 
HETATM    3  N3  UNL     1     -22.316 -37.970  27.464  1.00  0.00    -0.328 N 
ATOM      4  H3  UNL     1     -22.950 -37.697  28.216  1.00  0.00     0.168 HD
HETATM    5  C4  UNL     1     -22.653 -37.762  26.183  1.00  0.00     0.290 A 
HETATM    6  O2  UNL     1     -23.777 -37.218  25.880  1.00  0.00    -0.264 OA
HETATM    7  C5  UNL     1     -21.803 -38.128  25.178  1.00  0.00     0.189 A 
HETATM    8  N6  UNL     1     -20.620 -38.701  25.485  1.00  0.00    -0.330 N 
ATOM      9  H6  UNL     1     -19.990 -38.973  24.730  1.00  0.00     0.168 HD
ENDROOT
BRANCH   1  10
HETATM   10  C1  UNL     1     -18.914 -39.555  27.073  1.00  0.00     0.362 C 
HETATM   11  N2  UNL     1     -18.270 -39.293  28.201  1.00  0.00    -0.287 NA
HETATM   12  O1  UNL     1     -18.512 -40.345  26.135  1.00  0.00    -0.247 OA
BRANCH  11  13
HETATM   13  N1  UNL     1     -17.614 -39.026  29.349  1.00  0.00    -0.276 N 
ATOM     14  H12 UNL     1     -18.089 -39.275  28.481  1.00  0.00     0.191 HD
ATOM     15  H11 UNL     1     -17.118 -38.824  30.217  1.00  0.00     0.191 HD
ENDBRANCH  11  13
ENDBRANCH   1  10
BRANCH   7  16
HETATM   16  N4  UNL     1     -22.182 -37.900  23.817  1.00  0.00    -0.287 N 
ATOM     17  H4  UNL     1     -21.734 -37.135  23.311  1.00  0.00     0.188 HD
BRANCH  16  18
HETATM   18  N5  UNL     1     -23.133 -38.672  23.145  1.00  0.00    -0.343 N 
ATOM     19  H52 UNL     1     -24.036 -38.238  22.954  1.00  0.00     0.176 HD
ATOM     20  H51 UNL     1     -22.965 -39.632  22.845  1.00  0.00     0.176 HD
ENDBRANCH  16  18
ENDBRANCH   7  16
TORSDOF 4
ENDMDL
