MODEL 1
REMARK VINA RESULT: -4.011761791      0.000      0.000
REMARK  5 active torsions:
REMARK  status: ('A' for Active; 'I' for Inactive)
REMARK    1  A    between atoms: C3_4  and  C4_5 
REMARK    2  A    between atoms: C4_5  and  N2_6 
REMARK    3  A    between atoms: C4_5  and  N3_10 
REMARK    4  A    between atoms: N3_10  and  N4_11 
REMARK    5  A    between atoms: C5_14  and  N5_15 
ROOT
HETATM    1  N5  UNL     1     -20.216 -40.741  24.776  1.00  0.00    -0.278 N 
ATOM      2  H5  UNL     1     -20.941 -41.458  24.805  1.00  0.00     0.179 HD
HETATM    3  C6  UNL     1     -19.711 -40.363  23.531  1.00  0.00     0.183 C 
HETATM    4  N6  UNL     1     -19.292 -40.039  22.483  1.00  0.00    -0.172 NA
ENDROOT
BRANCH   1   5
HETATM    5  C5  UNL     1     -19.816 -40.234  25.888  1.00  0.00     0.140 A 
HETATM    6  C3  UNL     1     -20.448 -39.197  26.535  1.00  0.00     0.052 A 
HETATM    7  C2  UNL     1     -19.767 -38.895  27.695  1.00  0.00     0.124 A 
HETATM    8  N1  UNL     1     -18.732 -39.750  27.741  1.00  0.00    -0.305 N 
HETATM    9  C1  UNL     1     -17.759 -39.776  28.805  1.00  0.00     0.177 C 
HETATM   10  N7  UNL     1     -18.764 -40.547  26.663  1.00  0.00    -0.283 N 
ATOM     11  H7  UNL     1     -18.087 -41.284  26.461  1.00  0.00     0.189 HD
BRANCH   6  12
HETATM   12  C4  UNL     1     -21.672 -38.468  26.110  1.00  0.00     0.333 C 
BRANCH  12  13
HETATM   13  N2  UNL     1     -22.120 -37.695  27.254  1.00  0.00    -0.055 N 
ATOM     14  H23 UNL     1     -22.862 -38.154  27.782  1.00  0.00     0.276 HD
ATOM     15  H22 UNL     1     -21.432 -37.656  28.006  1.00  0.00     0.276 HD
ATOM     16  H21 UNL     1     -22.385 -36.775  26.904  1.00  0.00     0.276 HD
ENDBRANCH  12  13
BRANCH  12  17
HETATM   17  N3  UNL     1     -21.278 -37.591  25.013  1.00  0.00    -0.110 NA
BRANCH  17  18
HETATM   18  N4  UNL     1     -22.214 -37.674  23.956  1.00  0.00    -0.346 N 
ATOM     19  H42 UNL     1     -23.219 -37.786  24.091  1.00  0.00     0.172 HD
ATOM     20  H41 UNL     1     -21.739 -37.607  23.055  1.00  0.00     0.172 HD
ENDBRANCH  17  18
ENDBRANCH  12  17
ENDBRANCH   6  12
ENDBRANCH   1   5
TORSDOF 5
ENDMDL
MODEL 2
REMARK VINA RESULT: -3.934826566      1.504      3.414
REMARK  5 active torsions:
REMARK  status: ('A' for Active; 'I' for Inactive)
REMARK    1  A    between atoms: C3_4  and  C4_5 
REMARK    2  A    between atoms: C4_5  and  N2_6 
REMARK    3  A    between atoms: C4_5  and  N3_10 
REMARK    4  A    between atoms: N3_10  and  N4_11 
REMARK    5  A    between atoms: C5_14  and  N5_15 
ROOT
HETATM    1  N5  UNL     1     -21.143 -38.762  25.337  1.00  0.00    -0.278 N 
ATOM      2  H5  UNL     1     -21.053 -39.510  24.650  1.00  0.00     0.179 HD
HETATM    3  C6  UNL     1     -21.966 -37.677  25.030  1.00  0.00     0.183 C 
HETATM    4  N6  UNL     1     -22.665 -36.769  24.774  1.00  0.00    -0.172 NA
ENDROOT
BRANCH   1   5
HETATM    5  C5  UNL     1     -20.490 -38.867  26.441  1.00  0.00     0.140 A 
HETATM    6  C3  UNL     1     -19.385 -39.668  26.609  1.00  0.00     0.052 A 
HETATM    7  C2  UNL     1     -18.925 -39.553  27.904  1.00  0.00     0.124 A 
HETATM    8  N1  UNL     1     -19.754 -38.685  28.506  1.00  0.00    -0.305 N 
HETATM    9  C1  UNL     1     -19.627 -38.277  29.884  1.00  0.00     0.177 C 
HETATM   10  N7  UNL     1     -20.686 -38.278  27.632  1.00  0.00    -0.283 N 
ATOM     11  H7  UNL     1     -21.434 -37.616  27.841  1.00  0.00     0.189 HD
BRANCH   6  12
HETATM   12  C4  UNL     1     -18.732 -40.548  25.602  1.00  0.00     0.333 C 
BRANCH  12  13
HETATM   13  N2  UNL     1     -19.623 -41.672  25.385  1.00  0.00    -0.055 N 
ATOM     14  H23 UNL     1     -19.244 -42.556  25.722  1.00  0.00     0.276 HD
ATOM     15  H22 UNL     1     -20.450 -41.651  25.981  1.00  0.00     0.276 HD
ATOM     16  H21 UNL     1     -19.846 -41.685  24.389  1.00  0.00     0.276 HD
ENDBRANCH  12  13
BRANCH  12  17
HETATM   17  N3  UNL     1     -18.588 -39.756  24.386  1.00  0.00    -0.110 NA
BRANCH  17  18
HETATM   18  N4  UNL     1     -17.499 -40.229  23.617  1.00  0.00    -0.346 N 
ATOM     19  H42 UNL     1     -16.632 -39.711  23.476  1.00  0.00     0.172 HD
ATOM     20  H41 UNL     1     -17.710 -41.150  23.232  1.00  0.00     0.172 HD
ENDBRANCH  17  18
ENDBRANCH  12  17
ENDBRANCH   6  12
ENDBRANCH   1   5
TORSDOF 5
ENDMDL
MODEL 3
REMARK VINA RESULT: -3.800513950      3.665      6.619
REMARK  5 active torsions:
REMARK  status: ('A' for Active; 'I' for Inactive)
REMARK    1  A    between atoms: C3_4  and  C4_5 
REMARK    2  A    between atoms: C4_5  and  N2_6 
REMARK    3  A    between atoms: C4_5  and  N3_10 
REMARK    4  A    between atoms: N3_10  and  N4_11 
REMARK    5  A    between atoms: C5_14  and  N5_15 
ROOT
HETATM    1  N5  UNL     1     -19.448 -36.323  30.361  1.00  0.00    -0.278 N 
ATOM      2  H5  UNL     1     -18.747 -35.585  30.303  1.00  0.00     0.179 HD
HETATM    3  C6  UNL     1     -20.679 -36.022  30.946  1.00  0.00     0.183 C 
HETATM    4  N6  UNL     1     -21.716 -35.766  31.431  1.00  0.00    -0.172 NA
ENDROOT
BRANCH   1   5
HETATM    5  C5  UNL     1     -19.151 -37.483  29.890  1.00  0.00     0.140 A 
HETATM    6  C3  UNL     1     -18.557 -38.484  30.624  1.00  0.00     0.052 A 
HETATM    7  C2  UNL     1     -18.375 -39.594  29.826  1.00  0.00     0.124 A 
HETATM    8  N1  UNL     1     -18.861 -39.256  28.620  1.00  0.00    -0.305 N 
HETATM    9  C1  UNL     1     -18.867 -40.142  27.481  1.00  0.00     0.177 C 
HETATM   10  N7  UNL     1     -19.322 -37.998  28.661  1.00  0.00    -0.283 N 
ATOM     11  H7  UNL     1     -19.742 -37.504  27.874  1.00  0.00     0.189 HD
BRANCH   6  12
HETATM   12  C4  UNL     1     -18.145 -38.448  32.053  1.00  0.00     0.333 C 
BRANCH  12  13
HETATM   13  N2  UNL     1     -17.541 -39.733  32.350  1.00  0.00    -0.055 N 
ATOM     14  H23 UNL     1     -16.908 -39.704  33.148  1.00  0.00     0.276 HD
ATOM     15  H22 UNL     1     -18.202 -40.409  32.734  1.00  0.00     0.276 HD
ATOM     16  H21 UNL     1     -17.092 -40.054  31.492  1.00  0.00     0.276 HD
ENDBRANCH  12  13
BRANCH  12  17
HETATM   17  N3  UNL     1     -17.168 -37.372  32.180  1.00  0.00    -0.110 NA
BRANCH  17  18
HETATM   18  N4  UNL     1     -15.857 -37.878  32.020  1.00  0.00    -0.346 N 
ATOM     19  H42 UNL     1     -15.589 -38.552  31.303  1.00  0.00     0.172 HD
ATOM     20  H41 UNL     1     -15.233 -37.472  32.718  1.00  0.00     0.172 HD
ENDBRANCH  17  18
ENDBRANCH  12  17
ENDBRANCH   6  12
ENDBRANCH   1   5
TORSDOF 5
ENDMDL
MODEL 4
REMARK VINA RESULT: -3.749499441      2.189      3.494
REMARK  5 active torsions:
REMARK  status: ('A' for Active; 'I' for Inactive)
REMARK    1  A    between atoms: C3_4  and  C4_5 
REMARK    2  A    between atoms: C4_5  and  N2_6 
REMARK    3  A    between atoms: C4_5  and  N3_10 
REMARK    4  A    between atoms: N3_10  and  N4_11 
REMARK    5  A    between atoms: C5_14  and  N5_15 
ROOT
HETATM    1  N5  UNL     1     -22.837 -39.847  23.453  1.00  0.00    -0.278 N 
ATOM      2  H5  UNL     1     -23.381 -39.544  24.260  1.00  0.00     0.179 HD
HETATM    3  C6  UNL     1     -23.477 -39.921  22.215  1.00  0.00     0.183 C 
HETATM    4  N6  UNL     1     -24.012 -39.975  21.172  1.00  0.00    -0.172 NA
ENDROOT
BRANCH   1   5
HETATM    5  C5  UNL     1     -21.597 -40.140  23.630  1.00  0.00     0.140 A 
HETATM    6  C3  UNL     1     -20.798 -39.563  24.590  1.00  0.00     0.052 A 
HETATM    7  C2  UNL     1     -19.529 -40.098  24.514  1.00  0.00     0.124 A 
HETATM    8  N1  UNL     1     -19.572 -40.992  23.513  1.00  0.00    -0.305 N 
HETATM    9  C1  UNL     1     -18.442 -41.787  23.097  1.00  0.00     0.177 C 
HETATM   10  N7  UNL     1     -20.805 -41.016  22.988  1.00  0.00    -0.283 N 
ATOM     11  H7  UNL     1     -21.100 -41.611  22.214  1.00  0.00     0.189 HD
BRANCH   6  12
HETATM   12  C4  UNL     1     -21.171 -38.522  25.584  1.00  0.00     0.333 C 
BRANCH  12  13
HETATM   13  N2  UNL     1     -19.979 -38.232  26.358  1.00  0.00    -0.055 N 
ATOM     14  H23 UNL     1     -20.183 -37.892  27.298  1.00  0.00     0.276 HD
ATOM     15  H22 UNL     1     -19.464 -39.069  26.633  1.00  0.00     0.276 HD
ATOM     16  H21 UNL     1     -19.420 -37.579  25.808  1.00  0.00     0.276 HD
ENDBRANCH  12  13
BRANCH  12  17
HETATM   17  N3  UNL     1     -21.595 -37.351  24.825  1.00  0.00    -0.110 NA
BRANCH  17  18
HETATM   18  N4  UNL     1     -22.587 -36.635  25.536  1.00  0.00    -0.346 N 
ATOM     19  H42 UNL     1     -23.084 -37.003  26.347  1.00  0.00     0.172 HD
ATOM     20  H41 UNL     1     -22.726 -35.714  25.121  1.00  0.00     0.172 HD
ENDBRANCH  17  18
ENDBRANCH  12  17
ENDBRANCH   6  12
ENDBRANCH   1   5
TORSDOF 5
ENDMDL
MODEL 5
REMARK VINA RESULT: -3.748214599      1.349      3.715
REMARK  5 active torsions:
REMARK  status: ('A' for Active; 'I' for Inactive)
REMARK    1  A    between atoms: C3_4  and  C4_5 
REMARK    2  A    between atoms: C4_5  and  N2_6 
REMARK    3  A    between atoms: C4_5  and  N3_10 
REMARK    4  A    between atoms: N3_10  and  N4_11 
REMARK    5  A    between atoms: C5_14  and  N5_15 
ROOT
HETATM    1  N5  UNL     1     -19.759 -38.289  27.050  1.00  0.00    -0.278 N 
ATOM      2  H5  UNL     1     -19.809 -37.271  27.036  1.00  0.00     0.179 HD
HETATM    3  C6  UNL     1     -19.382 -38.916  28.239  1.00  0.00     0.183 C 
HETATM    4  N6  UNL     1     -19.074 -39.444  29.241  1.00  0.00    -0.172 NA
ENDROOT
BRANCH   1   5
HETATM    5  C5  UNL     1     -20.046 -38.927  25.971  1.00  0.00     0.140 A 
HETATM    6  C3  UNL     1     -21.033 -38.549  25.090  1.00  0.00     0.052 A 
HETATM    7  C2  UNL     1     -21.082 -39.442  24.041  1.00  0.00     0.124 A 
HETATM    8  N1  UNL     1     -20.126 -40.351  24.295  1.00  0.00    -0.305 N 
HETATM    9  C1  UNL     1     -19.837 -41.473  23.436  1.00  0.00     0.177 C 
HETATM   10  N7  UNL     1     -19.510 -40.042  25.445  1.00  0.00    -0.283 N 
ATOM     11  H7  UNL     1     -18.746 -40.575  25.860  1.00  0.00     0.189 HD
BRANCH   6  12
HETATM   12  C4  UNL     1     -21.943 -37.376  25.188  1.00  0.00     0.333 C 
BRANCH  12  13
HETATM   13  N2  UNL     1     -22.770 -37.384  23.995  1.00  0.00    -0.055 N 
ATOM     14  H23 UNL     1     -23.042 -38.322  23.702  1.00  0.00     0.276 HD
ATOM     15  H22 UNL     1     -23.710 -37.021  24.155  1.00  0.00     0.276 HD
ATOM     16  H21 UNL     1     -22.258 -36.871  23.277  1.00  0.00     0.276 HD
ENDBRANCH  12  13
BRANCH  12  17
HETATM   17  N3  UNL     1     -22.755 -37.574  26.384  1.00  0.00    -0.110 NA
BRANCH  17  18
HETATM   18  N4  UNL     1     -24.047 -38.028  26.032  1.00  0.00    -0.346 N 
ATOM     19  H42 UNL     1     -24.880 -37.875  26.601  1.00  0.00     0.172 HD
ATOM     20  H41 UNL     1     -24.019 -38.523  25.140  1.00  0.00     0.172 HD
ENDBRANCH  17  18
ENDBRANCH  12  17
ENDBRANCH   6  12
ENDBRANCH   1   5
TORSDOF 5
ENDMDL
