MODEL 1
REMARK VINA RESULT: -5.296075394      0.000      0.000
REMARK  7 active torsions:
REMARK  status: ('A' for Active; 'I' for Inactive)
REMARK    1  A    between atoms: C2_2  and  C3_3 
REMARK    2  A    between atoms: C5_8  and  C6_9 
REMARK    3  A    between atoms: C6_9  and  C8_12 
REMARK    4  A    between atoms: C6_9  and  N3_14 
REMARK    5  A    between atoms: N3_14  and  C10_16 
REMARK    6  A    between atoms: C14_23  and  C15_24 
REMARK    7  A    between atoms: C15_24  and  C16_26 
ROOT
HETATM    1  C6  UNL     1     -13.667  -1.312  -9.448  1.00  0.00     0.167 C 
HETATM    2  C7  UNL     1     -15.054  -1.224  -8.971  1.00  0.00     0.098 C 
HETATM    3  N2  UNL     1     -16.142  -1.145  -8.574  1.00  0.00    -0.194 NA
ENDROOT
BRANCH   1   4
HETATM    4  C5  UNL     1     -12.824  -0.553  -8.459  1.00  0.00     0.113 A 
HETATM    5  S1  UNL     1     -11.832   0.809  -8.779  1.00  0.00    -0.034 SA
HETATM    6  C4  UNL     1     -11.221   1.043  -7.183  1.00  0.00     0.173 A 
HETATM    7  N1  UNL     1     -10.424   1.756  -6.353  1.00  0.00    -0.336 N 
HETATM    8  N5  UNL     1     -11.832   0.052  -6.528  1.00  0.00    -0.227 N 
HETATM    9  C3  UNL     1     -10.523   1.215  -5.128  1.00  0.00     0.043 A 
ATOM     10  H1  UNL     1      -9.853   2.561  -6.612  1.00  0.00     0.168 HD
HETATM   11  C14 UNL     1     -11.393   0.156  -5.222  1.00  0.00     0.127 A 
HETATM   12  N4  UNL     1     -12.611  -0.714  -7.182  1.00  0.00    -0.285 N 
ATOM     13  H4  UNL     1     -13.082  -1.475  -6.693  1.00  0.00     0.188 HD
BRANCH   9  14
HETATM   14  C2  UNL     1      -9.775   1.738  -3.959  1.00  0.00     0.055 C 
HETATM   15  C1  UNL     1      -9.052   3.031  -4.236  1.00  0.00     0.011 C 
ENDBRANCH   9  14
BRANCH  11  16
HETATM   16  C15 UNL     1     -11.764  -0.687  -4.107  1.00  0.00     0.184 C 
HETATM   17  O1  UNL     1     -12.009  -1.922  -4.357  1.00  0.00    -0.290 OA
BRANCH  16  18
HETATM   18  C16 UNL     1     -11.892  -0.260  -2.699  1.00  0.00     0.062 A 
HETATM   19  C17 UNL     1     -13.289   0.146  -2.290  1.00  0.00     0.013 A 
HETATM   20  C18 UNL     1     -12.701  -1.145  -1.819  1.00  0.00     0.013 A 
ENDBRANCH  16  18
ENDBRANCH  11  16
ENDBRANCH   1   4
BRANCH   1  21
HETATM   21  C8  UNL     1     -13.261  -2.762  -9.248  1.00  0.00     0.049 C 
HETATM   22  C9  UNL     1     -11.910  -3.014  -9.951  1.00  0.00     0.009 C 
ENDBRANCH   1  21
BRANCH   1  23
HETATM   23  N3  UNL     1     -13.448  -0.766 -10.704  1.00  0.00    -0.388 N 
ATOM     24  H3  UNL     1     -12.602  -0.210 -10.834  1.00  0.00     0.156 HD
BRANCH  23  25
HETATM   25  C10 UNL     1     -14.290  -0.918 -11.797  1.00  0.00     0.016 C 
HETATM   26  C11 UNL     1     -14.999  -2.270 -11.914  1.00  0.00     0.037 C 
HETATM   27  C12 UNL     1     -15.390   0.122 -11.936  1.00  0.00     0.037 C 
HETATM   28  C13 UNL     1     -13.455  -0.797 -13.071  1.00  0.00     0.037 C 
ENDBRANCH  23  25
ENDBRANCH   1  23
TORSDOF 7
ENDMDL
MODEL 2
REMARK VINA RESULT: -5.233694917      4.347      6.528
REMARK  7 active torsions:
REMARK  status: ('A' for Active; 'I' for Inactive)
REMARK    1  A    between atoms: C2_2  and  C3_3 
REMARK    2  A    between atoms: C5_8  and  C6_9 
REMARK    3  A    between atoms: C6_9  and  C8_12 
REMARK    4  A    between atoms: C6_9  and  N3_14 
REMARK    5  A    between atoms: N3_14  and  C10_16 
REMARK    6  A    between atoms: C14_23  and  C15_24 
REMARK    7  A    between atoms: C15_24  and  C16_26 
ROOT
HETATM    1  C6  UNL     1     -12.882   1.422  -4.948  1.00  0.00     0.167 C 
HETATM    2  C7  UNL     1     -13.503   1.893  -6.193  1.00  0.00     0.098 C 
HETATM    3  N2  UNL     1     -13.975   2.280  -7.180  1.00  0.00    -0.194 NA
ENDROOT
BRANCH   1   4
HETATM    4  C5  UNL     1     -11.485   1.981  -4.925  1.00  0.00     0.113 A 
HETATM    5  S1  UNL     1     -10.074   1.260  -5.581  1.00  0.00    -0.034 SA
HETATM    6  C4  UNL     1      -8.946   2.485  -5.130  1.00  0.00     0.173 A 
HETATM    7  N1  UNL     1      -7.663   2.918  -5.127  1.00  0.00    -0.336 N 
HETATM    8  N5  UNL     1      -9.748   3.354  -4.509  1.00  0.00    -0.227 N 
HETATM    9  C3  UNL     1      -7.633   4.100  -4.489  1.00  0.00     0.043 A 
ATOM     10  H1  UNL     1      -6.863   2.433  -5.536  1.00  0.00     0.168 HD
HETATM   11  C14 UNL     1      -8.919   4.383  -4.101  1.00  0.00     0.127 A 
HETATM   12  N4  UNL     1     -10.987   3.078  -4.425  1.00  0.00    -0.285 N 
ATOM     13  H4  UNL     1     -11.610   3.734  -3.952  1.00  0.00     0.188 HD
BRANCH   9  14
HETATM   14  C2  UNL     1      -6.382   4.869  -4.288  1.00  0.00     0.055 C 
HETATM   15  C1  UNL     1      -5.666   4.530  -3.005  1.00  0.00     0.011 C 
ENDBRANCH   9  14
BRANCH  11  16
HETATM   16  C15 UNL     1      -9.303   5.579  -3.383  1.00  0.00     0.184 C 
HETATM   17  O1  UNL     1      -9.779   6.552  -4.071  1.00  0.00    -0.290 OA
BRANCH  16  18
HETATM   18  C16 UNL     1      -9.198   5.789  -1.925  1.00  0.00     0.062 A 
HETATM   19  C17 UNL     1      -8.176   6.823  -1.511  1.00  0.00     0.013 A 
HETATM   20  C18 UNL     1      -9.638   7.118  -1.424  1.00  0.00     0.013 A 
ENDBRANCH  16  18
ENDBRANCH  11  16
ENDBRANCH   1   4
BRANCH   1  21
HETATM   21  C8  UNL     1     -13.598   2.164  -3.832  1.00  0.00     0.049 C 
HETATM   22  C9  UNL     1     -15.021   2.535  -4.299  1.00  0.00     0.009 C 
ENDBRANCH   1  21
BRANCH   1  23
HETATM   23  N3  UNL     1     -12.792   0.043  -4.828  1.00  0.00    -0.388 N 
ATOM     24  H3  UNL     1     -12.720  -0.501  -5.688  1.00  0.00     0.156 HD
BRANCH  23  25
HETATM   25  C10 UNL     1     -12.792  -0.654  -3.626  1.00  0.00     0.016 C 
HETATM   26  C11 UNL     1     -11.766  -0.195  -2.587  1.00  0.00     0.037 C 
HETATM   27  C12 UNL     1     -14.118  -0.698  -2.886  1.00  0.00     0.037 C 
HETATM   28  C13 UNL     1     -12.439  -2.113  -3.914  1.00  0.00     0.037 C 
ENDBRANCH  23  25
ENDBRANCH   1  23
TORSDOF 7
ENDMDL
MODEL 3
REMARK VINA RESULT: -5.201724589      4.458      6.712
REMARK  7 active torsions:
REMARK  status: ('A' for Active; 'I' for Inactive)
REMARK    1  A    between atoms: C2_2  and  C3_3 
REMARK    2  A    between atoms: C5_8  and  C6_9 
REMARK    3  A    between atoms: C6_9  and  C8_12 
REMARK    4  A    between atoms: C6_9  and  N3_14 
REMARK    5  A    between atoms: N3_14  and  C10_16 
REMARK    6  A    between atoms: C14_23  and  C15_24 
REMARK    7  A    between atoms: C15_24  and  C16_26 
ROOT
HETATM    1  C6  UNL     1     -12.942   1.340  -4.031  1.00  0.00     0.167 C 
HETATM    2  C7  UNL     1     -13.315   0.540  -5.205  1.00  0.00     0.098 C 
HETATM    3  N2  UNL     1     -13.590  -0.084  -6.144  1.00  0.00    -0.194 NA
ENDROOT
BRANCH   1   4
HETATM    4  C5  UNL     1     -11.584   1.922  -4.320  1.00  0.00     0.113 A 
HETATM    5  S1  UNL     1     -10.164   1.062  -4.750  1.00  0.00    -0.034 SA
HETATM    6  C4  UNL     1      -9.096   2.411  -4.877  1.00  0.00     0.173 A 
HETATM    7  N1  UNL     1      -7.845   2.863  -5.129  1.00  0.00    -0.336 N 
HETATM    8  N5  UNL     1      -9.920   3.418  -4.578  1.00  0.00    -0.227 N 
HETATM    9  C3  UNL     1      -7.859   4.199  -4.990  1.00  0.00     0.043 A 
ATOM     10  H1  UNL     1      -7.037   2.292  -5.378  1.00  0.00     0.168 HD
HETATM   11  C14 UNL     1      -9.140   4.557  -4.649  1.00  0.00     0.127 A 
HETATM   12  N4  UNL     1     -11.134   3.146  -4.309  1.00  0.00    -0.285 N 
ATOM     13  H4  UNL     1     -11.773   3.907  -4.078  1.00  0.00     0.188 HD
BRANCH   9  14
HETATM   14  C2  UNL     1      -6.651   5.037  -5.184  1.00  0.00     0.055 C 
HETATM   15  C1  UNL     1      -5.839   5.223  -3.927  1.00  0.00     0.011 C 
ENDBRANCH   9  14
BRANCH  11  16
HETATM   16  C15 UNL     1      -9.563   5.920  -4.414  1.00  0.00     0.184 C 
HETATM   17  O1  UNL     1     -10.229   6.500  -5.345  1.00  0.00    -0.290 OA
BRANCH  16  18
HETATM   18  C16 UNL     1      -9.300   6.714  -3.197  1.00  0.00     0.062 A 
HETATM   19  C17 UNL     1     -10.421   6.699  -2.182  1.00  0.00     0.013 A 
HETATM   20  C18 UNL     1      -9.156   5.943  -1.933  1.00  0.00     0.013 A 
ENDBRANCH  16  18
ENDBRANCH  11  16
ENDBRANCH   1   4
BRANCH   1  21
HETATM   21  C8  UNL     1     -13.873   2.542  -4.048  1.00  0.00     0.049 C 
HETATM   22  C9  UNL     1     -15.265   2.100  -4.545  1.00  0.00     0.009 C 
ENDBRANCH   1  21
BRANCH   1  23
HETATM   23  N3  UNL     1     -12.858   0.629  -2.844  1.00  0.00    -0.388 N 
ATOM     24  H3  UNL     1     -12.529   1.129  -2.017  1.00  0.00     0.156 HD
BRANCH  23  25
HETATM   25  C10 UNL     1     -13.187  -0.712  -2.693  1.00  0.00     0.016 C 
HETATM   26  C11 UNL     1     -14.676  -1.052  -2.801  1.00  0.00     0.037 C 
HETATM   27  C12 UNL     1     -12.489  -1.676  -3.638  1.00  0.00     0.037 C 
HETATM   28  C13 UNL     1     -12.780  -1.155  -1.288  1.00  0.00     0.037 C 
ENDBRANCH  23  25
ENDBRANCH   1  23
TORSDOF 7
ENDMDL
MODEL 4
REMARK VINA RESULT: -5.094842560      4.225      6.146
REMARK  7 active torsions:
REMARK  status: ('A' for Active; 'I' for Inactive)
REMARK    1  A    between atoms: C2_2  and  C3_3 
REMARK    2  A    between atoms: C5_8  and  C6_9 
REMARK    3  A    between atoms: C6_9  and  C8_12 
REMARK    4  A    between atoms: C6_9  and  N3_14 
REMARK    5  A    between atoms: N3_14  and  C10_16 
REMARK    6  A    between atoms: C14_23  and  C15_24 
REMARK    7  A    between atoms: C15_24  and  C16_26 
ROOT
HETATM    1  C6  UNL     1     -13.564   1.293  -4.919  1.00  0.00     0.167 C 
HETATM    2  C7  UNL     1     -14.743   1.382  -5.790  1.00  0.00     0.098 C 
HETATM    3  N2  UNL     1     -15.664   1.472  -6.491  1.00  0.00    -0.194 NA
ENDROOT
BRANCH   1   4
HETATM    4  C5  UNL     1     -12.526   2.215  -5.502  1.00  0.00     0.113 A 
HETATM    5  S1  UNL     1     -12.685   3.192  -6.903  1.00  0.00    -0.034 SA
HETATM    6  C4  UNL     1     -11.107   3.890  -6.889  1.00  0.00     0.173 A 
HETATM    7  N1  UNL     1     -10.216   4.720  -7.479  1.00  0.00    -0.336 N 
HETATM    8  N5  UNL     1     -10.583   3.315  -5.804  1.00  0.00    -0.227 N 
HETATM    9  C3  UNL     1      -9.084   4.684  -6.756  1.00  0.00     0.043 A 
ATOM     10  H1  UNL     1     -10.375   5.274  -8.321  1.00  0.00     0.168 HD
HETATM   11  C14 UNL     1      -9.298   3.816  -5.714  1.00  0.00     0.127 A 
HETATM   12  N4  UNL     1     -11.304   2.498  -5.146  1.00  0.00    -0.285 N 
ATOM     13  H4  UNL     1     -10.914   2.051  -4.315  1.00  0.00     0.188 HD
BRANCH   9  14
HETATM   14  C2  UNL     1      -7.880   5.470  -7.115  1.00  0.00     0.055 C 
HETATM   15  C1  UNL     1      -7.835   6.833  -6.470  1.00  0.00     0.011 C 
ENDBRANCH   9  14
BRANCH  11  16
HETATM   16  C15 UNL     1      -8.310   3.506  -4.703  1.00  0.00     0.184 C 
HETATM   17  O1  UNL     1      -7.315   2.776  -5.056  1.00  0.00    -0.290 OA
BRANCH  16  18
HETATM   18  C16 UNL     1      -8.337   3.952  -3.296  1.00  0.00     0.062 A 
HETATM   19  C17 UNL     1      -7.660   5.280  -3.045  1.00  0.00     0.013 A 
HETATM   20  C18 UNL     1      -9.149   5.164  -3.011  1.00  0.00     0.013 A 
ENDBRANCH  16  18
ENDBRANCH  11  16
ENDBRANCH   1   4
BRANCH   1  21
HETATM   21  C8  UNL     1     -13.969   1.966  -3.618  1.00  0.00     0.049 C 
HETATM   22  C9  UNL     1     -14.650   3.315  -3.934  1.00  0.00     0.009 C 
ENDBRANCH   1  21
BRANCH   1  23
HETATM   23  N3  UNL     1     -13.005   0.028  -4.824  1.00  0.00    -0.388 N 
ATOM     24  H3  UNL     1     -12.693  -0.416  -5.689  1.00  0.00     0.156 HD
BRANCH  23  25
HETATM   25  C10 UNL     1     -12.835  -0.683  -3.642  1.00  0.00     0.016 C 
HETATM   26  C11 UNL     1     -11.736  -0.173  -2.706  1.00  0.00     0.037 C 
HETATM   27  C12 UNL     1     -14.071  -0.818  -2.768  1.00  0.00     0.037 C 
HETATM   28  C13 UNL     1     -12.427  -2.113  -3.992  1.00  0.00     0.037 C 
ENDBRANCH  23  25
ENDBRANCH   1  23
TORSDOF 7
ENDMDL
MODEL 5
REMARK VINA RESULT: -5.039246360      4.406      6.814
REMARK  7 active torsions:
REMARK  status: ('A' for Active; 'I' for Inactive)
REMARK    1  A    between atoms: C2_2  and  C3_3 
REMARK    2  A    between atoms: C5_8  and  C6_9 
REMARK    3  A    between atoms: C6_9  and  C8_12 
REMARK    4  A    between atoms: C6_9  and  N3_14 
REMARK    5  A    between atoms: N3_14  and  C10_16 
REMARK    6  A    between atoms: C14_23  and  C15_24 
REMARK    7  A    between atoms: C15_24  and  C16_26 
ROOT
HETATM    1  C6  UNL     1     -13.043   1.468  -4.374  1.00  0.00     0.167 C 
HETATM    2  C7  UNL     1     -13.563   0.843  -5.597  1.00  0.00     0.098 C 
HETATM    3  N2  UNL     1     -13.963   0.366  -6.577  1.00  0.00    -0.194 NA
ENDROOT
BRANCH   1   4
HETATM    4  C5  UNL     1     -12.127   2.578  -4.814  1.00  0.00     0.113 A 
HETATM    5  S1  UNL     1     -11.462   2.809  -6.378  1.00  0.00    -0.034 SA
HETATM    6  C4  UNL     1     -10.547   4.233  -6.043  1.00  0.00     0.173 A 
HETATM    7  N1  UNL     1      -9.705   5.188  -6.502  1.00  0.00    -0.336 N 
HETATM    8  N5  UNL     1     -10.828   4.419  -4.751  1.00  0.00    -0.227 N 
HETATM    9  C3  UNL     1      -9.434   6.017  -5.480  1.00  0.00     0.043 A 
ATOM     10  H1  UNL     1      -9.342   5.266  -7.452  1.00  0.00     0.168 HD
HETATM   11  C14 UNL     1     -10.125   5.551  -4.387  1.00  0.00     0.127 A 
HETATM   12  N4  UNL     1     -11.605   3.590  -4.177  1.00  0.00    -0.285 N 
ATOM     13  H4  UNL     1     -11.826   3.721  -3.189  1.00  0.00     0.188 HD
BRANCH   9  14
HETATM   14  C2  UNL     1      -8.532   7.185  -5.614  1.00  0.00     0.055 C 
HETATM   15  C1  UNL     1      -7.104   6.892  -5.228  1.00  0.00     0.011 C 
ENDBRANCH   9  14
BRANCH  11  16
HETATM   16  C15 UNL     1     -10.094   6.178  -3.084  1.00  0.00     0.184 C 
HETATM   17  O1  UNL     1     -10.962   7.094  -2.849  1.00  0.00    -0.290 OA
BRANCH  16  18
HETATM   18  C16 UNL     1      -9.153   5.863  -1.990  1.00  0.00     0.062 A 
HETATM   19  C17 UNL     1      -8.204   6.985  -1.636  1.00  0.00     0.013 A 
HETATM   20  C18 UNL     1      -9.337   6.631  -0.729  1.00  0.00     0.013 A 
ENDBRANCH  16  18
ENDBRANCH  11  16
ENDBRANCH   1   4
BRANCH   1  21
HETATM   21  C8  UNL     1     -14.229   2.190  -3.753  1.00  0.00     0.049 C 
HETATM   22  C9  UNL     1     -14.991   2.955  -4.855  1.00  0.00     0.009 C 
ENDBRANCH   1  21
BRANCH   1  23
HETATM   23  N3  UNL     1     -12.321   0.621  -3.547  1.00  0.00    -0.388 N 
ATOM     24  H3  UNL     1     -11.391   0.925  -3.258  1.00  0.00     0.156 HD
BRANCH  23  25
HETATM   25  C10 UNL     1     -12.767  -0.611  -3.084  1.00  0.00     0.016 C 
HETATM   26  C11 UNL     1     -14.274  -0.729  -2.841  1.00  0.00     0.037 C 
HETATM   27  C12 UNL     1     -12.406  -1.811  -3.942  1.00  0.00     0.037 C 
HETATM   28  C13 UNL     1     -12.124  -0.876  -1.723  1.00  0.00     0.037 C 
ENDBRANCH  23  25
ENDBRANCH   1  23
TORSDOF 7
ENDMDL
