MODEL 1
REMARK VINA RESULT: -4.412778300      0.000      0.000
REMARK  6 active torsions:
REMARK  status: ('A' for Active; 'I' for Inactive)
REMARK    1  A    between atoms: C2_2  and  S1_3 
REMARK    2  A    between atoms: S1_3  and  C3_4 
REMARK    3  A    between atoms: N1_8  and  C5_9 
REMARK    4  A    between atoms: C5_9  and  N2_10 
REMARK    5  A    between atoms: C10_15  and  C11_16 
REMARK    6  A    between atoms: C12_17  and  C14_20 
ROOT
HETATM    1  C11 UNL     1      -9.436   1.932  -5.207  1.00  0.00     0.059 C 
HETATM    2  C12 UNL     1      -9.701   3.197  -4.944  1.00  0.00     0.111 C 
HETATM    3  C13 UNL     1     -10.535   4.047  -5.743  1.00  0.00     0.104 C 
HETATM    4  N3  UNL     1     -11.195   4.766  -6.404  1.00  0.00    -0.191 NA
ENDROOT
BRANCH   2   5
HETATM    5  C14 UNL     1      -9.116   3.801  -3.754  1.00  0.00     0.275 C 
HETATM    6  N4  UNL     1      -9.500   5.100  -3.342  1.00  0.00    -0.057 NA
HETATM    7  O1  UNL     1      -8.266   3.189  -3.075  1.00  0.00    -0.270 OA
ENDBRANCH   2   5
BRANCH   1   8
HETATM    8  C10 UNL     1      -9.991   1.217  -6.397  1.00  0.00     0.063 A 
HETATM    9  C3  UNL     1      -9.239   1.190  -7.540  1.00  0.00     0.071 A 
HETATM   10  S2  UNL     1     -10.151   0.196  -8.571  1.00  0.00    -0.051 SA
HETATM   11  C4  UNL     1     -11.440  -0.139  -7.519  1.00  0.00     0.148 A 
HETATM   12  S3  UNL     1     -12.795  -1.067  -7.760  1.00  0.00    -0.052 SA
HETATM   13  N1  UNL     1     -11.115   0.534  -6.401  1.00  0.00    -0.303 N 
BRANCH   9  14
HETATM   14  S1  UNL     1      -7.695   2.009  -7.957  1.00  0.00    -0.121 SA
BRANCH  14  15
HETATM   15  C2  UNL     1      -6.289   1.019  -7.346  1.00  0.00     0.075 C 
HETATM   16  C1  UNL     1      -6.502  -0.449  -7.514  1.00  0.00     0.016 C 
ENDBRANCH  14  15
ENDBRANCH   9  14
BRANCH  13  17
HETATM   17  C5  UNL     1     -11.999   0.446  -5.208  1.00  0.00     0.404 C 
BRANCH  17  18
HETATM   18  N2  UNL     1     -11.603  -0.543  -4.298  1.00  0.00     0.106 N 
HETATM   19  C6  UNL     1     -12.331  -1.738  -4.141  1.00  0.00     0.274 C 
HETATM   20  C7  UNL     1     -13.307  -1.523  -3.000  1.00  0.00     0.032 C 
HETATM   21  C8  UNL     1     -12.837  -0.311  -2.272  1.00  0.00     0.032 C 
HETATM   22  C9  UNL     1     -11.553   0.053  -2.938  1.00  0.00     0.274 C 
ENDBRANCH  17  18
ENDBRANCH  13  17
ENDBRANCH   1   8
TORSDOF 6
ENDMDL
MODEL 2
REMARK VINA RESULT: -4.323477734      3.685      6.700
REMARK  6 active torsions:
REMARK  status: ('A' for Active; 'I' for Inactive)
REMARK    1  A    between atoms: C2_2  and  S1_3 
REMARK    2  A    between atoms: S1_3  and  C3_4 
REMARK    3  A    between atoms: N1_8  and  C5_9 
REMARK    4  A    between atoms: C5_9  and  N2_10 
REMARK    5  A    between atoms: C10_15  and  C11_16 
REMARK    6  A    between atoms: C12_17  and  C14_20 
ROOT
HETATM    1  C11 UNL     1     -14.258   2.131  -4.694  1.00  0.00     0.059 C 
HETATM    2  C12 UNL     1     -14.798   1.734  -5.831  1.00  0.00     0.111 C 
HETATM    3  C13 UNL     1     -14.128   0.961  -6.835  1.00  0.00     0.104 C 
HETATM    4  N3  UNL     1     -13.582   0.350  -7.682  1.00  0.00    -0.191 NA
ENDROOT
BRANCH   2   5
HETATM    5  C14 UNL     1     -16.181   2.094  -6.109  1.00  0.00     0.275 C 
HETATM    6  N4  UNL     1     -17.094   1.128  -6.599  1.00  0.00    -0.057 NA
HETATM    7  O1  UNL     1     -16.593   3.258  -5.924  1.00  0.00    -0.270 OA
ENDBRANCH   2   5
BRANCH   1   8
HETATM    8  C10 UNL     1     -12.849   1.809  -4.309  1.00  0.00     0.063 A 
HETATM    9  C3  UNL     1     -12.621   0.652  -3.615  1.00  0.00     0.071 A 
HETATM   10  S2  UNL     1     -10.927   0.609  -3.499  1.00  0.00    -0.051 SA
HETATM   11  C4  UNL     1     -10.583   2.049  -4.327  1.00  0.00     0.148 A 
HETATM   12  S3  UNL     1      -9.120   2.757  -4.665  1.00  0.00    -0.052 SA
HETATM   13  N1  UNL     1     -11.798   2.514  -4.665  1.00  0.00    -0.303 N 
BRANCH   9  14
HETATM   14  S1  UNL     1     -13.757  -0.550  -2.916  1.00  0.00    -0.121 SA
BRANCH  14  15
HETATM   15  C2  UNL     1     -13.051  -1.247  -1.385  1.00  0.00     0.075 C 
HETATM   16  C1  UNL     1     -14.015  -1.224  -0.244  1.00  0.00     0.016 C 
ENDBRANCH  14  15
ENDBRANCH   9  14
BRANCH  13  17
HETATM   17  C5  UNL     1     -11.909   3.765  -5.461  1.00  0.00     0.404 C 
BRANCH  17  18
HETATM   18  N2  UNL     1     -12.562   4.800  -4.778  1.00  0.00     0.106 N 
HETATM   19  C6  UNL     1     -13.438   5.684  -5.437  1.00  0.00     0.274 C 
HETATM   20  C7  UNL     1     -12.627   6.896  -5.852  1.00  0.00     0.032 C 
HETATM   21  C8  UNL     1     -11.360   6.839  -5.067  1.00  0.00     0.032 C 
HETATM   22  C9  UNL     1     -11.540   5.676  -4.150  1.00  0.00     0.274 C 
ENDBRANCH  17  18
ENDBRANCH  13  17
ENDBRANCH   1   8
TORSDOF 6
ENDMDL
MODEL 3
REMARK VINA RESULT: -4.300213200      3.673      6.152
REMARK  6 active torsions:
REMARK  status: ('A' for Active; 'I' for Inactive)
REMARK    1  A    between atoms: C2_2  and  S1_3 
REMARK    2  A    between atoms: S1_3  and  C3_4 
REMARK    3  A    between atoms: N1_8  and  C5_9 
REMARK    4  A    between atoms: C5_9  and  N2_10 
REMARK    5  A    between atoms: C10_15  and  C11_16 
REMARK    6  A    between atoms: C12_17  and  C14_20 
ROOT
HETATM    1  C11 UNL     1     -13.567   0.628  -6.228  1.00  0.00     0.059 C 
HETATM    2  C12 UNL     1     -13.398   0.051  -7.402  1.00  0.00     0.111 C 
HETATM    3  C13 UNL     1     -12.134  -0.138  -8.052  1.00  0.00     0.104 C 
HETATM    4  N3  UNL     1     -11.106  -0.276  -8.612  1.00  0.00    -0.191 NA
ENDROOT
BRANCH   2   5
HETATM    5  C14 UNL     1     -14.570  -0.443  -8.112  1.00  0.00     0.275 C 
HETATM    6  N4  UNL     1     -15.804   0.247  -8.034  1.00  0.00    -0.057 NA
HETATM    7  O1  UNL     1     -14.514  -1.482  -8.802  1.00  0.00    -0.270 OA
ENDBRANCH   2   5
BRANCH   1   8
HETATM    8  C10 UNL     1     -12.431   1.162  -5.415  1.00  0.00     0.063 A 
HETATM    9  C3  UNL     1     -11.715   0.280  -4.653  1.00  0.00     0.071 A 
HETATM   10  S2  UNL     1     -10.476   1.250  -4.015  1.00  0.00    -0.051 SA
HETATM   11  C4  UNL     1     -10.915   2.723  -4.734  1.00  0.00     0.148 A 
HETATM   12  S3  UNL     1     -10.201   4.216  -4.619  1.00  0.00    -0.052 SA
HETATM   13  N1  UNL     1     -12.012   2.408  -5.446  1.00  0.00    -0.303 N 
BRANCH   9  14
HETATM   14  S1  UNL     1     -11.973  -1.464  -4.309  1.00  0.00    -0.121 SA
BRANCH  14  15
HETATM   15  C2  UNL     1     -13.126  -1.651  -2.907  1.00  0.00     0.075 C 
HETATM   16  C1  UNL     1     -12.662  -0.936  -1.681  1.00  0.00     0.016 C 
ENDBRANCH  14  15
ENDBRANCH   9  14
BRANCH  13  17
HETATM   17  C5  UNL     1     -12.675   3.453  -6.271  1.00  0.00     0.404 C 
BRANCH  17  18
HETATM   18  N2  UNL     1     -13.501   4.305  -5.526  1.00  0.00     0.106 N 
HETATM   19  C6  UNL     1     -13.958   3.955  -4.241  1.00  0.00     0.274 C 
HETATM   20  C7  UNL     1     -15.317   3.302  -4.409  1.00  0.00     0.032 C 
HETATM   21  C8  UNL     1     -15.778   3.646  -5.784  1.00  0.00     0.032 C 
HETATM   22  C9  UNL     1     -14.735   4.576  -6.308  1.00  0.00     0.274 C 
ENDBRANCH  17  18
ENDBRANCH  13  17
ENDBRANCH   1   8
TORSDOF 6
ENDMDL
MODEL 4
REMARK VINA RESULT: -4.277533999      3.208      4.933
REMARK  6 active torsions:
REMARK  status: ('A' for Active; 'I' for Inactive)
REMARK    1  A    between atoms: C2_2  and  S1_3 
REMARK    2  A    between atoms: S1_3  and  C3_4 
REMARK    3  A    between atoms: N1_8  and  C5_9 
REMARK    4  A    between atoms: C5_9  and  N2_10 
REMARK    5  A    between atoms: C10_15  and  C11_16 
REMARK    6  A    between atoms: C12_17  and  C14_20 
ROOT
HETATM    1  C11 UNL     1     -12.322  -0.879  -7.679  1.00  0.00     0.059 C 
HETATM    2  C12 UNL     1     -13.423  -0.373  -8.202  1.00  0.00     0.111 C 
HETATM    3  C13 UNL     1     -13.648   1.019  -8.459  1.00  0.00     0.104 C 
HETATM    4  N3  UNL     1     -13.860   2.163  -8.649  1.00  0.00    -0.191 NA
ENDROOT
BRANCH   2   5
HETATM    5  C14 UNL     1     -14.506  -1.279  -8.558  1.00  0.00     0.275 C 
HETATM    6  N4  UNL     1     -15.856  -0.869  -8.440  1.00  0.00    -0.057 NA
HETATM    7  O1  UNL     1     -14.270  -2.433  -8.972  1.00  0.00    -0.270 OA
ENDBRANCH   2   5
BRANCH   1   8
HETATM    8  C10 UNL     1     -11.150  -0.037  -7.286  1.00  0.00     0.063 A 
HETATM    9  C3  UNL     1     -10.183   0.197  -8.225  1.00  0.00     0.071 A 
HETATM   10  S2  UNL     1      -9.134   1.270  -7.429  1.00  0.00    -0.051 SA
HETATM   11  C4  UNL     1      -9.957   1.373  -5.949  1.00  0.00     0.148 A 
HETATM   12  S3  UNL     1      -9.585   2.240  -4.584  1.00  0.00    -0.052 SA
HETATM   13  N1  UNL     1     -11.021   0.569  -6.126  1.00  0.00    -0.303 N 
BRANCH   9  14
HETATM   14  S1  UNL     1      -9.963  -0.457  -9.883  1.00  0.00    -0.121 SA
BRANCH  14  15
HETATM   15  C2  UNL     1     -11.061   0.425 -11.044  1.00  0.00     0.075 C 
HETATM   16  C1  UNL     1     -12.096  -0.466 -11.648  1.00  0.00     0.016 C 
ENDBRANCH  14  15
ENDBRANCH   9  14
BRANCH  13  17
HETATM   17  C5  UNL     1     -12.026   0.433  -5.039  1.00  0.00     0.404 C 
BRANCH  17  18
HETATM   18  N2  UNL     1     -11.754  -0.626  -4.162  1.00  0.00     0.106 N 
HETATM   19  C6  UNL     1     -12.603  -1.745  -4.067  1.00  0.00     0.274 C 
HETATM   20  C7  UNL     1     -13.578  -1.475  -2.937  1.00  0.00     0.032 C 
HETATM   21  C8  UNL     1     -13.004  -0.346  -2.151  1.00  0.00     0.032 C 
HETATM   22  C9  UNL     1     -11.674  -0.091  -2.779  1.00  0.00     0.274 C 
ENDBRANCH  17  18
ENDBRANCH  13  17
ENDBRANCH   1   8
TORSDOF 6
ENDMDL
MODEL 5
REMARK VINA RESULT: -4.273077871      3.755      5.760
REMARK  6 active torsions:
REMARK  status: ('A' for Active; 'I' for Inactive)
REMARK    1  A    between atoms: C2_2  and  S1_3 
REMARK    2  A    between atoms: S1_3  and  C3_4 
REMARK    3  A    between atoms: N1_8  and  C5_9 
REMARK    4  A    between atoms: C5_9  and  N2_10 
REMARK    5  A    between atoms: C10_15  and  C11_16 
REMARK    6  A    between atoms: C12_17  and  C14_20 
ROOT
HETATM    1  C11 UNL     1     -13.715  -0.042  -7.531  1.00  0.00     0.059 C 
HETATM    2  C12 UNL     1     -13.415  -0.960  -8.430  1.00  0.00     0.111 C 
HETATM    3  C13 UNL     1     -12.126  -1.131  -9.032  1.00  0.00     0.104 C 
HETATM    4  N3  UNL     1     -11.079  -1.267  -9.558  1.00  0.00    -0.191 NA
ENDROOT
BRANCH   2   5
HETATM    5  C14 UNL     1     -14.457  -1.883  -8.859  1.00  0.00     0.275 C 
HETATM    6  N4  UNL     1     -14.121  -3.107  -9.486  1.00  0.00    -0.057 NA
HETATM    7  O1  UNL     1     -15.664  -1.618  -8.684  1.00  0.00    -0.270 OA
ENDBRANCH   2   5
BRANCH   1   8
HETATM    8  C10 UNL     1     -12.719   0.948  -7.019  1.00  0.00     0.063 A 
HETATM    9  C3  UNL     1     -12.688   2.187  -7.599  1.00  0.00     0.071 A 
HETATM   10  S2  UNL     1     -11.540   3.016  -6.661  1.00  0.00    -0.051 SA
HETATM   11  C4  UNL     1     -11.149   1.766  -5.582  1.00  0.00     0.148 A 
HETATM   12  S3  UNL     1     -10.078   1.752  -4.315  1.00  0.00    -0.052 SA
HETATM   13  N1  UNL     1     -11.926   0.747  -5.990  1.00  0.00    -0.303 N 
BRANCH   9  14
HETATM   14  S1  UNL     1     -13.559   2.846  -9.025  1.00  0.00    -0.121 SA
BRANCH  14  15
HETATM   15  C2  UNL     1     -12.825   2.180 -10.557  1.00  0.00     0.075 C 
HETATM   16  C1  UNL     1     -13.784   1.343 -11.339  1.00  0.00     0.016 C 
ENDBRANCH  14  15
ENDBRANCH   9  14
BRANCH  13  17
HETATM   17  C5  UNL     1     -11.899  -0.539  -5.244  1.00  0.00     0.404 C 
BRANCH  17  18
HETATM   18  N2  UNL     1     -13.043  -0.752  -4.464  1.00  0.00     0.106 N 
HETATM   19  C6  UNL     1     -13.685   0.305  -3.790  1.00  0.00     0.274 C 
HETATM   20  C7  UNL     1     -13.120   0.352  -2.384  1.00  0.00     0.032 C 
HETATM   21  C8  UNL     1     -12.427  -0.950  -2.169  1.00  0.00     0.032 C 
HETATM   22  C9  UNL     1     -12.720  -1.739  -3.402  1.00  0.00     0.274 C 
ENDBRANCH  17  18
ENDBRANCH  13  17
ENDBRANCH   1   8
TORSDOF 6
ENDMDL
