MODEL 1
REMARK VINA RESULT: -5.685593526      0.000      0.000
REMARK  10 active torsions:
REMARK  status: ('A' for Active; 'I' for Inactive)
REMARK    1  A    between atoms: C2_2  and  C3_3 
REMARK    2  A    between atoms: C3_3  and  O2_5 
REMARK    3  A    between atoms: O2_5  and  C4_6 
REMARK    4  A    between atoms: C4_6  and  C5_7 
REMARK    5  A    between atoms: C6_8  and  C7_9 
REMARK    6  A    between atoms: C7_9  and  O4_11 
REMARK    7  A    between atoms: C9_14  and  N1_15 
REMARK       I    between atoms: N1_15  and  C10_17 
REMARK    8  A    between atoms: C10_17  and  O6_19 
REMARK    9  A    between atoms: O6_19  and  C11_20 
REMARK   10  A    between atoms: C11_20  and  C12_21 
ROOT
HETATM    1  C5  UNL     1     -12.085  -0.268  -5.042  1.00  0.00    -0.002 A 
HETATM    2  C6  UNL     1     -12.231  -0.107  -6.400  1.00  0.00     0.091 A 
HETATM    3  S1  UNL     1     -11.123   1.128  -6.770  1.00  0.00    -0.065 SA
HETATM    4  C9  UNL     1     -10.499   1.414  -5.202  1.00  0.00     0.085 A 
HETATM    5  C16 UNL     1     -11.191   0.519  -4.434  1.00  0.00    -0.018 A 
HETATM    6  C17 UNL     1     -10.928   0.449  -2.942  1.00  0.00     0.052 C 
ENDROOT
BRANCH   4   7
HETATM    7  N1  UNL     1      -9.506   2.361  -4.834  1.00  0.00    -0.296 N 
HETATM    8  C10 UNL     1      -9.956   3.681  -4.432  1.00  0.00     0.365 C 
HETATM    9  O5  UNL     1     -11.176   3.953  -4.416  1.00  0.00    -0.238 OA
ATOM     10  H1  UNL     1      -8.514   2.122  -4.853  1.00  0.00     0.171 HD
BRANCH   8  11
HETATM   11  O6  UNL     1      -9.074   4.627  -4.072  1.00  0.00    -0.303 OA
BRANCH  11  12
HETATM   12  C11 UNL     1      -8.450   5.029  -2.935  1.00  0.00     0.189 C 
BRANCH  12  13
HETATM   13  C12 UNL     1      -8.731   6.346  -2.317  1.00  0.00    -0.029 C 
HETATM   14  C13 UNL     1      -9.594   7.201  -3.273  1.00  0.00     0.016 C 
HETATM   15  C14 UNL     1      -7.412   7.048  -2.047  1.00  0.00     0.016 C 
HETATM   16  C15 UNL     1      -9.498   6.288  -1.034  1.00  0.00     0.016 C 
ENDBRANCH  12  13
ENDBRANCH  11  12
ENDBRANCH   8  11
ENDBRANCH   4   7
BRANCH   2  17
HETATM   17  C7  UNL     1     -13.100  -0.786  -7.357  1.00  0.00     0.300 C 
HETATM   18  O3  UNL     1     -14.310  -0.528  -7.386  1.00  0.00    -0.259 OA
BRANCH  17  19
HETATM   19  O4  UNL     1     -12.629  -1.729  -8.256  1.00  0.00    -0.322 OA
HETATM   20  C8  UNL     1     -13.425  -2.633  -8.960  1.00  0.00     0.213 C 
ENDBRANCH  17  19
ENDBRANCH   2  17
BRANCH   1  21
HETATM   21  C4  UNL     1     -12.952  -1.328  -4.381  1.00  0.00     0.220 C 
BRANCH  21  22
HETATM   22  O2  UNL     1     -14.068  -0.808  -3.747  1.00  0.00    -0.314 OA
BRANCH  22  23
HETATM   23  C3  UNL     1     -14.427  -1.293  -2.501  1.00  0.00     0.282 C 
HETATM   24  O1  UNL     1     -15.586  -1.767  -2.396  1.00  0.00    -0.260 OA
BRANCH  23  25
HETATM   25  C2  UNL     1     -13.556  -1.279  -1.354  1.00  0.00     0.072 C 
HETATM   26  C1  UNL     1     -14.077  -1.215  -0.142  1.00  0.00     0.017 C 
ENDBRANCH  23  25
ENDBRANCH  22  23
ENDBRANCH  21  22
ENDBRANCH   1  21
TORSDOF 10
ENDMDL
MODEL 2
REMARK VINA RESULT: -5.585286717      3.172      4.486
REMARK  10 active torsions:
REMARK  status: ('A' for Active; 'I' for Inactive)
REMARK    1  A    between atoms: C2_2  and  C3_3 
REMARK    2  A    between atoms: C3_3  and  O2_5 
REMARK    3  A    between atoms: O2_5  and  C4_6 
REMARK    4  A    between atoms: C4_6  and  C5_7 
REMARK    5  A    between atoms: C6_8  and  C7_9 
REMARK    6  A    between atoms: C7_9  and  O4_11 
REMARK    7  A    between atoms: C9_14  and  N1_15 
REMARK       I    between atoms: N1_15  and  C10_17 
REMARK    8  A    between atoms: C10_17  and  O6_19 
REMARK    9  A    between atoms: O6_19  and  C11_20 
REMARK   10  A    between atoms: C11_20  and  C12_21 
ROOT
HETATM    1  C5  UNL     1     -13.334   0.913  -4.267  1.00  0.00    -0.002 A 
HETATM    2  C6  UNL     1     -13.897   1.518  -5.367  1.00  0.00     0.091 A 
HETATM    3  S1  UNL     1     -12.574   1.749  -6.409  1.00  0.00    -0.065 SA
HETATM    4  C9  UNL     1     -11.339   1.077  -5.433  1.00  0.00     0.085 A 
HETATM    5  C16 UNL     1     -12.016   0.690  -4.311  1.00  0.00    -0.018 A 
HETATM    6  C17 UNL     1     -11.265   0.033  -3.169  1.00  0.00     0.052 C 
ENDROOT
BRANCH   4   7
HETATM    7  N1  UNL     1      -9.958   0.970  -5.752  1.00  0.00    -0.296 N 
HETATM    8  C10 UNL     1      -9.095   2.074  -5.375  1.00  0.00     0.365 C 
HETATM    9  O5  UNL     1      -9.569   3.073  -4.791  1.00  0.00    -0.238 OA
ATOM     10  H1  UNL     1      -9.587   0.147  -6.229  1.00  0.00     0.171 HD
BRANCH   8  11
HETATM   11  O6  UNL     1      -7.781   2.043  -5.644  1.00  0.00    -0.303 OA
BRANCH  11  12
HETATM   12  C11 UNL     1      -6.980   2.197  -6.730  1.00  0.00     0.189 C 
BRANCH  12  13
HETATM   13  C12 UNL     1      -6.222   1.061  -7.305  1.00  0.00    -0.029 C 
HETATM   14  C13 UNL     1      -5.061   0.674  -6.363  1.00  0.00     0.016 C 
HETATM   15  C14 UNL     1      -5.671   1.479  -8.657  1.00  0.00     0.016 C 
HETATM   16  C15 UNL     1      -7.016  -0.193  -7.494  1.00  0.00     0.016 C 
ENDBRANCH  12  13
ENDBRANCH  11  12
ENDBRANCH   8  11
ENDBRANCH   4   7
BRANCH   2  17
HETATM   17  C7  UNL     1     -15.279   1.902  -5.647  1.00  0.00     0.300 C 
HETATM   18  O3  UNL     1     -16.065   1.076  -6.126  1.00  0.00    -0.259 OA
BRANCH  17  19
HETATM   19  O4  UNL     1     -15.765   3.175  -5.398  1.00  0.00    -0.322 OA
HETATM   20  C8  UNL     1     -15.414   3.967  -4.304  1.00  0.00     0.213 C 
ENDBRANCH  17  19
ENDBRANCH   2  17
BRANCH   1  21
HETATM   21  C4  UNL     1     -14.273   0.560  -3.125  1.00  0.00     0.220 C 
BRANCH  21  22
HETATM   22  O2  UNL     1     -14.640  -0.775  -3.106  1.00  0.00    -0.314 OA
BRANCH  22  23
HETATM   23  C3  UNL     1     -14.782  -1.423  -1.891  1.00  0.00     0.282 C 
HETATM   24  O1  UNL     1     -15.767  -2.194  -1.778  1.00  0.00    -0.260 OA
BRANCH  23  25
HETATM   25  C2  UNL     1     -13.876  -1.256  -0.784  1.00  0.00     0.072 C 
HETATM   26  C1  UNL     1     -14.349  -1.261   0.450  1.00  0.00     0.017 C 
ENDBRANCH  23  25
ENDBRANCH  22  23
ENDBRANCH  21  22
ENDBRANCH   1  21
TORSDOF 10
ENDMDL
MODEL 3
REMARK VINA RESULT: -5.537314051      2.572      7.090
REMARK  10 active torsions:
REMARK  status: ('A' for Active; 'I' for Inactive)
REMARK    1  A    between atoms: C2_2  and  C3_3 
REMARK    2  A    between atoms: C3_3  and  O2_5 
REMARK    3  A    between atoms: O2_5  and  C4_6 
REMARK    4  A    between atoms: C4_6  and  C5_7 
REMARK    5  A    between atoms: C6_8  and  C7_9 
REMARK    6  A    between atoms: C7_9  and  O4_11 
REMARK    7  A    between atoms: C9_14  and  N1_15 
REMARK       I    between atoms: N1_15  and  C10_17 
REMARK    8  A    between atoms: C10_17  and  O6_19 
REMARK    9  A    between atoms: O6_19  and  C11_20 
REMARK   10  A    between atoms: C11_20  and  C12_21 
ROOT
HETATM    1  C5  UNL     1     -12.420   1.045  -5.100  1.00  0.00    -0.002 A 
HETATM    2  C6  UNL     1     -11.727  -0.047  -5.567  1.00  0.00     0.091 A 
HETATM    3  S1  UNL     1     -12.198  -1.293  -4.512  1.00  0.00    -0.065 SA
HETATM    4  C9  UNL     1     -13.260  -0.408  -3.503  1.00  0.00     0.085 A 
HETATM    5  C16 UNL     1     -13.207   0.850  -4.036  1.00  0.00    -0.018 A 
HETATM    6  C17 UNL     1     -14.027   1.964  -3.417  1.00  0.00     0.052 C 
ENDROOT
BRANCH   4   7
HETATM    7  N1  UNL     1     -13.997  -0.901  -2.391  1.00  0.00    -0.296 N 
HETATM    8  C10 UNL     1     -13.260  -1.189  -1.175  1.00  0.00     0.365 C 
HETATM    9  O5  UNL     1     -12.025  -1.003  -1.127  1.00  0.00    -0.238 OA
ATOM     10  H1  UNL     1     -15.005  -1.046  -2.447  1.00  0.00     0.171 HD
BRANCH   8  11
HETATM   11  O6  UNL     1     -13.889  -1.658  -0.085  1.00  0.00    -0.303 OA
BRANCH  11  12
HETATM   12  C11 UNL     1     -14.800  -1.204   0.814  1.00  0.00     0.189 C 
BRANCH  12  13
HETATM   13  C12 UNL     1     -16.000  -1.996   1.172  1.00  0.00    -0.029 C 
HETATM   14  C13 UNL     1     -15.710  -2.850   2.427  1.00  0.00     0.016 C 
HETATM   15  C14 UNL     1     -16.352  -2.900   0.004  1.00  0.00     0.016 C 
HETATM   16  C15 UNL     1     -17.210  -1.185   1.513  1.00  0.00     0.016 C 
ENDBRANCH  12  13
ENDBRANCH  11  12
ENDBRANCH   8  11
ENDBRANCH   4   7
BRANCH   2  17
HETATM   17  C7  UNL     1     -10.796  -0.184  -6.685  1.00  0.00     0.300 C 
HETATM   18  O3  UNL     1      -9.583  -0.024  -6.503  1.00  0.00    -0.259 OA
BRANCH  17  19
HETATM   19  O4  UNL     1     -11.213  -0.490  -7.970  1.00  0.00    -0.322 OA
HETATM   20  C8  UNL     1     -12.472  -0.988  -8.307  1.00  0.00     0.213 C 
ENDBRANCH  17  19
ENDBRANCH   2  17
BRANCH   1  21
HETATM   21  C4  UNL     1     -12.219   2.355  -5.846  1.00  0.00     0.220 C 
BRANCH  21  22
HETATM   22  O2  UNL     1     -11.454   3.274  -5.149  1.00  0.00    -0.314 OA
BRANCH  22  23
HETATM   23  C3  UNL     1     -10.073   3.179  -5.194  1.00  0.00     0.282 C 
HETATM   24  O1  UNL     1      -9.529   3.437  -6.297  1.00  0.00    -0.260 OA
BRANCH  23  25
HETATM   25  C2  UNL     1      -9.258   2.811  -4.065  1.00  0.00     0.072 C 
HETATM   26  C1  UNL     1      -8.637   3.752  -3.377  1.00  0.00     0.017 C 
ENDBRANCH  23  25
ENDBRANCH  22  23
ENDBRANCH  21  22
ENDBRANCH   1  21
TORSDOF 10
ENDMDL
MODEL 4
REMARK VINA RESULT: -5.414302868      1.019      1.494
REMARK  10 active torsions:
REMARK  status: ('A' for Active; 'I' for Inactive)
REMARK    1  A    between atoms: C2_2  and  C3_3 
REMARK    2  A    between atoms: C3_3  and  O2_5 
REMARK    3  A    between atoms: O2_5  and  C4_6 
REMARK    4  A    between atoms: C4_6  and  C5_7 
REMARK    5  A    between atoms: C6_8  and  C7_9 
REMARK    6  A    between atoms: C7_9  and  O4_11 
REMARK    7  A    between atoms: C9_14  and  N1_15 
REMARK       I    between atoms: N1_15  and  C10_17 
REMARK    8  A    between atoms: C10_17  and  O6_19 
REMARK    9  A    between atoms: O6_19  and  C11_20 
REMARK   10  A    between atoms: C11_20  and  C12_21 
ROOT
HETATM    1  C5  UNL     1     -12.007  -0.095  -5.519  1.00  0.00    -0.002 A 
HETATM    2  C6  UNL     1     -12.388  -0.043  -6.839  1.00  0.00     0.091 A 
HETATM    3  S1  UNL     1     -11.526   1.290  -7.446  1.00  0.00    -0.065 SA
HETATM    4  C9  UNL     1     -10.702   1.754  -6.019  1.00  0.00     0.085 A 
HETATM    5  C16 UNL     1     -11.138   0.835  -5.106  1.00  0.00    -0.018 A 
HETATM    6  C17 UNL     1     -10.633   0.897  -3.678  1.00  0.00     0.052 C 
ENDROOT
BRANCH   4   7
HETATM    7  N1  UNL     1      -9.796   2.838  -5.867  1.00  0.00    -0.296 N 
HETATM    8  C10 UNL     1     -10.353   4.133  -5.522  1.00  0.00     0.365 C 
HETATM    9  O5  UNL     1     -11.586   4.268  -5.369  1.00  0.00    -0.238 OA
ATOM     10  H1  UNL     1      -8.792   2.710  -5.995  1.00  0.00     0.171 HD
BRANCH   8  11
HETATM   11  O6  UNL     1      -9.557   5.203  -5.362  1.00  0.00    -0.303 OA
BRANCH  11  12
HETATM   12  C11 UNL     1      -8.394   5.495  -4.726  1.00  0.00     0.189 C 
BRANCH  12  13
HETATM   13  C12 UNL     1      -8.257   5.362  -3.256  1.00  0.00    -0.029 C 
HETATM   14  C13 UNL     1      -6.983   6.094  -2.779  1.00  0.00     0.016 C 
HETATM   15  C14 UNL     1      -8.164   3.887  -2.909  1.00  0.00     0.016 C 
HETATM   16  C15 UNL     1      -9.378   5.957  -2.464  1.00  0.00     0.016 C 
ENDBRANCH  12  13
ENDBRANCH  11  12
ENDBRANCH   8  11
ENDBRANCH   4   7
BRANCH   2  17
HETATM   17  C7  UNL     1     -13.304  -0.886  -7.605  1.00  0.00     0.300 C 
HETATM   18  O3  UNL     1     -12.881  -1.899  -8.175  1.00  0.00    -0.259 OA
BRANCH  17  19
HETATM   19  O4  UNL     1     -14.654  -0.601  -7.730  1.00  0.00    -0.322 OA
HETATM   20  C8  UNL     1     -15.437  -0.907  -8.843  1.00  0.00     0.213 C 
ENDBRANCH  17  19
ENDBRANCH   2  17
BRANCH   1  21
HETATM   21  C4  UNL     1     -12.610  -1.205  -4.674  1.00  0.00     0.220 C 
BRANCH  21  22
HETATM   22  O2  UNL     1     -13.815  -0.858  -4.088  1.00  0.00    -0.314 OA
BRANCH  22  23
HETATM   23  C3  UNL     1     -14.071  -1.247  -2.784  1.00  0.00     0.282 C 
HETATM   24  O1  UNL     1     -15.217  -1.708  -2.550  1.00  0.00    -0.260 OA
BRANCH  23  25
HETATM   25  C2  UNL     1     -13.111  -1.149  -1.715  1.00  0.00     0.072 C 
HETATM   26  C1  UNL     1     -13.526  -1.200  -0.462  1.00  0.00     0.017 C 
ENDBRANCH  23  25
ENDBRANCH  22  23
ENDBRANCH  21  22
ENDBRANCH   1  21
TORSDOF 10
ENDMDL
MODEL 5
REMARK VINA RESULT: -5.407229885      3.154      4.273
REMARK  10 active torsions:
REMARK  status: ('A' for Active; 'I' for Inactive)
REMARK    1  A    between atoms: C2_2  and  C3_3 
REMARK    2  A    between atoms: C3_3  and  O2_5 
REMARK    3  A    between atoms: O2_5  and  C4_6 
REMARK    4  A    between atoms: C4_6  and  C5_7 
REMARK    5  A    between atoms: C6_8  and  C7_9 
REMARK    6  A    between atoms: C7_9  and  O4_11 
REMARK    7  A    between atoms: C9_14  and  N1_15 
REMARK       I    between atoms: N1_15  and  C10_17 
REMARK    8  A    between atoms: C10_17  and  O6_19 
REMARK    9  A    between atoms: O6_19  and  C11_20 
REMARK   10  A    between atoms: C11_20  and  C12_21 
ROOT
HETATM    1  C5  UNL     1     -13.238   1.102  -4.330  1.00  0.00    -0.002 A 
HETATM    2  C6  UNL     1     -13.786   1.761  -5.405  1.00  0.00     0.091 A 
HETATM    3  S1  UNL     1     -12.455   2.020  -6.429  1.00  0.00    -0.065 SA
HETATM    4  C9  UNL     1     -11.233   1.290  -5.478  1.00  0.00     0.085 A 
HETATM    5  C16 UNL     1     -11.922   0.864  -4.376  1.00  0.00    -0.018 A 
HETATM    6  C17 UNL     1     -11.186   0.148  -3.261  1.00  0.00     0.052 C 
ENDROOT
BRANCH   4   7
HETATM    7  N1  UNL     1      -9.852   1.177  -5.795  1.00  0.00    -0.296 N 
HETATM    8  C10 UNL     1      -8.969   2.226  -5.318  1.00  0.00     0.365 C 
HETATM    9  O5  UNL     1      -9.426   3.182  -4.655  1.00  0.00    -0.238 OA
ATOM     10  H1  UNL     1      -9.496   0.390  -6.337  1.00  0.00     0.171 HD
BRANCH   8  11
HETATM   11  O6  UNL     1      -7.653   2.187  -5.580  1.00  0.00    -0.303 OA
BRANCH  11  12
HETATM   12  C11 UNL     1      -6.844   2.347  -6.659  1.00  0.00     0.189 C 
BRANCH  12  13
HETATM   13  C12 UNL     1      -6.095   1.210  -7.244  1.00  0.00    -0.029 C 
HETATM   14  C13 UNL     1      -4.943   0.798  -6.300  1.00  0.00     0.016 C 
HETATM   15  C14 UNL     1      -5.532   1.639  -8.587  1.00  0.00     0.016 C 
HETATM   16  C15 UNL     1      -6.901  -0.033  -7.453  1.00  0.00     0.016 C 
ENDBRANCH  12  13
ENDBRANCH  11  12
ENDBRANCH   8  11
ENDBRANCH   4   7
BRANCH   2  17
HETATM   17  C7  UNL     1     -15.161   2.175  -5.674  1.00  0.00     0.300 C 
HETATM   18  O3  UNL     1     -15.467   3.373  -5.632  1.00  0.00    -0.259 OA
BRANCH  17  19
HETATM   19  O4  UNL     1     -16.166   1.272  -5.981  1.00  0.00    -0.322 OA
HETATM   20  C8  UNL     1     -17.105   1.434  -7.000  1.00  0.00     0.213 C 
ENDBRANCH  17  19
ENDBRANCH   2  17
BRANCH   1  21
HETATM   21  C4  UNL     1     -14.186   0.712  -3.208  1.00  0.00     0.220 C 
BRANCH  21  22
HETATM   22  O2  UNL     1     -14.650  -0.588  -3.306  1.00  0.00    -0.314 OA
BRANCH  22  23
HETATM   23  C3  UNL     1     -14.832  -1.332  -2.152  1.00  0.00     0.282 C 
HETATM   24  O1  UNL     1     -15.840  -2.082  -2.120  1.00  0.00    -0.260 OA
BRANCH  23  25
HETATM   25  C2  UNL     1     -13.941  -1.287  -1.021  1.00  0.00     0.072 C 
HETATM   26  C1  UNL     1     -14.443  -1.256   0.200  1.00  0.00     0.017 C 
ENDBRANCH  23  25
ENDBRANCH  22  23
ENDBRANCH  21  22
ENDBRANCH   1  21
TORSDOF 10
ENDMDL
