MODEL 1
REMARK VINA RESULT: -7.417637679      0.000      0.000
REMARK  11 active torsions:
REMARK  status: ('A' for Active; 'I' for Inactive)
REMARK    1  A    between atoms: C2_3  and  C3_4 
REMARK    2  A    between atoms: C6_9  and  C7_10 
REMARK    3  A    between atoms: C7_10  and  O2_12 
REMARK    4  A    between atoms: O2_12  and  N3_13 
REMARK       I    between atoms: C8_15  and  N5_17 
REMARK    5  A    between atoms: N5_17  and  N6_19 
REMARK    6  A    between atoms: C9_21  and  C10_22 
REMARK    7  A    between atoms: C12_24  and  N7_25 
REMARK    8  A    between atoms: C13_28  and  N8_29 
REMARK    9  A    between atoms: N8_29  and  C14_31 
REMARK   10  A    between atoms: C15_34  and  N10_35 
REMARK   11  A    between atoms: N10_35  and  N11_36 
ROOT
HETATM    1  N1  UNL     1      39.388  69.890  16.035  1.00  0.00    -0.197 NA
HETATM    2  C1  UNL     1      38.611  70.676  16.407  1.00  0.00     0.063 C 
HETATM    3  C2  UNL     1      37.613  71.667  16.858  1.00  0.00     0.163 C 
ENDROOT
BRANCH   3   4
HETATM    4  C3  UNL     1      37.493  71.627  18.327  1.00  0.00    -0.029 A 
HETATM    5  C4  UNL     1      36.249  71.643  18.903  1.00  0.00     0.095 A 
HETATM    6  N2  UNL     1      36.129  71.608  20.228  1.00  0.00    -0.374 N 
HETATM    7  C5  UNL     1      37.177  71.557  21.078  1.00  0.00     0.105 A 
ATOM      8  H2  UNL     1      35.188  71.621  20.625  1.00  0.00     0.164 HD
HETATM    9  C6  UNL     1      38.428  71.540  20.506  1.00  0.00     0.057 A 
HETATM   10  C18 UNL     1      38.597  71.575  19.144  1.00  0.00     0.028 A 
BRANCH   9  11
HETATM   11  C7  UNL     1      39.586  71.487  21.385  1.00  0.00     0.316 C 
HETATM   12  O1  UNL     1      39.992  72.512  22.016  1.00  0.00    -0.257 OA
BRANCH  11  13
HETATM   13  O2  UNL     1      40.316  70.324  21.591  1.00  0.00    -0.192 OA
BRANCH  13  14
HETATM   14  N3  UNL     1      39.956  69.099  21.088  1.00  0.00    -0.228 N 
HETATM   15  C8  UNL     1      40.832  68.343  20.527  1.00  0.00     0.227 C 
HETATM   16  N4  UNL     1      42.170  68.777  20.429  1.00  0.00    -0.060 NA
HETATM   17  N5  UNL     1      40.433  67.080  20.009  1.00  0.00    -0.272 N 
ATOM     18  H5  UNL     1      39.835  66.501  20.598  1.00  0.00     0.189 HD
ATOM     19  H3  UNL     1      38.989  68.786  21.160  1.00  0.00     0.198 HD
BRANCH  17  20
HETATM   20  N6  UNL     1      40.782  66.581  18.798  1.00  0.00    -0.308 N 
HETATM   21  C9  UNL     1      40.326  65.773  17.998  1.00  0.00     0.126 C 
ATOM     22  H6  UNL     1      41.658  66.985  18.465  1.00  0.00     0.186 HD
BRANCH  21  23
HETATM   23  C10 UNL     1      39.084  65.009  18.161  1.00  0.00     0.026 A 
HETATM   24  C11 UNL     1      38.414  64.655  19.292  1.00  0.00     0.059 A 
HETATM   25  C12 UNL     1      37.278  63.940  19.163  1.00  0.00     0.138 A 
HETATM   26  C13 UNL     1      36.878  63.616  17.905  1.00  0.00     0.110 A 
HETATM   27  S1  UNL     1      38.111  64.329  16.921  1.00  0.00    -0.069 SA
BRANCH  25  28
HETATM   28  N7  UNL     1      36.501  63.513  20.317  1.00  0.00    -0.113 N 
HETATM   29  O3  UNL     1      36.716  62.377  20.765  1.00  0.00    -0.532 OA
HETATM   30  O4  UNL     1      35.565  64.311  20.891  1.00  0.00    -0.532 OA
ENDBRANCH  25  28
BRANCH  26  31
HETATM   31  N8  UNL     1      35.744  62.862  17.425  1.00  0.00    -0.330 N 
ATOM     32  H8  UNL     1      35.870  62.106  16.752  1.00  0.00     0.168 HD
BRANCH  31  33
HETATM   33  C14 UNL     1      34.441  63.197  17.910  1.00  0.00     0.172 C 
HETATM   34  N9  UNL     1      33.907  62.472  18.801  1.00  0.00    -0.350 N 
HETATM   35  C15 UNL     1      32.603  62.749  19.330  1.00  0.00     0.215 C 
ATOM     36  H9  UNL     1      34.420  61.665  19.154  1.00  0.00     0.163 HD
HETATM   37  C16 UNL     1      32.286  64.203  19.243  1.00  0.00     0.167 C 
HETATM   38  N12 UNL     1      32.507  64.675  17.904  1.00  0.00    -0.351 N 
HETATM   39  C17 UNL     1      33.807  64.385  17.352  1.00  0.00     0.285 C 
ATOM     40  H12 UNL     1      31.793  65.181  17.380  1.00  0.00     0.162 HD
HETATM   41  O5  UNL     1      34.311  65.116  16.471  1.00  0.00    -0.264 OA
BRANCH  35  42
HETATM   42  N10 UNL     1      32.450  62.280  20.696  1.00  0.00    -0.121 NA
BRANCH  42  43
HETATM   43  N11 UNL     1      32.172  60.928  20.694  1.00  0.00    -0.346 N 
ATOM     44 2H11 UNL     1      32.829  60.206  20.399  1.00  0.00     0.172 HD
ATOM     45 1H11 UNL     1      31.221  60.774  21.028  1.00  0.00     0.172 HD
ENDBRANCH  42  43
ENDBRANCH  35  42
ENDBRANCH  31  33
ENDBRANCH  26  31
ENDBRANCH  21  23
ENDBRANCH  17  20
ENDBRANCH  13  14
ENDBRANCH  11  13
ENDBRANCH   9  11
ENDBRANCH   3   4
TORSDOF 11
ENDMDL
MODEL 2
REMARK VINA RESULT: -7.413810682      3.098      4.984
REMARK  11 active torsions:
REMARK  status: ('A' for Active; 'I' for Inactive)
REMARK    1  A    between atoms: C2_3  and  C3_4 
REMARK    2  A    between atoms: C6_9  and  C7_10 
REMARK    3  A    between atoms: C7_10  and  O2_12 
REMARK    4  A    between atoms: O2_12  and  N3_13 
REMARK       I    between atoms: C8_15  and  N5_17 
REMARK    5  A    between atoms: N5_17  and  N6_19 
REMARK    6  A    between atoms: C9_21  and  C10_22 
REMARK    7  A    between atoms: C12_24  and  N7_25 
REMARK    8  A    between atoms: C13_28  and  N8_29 
REMARK    9  A    between atoms: N8_29  and  C14_31 
REMARK   10  A    between atoms: C15_34  and  N10_35 
REMARK   11  A    between atoms: N10_35  and  N11_36 
ROOT
HETATM    1  N1  UNL     1      39.599  71.636  20.695  1.00  0.00    -0.197 NA
HETATM    2  C1  UNL     1      40.355  70.895  21.183  1.00  0.00     0.063 C 
HETATM    3  C2  UNL     1      41.301  69.957  21.822  1.00  0.00     0.163 C 
ENDROOT
BRANCH   3   4
HETATM    4  C3  UNL     1      41.748  68.950  20.844  1.00  0.00    -0.029 A 
HETATM    5  C4  UNL     1      43.081  68.856  20.531  1.00  0.00     0.095 A 
HETATM    6  N2  UNL     1      43.495  67.950  19.649  1.00  0.00    -0.374 N 
HETATM    7  C5  UNL     1      42.674  67.086  19.014  1.00  0.00     0.105 A 
ATOM      8  H2  UNL     1      44.493  67.907  19.439  1.00  0.00     0.164 HD
HETATM    9  C6  UNL     1      41.336  67.175  19.324  1.00  0.00     0.057 A 
HETATM   10  C18 UNL     1      40.866  68.095  20.228  1.00  0.00     0.028 A 
BRANCH   9  11
HETATM   11  C7  UNL     1      40.415  66.263  18.662  1.00  0.00     0.316 C 
HETATM   12  O1  UNL     1      39.222  66.603  18.386  1.00  0.00    -0.257 OA
BRANCH  11  13
HETATM   13  O2  UNL     1      40.775  64.975  18.291  1.00  0.00    -0.192 OA
BRANCH  13  14
HETATM   14  N3  UNL     1      39.987  63.872  18.505  1.00  0.00    -0.228 N 
HETATM   15  C8  UNL     1      39.953  62.919  17.643  1.00  0.00     0.227 C 
HETATM   16  N4  UNL     1      40.732  63.009  16.472  1.00  0.00    -0.060 NA
HETATM   17  N5  UNL     1      39.124  61.788  17.885  1.00  0.00    -0.272 N 
ATOM     18  H5  UNL     1      39.152  61.380  18.820  1.00  0.00     0.189 HD
ATOM     19  H3  UNL     1      39.424  63.808  19.353  1.00  0.00     0.198 HD
BRANCH  17  20
HETATM   20  N6  UNL     1      38.301  61.208  16.979  1.00  0.00    -0.308 N 
HETATM   21  C9  UNL     1      37.122  61.297  16.655  1.00  0.00     0.126 C 
ATOM     22  H6  UNL     1      38.793  60.513  16.418  1.00  0.00     0.186 HD
BRANCH  21  23
HETATM   23  C10 UNL     1      36.132  62.196  17.255  1.00  0.00     0.026 A 
HETATM   24  C11 UNL     1      35.761  62.352  18.556  1.00  0.00     0.059 A 
HETATM   25  C12 UNL     1      34.810  63.262  18.844  1.00  0.00     0.138 A 
HETATM   26  C13 UNL     1      34.278  63.966  17.810  1.00  0.00     0.110 A 
HETATM   27  S1  UNL     1      35.133  63.333  16.444  1.00  0.00    -0.069 SA
BRANCH  25  28
HETATM   28  N7  UNL     1      34.348  63.491  20.205  1.00  0.00    -0.113 N 
HETATM   29  O3  UNL     1      34.262  62.507  20.955  1.00  0.00    -0.532 OA
HETATM   30  O4  UNL     1      34.013  64.727  20.654  1.00  0.00    -0.532 OA
ENDBRANCH  25  28
BRANCH  26  31
HETATM   31  N8  UNL     1      33.253  64.981  17.769  1.00  0.00    -0.330 N 
ATOM     32  H8  UNL     1      33.501  65.967  17.693  1.00  0.00     0.168 HD
BRANCH  31  33
HETATM   33  C14 UNL     1      31.883  64.577  17.837  1.00  0.00     0.172 C 
HETATM   34  N9  UNL     1      31.334  64.436  18.970  1.00  0.00    -0.350 N 
HETATM   35  C15 UNL     1      29.966  64.032  19.111  1.00  0.00     0.215 C 
ATOM     36  H9  UNL     1      31.884  64.616  19.810  1.00  0.00     0.163 HD
HETATM   37  C16 UNL     1      29.161  64.436  17.924  1.00  0.00     0.167 C 
HETATM   38  N12 UNL     1      29.803  63.986  16.719  1.00  0.00    -0.351 N 
HETATM   39  C17 UNL     1      31.186  64.369  16.574  1.00  0.00     0.285 C 
ATOM     40  H12 UNL     1      29.314  63.435  16.014  1.00  0.00     0.162 HD
HETATM   41  O5  UNL     1      31.704  64.498  15.444  1.00  0.00    -0.264 OA
BRANCH  35  42
HETATM   42  N10 UNL     1      29.361  64.544  20.329  1.00  0.00    -0.121 NA
BRANCH  42  43
HETATM   43  N11 UNL     1      29.001  65.864  20.149  1.00  0.00    -0.346 N 
ATOM     44 2H11 UNL     1      28.323  66.187  19.459  1.00  0.00     0.172 HD
ATOM     45 1H11 UNL     1      29.515  66.451  20.806  1.00  0.00     0.172 HD
ENDBRANCH  42  43
ENDBRANCH  35  42
ENDBRANCH  31  33
ENDBRANCH  26  31
ENDBRANCH  21  23
ENDBRANCH  17  20
ENDBRANCH  13  14
ENDBRANCH  11  13
ENDBRANCH   9  11
ENDBRANCH   3   4
TORSDOF 11
ENDMDL
MODEL 3
REMARK VINA RESULT: -7.197464855      5.047      9.677
REMARK  11 active torsions:
REMARK  status: ('A' for Active; 'I' for Inactive)
REMARK    1  A    between atoms: C2_3  and  C3_4 
REMARK    2  A    between atoms: C6_9  and  C7_10 
REMARK    3  A    between atoms: C7_10  and  O2_12 
REMARK    4  A    between atoms: O2_12  and  N3_13 
REMARK       I    between atoms: C8_15  and  N5_17 
REMARK    5  A    between atoms: N5_17  and  N6_19 
REMARK    6  A    between atoms: C9_21  and  C10_22 
REMARK    7  A    between atoms: C12_24  and  N7_25 
REMARK    8  A    between atoms: C13_28  and  N8_29 
REMARK    9  A    between atoms: N8_29  and  C14_31 
REMARK   10  A    between atoms: C15_34  and  N10_35 
REMARK   11  A    between atoms: N10_35  and  N11_36 
ROOT
HETATM    1  N1  UNL     1      33.557  56.462  14.277  1.00  0.00    -0.197 NA
HETATM    2  C1  UNL     1      34.202  55.859  15.039  1.00  0.00     0.063 C 
HETATM    3  C2  UNL     1      35.005  55.075  15.999  1.00  0.00     0.163 C 
ENDROOT
BRANCH   3   4
HETATM    4  C3  UNL     1      36.408  55.528  15.968  1.00  0.00    -0.029 A 
HETATM    5  C4  UNL     1      37.417  54.612  16.123  1.00  0.00     0.095 A 
HETATM    6  N2  UNL     1      38.687  55.010  16.098  1.00  0.00    -0.374 N 
HETATM    7  C5  UNL     1      39.070  56.293  15.927  1.00  0.00     0.105 A 
ATOM      8  H2  UNL     1      39.413  54.303  16.215  1.00  0.00     0.164 HD
HETATM    9  C6  UNL     1      38.062  57.217  15.771  1.00  0.00     0.057 A 
HETATM   10  C18 UNL     1      36.740  56.849  15.791  1.00  0.00     0.028 A 
BRANCH   9  11
HETATM   11  C7  UNL     1      38.431  58.612  15.586  1.00  0.00     0.316 C 
HETATM   12  O1  UNL     1      39.060  59.005  14.554  1.00  0.00    -0.257 OA
BRANCH  11  13
HETATM   13  O2  UNL     1      38.123  59.597  16.515  1.00  0.00    -0.192 OA
BRANCH  13  14
HETATM   14  N3  UNL     1      38.420  60.926  16.343  1.00  0.00    -0.228 N 
HETATM   15  C8  UNL     1      39.316  61.492  17.070  1.00  0.00     0.227 C 
HETATM   16  N4  UNL     1      39.999  60.740  18.048  1.00  0.00    -0.060 NA
HETATM   17  N5  UNL     1      39.602  62.872  16.877  1.00  0.00    -0.272 N 
ATOM     18  H5  UNL     1      39.711  63.196  15.916  1.00  0.00     0.189 HD
ATOM     19  H3  UNL     1      37.926  61.468  15.635  1.00  0.00     0.198 HD
BRANCH  17  20
HETATM   20  N6  UNL     1      39.742  63.791  17.862  1.00  0.00    -0.308 N 
HETATM   21  C9  UNL     1      39.012  64.363  18.664  1.00  0.00     0.126 C 
ATOM     22  H6  UNL     1      40.713  64.086  17.964  1.00  0.00     0.186 HD
BRANCH  21  23
HETATM   23  C10 UNL     1      37.563  64.175  18.791  1.00  0.00     0.026 A 
HETATM   24  C11 UNL     1      36.800  63.944  19.895  1.00  0.00     0.059 A 
HETATM   25  C12 UNL     1      35.469  63.806  19.734  1.00  0.00     0.138 A 
HETATM   26  C13 UNL     1      34.974  63.903  18.472  1.00  0.00     0.110 A 
HETATM   27  S1  UNL     1      36.398  64.192  17.529  1.00  0.00    -0.069 SA
BRANCH  25  28
HETATM   28  N7  UNL     1      34.579  63.550  20.857  1.00  0.00    -0.113 N 
HETATM   29  O3  UNL     1      34.527  64.405  21.753  1.00  0.00    -0.532 OA
HETATM   30  O4  UNL     1      33.832  62.420  20.941  1.00  0.00    -0.532 OA
ENDBRANCH  25  28
BRANCH  26  31
HETATM   31  N8  UNL     1      33.630  63.791  17.959  1.00  0.00    -0.330 N 
ATOM     32  H8  UNL     1      32.842  64.180  18.476  1.00  0.00     0.168 HD
BRANCH  31  33
HETATM   33  C14 UNL     1      33.424  63.124  16.711  1.00  0.00     0.172 C 
HETATM   34  N9  UNL     1      34.065  62.059  16.464  1.00  0.00    -0.350 N 
HETATM   35  C15 UNL     1      33.909  61.342  15.234  1.00  0.00     0.215 C 
ATOM     36  H9  UNL     1      34.714  61.701  17.165  1.00  0.00     0.163 HD
HETATM   37  C16 UNL     1      32.557  61.565  14.649  1.00  0.00     0.167 C 
HETATM   38  N12 UNL     1      32.284  62.974  14.566  1.00  0.00    -0.351 N 
HETATM   39  C17 UNL     1      32.458  63.712  15.792  1.00  0.00     0.285 C 
ATOM     40  H12 UNL     1      31.988  63.421  13.698  1.00  0.00     0.162 HD
HETATM   41  O5  UNL     1      31.814  64.762  16.009  1.00  0.00    -0.264 OA
BRANCH  35  42
HETATM   42  N10 UNL     1      34.164  59.919  15.387  1.00  0.00    -0.121 NA
BRANCH  42  43
HETATM   43  N11 UNL     1      34.833  59.693  16.572  1.00  0.00    -0.346 N 
ATOM     44 2H11 UNL     1      34.391  59.692  17.492  1.00  0.00     0.172 HD
ATOM     45 1H11 UNL     1      35.822  59.530  16.381  1.00  0.00     0.172 HD
ENDBRANCH  42  43
ENDBRANCH  35  42
ENDBRANCH  31  33
ENDBRANCH  26  31
ENDBRANCH  21  23
ENDBRANCH  17  20
ENDBRANCH  13  14
ENDBRANCH  11  13
ENDBRANCH   9  11
ENDBRANCH   3   4
TORSDOF 11
ENDMDL
MODEL 4
REMARK VINA RESULT: -7.189835088      5.042      8.851
REMARK  11 active torsions:
REMARK  status: ('A' for Active; 'I' for Inactive)
REMARK    1  A    between atoms: C2_3  and  C3_4 
REMARK    2  A    between atoms: C6_9  and  C7_10 
REMARK    3  A    between atoms: C7_10  and  O2_12 
REMARK    4  A    between atoms: O2_12  and  N3_13 
REMARK       I    between atoms: C8_15  and  N5_17 
REMARK    5  A    between atoms: N5_17  and  N6_19 
REMARK    6  A    between atoms: C9_21  and  C10_22 
REMARK    7  A    between atoms: C12_24  and  N7_25 
REMARK    8  A    between atoms: C13_28  and  N8_29 
REMARK    9  A    between atoms: N8_29  and  C14_31 
REMARK   10  A    between atoms: C15_34  and  N10_35 
REMARK   11  A    between atoms: N10_35  and  N11_36 
ROOT
HETATM    1  N1  UNL     1      34.581  60.662  15.471  1.00  0.00    -0.197 NA
HETATM    2  C1  UNL     1      34.665  59.512  15.296  1.00  0.00     0.063 C 
HETATM    3  C2  UNL     1      34.761  58.059  15.052  1.00  0.00     0.163 C 
ENDROOT
BRANCH   3   4
HETATM    4  C3  UNL     1      36.029  57.540  15.598  1.00  0.00    -0.029 A 
HETATM    5  C4  UNL     1      36.127  56.213  15.932  1.00  0.00     0.095 A 
HETATM    6  N2  UNL     1      37.266  55.735  16.427  1.00  0.00    -0.374 N 
HETATM    7  C5  UNL     1      38.371  56.483  16.632  1.00  0.00     0.105 A 
ATOM      8  H2  UNL     1      37.306  54.743  16.665  1.00  0.00     0.164 HD
HETATM    9  C6  UNL     1      38.279  57.814  16.298  1.00  0.00     0.057 A 
HETATM   10  C18 UNL     1      37.123  58.349  15.786  1.00  0.00     0.028 A 
BRANCH   9  11
HETATM   11  C7  UNL     1      39.446  58.658  16.505  1.00  0.00     0.316 C 
HETATM   12  O1  UNL     1      40.226  58.487  17.493  1.00  0.00    -0.257 OA
BRANCH  11  13
HETATM   13  O2  UNL     1      39.781  59.695  15.646  1.00  0.00    -0.192 OA
BRANCH  13  14
HETATM   14  N3  UNL     1      39.300  60.975  15.771  1.00  0.00    -0.228 N 
HETATM   15  C8  UNL     1      40.039  61.903  16.266  1.00  0.00     0.227 C 
HETATM   16  N4  UNL     1      41.352  61.603  16.682  1.00  0.00    -0.060 NA
HETATM   17  N5  UNL     1      39.515  63.220  16.389  1.00  0.00    -0.272 N 
ATOM     18  H5  UNL     1      39.011  63.599  15.588  1.00  0.00     0.189 HD
ATOM     19  H3  UNL     1      38.350  61.190  15.468  1.00  0.00     0.198 HD
BRANCH  17  20
HETATM   20  N6  UNL     1      39.630  64.012  17.482  1.00  0.00    -0.308 N 
HETATM   21  C9  UNL     1      38.924  64.341  18.428  1.00  0.00     0.126 C 
ATOM     22  H6  UNL     1      40.549  64.453  17.529  1.00  0.00     0.186 HD
BRANCH  21  23
HETATM   23  C10 UNL     1      37.548  63.893  18.669  1.00  0.00     0.026 A 
HETATM   24  C11 UNL     1      36.800  63.923  19.807  1.00  0.00     0.059 A 
HETATM   25  C12 UNL     1      35.543  63.439  19.757  1.00  0.00     0.138 A 
HETATM   26  C13 UNL     1      35.104  62.947  18.569  1.00  0.00     0.110 A 
HETATM   27  S1  UNL     1      36.474  63.178  17.535  1.00  0.00    -0.069 SA
BRANCH  25  28
HETATM   28  N7  UNL     1      34.676  63.426  20.926  1.00  0.00    -0.113 N 
HETATM   29  O3  UNL     1      34.058  62.380  21.170  1.00  0.00    -0.532 OA
HETATM   30  O4  UNL     1      34.531  64.512  21.727  1.00  0.00    -0.532 OA
ENDBRANCH  25  28
BRANCH  26  31
HETATM   31  N8  UNL     1      33.846  62.353  18.184  1.00  0.00    -0.330 N 
ATOM     32  H8  UNL     1      33.624  61.392  18.443  1.00  0.00     0.168 HD
BRANCH  31  33
HETATM   33  C14 UNL     1      32.917  63.138  17.432  1.00  0.00     0.172 C 
HETATM   34  N9  UNL     1      32.980  63.130  16.167  1.00  0.00    -0.350 N 
HETATM   35  C15 UNL     1      32.081  63.894  15.353  1.00  0.00     0.215 C 
ATOM     36  H9  UNL     1      33.693  62.560  15.713  1.00  0.00     0.163 HD
HETATM   37  C16 UNL     1      30.781  64.112  16.047  1.00  0.00     0.167 C 
HETATM   38  N12 UNL     1      31.008  64.647  17.362  1.00  0.00    -0.351 N 
HETATM   39  C17 UNL     1      31.926  63.898  18.184  1.00  0.00     0.285 C 
ATOM     40  H12 UNL     1      30.551  65.497  17.690  1.00  0.00     0.162 HD
HETATM   41  O5  UNL     1      31.844  63.926  19.431  1.00  0.00    -0.264 OA
BRANCH  35  42
HETATM   42  N10 UNL     1      31.864  63.288  14.051  1.00  0.00    -0.121 NA
BRANCH  42  43
HETATM   43  N11 UNL     1      31.971  61.917  14.153  1.00  0.00    -0.346 N 
ATOM     44 2H11 UNL     1      32.820  61.388  13.951  1.00  0.00     0.172 HD
ATOM     45 1H11 UNL     1      31.079  61.526  14.458  1.00  0.00     0.172 HD
ENDBRANCH  42  43
ENDBRANCH  35  42
ENDBRANCH  31  33
ENDBRANCH  26  31
ENDBRANCH  21  23
ENDBRANCH  17  20
ENDBRANCH  13  14
ENDBRANCH  11  13
ENDBRANCH   9  11
ENDBRANCH   3   4
TORSDOF 11
ENDMDL
MODEL 5
REMARK VINA RESULT: -7.097828891      5.790      9.478
REMARK  11 active torsions:
REMARK  status: ('A' for Active; 'I' for Inactive)
REMARK    1  A    between atoms: C2_3  and  C3_4 
REMARK    2  A    between atoms: C6_9  and  C7_10 
REMARK    3  A    between atoms: C7_10  and  O2_12 
REMARK    4  A    between atoms: O2_12  and  N3_13 
REMARK       I    between atoms: C8_15  and  N5_17 
REMARK    5  A    between atoms: N5_17  and  N6_19 
REMARK    6  A    between atoms: C9_21  and  C10_22 
REMARK    7  A    between atoms: C12_24  and  N7_25 
REMARK    8  A    between atoms: C13_28  and  N8_29 
REMARK    9  A    between atoms: N8_29  and  C14_31 
REMARK   10  A    between atoms: C15_34  and  N10_35 
REMARK   11  A    between atoms: N10_35  and  N11_36 
ROOT
HETATM    1  N1  UNL     1      33.484  56.134  14.469  1.00  0.00    -0.197 NA
HETATM    2  C1  UNL     1      34.268  55.808  15.268  1.00  0.00     0.063 C 
HETATM    3  C2  UNL     1      35.256  55.372  16.276  1.00  0.00     0.163 C 
ENDROOT
BRANCH   3   4
HETATM    4  C3  UNL     1      36.437  56.253  16.237  1.00  0.00    -0.029 A 
HETATM    5  C4  UNL     1      37.649  55.777  16.669  1.00  0.00     0.095 A 
HETATM    6  N2  UNL     1      38.721  56.564  16.639  1.00  0.00    -0.374 N 
HETATM    7  C5  UNL     1      38.706  57.842  16.202  1.00  0.00     0.105 A 
ATOM      8  H2  UNL     1      39.608  56.179  16.966  1.00  0.00     0.164 HD
HETATM    9  C6  UNL     1      37.493  58.325  15.768  1.00  0.00     0.057 A 
HETATM   10  C18 UNL     1      36.362  57.547  15.782  1.00  0.00     0.028 A 
BRANCH   9  11
HETATM   11  C7  UNL     1      37.430  59.698  15.289  1.00  0.00     0.316 C 
HETATM   12  O1  UNL     1      36.436  60.129  14.627  1.00  0.00    -0.257 OA
BRANCH  11  13
HETATM   13  O2  UNL     1      38.443  60.618  15.523  1.00  0.00    -0.192 OA
BRANCH  13  14
HETATM   14  N3  UNL     1      38.255  61.807  16.182  1.00  0.00    -0.228 N 
HETATM   15  C8  UNL     1      38.848  62.033  17.300  1.00  0.00     0.227 C 
HETATM   16  N4  UNL     1      39.697  61.051  17.851  1.00  0.00    -0.060 NA
HETATM   17  N5  UNL     1      38.633  63.271  17.966  1.00  0.00    -0.272 N 
ATOM     18  H5  UNL     1      38.674  64.119  17.400  1.00  0.00     0.189 HD
ATOM     19  H3  UNL     1      37.642  62.517  15.782  1.00  0.00     0.198 HD
BRANCH  17  20
HETATM   20  N6  UNL     1      38.380  63.419  19.289  1.00  0.00    -0.308 N 
HETATM   21  C9  UNL     1      37.390  63.477  20.009  1.00  0.00     0.126 C 
ATOM     22  H6  UNL     1      39.241  63.506  19.828  1.00  0.00     0.186 HD
BRANCH  21  23
HETATM   23  C10 UNL     1      35.996  63.387  19.562  1.00  0.00     0.026 A 
HETATM   24  C11 UNL     1      34.906  62.855  20.184  1.00  0.00     0.059 A 
HETATM   25  C12 UNL     1      33.721  62.901  19.543  1.00  0.00     0.138 A 
HETATM   26  C13 UNL     1      33.692  63.475  18.312  1.00  0.00     0.110 A 
HETATM   27  S1  UNL     1      35.342  63.945  18.076  1.00  0.00    -0.069 SA
BRANCH  25  28
HETATM   28  N7  UNL     1      32.507  62.352  20.129  1.00  0.00    -0.113 N 
HETATM   29  O3  UNL     1      32.630  61.418  20.935  1.00  0.00    -0.532 OA
HETATM   30  O4  UNL     1      31.276  62.826  19.811  1.00  0.00    -0.532 OA
ENDBRANCH  25  28
BRANCH  26  31
HETATM   31  N8  UNL     1      32.616  63.668  17.370  1.00  0.00    -0.330 N 
ATOM     32  H8  UNL     1      31.731  64.078  17.668  1.00  0.00     0.168 HD
BRANCH  31  33
HETATM   33  C14 UNL     1      32.815  63.274  16.009  1.00  0.00     0.172 C 
HETATM   34  N9  UNL     1      32.986  62.049  15.738  1.00  0.00    -0.350 N 
HETATM   35  C15 UNL     1      33.192  61.586  14.397  1.00  0.00     0.215 C 
ATOM     36  H9  UNL     1      32.976  61.369  16.498  1.00  0.00     0.163 HD
HETATM   37  C16 UNL     1      32.554  62.500  13.408  1.00  0.00     0.167 C 
HETATM   38  N12 UNL     1      32.971  63.854  13.651  1.00  0.00    -0.351 N 
HETATM   39  C17 UNL     1      32.787  64.326  15.000  1.00  0.00     0.285 C 
ATOM     40  H12 UNL     1      33.369  64.441  12.917  1.00  0.00     0.162 HD
HETATM   41  O5  UNL     1      32.624  65.542  15.241  1.00  0.00    -0.264 OA
BRANCH  35  42
HETATM   42  N10 UNL     1      32.721  60.225  14.204  1.00  0.00    -0.121 NA
BRANCH  42  43
HETATM   43  N11 UNL     1      33.486  59.358  14.956  1.00  0.00    -0.346 N 
ATOM     44 2H11 UNL     1      34.395  59.591  15.356  1.00  0.00     0.172 HD
ATOM     45 1H11 UNL     1      33.004  58.463  15.044  1.00  0.00     0.172 HD
ENDBRANCH  42  43
ENDBRANCH  35  42
ENDBRANCH  31  33
ENDBRANCH  26  31
ENDBRANCH  21  23
ENDBRANCH  17  20
ENDBRANCH  13  14
ENDBRANCH  11  13
ENDBRANCH   9  11
ENDBRANCH   3   4
TORSDOF 11
ENDMDL
