MODEL 1
REMARK VINA RESULT: -7.387732319      0.000      0.000
REMARK  11 active torsions:
REMARK  status: ('A' for Active; 'I' for Inactive)
REMARK    1  A    between atoms: N1_2  and  C2_4 
REMARK    2  A    between atoms: C3_5  and  N2_6 
REMARK    3  A    between atoms: N2_6  and  C4_8 
REMARK    4  A    between atoms: C7_14  and  S1_15 
REMARK    5  A    between atoms: S1_15  and  C8_16 
REMARK    6  A    between atoms: C8_16  and  C9_17 
REMARK    7  A    between atoms: C9_17  and  C10_19 
REMARK    8  A    between atoms: C11_20  and  O3_21 
REMARK    9  A    between atoms: N4_23  and  C12_24 
REMARK   10  A    between atoms: N5_29  and  O5_30 
REMARK   11  A    between atoms: C17_38  and  N8_39 
ROOT
HETATM    1  C4  UNL     1      38.771  65.384  19.023  1.00  0.00     0.114 A 
HETATM    2  C5  UNL     1      38.476  64.446  19.962  1.00  0.00     0.123 A 
HETATM    3  C6  UNL     1      37.735  63.305  19.590  1.00  0.00     0.250 A 
HETATM    4  O1  UNL     1      37.493  62.472  20.497  1.00  0.00    -0.268 OA
HETATM    5  N3  UNL     1      37.330  63.157  18.329  1.00  0.00    -0.304 N 
ATOM      6  H3  UNL     1      36.794  62.328  18.072  1.00  0.00     0.171 HD
HETATM    7  C7  UNL     1      37.609  64.072  17.387  1.00  0.00     0.148 A 
HETATM    8  N6  UNL     1      38.308  65.148  17.735  1.00  0.00    -0.323 N 
ATOM      9  H6  UNL     1      38.517  65.840  17.015  1.00  0.00     0.169 HD
ENDROOT
BRANCH   7  10
HETATM   10  S1  UNL     1      37.053  63.851  15.679  1.00  0.00    -0.086 SA
BRANCH  10  11
HETATM   11  C8  UNL     1      35.342  64.548  15.598  1.00  0.00     0.166 C 
BRANCH  11  12
HETATM   12  C9  UNL     1      34.360  63.466  15.783  1.00  0.00     0.179 C 
HETATM   13  O2  UNL     1      34.325  62.512  14.951  1.00  0.00    -0.291 OA
BRANCH  12  14
HETATM   14  C10 UNL     1      33.436  63.461  16.885  1.00  0.00     0.132 A 
HETATM   15  C11 UNL     1      32.280  64.208  16.876  1.00  0.00     0.166 A 
HETATM   16  N4  UNL     1      31.476  64.144  17.968  1.00  0.00    -0.272 N 
HETATM   17  C15 UNL     1      31.762  63.396  19.026  1.00  0.00     0.358 A 
HETATM   18  O4  UNL     1      30.965  63.389  20.007  1.00  0.00    -0.244 OA
HETATM   19  N5  UNL     1      32.886  62.678  19.021  1.00  0.00    -0.133 N 
HETATM   20  C16 UNL     1      33.729  62.676  18.007  1.00  0.00     0.294 A 
HETATM   21  O6  UNL     1      34.803  61.987  18.003  1.00  0.00    -0.264 OA
BRANCH  15  22
HETATM   22  O3  UNL     1      31.922  65.010  15.800  1.00  0.00    -0.345 OA
ATOM     23  H3  UNL     1      31.373  64.694  15.092  1.00  0.00     0.219 HD
ENDBRANCH  15  22
BRANCH  16  24
HETATM   24  C12 UNL     1      30.259  64.958  17.915  1.00  0.00     0.097 A 
HETATM   25  C13 UNL     1      29.066  64.251  17.346  1.00  0.00     0.028 A 
HETATM   26  C14 UNL     1      29.108  64.661  18.782  1.00  0.00     0.028 A 
ENDBRANCH  16  24
BRANCH  19  27
HETATM   27  O5  UNL     1      33.160  61.912  20.131  1.00  0.00    -0.276 OA
ATOM     28  H5  UNL     1      33.031  62.309  20.984  1.00  0.00     0.245 HD
ENDBRANCH  19  27
ENDBRANCH  12  14
ENDBRANCH  11  12
ENDBRANCH  10  11
ENDBRANCH   7  10
BRANCH   1  29
HETATM   29  N2  UNL     1      39.496  66.559  19.246  1.00  0.00    -0.326 N 
ATOM     30  H2  UNL     1      38.887  67.338  19.499  1.00  0.00     0.169 HD
BRANCH  29  31
HETATM   31  C3  UNL     1      40.830  66.938  19.210  1.00  0.00     0.154 A 
HETATM   32  C2  UNL     1      41.248  67.992  20.075  1.00  0.00     0.142 A 
HETATM   33  C18 UNL     1      42.546  68.434  20.114  1.00  0.00     0.289 A 
HETATM   34  N9  UNL     1      43.455  67.867  19.323  1.00  0.00    -0.154 N 
HETATM   35  O7  UNL     1      42.830  69.380  20.917  1.00  0.00    -0.265 OA
HETATM   36  C17 UNL     1      43.072  66.886  18.516  1.00  0.00     0.680 A 
ATOM     37  H9  UNL     1      44.425  68.181  19.336  1.00  0.00     0.187 HD
HETATM   38  N7  UNL     1      41.783  66.416  18.447  1.00  0.00    -0.174 N 
ATOM     39  H7  UNL     1      41.556  65.658  17.804  1.00  0.00     0.186 HD
BRANCH  32  40
HETATM   40  N1  UNL     1      40.248  68.576  20.902  1.00  0.00    -0.387 N 
HETATM   41  C1  UNL     1      40.278  68.273  22.325  1.00  0.00     0.146 C 
ATOM     42  H1  UNL     1      39.532  69.188  20.510  1.00  0.00     0.159 HD
ENDBRANCH  32  40
BRANCH  36  43
HETATM   43  N8  UNL     1      43.950  66.348  17.761  1.00  0.00    -0.234 N 
ATOM     44  H82 UNL     1      43.633  65.701  17.038  1.00  0.00     0.174 HD
ATOM     45  H81 UNL     1      44.929  66.588  17.914  1.00  0.00     0.174 HD
ENDBRANCH  36  43
ENDBRANCH  29  31
ENDBRANCH   1  29
TORSDOF 11
ENDMDL
MODEL 2
REMARK VINA RESULT: -7.182245177      2.799      4.302
REMARK  11 active torsions:
REMARK  status: ('A' for Active; 'I' for Inactive)
REMARK    1  A    between atoms: N1_2  and  C2_4 
REMARK    2  A    between atoms: C3_5  and  N2_6 
REMARK    3  A    between atoms: N2_6  and  C4_8 
REMARK    4  A    between atoms: C7_14  and  S1_15 
REMARK    5  A    between atoms: S1_15  and  C8_16 
REMARK    6  A    between atoms: C8_16  and  C9_17 
REMARK    7  A    between atoms: C9_17  and  C10_19 
REMARK    8  A    between atoms: C11_20  and  O3_21 
REMARK    9  A    between atoms: N4_23  and  C12_24 
REMARK   10  A    between atoms: N5_29  and  O5_30 
REMARK   11  A    between atoms: C17_38  and  N8_39 
ROOT
HETATM    1  C4  UNL     1      42.465  65.284  16.255  1.00  0.00     0.114 A 
HETATM    2  C5  UNL     1      43.602  64.660  15.849  1.00  0.00     0.123 A 
HETATM    3  C6  UNL     1      43.538  63.318  15.418  1.00  0.00     0.250 A 
HETATM    4  O1  UNL     1      44.618  62.793  15.054  1.00  0.00    -0.268 OA
HETATM    5  N3  UNL     1      42.369  62.676  15.414  1.00  0.00    -0.304 N 
ATOM      6  H3  UNL     1      42.336  61.706  15.101  1.00  0.00     0.171 HD
HETATM    7  C7  UNL     1      41.236  63.273  15.813  1.00  0.00     0.148 A 
HETATM    8  N6  UNL     1      41.293  64.539  16.219  1.00  0.00    -0.323 N 
ATOM      9  H6  UNL     1      40.428  64.987  16.521  1.00  0.00     0.169 HD
ENDROOT
BRANCH   7  10
HETATM   10  S1  UNL     1      39.658  62.386  15.797  1.00  0.00    -0.086 SA
BRANCH  10  11
HETATM   11  C8  UNL     1      39.280  61.974  17.560  1.00  0.00     0.166 C 
BRANCH  11  12
HETATM   12  C9  UNL     1      38.807  63.181  18.258  1.00  0.00     0.179 C 
HETATM   13  O2  UNL     1      39.654  64.016  18.695  1.00  0.00    -0.291 OA
BRANCH  12  14
HETATM   14  C10 UNL     1      37.408  63.443  18.458  1.00  0.00     0.132 A 
HETATM   15  C11 UNL     1      36.651  64.127  17.532  1.00  0.00     0.166 A 
HETATM   16  N4  UNL     1      35.339  64.333  17.815  1.00  0.00    -0.272 N 
HETATM   17  C15 UNL     1      34.772  63.905  18.935  1.00  0.00     0.358 A 
HETATM   18  O4  UNL     1      33.544  64.137  19.130  1.00  0.00    -0.244 OA
HETATM   19  N5  UNL     1      35.517  63.245  19.823  1.00  0.00    -0.133 N 
HETATM   20  C16 UNL     1      36.799  62.997  19.636  1.00  0.00     0.294 A 
HETATM   21  O6  UNL     1      37.511  62.364  20.486  1.00  0.00    -0.264 OA
BRANCH  15  22
HETATM   22  O3  UNL     1      37.184  64.599  16.340  1.00  0.00    -0.345 OA
ATOM     23  H3  UNL     1      37.788  65.332  16.309  1.00  0.00     0.219 HD
ENDBRANCH  15  22
BRANCH  16  24
HETATM   24  C12 UNL     1      34.574  65.066  16.804  1.00  0.00     0.097 A 
HETATM   25  C13 UNL     1      34.233  64.265  15.585  1.00  0.00     0.028 A 
HETATM   26  C14 UNL     1      33.169  64.732  16.523  1.00  0.00     0.028 A 
ENDBRANCH  16  24
BRANCH  19  27
HETATM   27  O5  UNL     1      34.905  62.813  20.977  1.00  0.00    -0.276 OA
ATOM     28  H5  UNL     1      35.123  61.945  21.294  1.00  0.00     0.245 HD
ENDBRANCH  19  27
ENDBRANCH  12  14
ENDBRANCH  11  12
ENDBRANCH  10  11
ENDBRANCH   7  10
BRANCH   1  29
HETATM   29  N2  UNL     1      42.377  66.605  16.705  1.00  0.00    -0.326 N 
ATOM     30  H2  UNL     1      41.800  67.178  16.088  1.00  0.00     0.169 HD
BRANCH  29  31
HETATM   31  C3  UNL     1      42.873  67.338  17.774  1.00  0.00     0.154 A 
HETATM   32  C2  UNL     1      42.043  67.487  18.924  1.00  0.00     0.142 A 
HETATM   33  C18 UNL     1      42.447  68.190  20.030  1.00  0.00     0.289 A 
HETATM   34  N9  UNL     1      43.652  68.756  20.043  1.00  0.00    -0.154 N 
HETATM   35  O7  UNL     1      41.640  68.271  21.012  1.00  0.00    -0.265 OA
HETATM   36  C17 UNL     1      44.429  68.620  18.976  1.00  0.00     0.680 A 
ATOM     37  H9  UNL     1      43.972  69.283  20.856  1.00  0.00     0.187 HD
HETATM   38  N7  UNL     1      44.061  67.925  17.850  1.00  0.00    -0.174 N 
ATOM     39  H7  UNL     1      44.708  67.861  17.064  1.00  0.00     0.186 HD
BRANCH  32  40
HETATM   40  N1  UNL     1      40.761  66.872  18.871  1.00  0.00    -0.387 N 
HETATM   41  C1  UNL     1      39.653  67.651  18.338  1.00  0.00     0.146 C 
ATOM     42  H1  UNL     1      40.622  65.916  19.198  1.00  0.00     0.159 HD
ENDBRANCH  32  40
BRANCH  36  43
HETATM   43  N8  UNL     1      45.583  69.165  18.997  1.00  0.00    -0.234 N 
ATOM     44  H82 UNL     1      46.124  69.184  18.131  1.00  0.00     0.174 HD
ATOM     45  H81 UNL     1      45.915  69.557  19.878  1.00  0.00     0.174 HD
ENDBRANCH  36  43
ENDBRANCH  29  31
ENDBRANCH   1  29
TORSDOF 11
ENDMDL
MODEL 3
REMARK VINA RESULT: -7.180399977      1.962      3.860
REMARK  11 active torsions:
REMARK  status: ('A' for Active; 'I' for Inactive)
REMARK    1  A    between atoms: N1_2  and  C2_4 
REMARK    2  A    between atoms: C3_5  and  N2_6 
REMARK    3  A    between atoms: N2_6  and  C4_8 
REMARK    4  A    between atoms: C7_14  and  S1_15 
REMARK    5  A    between atoms: S1_15  and  C8_16 
REMARK    6  A    between atoms: C8_16  and  C9_17 
REMARK    7  A    between atoms: C9_17  and  C10_19 
REMARK    8  A    between atoms: C11_20  and  O3_21 
REMARK    9  A    between atoms: N4_23  and  C12_24 
REMARK   10  A    between atoms: N5_29  and  O5_30 
REMARK   11  A    between atoms: C17_38  and  N8_39 
ROOT
HETATM    1  C4  UNL     1      39.684  65.455  18.280  1.00  0.00     0.114 A 
HETATM    2  C5  UNL     1      40.223  64.683  17.300  1.00  0.00     0.123 A 
HETATM    3  C6  UNL     1      39.832  63.333  17.189  1.00  0.00     0.250 A 
HETATM    4  O1  UNL     1      40.362  62.668  16.265  1.00  0.00    -0.268 OA
HETATM    5  N3  UNL     1      38.943  62.826  18.043  1.00  0.00    -0.304 N 
ATOM      6  H3  UNL     1      38.668  61.848  17.953  1.00  0.00     0.171 HD
HETATM    7  C7  UNL     1      38.399  63.570  19.018  1.00  0.00     0.148 A 
HETATM    8  N6  UNL     1      38.766  64.844  19.125  1.00  0.00    -0.323 N 
ATOM      9  H6  UNL     1      38.349  65.404  19.869  1.00  0.00     0.169 HD
ENDROOT
BRANCH   7  10
HETATM   10  S1  UNL     1      37.190  62.865  20.166  1.00  0.00    -0.086 SA
BRANCH  10  11
HETATM   11  C8  UNL     1      35.711  63.974  20.104  1.00  0.00     0.166 C 
BRANCH  11  12
HETATM   12  C9  UNL     1      34.495  63.163  19.924  1.00  0.00     0.179 C 
HETATM   13  O2  UNL     1      34.123  62.388  20.853  1.00  0.00    -0.291 OA
BRANCH  12  14
HETATM   14  C10 UNL     1      33.712  63.228  18.719  1.00  0.00     0.132 A 
HETATM   15  C11 UNL     1      33.984  62.437  17.626  1.00  0.00     0.166 A 
HETATM   16  N4  UNL     1      33.194  62.577  16.530  1.00  0.00    -0.272 N 
HETATM   17  C15 UNL     1      32.186  63.438  16.480  1.00  0.00     0.358 A 
HETATM   18  O4  UNL     1      31.495  63.514  15.423  1.00  0.00    -0.244 OA
HETATM   19  N5  UNL     1      31.935  64.199  17.546  1.00  0.00    -0.133 N 
HETATM   20  C16 UNL     1      32.647  64.134  18.654  1.00  0.00     0.294 A 
HETATM   21  O6  UNL     1      32.405  64.862  19.674  1.00  0.00    -0.264 OA
BRANCH  15  22
HETATM   22  O3  UNL     1      35.022  61.516  17.615  1.00  0.00    -0.345 OA
ATOM     23  H3  UNL     1      35.561  61.366  16.847  1.00  0.00     0.219 HD
ENDBRANCH  15  22
BRANCH  16  24
HETATM   24  C12 UNL     1      33.521  61.717  15.391  1.00  0.00     0.097 A 
HETATM   25  C13 UNL     1      34.174  62.429  14.246  1.00  0.00     0.028 A 
HETATM   26  C14 UNL     1      34.918  61.410  15.046  1.00  0.00     0.028 A 
ENDBRANCH  16  24
BRANCH  19  27
HETATM   27  O5  UNL     1      30.884  65.084  17.467  1.00  0.00    -0.276 OA
ATOM     28  H5  UNL     1      30.705  65.625  18.227  1.00  0.00     0.245 HD
ENDBRANCH  19  27
ENDBRANCH  12  14
ENDBRANCH  11  12
ENDBRANCH  10  11
ENDBRANCH   7  10
BRANCH   1  29
HETATM   29  N2  UNL     1      39.975  66.804  18.508  1.00  0.00    -0.326 N 
ATOM     30  H2  UNL     1      39.549  67.408  17.805  1.00  0.00     0.169 HD
BRANCH  29  31
HETATM   31  C3  UNL     1      40.694  67.532  19.445  1.00  0.00     0.154 A 
HETATM   32  C2  UNL     1      41.951  68.075  19.047  1.00  0.00     0.142 A 
HETATM   33  C18 UNL     1      42.732  68.811  19.901  1.00  0.00     0.289 A 
HETATM   34  N9  UNL     1      42.313  69.034  21.145  1.00  0.00    -0.154 N 
HETATM   35  O7  UNL     1      43.840  69.257  19.460  1.00  0.00    -0.265 OA
HETATM   36  C17 UNL     1      41.144  68.531  21.521  1.00  0.00     0.680 A 
ATOM     37  H9  UNL     1      42.878  69.578  21.796  1.00  0.00     0.187 HD
HETATM   38  N7  UNL     1      40.334  67.789  20.697  1.00  0.00    -0.174 N 
ATOM     39  H7  UNL     1      39.446  67.432  21.050  1.00  0.00     0.186 HD
BRANCH  32  40
HETATM   40  N1  UNL     1      42.368  67.813  17.712  1.00  0.00    -0.387 N 
HETATM   41  C1  UNL     1      43.262  66.687  17.485  1.00  0.00     0.146 C 
ATOM     42  H1  UNL     1      42.050  68.396  16.938  1.00  0.00     0.159 HD
ENDBRANCH  32  40
BRANCH  36  43
HETATM   43  N8  UNL     1      40.749  68.749  22.715  1.00  0.00    -0.234 N 
ATOM     44  H82 UNL     1      41.426  68.653  23.473  1.00  0.00     0.174 HD
ATOM     45  H81 UNL     1      39.773  69.009  22.859  1.00  0.00     0.174 HD
ENDBRANCH  36  43
ENDBRANCH  29  31
ENDBRANCH   1  29
TORSDOF 11
ENDMDL
MODEL 4
REMARK VINA RESULT: -7.170855367      3.225      5.136
REMARK  11 active torsions:
REMARK  status: ('A' for Active; 'I' for Inactive)
REMARK    1  A    between atoms: N1_2  and  C2_4 
REMARK    2  A    between atoms: C3_5  and  N2_6 
REMARK    3  A    between atoms: N2_6  and  C4_8 
REMARK    4  A    between atoms: C7_14  and  S1_15 
REMARK    5  A    between atoms: S1_15  and  C8_16 
REMARK    6  A    between atoms: C8_16  and  C9_17 
REMARK    7  A    between atoms: C9_17  and  C10_19 
REMARK    8  A    between atoms: C11_20  and  O3_21 
REMARK    9  A    between atoms: N4_23  and  C12_24 
REMARK   10  A    between atoms: N5_29  and  O5_30 
REMARK   11  A    between atoms: C17_38  and  N8_39 
ROOT
HETATM    1  C4  UNL     1      40.132  68.602  18.682  1.00  0.00     0.114 A 
HETATM    2  C5  UNL     1      41.451  68.313  18.837  1.00  0.00     0.123 A 
HETATM    3  C6  UNL     1      41.870  66.967  18.826  1.00  0.00     0.250 A 
HETATM    4  O1  UNL     1      43.099  66.760  18.972  1.00  0.00    -0.268 OA
HETATM    5  N3  UNL     1      40.974  65.993  18.668  1.00  0.00    -0.304 N 
ATOM      6  H3  UNL     1      41.289  65.023  18.662  1.00  0.00     0.171 HD
HETATM    7  C7  UNL     1      39.667  66.256  18.515  1.00  0.00     0.148 A 
HETATM    8  N6  UNL     1      39.269  67.525  18.524  1.00  0.00    -0.323 N 
ATOM      9  H6  UNL     1      38.274  67.718  18.408  1.00  0.00     0.169 HD
ENDROOT
BRANCH   7  10
HETATM   10  S1  UNL     1      38.465  64.919  18.298  1.00  0.00    -0.086 SA
BRANCH  10  11
HETATM   11  C8  UNL     1      37.869  64.480  19.993  1.00  0.00     0.166 C 
BRANCH  11  12
HETATM   12  C9  UNL     1      37.054  63.255  19.927  1.00  0.00     0.179 C 
HETATM   13  O2  UNL     1      37.495  62.189  20.449  1.00  0.00    -0.291 OA
BRANCH  12  14
HETATM   14  C10 UNL     1      35.767  63.233  19.286  1.00  0.00     0.132 A 
HETATM   15  C11 UNL     1      35.554  62.582  18.092  1.00  0.00     0.166 A 
HETATM   16  N4  UNL     1      34.306  62.626  17.561  1.00  0.00    -0.272 N 
HETATM   17  C15 UNL     1      33.300  63.265  18.145  1.00  0.00     0.358 A 
HETATM   18  O4  UNL     1      32.165  63.264  17.588  1.00  0.00    -0.244 OA
HETATM   19  N5  UNL     1      33.522  63.892  19.301  1.00  0.00    -0.133 N 
HETATM   20  C16 UNL     1      34.700  63.906  19.893  1.00  0.00     0.294 A 
HETATM   21  O6  UNL     1      34.910  64.505  21.000  1.00  0.00    -0.264 OA
BRANCH  15  22
HETATM   22  O3  UNL     1      36.563  61.894  17.431  1.00  0.00    -0.345 OA
ATOM     23  H3  UNL     1      36.393  61.351  16.670  1.00  0.00     0.219 HD
ENDBRANCH  15  22
BRANCH  16  24
HETATM   24  C12 UNL     1      34.126  61.922  16.289  1.00  0.00     0.097 A 
HETATM   25  C13 UNL     1      33.849  62.818  15.120  1.00  0.00     0.028 A 
HETATM   26  C14 UNL     1      35.120  62.037  15.209  1.00  0.00     0.028 A 
ENDBRANCH  16  24
BRANCH  19  27
HETATM   27  O5  UNL     1      32.463  64.549  19.885  1.00  0.00    -0.276 OA
ATOM     28  H5  UNL     1      31.635  64.087  19.942  1.00  0.00     0.245 HD
ENDBRANCH  19  27
ENDBRANCH  12  14
ENDBRANCH  11  12
ENDBRANCH  10  11
ENDBRANCH   7  10
BRANCH   1  29
HETATM   29  N2  UNL     1      39.574  69.884  18.671  1.00  0.00    -0.326 N 
ATOM     30  H2  UNL     1      40.290  70.609  18.613  1.00  0.00     0.169 HD
BRANCH  29  31
HETATM   31  C3  UNL     1      38.297  70.425  18.718  1.00  0.00     0.154 A 
HETATM   32  C2  UNL     1      37.832  70.933  19.966  1.00  0.00     0.142 A 
HETATM   33  C18 UNL     1      36.587  71.490  20.110  1.00  0.00     0.289 A 
HETATM   34  N9  UNL     1      35.776  71.564  19.057  1.00  0.00    -0.154 N 
HETATM   35  O7  UNL     1      36.256  71.918  21.262  1.00  0.00    -0.265 OA
HETATM   36  C17 UNL     1      36.203  71.093  17.892  1.00  0.00     0.680 A 
ATOM     37  H9  UNL     1      34.846  71.973  19.142  1.00  0.00     0.187 HD
HETATM   38  N7  UNL     1      37.442  70.528  17.707  1.00  0.00    -0.174 N 
ATOM     39  H7  UNL     1      37.707  70.185  16.784  1.00  0.00     0.186 HD
BRANCH  32  40
HETATM   40  N1  UNL     1      38.725  70.833  21.070  1.00  0.00    -0.387 N 
HETATM   41  C1  UNL     1      39.582  71.973  21.359  1.00  0.00     0.146 C 
ATOM     42  H1  UNL     1      38.763  69.988  21.640  1.00  0.00     0.159 HD
ENDBRANCH  32  40
BRANCH  36  43
HETATM   43  N8  UNL     1      35.420  71.167  16.887  1.00  0.00    -0.234 N 
ATOM     44  H82 UNL     1      34.505  70.720  16.953  1.00  0.00     0.174 HD
ATOM     45  H81 UNL     1      35.744  71.671  16.061  1.00  0.00     0.174 HD
ENDBRANCH  36  43
ENDBRANCH  29  31
ENDBRANCH   1  29
TORSDOF 11
ENDMDL
MODEL 5
REMARK VINA RESULT: -7.163258928      1.608      2.399
REMARK  11 active torsions:
REMARK  status: ('A' for Active; 'I' for Inactive)
REMARK    1  A    between atoms: N1_2  and  C2_4 
REMARK    2  A    between atoms: C3_5  and  N2_6 
REMARK    3  A    between atoms: N2_6  and  C4_8 
REMARK    4  A    between atoms: C7_14  and  S1_15 
REMARK    5  A    between atoms: S1_15  and  C8_16 
REMARK    6  A    between atoms: C8_16  and  C9_17 
REMARK    7  A    between atoms: C9_17  and  C10_19 
REMARK    8  A    between atoms: C11_20  and  O3_21 
REMARK    9  A    between atoms: N4_23  and  C12_24 
REMARK   10  A    between atoms: N5_29  and  O5_30 
REMARK   11  A    between atoms: C17_38  and  N8_39 
ROOT
HETATM    1  C4  UNL     1      39.111  66.364  17.999  1.00  0.00     0.114 A 
HETATM    2  C5  UNL     1      39.531  65.156  18.457  1.00  0.00     0.123 A 
HETATM    3  C6  UNL     1      39.058  63.979  17.840  1.00  0.00     0.250 A 
HETATM    4  O1  UNL     1      39.480  62.892  18.303  1.00  0.00    -0.268 OA
HETATM    5  N3  UNL     1      38.205  64.062  16.818  1.00  0.00    -0.304 N 
ATOM      6  H3  UNL     1      37.870  63.204  16.380  1.00  0.00     0.171 HD
HETATM    7  C7  UNL     1      37.777  65.245  16.351  1.00  0.00     0.148 A 
HETATM    8  N6  UNL     1      38.222  66.355  16.932  1.00  0.00    -0.323 N 
ATOM      9  H6  UNL     1      37.892  67.251  16.573  1.00  0.00     0.169 HD
ENDROOT
BRANCH   7  10
HETATM   10  S1  UNL     1      36.621  65.336  14.961  1.00  0.00    -0.086 SA
BRANCH  10  11
HETATM   11  C8  UNL     1      35.132  64.360  15.462  1.00  0.00     0.166 C 
BRANCH  11  12
HETATM   12  C9  UNL     1      34.394  65.088  16.508  1.00  0.00     0.179 C 
HETATM   13  O2  UNL     1      34.446  66.353  16.536  1.00  0.00    -0.291 OA
BRANCH  12  14
HETATM   14  C10 UNL     1      33.613  64.403  17.501  1.00  0.00     0.132 A 
HETATM   15  C11 UNL     1      32.236  64.438  17.502  1.00  0.00     0.166 A 
HETATM   16  N4  UNL     1      31.586  63.767  18.487  1.00  0.00    -0.272 N 
HETATM   17  C15 UNL     1      32.223  63.089  19.433  1.00  0.00     0.358 A 
HETATM   18  O4  UNL     1      31.549  62.490  20.319  1.00  0.00    -0.244 OA
HETATM   19  N5  UNL     1      33.557  63.064  19.420  1.00  0.00    -0.133 N 
HETATM   20  C16 UNL     1      34.274  63.685  18.504  1.00  0.00     0.294 A 
HETATM   21  O6  UNL     1      35.550  63.660  18.492  1.00  0.00    -0.264 OA
BRANCH  15  22
HETATM   22  O3  UNL     1      31.510  65.127  16.540  1.00  0.00    -0.345 OA
ATOM     23  H3  UNL     1      30.769  64.741  16.089  1.00  0.00     0.219 HD
ENDBRANCH  15  22
BRANCH  16  24
HETATM   24  C12 UNL     1      30.123  63.834  18.450  1.00  0.00     0.097 A 
HETATM   25  C13 UNL     1      29.518  64.713  19.503  1.00  0.00     0.028 A 
HETATM   26  C14 UNL     1      29.429  65.070  18.055  1.00  0.00     0.028 A 
ENDBRANCH  16  24
BRANCH  19  27
HETATM   27  O5  UNL     1      34.193  62.355  20.413  1.00  0.00    -0.276 OA
ATOM     28  H5  UNL     1      35.126  62.202  20.318  1.00  0.00     0.245 HD
ENDBRANCH  19  27
ENDBRANCH  12  14
ENDBRANCH  11  12
ENDBRANCH  10  11
ENDBRANCH   7  10
BRANCH   1  29
HETATM   29  N2  UNL     1      39.496  67.608  18.510  1.00  0.00    -0.326 N 
ATOM     30  H2  UNL     1      38.965  68.371  18.090  1.00  0.00     0.169 HD
BRANCH  29  31
HETATM   31  C3  UNL     1      40.413  68.071  19.443  1.00  0.00     0.154 A 
HETATM   32  C2  UNL     1      41.720  68.410  18.983  1.00  0.00     0.142 A 
HETATM   33  C18 UNL     1      42.692  68.879  19.828  1.00  0.00     0.289 A 
HETATM   34  N9  UNL     1      42.420  69.027  21.123  1.00  0.00    -0.154 N 
HETATM   35  O7  UNL     1      43.831  69.157  19.330  1.00  0.00    -0.265 OA
HETATM   36  C17 UNL     1      41.206  68.713  21.557  1.00  0.00     0.680 A 
ATOM     37  H9  UNL     1      43.129  69.374  21.769  1.00  0.00     0.187 HD
HETATM   38  N7  UNL     1      40.205  68.240  20.743  1.00  0.00    -0.174 N 
ATOM     39  H7  UNL     1      39.294  68.018  21.142  1.00  0.00     0.186 HD
BRANCH  32  40
HETATM   40  N1  UNL     1      41.975  68.234  17.594  1.00  0.00    -0.387 N 
HETATM   41  C1  UNL     1      42.686  67.035  17.178  1.00  0.00     0.146 C 
ATOM     42  H1  UNL     1      41.669  68.928  16.912  1.00  0.00     0.159 HD
ENDBRANCH  32  40
BRANCH  36  43
HETATM   43  N8  UNL     1      40.953  68.858  22.800  1.00  0.00    -0.234 N 
ATOM     44  H82 UNL     1      40.647  69.775  23.126  1.00  0.00     0.174 HD
ATOM     45  H81 UNL     1      41.068  68.051  23.412  1.00  0.00     0.174 HD
ENDBRANCH  36  43
ENDBRANCH  29  31
ENDBRANCH   1  29
TORSDOF 11
ENDMDL
