MODEL 1
REMARK VINA RESULT: -7.213460075      0.000      0.000
REMARK  13 active torsions:
REMARK  status: ('A' for Active; 'I' for Inactive)
REMARK    1  A    between atoms: O1_2  and  N1_3 
REMARK    2  A    between atoms: N1_3  and  C2_4 
REMARK    3  A    between atoms: C2_4  and  C3_5 
REMARK    4  A    between atoms: C2_4  and  C14_38 
REMARK       I    between atoms: C3_5  and  N2_7 
REMARK    5  A    between atoms: N2_7  and  C4_9 
REMARK    6  A    between atoms: C4_9  and  C7_20 
REMARK    7  A    between atoms: N3_10  and  N4_12 
REMARK    8  A    between atoms: N4_12  and  C5_14 
REMARK       I    between atoms: C7_20  and  N7_22 
REMARK    9  A    between atoms: N7_22  and  C8_24 
REMARK   10  A    between atoms: C10_26  and  O4_27 
REMARK   11  A    between atoms: C11_29  and  N8_30 
REMARK   12  A    between atoms: C13_34  and  N9_35 
REMARK   13  A    between atoms: C16_41  and  N10_42 
ROOT
HETATM    1  C4  UNL     1      38.534  62.903  18.085  1.00  0.00     0.192 C 
HETATM    2  N3  UNL     1      39.078  61.780  18.181  1.00  0.00    -0.278 N 
ATOM      3  H3  UNL     1      40.069  62.010  18.249  1.00  0.00     0.189 HD
ENDROOT
BRANCH   1   4
HETATM    4  N2  UNL     1      39.413  64.004  18.103  1.00  0.00    -0.301 N 
HETATM    5  C3  UNL     1      39.528  65.102  18.968  1.00  0.00     0.293 C 
HETATM    6  O2  UNL     1      38.838  65.343  19.952  1.00  0.00    -0.264 OA
ATOM      7  H2  UNL     1      40.094  64.002  17.343  1.00  0.00     0.171 HD
BRANCH   5   8
HETATM    8  C2  UNL     1      40.608  66.070  18.643  1.00  0.00     0.234 C 
BRANCH   8   9
HETATM    9  N1  UNL     1      41.431  65.790  17.784  1.00  0.00    -0.274 NA
BRANCH   9  10
HETATM   10  O1  UNL     1      42.021  65.269  16.813  1.00  0.00    -0.214 OA
HETATM   11  C1  UNL     1      43.301  65.600  16.315  1.00  0.00     0.255 C 
ENDBRANCH   9  10
ENDBRANCH   8   9
BRANCH   8  12
HETATM   12  C14 UNL     1      40.653  67.389  19.383  1.00  0.00     0.090 A 
HETATM   13  C15 UNL     1      40.683  68.605  18.783  1.00  0.00     0.086 A 
HETATM   14  S1  UNL     1      40.741  69.685  20.139  1.00  0.00    -0.064 SA
HETATM   15  C16 UNL     1      40.722  68.511  21.360  1.00  0.00     0.142 A 
HETATM   16  N11 UNL     1      40.673  67.363  20.702  1.00  0.00    -0.334 N 
ATOM     17  H11 UNL     1      40.652  66.476  21.205  1.00  0.00     0.168 HD
BRANCH  15  18
HETATM   18  N10 UNL     1      40.750  68.686  22.669  1.00  0.00    -0.380 N 
ATOM     19 2H10 UNL     1      41.259  69.400  23.188  1.00  0.00     0.158 HD
ATOM     20 1H10 UNL     1      40.272  68.148  23.391  1.00  0.00     0.158 HD
ENDBRANCH  15  18
ENDBRANCH   8  12
ENDBRANCH   5   8
ENDBRANCH   1   4
BRANCH   1  21
HETATM   21  C7  UNL     1      37.082  62.950  17.972  1.00  0.00     0.291 C 
HETATM   22  O3  UNL     1      36.525  61.897  17.594  1.00  0.00    -0.264 OA
HETATM   23  N7  UNL     1      36.326  64.103  18.267  1.00  0.00    -0.318 N 
ATOM     24  H7  UNL     1      36.836  64.936  18.564  1.00  0.00     0.169 HD
BRANCH  23  25
HETATM   25  C8  UNL     1      34.925  64.197  18.183  1.00  0.00     0.071 A 
HETATM   26  C9  UNL     1      34.237  64.421  17.008  1.00  0.00     0.071 A 
HETATM   27  C10 UNL     1      32.839  64.437  16.947  1.00  0.00     0.101 A 
HETATM   28  C11 UNL     1      32.071  64.228  18.063  1.00  0.00     0.138 A 
HETATM   29  C12 UNL     1      32.762  64.005  19.230  1.00  0.00     0.077 A 
HETATM   30  C13 UNL     1      34.138  63.984  19.327  1.00  0.00     0.132 A 
BRANCH  27  31
HETATM   31  O4  UNL     1      32.171  64.670  15.732  1.00  0.00    -0.358 OA
ATOM     32  H4  UNL     1      32.301  65.479  15.251  1.00  0.00     0.217 HD
ENDBRANCH  27  31
BRANCH  28  33
HETATM   33  N8  UNL     1      30.653  64.241  18.015  1.00  0.00    -0.113 N 
HETATM   34  O5  UNL     1      30.063  65.148  17.433  1.00  0.00    -0.532 OA
HETATM   35  O6  UNL     1      29.922  63.247  18.614  1.00  0.00    -0.532 OA
ENDBRANCH  28  33
BRANCH  30  36
HETATM   36  N9  UNL     1      34.698  63.748  20.591  1.00  0.00    -0.113 N 
HETATM   37  O7  UNL     1      35.447  62.830  20.875  1.00  0.00    -0.532 OA
HETATM   38  O8  UNL     1      34.414  64.666  21.595  1.00  0.00    -0.532 OA
ENDBRANCH  30  36
ENDBRANCH  23  25
ENDBRANCH   1  21
BRANCH   2  39
HETATM   39  N4  UNL     1      39.076  60.482  18.242  1.00  0.00    -0.270 N 
ATOM     40  H4  UNL     1      39.254  60.064  19.155  1.00  0.00     0.190 HD
BRANCH  39  41
HETATM   41  C5  UNL     1      38.846  59.569  17.136  1.00  0.00     0.192 A 
HETATM   42  N5  UNL     1      39.431  58.466  16.840  1.00  0.00    -0.345 N 
HETATM   43  C6  UNL     1      38.581  58.308  15.674  1.00  0.00     0.249 A 
ATOM     44  H5  UNL     1      40.186  57.921  17.256  1.00  0.00     0.164 HD
HETATM   45  N6  UNL     1      37.945  59.557  16.049  1.00  0.00    -0.345 N 
ATOM     46  H6  UNL     1      37.196  60.150  15.693  1.00  0.00     0.164 HD
ENDBRANCH  39  41
ENDBRANCH   2  39
TORSDOF 13
ENDMDL
MODEL 2
REMARK VINA RESULT: -7.124664123      1.520      1.727
REMARK  13 active torsions:
REMARK  status: ('A' for Active; 'I' for Inactive)
REMARK    1  A    between atoms: O1_2  and  N1_3 
REMARK    2  A    between atoms: N1_3  and  C2_4 
REMARK    3  A    between atoms: C2_4  and  C3_5 
REMARK    4  A    between atoms: C2_4  and  C14_38 
REMARK       I    between atoms: C3_5  and  N2_7 
REMARK    5  A    between atoms: N2_7  and  C4_9 
REMARK    6  A    between atoms: C4_9  and  C7_20 
REMARK    7  A    between atoms: N3_10  and  N4_12 
REMARK    8  A    between atoms: N4_12  and  C5_14 
REMARK       I    between atoms: C7_20  and  N7_22 
REMARK    9  A    between atoms: N7_22  and  C8_24 
REMARK   10  A    between atoms: C10_26  and  O4_27 
REMARK   11  A    between atoms: C11_29  and  N8_30 
REMARK   12  A    between atoms: C13_34  and  N9_35 
REMARK   13  A    between atoms: C16_41  and  N10_42 
ROOT
HETATM    1  C4  UNL     1      38.315  63.231  17.808  1.00  0.00     0.192 C 
HETATM    2  N3  UNL     1      38.960  62.165  17.925  1.00  0.00    -0.278 N 
ATOM      3  H3  UNL     1      39.929  62.473  17.845  1.00  0.00     0.189 HD
ENDROOT
BRANCH   1   4
HETATM    4  N2  UNL     1      39.093  64.390  17.621  1.00  0.00    -0.301 N 
HETATM    5  C3  UNL     1      40.301  64.815  18.193  1.00  0.00     0.293 C 
HETATM    6  O2  UNL     1      40.971  64.221  19.031  1.00  0.00    -0.264 OA
ATOM      7  H2  UNL     1      38.704  65.045  16.941  1.00  0.00     0.171 HD
BRANCH   5   8
HETATM    8  C2  UNL     1      40.812  66.130  17.724  1.00  0.00     0.234 C 
BRANCH   8   9
HETATM    9  N1  UNL     1      40.489  66.543  16.619  1.00  0.00    -0.274 NA
BRANCH   9  10
HETATM   10  O1  UNL     1      39.986  66.654  15.481  1.00  0.00    -0.214 OA
HETATM   11  C1  UNL     1      40.159  65.781  14.383  1.00  0.00     0.255 C 
ENDBRANCH   9  10
ENDBRANCH   8   9
BRANCH   8  12
HETATM   12  C14 UNL     1      41.715  66.930  18.635  1.00  0.00     0.090 A 
HETATM   13  C15 UNL     1      41.307  67.974  19.398  1.00  0.00     0.086 A 
HETATM   14  S1  UNL     1      42.777  68.459  20.180  1.00  0.00    -0.064 SA
HETATM   15  C16 UNL     1      43.794  67.300  19.479  1.00  0.00     0.142 A 
HETATM   16  N11 UNL     1      42.992  66.601  18.691  1.00  0.00    -0.334 N 
ATOM     17  H11 UNL     1      43.354  65.824  18.139  1.00  0.00     0.168 HD
BRANCH  15  18
HETATM   18  N10 UNL     1      45.090  67.124  19.666  1.00  0.00    -0.380 N 
ATOM     19 2H10 UNL     1      45.649  67.429  20.463  1.00  0.00     0.158 HD
ATOM     20 1H10 UNL     1      45.761  66.658  19.057  1.00  0.00     0.158 HD
ENDBRANCH  15  18
ENDBRANCH   8  12
ENDBRANCH   5   8
ENDBRANCH   1   4
BRANCH   1  21
HETATM   21  C7  UNL     1      36.861  63.159  17.879  1.00  0.00     0.291 C 
HETATM   22  O3  UNL     1      36.349  62.059  17.581  1.00  0.00    -0.264 OA
HETATM   23  N7  UNL     1      36.057  64.254  18.260  1.00  0.00    -0.318 N 
ATOM     24  H7  UNL     1      36.531  65.129  18.485  1.00  0.00     0.169 HD
BRANCH  23  25
HETATM   25  C8  UNL     1      34.653  64.234  18.355  1.00  0.00     0.071 A 
HETATM   26  C9  UNL     1      33.807  64.472  17.291  1.00  0.00     0.071 A 
HETATM   27  C10 UNL     1      32.416  64.374  17.401  1.00  0.00     0.101 A 
HETATM   28  C11 UNL     1      31.814  64.031  18.584  1.00  0.00     0.138 A 
HETATM   29  C12 UNL     1      32.662  63.795  19.639  1.00  0.00     0.077 A 
HETATM   30  C13 UNL     1      34.037  63.884  19.567  1.00  0.00     0.132 A 
BRANCH  27  31
HETATM   31  O4  UNL     1      31.583  64.625  16.297  1.00  0.00    -0.358 OA
ATOM     32  H4  UNL     1      30.964  65.346  16.307  1.00  0.00     0.217 HD
ENDBRANCH  27  31
BRANCH  28  33
HETATM   33  N8  UNL     1      30.404  63.928  18.710  1.00  0.00    -0.113 N 
HETATM   34  O5  UNL     1      29.743  63.385  17.828  1.00  0.00    -0.532 OA
HETATM   35  O6  UNL     1      29.760  64.430  19.812  1.00  0.00    -0.532 OA
ENDBRANCH  28  33
BRANCH  30  36
HETATM   36  N9  UNL     1      34.769  63.618  20.733  1.00  0.00    -0.113 N 
HETATM   37  O7  UNL     1      35.568  62.710  20.878  1.00  0.00    -0.532 OA
HETATM   38  O8  UNL     1      34.606  64.493  21.801  1.00  0.00    -0.532 OA
ENDBRANCH  30  36
ENDBRANCH  23  25
ENDBRANCH   1  21
BRANCH   2  39
HETATM   39  N4  UNL     1      39.076  60.882  18.093  1.00  0.00    -0.270 N 
ATOM     40  H4  UNL     1      39.429  60.565  18.996  1.00  0.00     0.190 HD
BRANCH  39  41
HETATM   41  C5  UNL     1      38.751  59.854  17.119  1.00  0.00     0.192 A 
HETATM   42  N5  UNL     1      39.303  58.715  16.905  1.00  0.00    -0.345 N 
HETATM   43  C6  UNL     1      38.362  58.441  15.834  1.00  0.00     0.249 A 
ATOM     44  H5  UNL     1      40.085  58.208  17.319  1.00  0.00     0.164 HD
HETATM   45  N6  UNL     1      37.767  59.734  16.114  1.00  0.00    -0.345 N 
ATOM     46  H6  UNL     1      36.996  60.296  15.753  1.00  0.00     0.164 HD
ENDBRANCH  39  41
ENDBRANCH   2  39
TORSDOF 13
ENDMDL
MODEL 3
REMARK VINA RESULT: -6.907220161      1.950      2.240
REMARK  13 active torsions:
REMARK  status: ('A' for Active; 'I' for Inactive)
REMARK    1  A    between atoms: O1_2  and  N1_3 
REMARK    2  A    between atoms: N1_3  and  C2_4 
REMARK    3  A    between atoms: C2_4  and  C3_5 
REMARK    4  A    between atoms: C2_4  and  C14_38 
REMARK       I    between atoms: C3_5  and  N2_7 
REMARK    5  A    between atoms: N2_7  and  C4_9 
REMARK    6  A    between atoms: C4_9  and  C7_20 
REMARK    7  A    between atoms: N3_10  and  N4_12 
REMARK    8  A    between atoms: N4_12  and  C5_14 
REMARK       I    between atoms: C7_20  and  N7_22 
REMARK    9  A    between atoms: N7_22  and  C8_24 
REMARK   10  A    between atoms: C10_26  and  O4_27 
REMARK   11  A    between atoms: C11_29  and  N8_30 
REMARK   12  A    between atoms: C13_34  and  N9_35 
REMARK   13  A    between atoms: C16_41  and  N10_42 
ROOT
HETATM    1  C4  UNL     1      39.330  62.576  16.302  1.00  0.00     0.192 C 
HETATM    2  N3  UNL     1      39.787  61.663  15.577  1.00  0.00    -0.278 N 
ATOM      3  H3  UNL     1      40.675  62.049  15.257  1.00  0.00     0.189 HD
ENDROOT
BRANCH   1   4
HETATM    4  N2  UNL     1      40.139  63.723  16.412  1.00  0.00    -0.301 N 
HETATM    5  C3  UNL     1      40.721  64.362  17.517  1.00  0.00     0.293 C 
HETATM    6  O2  UNL     1      40.636  64.027  18.694  1.00  0.00    -0.264 OA
ATOM      7  H2  UNL     1      40.340  64.175  15.519  1.00  0.00     0.171 HD
BRANCH   5   8
HETATM    8  C2  UNL     1      41.524  65.575  17.214  1.00  0.00     0.234 C 
BRANCH   8   9
HETATM    9  N1  UNL     1      41.904  65.777  16.069  1.00  0.00    -0.274 NA
BRANCH   9  10
HETATM   10  O1  UNL     1      42.236  65.632  14.873  1.00  0.00    -0.214 OA
HETATM   11  C1  UNL     1      43.045  64.609  14.330  1.00  0.00     0.255 C 
ENDBRANCH   9  10
ENDBRANCH   8   9
BRANCH   8  12
HETATM   12  C14 UNL     1      41.844  66.539  18.335  1.00  0.00     0.090 A 
HETATM   13  C15 UNL     1      43.080  67.033  18.594  1.00  0.00     0.086 A 
HETATM   14  S1  UNL     1      42.793  68.043  19.974  1.00  0.00    -0.064 SA
HETATM   15  C16 UNL     1      41.129  67.760  20.115  1.00  0.00     0.142 A 
HETATM   16  N11 UNL     1      40.859  66.923  19.125  1.00  0.00    -0.334 N 
ATOM     17  H11 UNL     1      39.909  66.583  18.976  1.00  0.00     0.168 HD
BRANCH  15  18
HETATM   18  N10 UNL     1      40.284  68.253  21.003  1.00  0.00    -0.380 N 
ATOM     19 2H10 UNL     1      40.349  69.145  21.492  1.00  0.00     0.158 HD
ATOM     20 1H10 UNL     1      39.423  67.838  21.357  1.00  0.00     0.158 HD
ENDBRANCH  15  18
ENDBRANCH   8  12
ENDBRANCH   5   8
ENDBRANCH   1   4
BRANCH   1  21
HETATM   21  C7  UNL     1      38.040  62.355  16.943  1.00  0.00     0.291 C 
HETATM   22  O3  UNL     1      37.754  61.168  17.210  1.00  0.00    -0.264 OA
HETATM   23  N7  UNL     1      37.148  63.402  17.253  1.00  0.00    -0.318 N 
ATOM     24  H7  UNL     1      37.432  64.351  17.005  1.00  0.00     0.169 HD
BRANCH  23  25
HETATM   25  C8  UNL     1      35.898  63.244  17.880  1.00  0.00     0.071 A 
HETATM   26  C9  UNL     1      34.707  63.108  17.196  1.00  0.00     0.071 A 
HETATM   27  C10 UNL     1      33.490  62.880  17.846  1.00  0.00     0.101 A 
HETATM   28  C11 UNL     1      33.415  62.777  19.211  1.00  0.00     0.138 A 
HETATM   29  C12 UNL     1      34.605  62.913  19.886  1.00  0.00     0.077 A 
HETATM   30  C13 UNL     1      35.822  63.140  19.278  1.00  0.00     0.132 A 
BRANCH  27  31
HETATM   31  O4  UNL     1      32.295  62.748  17.119  1.00  0.00    -0.358 OA
ATOM     32  H4  UNL     1      31.500  62.437  17.537  1.00  0.00     0.217 HD
ENDBRANCH  27  31
BRANCH  28  33
HETATM   33  N8  UNL     1      32.187  62.545  19.884  1.00  0.00    -0.113 N 
HETATM   34  O5  UNL     1      31.254  63.333  19.754  1.00  0.00    -0.532 OA
HETATM   35  O6  UNL     1      32.024  61.444  20.685  1.00  0.00    -0.532 OA
ENDBRANCH  28  33
BRANCH  30  36
HETATM   36  N9  UNL     1      36.950  63.262  20.103  1.00  0.00    -0.113 N 
HETATM   37  O7  UNL     1      37.435  62.371  20.778  1.00  0.00    -0.532 OA
HETATM   38  O8  UNL     1      37.600  64.490  20.116  1.00  0.00    -0.532 OA
ENDBRANCH  30  36
ENDBRANCH  23  25
ENDBRANCH   1  21
BRANCH   2  39
HETATM   39  N4  UNL     1      39.754  60.496  15.007  1.00  0.00    -0.270 N 
ATOM     40  H4  UNL     1      39.558  60.477  14.007  1.00  0.00     0.190 HD
BRANCH  39  41
HETATM   41  C5  UNL     1      39.970  59.216  15.658  1.00  0.00     0.192 A 
HETATM   42  N5  UNL     1      40.626  58.187  15.259  1.00  0.00    -0.345 N 
HETATM   43  C6  UNL     1      40.294  57.479  16.483  1.00  0.00     0.249 A 
ATOM     44  H5  UNL     1      41.163  57.959  14.423  1.00  0.00     0.164 HD
HETATM   45  N6  UNL     1      39.568  58.666  16.894  1.00  0.00    -0.345 N 
ATOM     46  H6  UNL     1      39.020  58.964  17.702  1.00  0.00     0.164 HD
ENDBRANCH  39  41
ENDBRANCH   2  39
TORSDOF 13
ENDMDL
MODEL 4
REMARK VINA RESULT: -6.885741015      2.984      6.213
REMARK  13 active torsions:
REMARK  status: ('A' for Active; 'I' for Inactive)
REMARK    1  A    between atoms: O1_2  and  N1_3 
REMARK    2  A    between atoms: N1_3  and  C2_4 
REMARK    3  A    between atoms: C2_4  and  C3_5 
REMARK    4  A    between atoms: C2_4  and  C14_38 
REMARK       I    between atoms: C3_5  and  N2_7 
REMARK    5  A    between atoms: N2_7  and  C4_9 
REMARK    6  A    between atoms: C4_9  and  C7_20 
REMARK    7  A    between atoms: N3_10  and  N4_12 
REMARK    8  A    between atoms: N4_12  and  C5_14 
REMARK       I    between atoms: C7_20  and  N7_22 
REMARK    9  A    between atoms: N7_22  and  C8_24 
REMARK   10  A    between atoms: C10_26  and  O4_27 
REMARK   11  A    between atoms: C11_29  and  N8_30 
REMARK   12  A    between atoms: C13_34  and  N9_35 
REMARK   13  A    between atoms: C16_41  and  N10_42 
ROOT
HETATM    1  C4  UNL     1      38.100  62.781  17.815  1.00  0.00     0.192 C 
HETATM    2  N3  UNL     1      39.010  63.369  18.442  1.00  0.00    -0.278 N 
ATOM      3  H3  UNL     1      39.828  62.790  18.254  1.00  0.00     0.189 HD
ENDROOT
BRANCH   1   4
HETATM    4  N2  UNL     1      38.494  61.617  17.127  1.00  0.00    -0.301 N 
HETATM    5  C3  UNL     1      39.660  60.840  17.184  1.00  0.00     0.293 C 
HETATM    6  O2  UNL     1      40.642  61.031  17.894  1.00  0.00    -0.264 OA
ATOM      7  H2  UNL     1      37.800  61.275  16.461  1.00  0.00     0.171 HD
BRANCH   5   8
HETATM    8  C2  UNL     1      39.697  59.662  16.279  1.00  0.00     0.234 C 
BRANCH   8   9
HETATM    9  N1  UNL     1      38.682  59.324  15.686  1.00  0.00    -0.274 NA
BRANCH   9  10
HETATM   10  O1  UNL     1      37.496  59.207  15.311  1.00  0.00    -0.214 OA
HETATM   11  C1  UNL     1      36.635  58.110  15.535  1.00  0.00     0.255 C 
ENDBRANCH   9  10
ENDBRANCH   8   9
BRANCH   8  12
HETATM   12  C14 UNL     1      40.999  58.912  16.108  1.00  0.00     0.090 A 
HETATM   13  C15 UNL     1      41.142  57.573  16.268  1.00  0.00     0.086 A 
HETATM   14  S1  UNL     1      42.832  57.340  15.955  1.00  0.00    -0.064 SA
HETATM   15  C16 UNL     1      43.225  58.958  15.644  1.00  0.00     0.142 A 
HETATM   16  N11 UNL     1      42.077  59.602  15.788  1.00  0.00    -0.334 N 
ATOM     17  H11 UNL     1      42.028  60.612  15.654  1.00  0.00     0.168 HD
BRANCH  15  18
HETATM   18  N10 UNL     1      44.402  59.471  15.330  1.00  0.00    -0.380 N 
ATOM     19 2H10 UNL     1      44.999  60.056  15.914  1.00  0.00     0.158 HD
ATOM     20 1H10 UNL     1      44.921  59.378  14.459  1.00  0.00     0.158 HD
ENDBRANCH  15  18
ENDBRANCH   8  12
ENDBRANCH   5   8
ENDBRANCH   1   4
BRANCH   1  21
HETATM   21  C7  UNL     1      36.760  63.354  17.862  1.00  0.00     0.291 C 
HETATM   22  O3  UNL     1      36.673  64.572  17.596  1.00  0.00    -0.264 OA
HETATM   23  N7  UNL     1      35.614  62.598  18.185  1.00  0.00    -0.318 N 
ATOM     24  H7  UNL     1      35.748  61.610  18.400  1.00  0.00     0.169 HD
BRANCH  23  25
HETATM   25  C8  UNL     1      34.300  63.100  18.234  1.00  0.00     0.071 A 
HETATM   26  C9  UNL     1      33.437  63.102  17.156  1.00  0.00     0.071 A 
HETATM   27  C10 UNL     1      32.113  63.542  17.257  1.00  0.00     0.101 A 
HETATM   28  C11 UNL     1      31.597  63.997  18.442  1.00  0.00     0.138 A 
HETATM   29  C12 UNL     1      32.461  63.992  19.510  1.00  0.00     0.077 A 
HETATM   30  C13 UNL     1      33.773  63.568  19.448  1.00  0.00     0.132 A 
BRANCH  27  31
HETATM   31  O4  UNL     1      31.261  63.532  16.138  1.00  0.00    -0.358 OA
ATOM     32  H4  UNL     1      30.377  63.877  16.195  1.00  0.00     0.217 HD
ENDBRANCH  27  31
BRANCH  28  33
HETATM   33  N8  UNL     1      30.255  64.446  18.557  1.00  0.00    -0.113 N 
HETATM   34  O5  UNL     1      29.511  63.959  19.405  1.00  0.00    -0.532 OA
HETATM   35  O6  UNL     1      29.770  65.425  17.728  1.00  0.00    -0.532 OA
ENDBRANCH  28  33
BRANCH  30  36
HETATM   36  N9  UNL     1      34.533  63.627  20.624  1.00  0.00    -0.113 N 
HETATM   37  O7  UNL     1      35.366  62.809  20.973  1.00  0.00    -0.532 OA
HETATM   38  O8  UNL     1      34.358  64.738  21.440  1.00  0.00    -0.532 OA
ENDBRANCH  30  36
ENDBRANCH  23  25
ENDBRANCH   1  21
BRANCH   2  39
HETATM   39  N4  UNL     1      39.487  64.311  19.198  1.00  0.00    -0.270 N 
ATOM     40  H4  UNL     1      39.870  64.028  20.100  1.00  0.00     0.190 HD
BRANCH  39  41
HETATM   41  C5  UNL     1      39.527  65.729  18.885  1.00  0.00     0.192 A 
HETATM   42  N5  UNL     1      39.205  66.346  17.806  1.00  0.00    -0.345 N 
HETATM   43  C6  UNL     1      39.559  67.619  18.407  1.00  0.00     0.249 A 
ATOM     44  H5  UNL     1      38.845  66.058  16.895  1.00  0.00     0.164 HD
HETATM   45  N6  UNL     1      39.907  66.881  19.607  1.00  0.00    -0.345 N 
ATOM     46  H6  UNL     1      40.261  67.095  20.539  1.00  0.00     0.164 HD
ENDBRANCH  39  41
ENDBRANCH   2  39
TORSDOF 13
ENDMDL
MODEL 5
REMARK VINA RESULT: -6.871831351      3.095      6.527
REMARK  13 active torsions:
REMARK  status: ('A' for Active; 'I' for Inactive)
REMARK    1  A    between atoms: O1_2  and  N1_3 
REMARK    2  A    between atoms: N1_3  and  C2_4 
REMARK    3  A    between atoms: C2_4  and  C3_5 
REMARK    4  A    between atoms: C2_4  and  C14_38 
REMARK       I    between atoms: C3_5  and  N2_7 
REMARK    5  A    between atoms: N2_7  and  C4_9 
REMARK    6  A    between atoms: C4_9  and  C7_20 
REMARK    7  A    between atoms: N3_10  and  N4_12 
REMARK    8  A    between atoms: N4_12  and  C5_14 
REMARK       I    between atoms: C7_20  and  N7_22 
REMARK    9  A    between atoms: N7_22  and  C8_24 
REMARK   10  A    between atoms: C10_26  and  O4_27 
REMARK   11  A    between atoms: C11_29  and  N8_30 
REMARK   12  A    between atoms: C13_34  and  N9_35 
REMARK   13  A    between atoms: C16_41  and  N10_42 
ROOT
HETATM    1  C4  UNL     1      38.416  62.456  17.736  1.00  0.00     0.192 C 
HETATM    2  N3  UNL     1      39.327  63.082  18.325  1.00  0.00    -0.278 N 
ATOM      3  H3  UNL     1      40.137  62.476  18.203  1.00  0.00     0.189 HD
ENDROOT
BRANCH   1   4
HETATM    4  N2  UNL     1      38.801  61.232  17.158  1.00  0.00    -0.301 N 
HETATM    5  C3  UNL     1      39.284  60.038  17.715  1.00  0.00     0.293 C 
HETATM    6  O2  UNL     1      39.483  59.804  18.902  1.00  0.00    -0.264 OA
ATOM      7  H2  UNL     1      38.712  61.208  16.141  1.00  0.00     0.171 HD
BRANCH   5   8
HETATM    8  C2  UNL     1      39.583  58.948  16.749  1.00  0.00     0.234 C 
BRANCH   8   9
HETATM    9  N1  UNL     1      40.712  58.836  16.296  1.00  0.00    -0.274 NA
BRANCH   9  10
HETATM   10  O1  UNL     1      41.954  58.851  16.154  1.00  0.00    -0.214 OA
HETATM   11  C1  UNL     1      42.759  59.955  15.799  1.00  0.00     0.255 C 
ENDBRANCH   9  10
ENDBRANCH   8   9
BRANCH   8  12
HETATM   12  C14 UNL     1      38.475  57.995  16.358  1.00  0.00     0.090 A 
HETATM   13  C15 UNL     1      37.394  58.338  15.615  1.00  0.00     0.086 A 
HETATM   14  S1  UNL     1      36.515  56.845  15.530  1.00  0.00    -0.064 SA
HETATM   15  C16 UNL     1      37.587  55.903  16.442  1.00  0.00     0.142 A 
HETATM   16  N11 UNL     1      38.555  56.745  16.771  1.00  0.00    -0.334 N 
ATOM     17  H11 UNL     1      39.347  56.432  17.333  1.00  0.00     0.168 HD
BRANCH  15  18
HETATM   18  N10 UNL     1      37.491  54.624  16.760  1.00  0.00    -0.380 N 
ATOM     19 2H10 UNL     1      37.877  53.829  16.253  1.00  0.00     0.158 HD
ATOM     20 1H10 UNL     1      37.020  54.204  17.560  1.00  0.00     0.158 HD
ENDBRANCH  15  18
ENDBRANCH   8  12
ENDBRANCH   5   8
ENDBRANCH   1   4
BRANCH   1  21
HETATM   21  C7  UNL     1      37.086  63.052  17.710  1.00  0.00     0.291 C 
HETATM   22  O3  UNL     1      37.009  64.205  17.235  1.00  0.00    -0.264 OA
HETATM   23  N7  UNL     1      35.938  62.387  18.188  1.00  0.00    -0.318 N 
ATOM     24  H7  UNL     1      36.064  61.450  18.572  1.00  0.00     0.169 HD
BRANCH  23  25
HETATM   25  C8  UNL     1      34.633  62.913  18.176  1.00  0.00     0.071 A 
HETATM   26  C9  UNL     1      33.798  62.874  17.078  1.00  0.00     0.071 A 
HETATM   27  C10 UNL     1      32.480  63.341  17.121  1.00  0.00     0.101 A 
HETATM   28  C11 UNL     1      31.942  63.866  18.268  1.00  0.00     0.138 A 
HETATM   29  C12 UNL     1      32.779  63.903  19.357  1.00  0.00     0.077 A 
HETATM   30  C13 UNL     1      34.084  63.453  19.351  1.00  0.00     0.132 A 
BRANCH  27  31
HETATM   31  O4  UNL     1      31.656  63.287  15.983  1.00  0.00    -0.358 OA
ATOM     32  H4  UNL     1      31.961  63.612  15.144  1.00  0.00     0.217 HD
ENDBRANCH  27  31
BRANCH  28  33
HETATM   33  N8  UNL     1      30.607  64.343  18.324  1.00  0.00    -0.113 N 
HETATM   34  O5  UNL     1      30.201  65.146  17.488  1.00  0.00    -0.532 OA
HETATM   35  O6  UNL     1      29.752  63.918  19.309  1.00  0.00    -0.532 OA
ENDBRANCH  28  33
BRANCH  30  36
HETATM   36  N9  UNL     1      34.816  63.561  20.542  1.00  0.00    -0.113 N 
HETATM   37  O7  UNL     1      35.700  62.804  20.903  1.00  0.00    -0.532 OA
HETATM   38  O8  UNL     1      34.544  64.651  21.360  1.00  0.00    -0.532 OA
ENDBRANCH  30  36
ENDBRANCH  23  25
ENDBRANCH   1  21
BRANCH   2  39
HETATM   39  N4  UNL     1      39.808  64.078  19.006  1.00  0.00    -0.270 N 
ATOM     40  H4  UNL     1      40.341  63.848  19.845  1.00  0.00     0.190 HD
BRANCH  39  41
HETATM   41  C5  UNL     1      39.662  65.488  18.688  1.00  0.00     0.192 A 
HETATM   42  N5  UNL     1      39.717  66.517  19.453  1.00  0.00    -0.345 N 
HETATM   43  C6  UNL     1      39.475  67.393  18.321  1.00  0.00     0.249 A 
ATOM     44  H5  UNL     1      39.869  66.662  20.452  1.00  0.00     0.164 HD
HETATM   45  N6  UNL     1      39.425  66.203  17.494  1.00  0.00    -0.345 N 
ATOM     46  H6  UNL     1      39.284  65.983  16.508  1.00  0.00     0.164 HD
ENDBRANCH  39  41
ENDBRANCH   2  39
TORSDOF 13
ENDMDL
