MODEL 1
REMARK VINA RESULT: -6.585358774      0.000      0.000
REMARK  12 active torsions:
REMARK  status: ('A' for Active; 'I' for Inactive)
REMARK    1  A    between atoms: C2_2  and  N1_3 
REMARK    2  A    between atoms: C2_2  and  C10_23 
REMARK       I    between atoms: N1_3  and  C3_5 
REMARK    3  A    between atoms: C3_5  and  C4_7 
REMARK    4  A    between atoms: C4_7  and  S1_8 
REMARK    5  A    between atoms: S1_8  and  C5_9 
REMARK    6  A    between atoms: C9_17  and  N5_18 
REMARK    7  A    between atoms: C10_23  and  N7_24 
REMARK    8  A    between atoms: C10_23  and  C15_38 
REMARK    9  A    between atoms: C11_26  and  C12_27 
REMARK   10  A    between atoms: C11_26  and  C13_30 
REMARK   11  A    between atoms: C15_38  and  O4_40 
REMARK   12  A    between atoms: O4_40  and  N11_41 
ROOT
HETATM    1  C5  UNL     1      41.497  65.923  17.180  1.00  0.00     0.147 A 
HETATM    2  N2  UNL     1      42.724  66.008  17.734  1.00  0.00    -0.324 N 
ATOM      3  H2  UNL     1      43.499  65.437  17.397  1.00  0.00     0.169 HD
HETATM    4  C6  UNL     1      42.887  66.877  18.750  1.00  0.00     0.142 A 
HETATM    5  N3  UNL     1      44.158  67.031  19.382  1.00  0.00    -0.081 NA
HETATM    6  C7  UNL     1      41.831  67.667  19.223  1.00  0.00     0.129 A 
HETATM    7  C8  UNL     1      42.014  68.587  20.287  1.00  0.00     0.106 C 
HETATM    8  N4  UNL     1      42.165  69.369  21.155  1.00  0.00    -0.191 NA
HETATM    9  C9  UNL     1      40.592  67.541  18.621  1.00  0.00     0.125 A 
HETATM   10  N6  UNL     1      40.452  66.674  17.615  1.00  0.00    -0.322 N 
ATOM     11  H6  UNL     1      39.542  66.574  17.164  1.00  0.00     0.169 HD
ENDROOT
BRANCH   9  12
HETATM   12  N5  UNL     1      39.587  68.262  19.039  1.00  0.00    -0.384 N 
ATOM     13  H52 UNL     1      38.685  67.836  19.252  1.00  0.00     0.157 HD
ATOM     14  H51 UNL     1      39.695  69.268  19.161  1.00  0.00     0.157 HD
ENDBRANCH   9  12
BRANCH   1  15
HETATM   15  S1  UNL     1      41.230  64.820  15.801  1.00  0.00    -0.085 SA
BRANCH  15  16
HETATM   16  C4  UNL     1      41.310  63.077  16.357  1.00  0.00     0.185 C 
BRANCH  16  17
HETATM   17  C3  UNL     1      40.004  62.685  16.976  1.00  0.00     0.227 C 
HETATM   18  N1  UNL     1      38.777  63.209  16.400  1.00  0.00    -0.351 N 
ATOM     19  H1  UNL     1      38.834  63.824  15.588  1.00  0.00     0.163 HD
HETATM   20  O1  UNL     1      40.017  61.929  17.959  1.00  0.00    -0.273 OA
BRANCH  18  21
HETATM   21  C2  UNL     1      37.480  62.886  16.944  1.00  0.00     0.136 C 
HETATM   22  C1  UNL     1      36.504  62.597  15.832  1.00  0.00     0.039 C 
BRANCH  21  23
HETATM   23  C10 UNL     1      36.989  63.759  18.037  1.00  0.00     0.110 C 
BRANCH  23  24
HETATM   24  N7  UNL     1      35.616  63.845  18.163  1.00  0.00    -0.346 N 
HETATM   25  C11 UNL     1      34.652  63.790  18.917  1.00  0.00     0.134 C 
ATOM     26  H7  UNL     1      35.248  64.034  17.231  1.00  0.00     0.166 HD
BRANCH  25  27
HETATM   27  C12 UNL     1      34.549  63.551  20.342  1.00  0.00     0.284 C 
HETATM   28  N8  UNL     1      34.411  64.633  21.248  1.00  0.00    -0.056 NA
HETATM   29  O2  UNL     1      34.574  62.412  20.872  1.00  0.00    -0.269 OA
ENDBRANCH  25  27
BRANCH  25  30
HETATM   30  C13 UNL     1      33.322  64.026  18.247  1.00  0.00     0.123 A 
HETATM   31  N9  UNL     1      32.256  64.627  18.769  1.00  0.00    -0.290 N 
HETATM   32  N10 UNL     1      31.207  64.765  18.075  1.00  0.00    -0.283 N 
ATOM     33  H9  UNL     1      32.285  64.976  19.727  1.00  0.00     0.187 HD
HETATM   34  C14 UNL     1      31.199  64.295  16.821  1.00  0.00     0.159 A 
ATOM     35  H10 UNL     1      30.383  65.224  18.463  1.00  0.00     0.188 HD
HETATM   36  S2  UNL     1      29.975  64.346  15.717  1.00  0.00    -0.051 SA
HETATM   37  S3  UNL     1      32.775  63.646  16.686  1.00  0.00    -0.038 SA
ENDBRANCH  25  30
ENDBRANCH  23  24
BRANCH  23  38
HETATM   38  C15 UNL     1      37.713  65.044  18.217  1.00  0.00     0.329 C 
HETATM   39  O3  UNL     1      37.724  66.021  17.488  1.00  0.00    -0.256 OA
BRANCH  38  40
HETATM   40  O4  UNL     1      38.498  65.136  19.397  1.00  0.00    -0.201 OA
BRANCH  40  41
HETATM   41  N11 UNL     1      38.764  63.983  20.111  1.00  0.00    -0.302 N 
ATOM     42 2H11 UNL     1      38.130  63.188  20.039  1.00  0.00     0.184 HD
ATOM     43 1H11 UNL     1      39.596  63.951  20.700  1.00  0.00     0.184 HD
ENDBRANCH  40  41
ENDBRANCH  38  40
ENDBRANCH  23  38
ENDBRANCH  21  23
ENDBRANCH  18  21
ENDBRANCH  16  17
ENDBRANCH  15  16
ENDBRANCH   1  15
TORSDOF 12
ENDMDL
MODEL 2
REMARK VINA RESULT: -6.576424513      1.660      2.062
REMARK  12 active torsions:
REMARK  status: ('A' for Active; 'I' for Inactive)
REMARK    1  A    between atoms: C2_2  and  N1_3 
REMARK    2  A    between atoms: C2_2  and  C10_23 
REMARK       I    between atoms: N1_3  and  C3_5 
REMARK    3  A    between atoms: C3_5  and  C4_7 
REMARK    4  A    between atoms: C4_7  and  S1_8 
REMARK    5  A    between atoms: S1_8  and  C5_9 
REMARK    6  A    between atoms: C9_17  and  N5_18 
REMARK    7  A    between atoms: C10_23  and  N7_24 
REMARK    8  A    between atoms: C10_23  and  C15_38 
REMARK    9  A    between atoms: C11_26  and  C12_27 
REMARK   10  A    between atoms: C11_26  and  C13_30 
REMARK   11  A    between atoms: C15_38  and  O4_40 
REMARK   12  A    between atoms: O4_40  and  N11_41 
ROOT
HETATM    1  C5  UNL     1      39.462  67.452  17.384  1.00  0.00     0.147 A 
HETATM    2  N2  UNL     1      40.633  67.342  16.723  1.00  0.00    -0.324 N 
ATOM      3  H2  UNL     1      40.660  67.207  15.712  1.00  0.00     0.169 HD
HETATM    4  C6  UNL     1      41.764  67.416  17.448  1.00  0.00     0.142 A 
HETATM    5  N3  UNL     1      43.043  67.317  16.820  1.00  0.00    -0.081 NA
HETATM    6  C7  UNL     1      41.741  67.600  18.837  1.00  0.00     0.129 A 
HETATM    7  C8  UNL     1      42.939  67.687  19.592  1.00  0.00     0.106 C 
HETATM    8  N4  UNL     1      43.929  67.782  20.222  1.00  0.00    -0.191 NA
HETATM    9  C9  UNL     1      40.515  67.706  19.467  1.00  0.00     0.125 A 
HETATM   10  N6  UNL     1      39.404  67.630  18.729  1.00  0.00    -0.322 N 
ATOM     11  H6  UNL     1      38.494  67.707  19.185  1.00  0.00     0.169 HD
ENDROOT
BRANCH   9  12
HETATM   12  N5  UNL     1      40.458  67.876  20.761  1.00  0.00    -0.384 N 
ATOM     13  H52 UNL     1      40.371  67.081  21.394  1.00  0.00     0.157 HD
ATOM     14  H51 UNL     1      40.501  68.815  21.155  1.00  0.00     0.157 HD
ENDBRANCH   9  12
BRANCH   1  15
HETATM   15  S1  UNL     1      37.928  67.405  16.470  1.00  0.00    -0.085 SA
BRANCH  15  16
HETATM   16  C4  UNL     1      37.975  66.067  15.220  1.00  0.00     0.185 C 
BRANCH  16  17
HETATM   17  C3  UNL     1      38.209  64.753  15.896  1.00  0.00     0.227 C 
HETATM   18  N1  UNL     1      37.059  63.984  16.340  1.00  0.00    -0.351 N 
ATOM     19  H1  UNL     1      36.123  64.353  16.175  1.00  0.00     0.163 HD
HETATM   20  O1  UNL     1      39.378  64.369  16.057  1.00  0.00    -0.273 OA
BRANCH  18  21
HETATM   21  C2  UNL     1      37.202  62.713  17.008  1.00  0.00     0.136 C 
HETATM   22  C1  UNL     1      36.956  61.583  16.041  1.00  0.00     0.039 C 
BRANCH  21  23
HETATM   23  C10 UNL     1      36.555  62.591  18.336  1.00  0.00     0.110 C 
BRANCH  23  24
HETATM   24  N7  UNL     1      35.247  63.028  18.408  1.00  0.00    -0.346 N 
HETATM   25  C11 UNL     1      34.305  63.325  19.132  1.00  0.00     0.134 C 
ATOM     26  H7  UNL     1      34.931  63.159  17.447  1.00  0.00     0.166 HD
BRANCH  25  27
HETATM   27  C12 UNL     1      34.157  63.335  20.573  1.00  0.00     0.284 C 
HETATM   28  N8  UNL     1      34.452  64.503  21.321  1.00  0.00    -0.056 NA
HETATM   29  O2  UNL     1      33.772  62.350  21.252  1.00  0.00    -0.269 OA
ENDBRANCH  25  27
BRANCH  25  30
HETATM   30  C13 UNL     1      33.069  63.775  18.395  1.00  0.00     0.123 A 
HETATM   31  N9  UNL     1      32.070  64.508  18.877  1.00  0.00    -0.290 N 
HETATM   32  N10 UNL     1      31.098  64.821  18.129  1.00  0.00    -0.283 N 
ATOM     33  H9  UNL     1      32.086  64.818  19.849  1.00  0.00     0.187 HD
HETATM   34  C14 UNL     1      31.104  64.400  16.858  1.00  0.00     0.159 A 
ATOM     35  H10 UNL     1      30.326  65.383  18.487  1.00  0.00     0.188 HD
HETATM   36  S2  UNL     1      29.974  64.665  15.687  1.00  0.00    -0.051 SA
HETATM   37  S3  UNL     1      32.575  63.531  16.790  1.00  0.00    -0.038 SA
ENDBRANCH  25  30
ENDBRANCH  23  24
BRANCH  23  38
HETATM   38  C15 UNL     1      37.399  62.954  19.505  1.00  0.00     0.329 C 
HETATM   39  O3  UNL     1      37.553  62.346  20.551  1.00  0.00    -0.256 OA
BRANCH  38  40
HETATM   40  O4  UNL     1      38.114  64.174  19.381  1.00  0.00    -0.201 OA
BRANCH  40  41
HETATM   41  N11 UNL     1      39.484  64.127  19.208  1.00  0.00    -0.302 N 
ATOM     42 2H11 UNL     1      39.978  64.949  18.861  1.00  0.00     0.184 HD
ATOM     43 1H11 UNL     1      39.979  63.263  19.432  1.00  0.00     0.184 HD
ENDBRANCH  40  41
ENDBRANCH  38  40
ENDBRANCH  23  38
ENDBRANCH  21  23
ENDBRANCH  18  21
ENDBRANCH  16  17
ENDBRANCH  15  16
ENDBRANCH   1  15
TORSDOF 12
ENDMDL
MODEL 3
REMARK VINA RESULT: -6.412293745      3.715      8.183
REMARK  12 active torsions:
REMARK  status: ('A' for Active; 'I' for Inactive)
REMARK    1  A    between atoms: C2_2  and  N1_3 
REMARK    2  A    between atoms: C2_2  and  C10_23 
REMARK       I    between atoms: N1_3  and  C3_5 
REMARK    3  A    between atoms: C3_5  and  C4_7 
REMARK    4  A    between atoms: C4_7  and  S1_8 
REMARK    5  A    between atoms: S1_8  and  C5_9 
REMARK    6  A    between atoms: C9_17  and  N5_18 
REMARK    7  A    between atoms: C10_23  and  N7_24 
REMARK    8  A    between atoms: C10_23  and  C15_38 
REMARK    9  A    between atoms: C11_26  and  C12_27 
REMARK   10  A    between atoms: C11_26  and  C13_30 
REMARK   11  A    between atoms: C15_38  and  O4_40 
REMARK   12  A    between atoms: O4_40  and  N11_41 
ROOT
HETATM    1  C5  UNL     1      36.626  63.697  18.702  1.00  0.00     0.147 A 
HETATM    2  N2  UNL     1      36.180  64.099  19.910  1.00  0.00    -0.324 N 
ATOM      3  H2  UNL     1      36.781  64.616  20.551  1.00  0.00     0.169 HD
HETATM    4  C6  UNL     1      34.911  63.791  20.236  1.00  0.00     0.142 A 
HETATM    5  N3  UNL     1      34.362  64.190  21.493  1.00  0.00    -0.081 NA
HETATM    6  C7  UNL     1      34.074  63.082  19.365  1.00  0.00     0.129 A 
HETATM    7  C8  UNL     1      32.734  62.771  19.712  1.00  0.00     0.106 C 
HETATM    8  N4  UNL     1      31.615  62.529  19.987  1.00  0.00    -0.191 NA
HETATM    9  C9  UNL     1      34.580  62.691  18.138  1.00  0.00     0.125 A 
HETATM   10  N6  UNL     1      35.841  63.006  17.833  1.00  0.00    -0.322 N 
ATOM     11  H6  UNL     1      36.224  62.722  16.930  1.00  0.00     0.169 HD
ENDROOT
BRANCH   9  12
HETATM   12  N5  UNL     1      33.827  62.026  17.303  1.00  0.00    -0.384 N 
ATOM     13  H52 UNL     1      32.985  62.442  16.904  1.00  0.00     0.157 HD
ATOM     14  H51 UNL     1      34.078  61.074  17.037  1.00  0.00     0.157 HD
ENDBRANCH   9  12
BRANCH   1  15
HETATM   15  S1  UNL     1      38.286  64.112  18.195  1.00  0.00    -0.085 SA
BRANCH  15  16
HETATM   16  C4  UNL     1      39.106  65.131  19.476  1.00  0.00     0.185 C 
BRANCH  16  17
HETATM   17  C3  UNL     1      39.821  66.276  18.828  1.00  0.00     0.227 C 
HETATM   18  N1  UNL     1      41.273  66.305  18.874  1.00  0.00    -0.351 N 
ATOM     19  H1  UNL     1      41.769  65.545  19.339  1.00  0.00     0.163 HD
HETATM   20  O1  UNL     1      39.147  67.160  18.277  1.00  0.00    -0.273 OA
BRANCH  18  21
HETATM   21  C2  UNL     1      42.034  67.377  18.281  1.00  0.00     0.136 C 
HETATM   22  C1  UNL     1      43.257  66.832  17.589  1.00  0.00     0.039 C 
BRANCH  21  23
HETATM   23  C10 UNL     1      42.240  68.581  19.122  1.00  0.00     0.110 C 
BRANCH  23  24
HETATM   24  N7  UNL     1      41.092  69.234  19.524  1.00  0.00    -0.346 N 
HETATM   25  C11 UNL     1      40.442  69.679  20.462  1.00  0.00     0.134 C 
ATOM     26  H7  UNL     1      40.556  69.430  18.678  1.00  0.00     0.166 HD
BRANCH  25  27
HETATM   27  C12 UNL     1      40.690  69.697  21.889  1.00  0.00     0.284 C 
HETATM   28  N8  UNL     1      41.309  70.817  22.501  1.00  0.00    -0.056 NA
HETATM   29  O2  UNL     1      40.391  68.760  22.672  1.00  0.00    -0.269 OA
ENDBRANCH  25  27
BRANCH  25  30
HETATM   30  C13 UNL     1      39.148  70.344  20.066  1.00  0.00     0.123 A 
HETATM   31  N9  UNL     1      38.413  70.089  18.987  1.00  0.00    -0.290 N 
HETATM   32  N10 UNL     1      37.335  70.724  18.794  1.00  0.00    -0.283 N 
ATOM     33  H9  UNL     1      38.716  69.382  18.317  1.00  0.00     0.187 HD
HETATM   34  C14 UNL     1      36.962  71.646  19.691  1.00  0.00     0.159 A 
ATOM     35  H10 UNL     1      36.762  70.537  17.971  1.00  0.00     0.188 HD
HETATM   36  S2  UNL     1      35.619  72.602  19.677  1.00  0.00    -0.051 SA
HETATM   37  S3  UNL     1      38.237  71.555  20.827  1.00  0.00    -0.038 SA
ENDBRANCH  25  30
ENDBRANCH  23  24
BRANCH  23  38
HETATM   38  C15 UNL     1      43.356  69.474  18.715  1.00  0.00     0.329 C 
HETATM   39  O3  UNL     1      43.346  70.387  17.907  1.00  0.00    -0.256 OA
BRANCH  38  40
HETATM   40  O4  UNL     1      44.599  69.221  19.354  1.00  0.00    -0.201 OA
BRANCH  40  41
HETATM   41  N11 UNL     1      45.767  69.527  18.683  1.00  0.00    -0.302 N 
ATOM     42 2H11 UNL     1      45.758  69.608  17.667  1.00  0.00     0.184 HD
ATOM     43 1H11 UNL     1      46.622  69.668  19.222  1.00  0.00     0.184 HD
ENDBRANCH  40  41
ENDBRANCH  38  40
ENDBRANCH  23  38
ENDBRANCH  21  23
ENDBRANCH  18  21
ENDBRANCH  16  17
ENDBRANCH  15  16
ENDBRANCH   1  15
TORSDOF 12
ENDMDL
MODEL 4
REMARK VINA RESULT: -6.288644606      3.136      7.988
REMARK  12 active torsions:
REMARK  status: ('A' for Active; 'I' for Inactive)
REMARK    1  A    between atoms: C2_2  and  N1_3 
REMARK    2  A    between atoms: C2_2  and  C10_23 
REMARK       I    between atoms: N1_3  and  C3_5 
REMARK    3  A    between atoms: C3_5  and  C4_7 
REMARK    4  A    between atoms: C4_7  and  S1_8 
REMARK    5  A    between atoms: S1_8  and  C5_9 
REMARK    6  A    between atoms: C9_17  and  N5_18 
REMARK    7  A    between atoms: C10_23  and  N7_24 
REMARK    8  A    between atoms: C10_23  and  C15_38 
REMARK    9  A    between atoms: C11_26  and  C12_27 
REMARK   10  A    between atoms: C11_26  and  C13_30 
REMARK   11  A    between atoms: C15_38  and  O4_40 
REMARK   12  A    between atoms: O4_40  and  N11_41 
ROOT
HETATM    1  C5  UNL     1      37.246  62.119  17.414  1.00  0.00     0.147 A 
HETATM    2  N2  UNL     1      37.742  62.038  18.666  1.00  0.00    -0.324 N 
ATOM      3  H2  UNL     1      38.608  61.535  18.861  1.00  0.00     0.169 HD
HETATM    4  C6  UNL     1      37.052  62.647  19.648  1.00  0.00     0.142 A 
HETATM    5  N3  UNL     1      37.517  62.614  20.998  1.00  0.00    -0.081 NA
HETATM    6  C7  UNL     1      35.862  63.341  19.394  1.00  0.00     0.129 A 
HETATM    7  C8  UNL     1      35.145  63.989  20.433  1.00  0.00     0.106 C 
HETATM    8  N4  UNL     1      34.558  64.547  21.288  1.00  0.00    -0.191 NA
HETATM    9  C9  UNL     1      35.395  63.395  18.093  1.00  0.00     0.125 A 
HETATM   10  N6  UNL     1      36.095  62.784  17.133  1.00  0.00    -0.322 N 
ATOM     11  H6  UNL     1      35.759  62.817  16.171  1.00  0.00     0.169 HD
ENDROOT
BRANCH   9  12
HETATM   12  N5  UNL     1      34.288  64.032  17.822  1.00  0.00    -0.384 N 
ATOM     13  H52 UNL     1      34.129  64.982  18.157  1.00  0.00     0.157 HD
ATOM     14  H51 UNL     1      33.563  63.581  17.264  1.00  0.00     0.157 HD
ENDBRANCH   9  12
BRANCH   1  15
HETATM   15  S1  UNL     1      38.140  61.368  16.064  1.00  0.00    -0.085 SA
BRANCH  15  16
HETATM   16  C4  UNL     1      39.643  62.341  15.678  1.00  0.00     0.185 C 
BRANCH  16  17
HETATM   17  C3  UNL     1      40.171  62.970  16.929  1.00  0.00     0.227 C 
HETATM   18  N1  UNL     1      39.993  64.400  17.117  1.00  0.00    -0.351 N 
ATOM     19  H1  UNL     1      39.510  64.938  16.397  1.00  0.00     0.163 HD
HETATM   20  O1  UNL     1      40.744  62.248  17.760  1.00  0.00    -0.273 OA
BRANCH  18  21
HETATM   21  C2  UNL     1      40.481  65.082  18.291  1.00  0.00     0.136 C 
HETATM   22  C1  UNL     1      39.362  65.839  18.960  1.00  0.00     0.039 C 
BRANCH  21  23
HETATM   23  C10 UNL     1      41.766  65.807  18.144  1.00  0.00     0.110 C 
BRANCH  23  24
HETATM   24  N7  UNL     1      41.915  66.928  18.938  1.00  0.00    -0.346 N 
HETATM   25  C11 UNL     1      42.693  67.715  19.463  1.00  0.00     0.134 C 
ATOM     26  H7  UNL     1      40.975  67.228  19.198  1.00  0.00     0.166 HD
BRANCH  25  27
HETATM   27  C12 UNL     1      44.139  67.797  19.453  1.00  0.00     0.284 C 
HETATM   28  N8  UNL     1      44.926  66.761  20.019  1.00  0.00    -0.056 NA
HETATM   29  O2  UNL     1      44.791  68.755  18.965  1.00  0.00    -0.269 OA
ENDBRANCH  25  27
BRANCH  25  30
HETATM   30  C13 UNL     1      42.031  68.811  20.258  1.00  0.00     0.123 A 
HETATM   31  N9  UNL     1      41.807  68.828  21.570  1.00  0.00    -0.290 N 
HETATM   32  N10 UNL     1      41.249  69.831  22.101  1.00  0.00    -0.283 N 
ATOM     33  H9  UNL     1      42.086  68.033  22.146  1.00  0.00     0.187 HD
HETATM   34  C14 UNL     1      40.893  70.859  21.320  1.00  0.00     0.159 A 
ATOM     35  H10 UNL     1      41.072  69.856  23.106  1.00  0.00     0.188 HD
HETATM   36  S2  UNL     1      40.159  72.270  21.755  1.00  0.00    -0.051 SA
HETATM   37  S3  UNL     1      41.402  70.313  19.781  1.00  0.00    -0.038 SA
ENDBRANCH  25  30
ENDBRANCH  23  24
BRANCH  23  38
HETATM   38  C15 UNL     1      42.274  65.954  16.755  1.00  0.00     0.329 C 
HETATM   39  O3  UNL     1      41.663  66.278  15.751  1.00  0.00    -0.256 OA
BRANCH  38  40
HETATM   40  O4  UNL     1      43.655  65.675  16.583  1.00  0.00    -0.201 OA
BRANCH  40  41
HETATM   41  N11 UNL     1      44.030  64.716  15.661  1.00  0.00    -0.302 N 
ATOM     42 2H11 UNL     1      43.639  63.776  15.723  1.00  0.00     0.184 HD
ATOM     43 1H11 UNL     1      44.696  64.970  14.931  1.00  0.00     0.184 HD
ENDBRANCH  40  41
ENDBRANCH  38  40
ENDBRANCH  23  38
ENDBRANCH  21  23
ENDBRANCH  18  21
ENDBRANCH  16  17
ENDBRANCH  15  16
ENDBRANCH   1  15
TORSDOF 12
ENDMDL
MODEL 5
REMARK VINA RESULT: -6.276250853      3.024      8.826
REMARK  12 active torsions:
REMARK  status: ('A' for Active; 'I' for Inactive)
REMARK    1  A    between atoms: C2_2  and  N1_3 
REMARK    2  A    between atoms: C2_2  and  C10_23 
REMARK       I    between atoms: N1_3  and  C3_5 
REMARK    3  A    between atoms: C3_5  and  C4_7 
REMARK    4  A    between atoms: C4_7  and  S1_8 
REMARK    5  A    between atoms: S1_8  and  C5_9 
REMARK    6  A    between atoms: C9_17  and  N5_18 
REMARK    7  A    between atoms: C10_23  and  N7_24 
REMARK    8  A    between atoms: C10_23  and  C15_38 
REMARK    9  A    between atoms: C11_26  and  C12_27 
REMARK   10  A    between atoms: C11_26  and  C13_30 
REMARK   11  A    between atoms: C15_38  and  O4_40 
REMARK   12  A    between atoms: O4_40  and  N11_41 
ROOT
HETATM    1  C5  UNL     1      36.966  63.355  18.736  1.00  0.00     0.147 A 
HETATM    2  N2  UNL     1      36.478  63.981  19.827  1.00  0.00    -0.324 N 
ATOM      3  H2  UNL     1      37.075  64.563  20.416  1.00  0.00     0.169 HD
HETATM    4  C6  UNL     1      35.173  63.809  20.109  1.00  0.00     0.142 A 
HETATM    5  N3  UNL     1      34.580  64.447  21.241  1.00  0.00    -0.081 NA
HETATM    6  C7  UNL     1      34.343  63.014  19.310  1.00  0.00     0.129 A 
HETATM    7  C8  UNL     1      32.966  62.846  19.608  1.00  0.00     0.106 C 
HETATM    8  N4  UNL     1      31.818  62.721  19.839  1.00  0.00    -0.191 NA
HETATM    9  C9  UNL     1      34.892  62.393  18.202  1.00  0.00     0.125 A 
HETATM   10  N6  UNL     1      36.189  62.576  17.940  1.00  0.00    -0.322 N 
ATOM     11  H6  UNL     1      36.603  62.121  17.126  1.00  0.00     0.169 HD
ENDROOT
BRANCH   9  12
HETATM   12  N5  UNL     1      34.146  61.642  17.437  1.00  0.00    -0.384 N 
ATOM     13  H52 UNL     1      34.504  61.259  16.563  1.00  0.00     0.157 HD
ATOM     14  H51 UNL     1      33.187  61.427  17.711  1.00  0.00     0.157 HD
ENDBRANCH   9  12
BRANCH   1  15
HETATM   15  S1  UNL     1      38.680  63.579  18.287  1.00  0.00    -0.085 SA
BRANCH  15  16
HETATM   16  C4  UNL     1      38.894  65.143  17.357  1.00  0.00     0.185 C 
BRANCH  16  17
HETATM   17  C3  UNL     1      39.080  66.277  18.316  1.00  0.00     0.227 C 
HETATM   18  N1  UNL     1      39.236  67.620  17.784  1.00  0.00    -0.351 N 
ATOM     19  H1  UNL     1      39.210  67.758  16.773  1.00  0.00     0.163 HD
HETATM   20  O1  UNL     1      39.096  66.029  19.532  1.00  0.00    -0.273 OA
BRANCH  18  21
HETATM   21  C2  UNL     1      39.429  68.763  18.641  1.00  0.00     0.136 C 
HETATM   22  C1  UNL     1      38.584  69.920  18.170  1.00  0.00     0.039 C 
BRANCH  21  23
HETATM   23  C10 UNL     1      40.830  69.083  19.008  1.00  0.00     0.110 C 
BRANCH  23  24
HETATM   24  N7  UNL     1      41.803  68.466  18.247  1.00  0.00    -0.346 N 
HETATM   25  C11 UNL     1      42.991  68.190  18.132  1.00  0.00     0.134 C 
ATOM     26  H7  UNL     1      41.332  68.071  17.433  1.00  0.00     0.166 HD
BRANCH  25  27
HETATM   27  C12 UNL     1      44.138  68.481  18.968  1.00  0.00     0.284 C 
HETATM   28  N8  UNL     1      44.392  67.718  20.137  1.00  0.00    -0.056 NA
HETATM   29  O2  UNL     1      44.968  69.396  18.739  1.00  0.00    -0.269 OA
ENDBRANCH  25  27
BRANCH  25  30
HETATM   30  C13 UNL     1      43.330  67.389  16.901  1.00  0.00     0.123 A 
HETATM   31  N9  UNL     1      44.351  67.586  16.071  1.00  0.00    -0.290 N 
HETATM   32  N10 UNL     1      44.515  66.817  15.079  1.00  0.00    -0.283 N 
ATOM     33  H9  UNL     1      45.002  68.354  16.235  1.00  0.00     0.187 HD
HETATM   34  C14 UNL     1      43.645  65.817  14.890  1.00  0.00     0.159 A 
ATOM     35  H10 UNL     1      45.295  66.957  14.436  1.00  0.00     0.188 HD
HETATM   36  S2  UNL     1      43.631  64.686  13.689  1.00  0.00    -0.051 SA
HETATM   37  S3  UNL     1      42.579  66.034  16.209  1.00  0.00    -0.038 SA
ENDBRANCH  25  30
ENDBRANCH  23  24
BRANCH  23  38
HETATM   38  C15 UNL     1      41.122  69.146  20.464  1.00  0.00     0.329 C 
HETATM   39  O3  UNL     1      41.440  70.112  21.136  1.00  0.00    -0.256 OA
BRANCH  38  40
HETATM   40  O4  UNL     1      41.018  67.910  21.156  1.00  0.00    -0.201 OA
BRANCH  40  41
HETATM   41  N11 UNL     1      40.038  67.769  22.120  1.00  0.00    -0.302 N 
ATOM     42 2H11 UNL     1      39.717  66.837  22.381  1.00  0.00     0.184 HD
ATOM     43 1H11 UNL     1      39.651  68.607  22.555  1.00  0.00     0.184 HD
ENDBRANCH  40  41
ENDBRANCH  38  40
ENDBRANCH  23  38
ENDBRANCH  21  23
ENDBRANCH  18  21
ENDBRANCH  16  17
ENDBRANCH  15  16
ENDBRANCH   1  15
TORSDOF 12
ENDMDL
