MODEL 1
REMARK VINA RESULT: -8.270128380      0.000      0.000
REMARK  6 active torsions:
REMARK  status: ('A' for Active; 'I' for Inactive)
REMARK       I    between atoms: N2_3  and  C2_5 
REMARK    1  A    between atoms: C2_5  and  C3_7 
REMARK       I    between atoms: C3_7  and  N3_9 
REMARK    2  A    between atoms: N3_9  and  C4_11 
REMARK    3  A    between atoms: C4_11  and  C5_12 
REMARK    4  A    between atoms: C5_12  and  O3_13 
REMARK    5  A    between atoms: C5_12  and  N4_15 
REMARK    6  A    between atoms: N4_15  and  C6_17 
ROOT
HETATM    1  N1  UNL     1      16.276  -8.344  20.255  1.00  0.00    -0.172 NA
HETATM    2  C1  UNL     1      15.262  -7.846  20.163  1.00  0.00     0.184 C 
HETATM    3  N2  UNL     1      14.010  -7.224  20.042  1.00  0.00    -0.256 N 
ATOM      4  H2  UNL     1      13.881  -6.429  19.415  1.00  0.00     0.181 HD
HETATM    5  C2  UNL     1      12.925  -7.726  20.812  1.00  0.00     0.322 C 
HETATM    6  O1  UNL     1      13.070  -8.696  21.569  1.00  0.00    -0.261 OA
ENDROOT
BRANCH   5   7
HETATM    7  C3  UNL     1      11.588  -7.057  20.681  1.00  0.00     0.310 C 
HETATM    8  O2  UNL     1      10.710  -7.390  21.492  1.00  0.00    -0.262 OA
HETATM    9  N3  UNL     1      11.446  -6.105  19.636  1.00  0.00    -0.349 N 
ATOM     10  H3  UNL     1      12.235  -5.862  19.037  1.00  0.00     0.163 HD
BRANCH   9  11
HETATM   11  C4  UNL     1      10.176  -5.503  19.449  1.00  0.00     0.176 C 
BRANCH  11  12
HETATM   12  C5  UNL     1       9.295  -6.033  18.377  1.00  0.00     0.231 C 
BRANCH  12  13
HETATM   13  O3  UNL     1       8.033  -5.370  18.541  1.00  0.00    -0.376 OA
ATOM     14  H3  UNL     1       7.406  -6.052  18.751  1.00  0.00     0.212 HD
ENDBRANCH  12  13
BRANCH  12  15
HETATM   15  N4  UNL     1       9.249  -7.415  18.217  1.00  0.00    -0.386 N 
ATOM     16  H4  UNL     1       9.173  -8.027  19.030  1.00  0.00     0.156 HD
BRANCH  15  17
HETATM   17  C6  UNL     1       9.310  -7.970  16.890  1.00  0.00     0.032 C 
HETATM   18  C7  UNL     1       9.548  -6.855  15.839  1.00  0.00     0.035 C 
HETATM   19  C8  UNL     1      10.183  -7.688  14.736  1.00  0.00    -0.011 C 
HETATM   20  C9  UNL     1       9.215  -8.758  14.247  1.00  0.00     0.009 C 
HETATM   21  C13 UNL     1      11.302  -8.346  15.527  1.00  0.00     0.012 C 
HETATM   22  C10 UNL     1       8.769  -9.664  15.344  1.00  0.00    -0.011 C 
HETATM   23  C11 UNL     1       9.885 -10.196  16.164  1.00  0.00     0.012 C 
HETATM   24  C14 UNL     1       8.119  -8.701  16.392  1.00  0.00     0.035 C 
HETATM   25  C12 UNL     1      10.500  -8.890  16.708  1.00  0.00     0.014 C 
ENDBRANCH  15  17
ENDBRANCH  12  15
ENDBRANCH  11  12
ENDBRANCH   9  11
ENDBRANCH   5   7
TORSDOF 6
ENDMDL
MODEL 2
REMARK VINA RESULT: -7.755355132      0.857      1.745
REMARK  6 active torsions:
REMARK  status: ('A' for Active; 'I' for Inactive)
REMARK       I    between atoms: N2_3  and  C2_5 
REMARK    1  A    between atoms: C2_5  and  C3_7 
REMARK       I    between atoms: C3_7  and  N3_9 
REMARK    2  A    between atoms: N3_9  and  C4_11 
REMARK    3  A    between atoms: C4_11  and  C5_12 
REMARK    4  A    between atoms: C5_12  and  O3_13 
REMARK    5  A    between atoms: C5_12  and  N4_15 
REMARK    6  A    between atoms: N4_15  and  C6_17 
ROOT
HETATM    1  N1  UNL     1      15.935  -6.830  19.448  1.00  0.00    -0.172 NA
HETATM    2  C1  UNL     1      14.804  -6.761  19.480  1.00  0.00     0.184 C 
HETATM    3  N2  UNL     1      13.404  -6.671  19.510  1.00  0.00    -0.256 N 
ATOM      4  H2  UNL     1      12.892  -6.244  18.738  1.00  0.00     0.181 HD
HETATM    5  C2  UNL     1      12.716  -7.188  20.642  1.00  0.00     0.322 C 
HETATM    6  O1  UNL     1      13.328  -7.715  21.581  1.00  0.00    -0.261 OA
ENDROOT
BRANCH   5   7
HETATM    7  C3  UNL     1      11.218  -7.088  20.672  1.00  0.00     0.310 C 
HETATM    8  O2  UNL     1      10.616  -7.881  21.411  1.00  0.00    -0.262 OA
HETATM    9  N3  UNL     1      10.624  -6.097  19.845  1.00  0.00    -0.349 N 
ATOM     10  H3  UNL     1      11.199  -5.459  19.296  1.00  0.00     0.163 HD
BRANCH   9  11
HETATM   11  C4  UNL     1       9.209  -6.021  19.805  1.00  0.00     0.176 C 
BRANCH  11  12
HETATM   12  C5  UNL     1       8.537  -6.072  18.482  1.00  0.00     0.231 C 
BRANCH  12  13
HETATM   13  O3  UNL     1       7.396  -5.208  18.586  1.00  0.00    -0.376 OA
ATOM     14  H3  UNL     1       6.639  -5.752  18.406  1.00  0.00     0.212 HD
ENDBRANCH  12  13
BRANCH  12  15
HETATM   15  N4  UNL     1       8.308  -7.331  17.934  1.00  0.00    -0.386 N 
ATOM     16  H4  UNL     1       7.521  -7.898  18.252  1.00  0.00     0.156 HD
BRANCH  15  17
HETATM   17  C6  UNL     1       9.195  -7.824  16.912  1.00  0.00     0.032 C 
HETATM   18  C7  UNL     1      10.251  -8.783  17.517  1.00  0.00     0.035 C 
HETATM   19  C8  UNL     1      10.584  -9.597  16.275  1.00  0.00    -0.011 C 
HETATM   20  C9  UNL     1      11.162  -8.700  15.187  1.00  0.00     0.009 C 
HETATM   21  C13 UNL     1       9.185 -10.035  15.876  1.00  0.00     0.012 C 
HETATM   22  C10 UNL     1      10.234  -7.596  14.809  1.00  0.00    -0.011 C 
HETATM   23  C11 UNL     1       8.849  -8.052  14.536  1.00  0.00     0.012 C 
HETATM   24  C14 UNL     1       9.991  -6.829  16.151  1.00  0.00     0.035 C 
HETATM   25  C12 UNL     1       8.474  -8.683  15.894  1.00  0.00     0.014 C 
ENDBRANCH  15  17
ENDBRANCH  12  15
ENDBRANCH  11  12
ENDBRANCH   9  11
ENDBRANCH   5   7
TORSDOF 6
ENDMDL
MODEL 3
REMARK VINA RESULT: -7.429710883      0.973      1.808
REMARK  6 active torsions:
REMARK  status: ('A' for Active; 'I' for Inactive)
REMARK       I    between atoms: N2_3  and  C2_5 
REMARK    1  A    between atoms: C2_5  and  C3_7 
REMARK       I    between atoms: C3_7  and  N3_9 
REMARK    2  A    between atoms: N3_9  and  C4_11 
REMARK    3  A    between atoms: C4_11  and  C5_12 
REMARK    4  A    between atoms: C5_12  and  O3_13 
REMARK    5  A    between atoms: C5_12  and  N4_15 
REMARK    6  A    between atoms: N4_15  and  C6_17 
ROOT
HETATM    1  N1  UNL     1      16.296  -8.705  20.531  1.00  0.00    -0.172 NA
HETATM    2  C1  UNL     1      15.184  -8.566  20.704  1.00  0.00     0.184 C 
HETATM    3  N2  UNL     1      13.808  -8.403  20.925  1.00  0.00    -0.256 N 
ATOM      4  H2  UNL     1      13.291  -9.062  21.508  1.00  0.00     0.181 HD
HETATM    5  C2  UNL     1      13.150  -7.299  20.317  1.00  0.00     0.322 C 
HETATM    6  O1  UNL     1      13.770  -6.489  19.614  1.00  0.00    -0.261 OA
ENDROOT
BRANCH   5   7
HETATM    7  C3  UNL     1      11.677  -7.128  20.553  1.00  0.00     0.310 C 
HETATM    8  O2  UNL     1      11.168  -7.813  21.453  1.00  0.00    -0.262 OA
HETATM    9  N3  UNL     1      10.997  -6.202  19.718  1.00  0.00    -0.349 N 
ATOM     10  H3  UNL     1      11.503  -5.651  19.025  1.00  0.00     0.163 HD
BRANCH   9  11
HETATM   11  C4  UNL     1       9.594  -6.066  19.875  1.00  0.00     0.176 C 
BRANCH  11  12
HETATM   12  C5  UNL     1       8.740  -6.123  18.662  1.00  0.00     0.231 C 
BRANCH  12  13
HETATM   13  O3  UNL     1       7.594  -5.308  18.949  1.00  0.00    -0.376 OA
ATOM     14  H3  UNL     1       6.848  -5.769  18.584  1.00  0.00     0.212 HD
ENDBRANCH  12  13
BRANCH  12  15
HETATM   15  N4  UNL     1       8.482  -7.382  18.125  1.00  0.00    -0.386 N 
ATOM     16  H4  UNL     1       7.730  -7.960  18.502  1.00  0.00     0.156 HD
BRANCH  15  17
HETATM   17  C6  UNL     1       9.289  -7.857  17.031  1.00  0.00     0.032 C 
HETATM   18  C7  UNL     1      10.340  -8.881  17.530  1.00  0.00     0.035 C 
HETATM   19  C8  UNL     1      10.571  -9.647  16.236  1.00  0.00    -0.011 C 
HETATM   20  C9  UNL     1      11.119  -8.722  15.156  1.00  0.00     0.009 C 
HETATM   21  C13 UNL     1       9.135 -10.016  15.901  1.00  0.00     0.012 C 
HETATM   22  C10 UNL     1      10.213  -7.569  14.883  1.00  0.00    -0.011 C 
HETATM   23  C11 UNL     1       8.798  -7.962  14.673  1.00  0.00     0.012 C 
HETATM   24  C14 UNL     1      10.077  -6.857  16.270  1.00  0.00     0.035 C 
HETATM   25  C12 UNL     1       8.479  -8.642  16.021  1.00  0.00     0.014 C 
ENDBRANCH  15  17
ENDBRANCH  12  15
ENDBRANCH  11  12
ENDBRANCH   9  11
ENDBRANCH   5   7
TORSDOF 6
ENDMDL
MODEL 4
REMARK VINA RESULT: -7.274196670      0.745      1.476
REMARK  6 active torsions:
REMARK  status: ('A' for Active; 'I' for Inactive)
REMARK       I    between atoms: N2_3  and  C2_5 
REMARK    1  A    between atoms: C2_5  and  C3_7 
REMARK       I    between atoms: C3_7  and  N3_9 
REMARK    2  A    between atoms: N3_9  and  C4_11 
REMARK    3  A    between atoms: C4_11  and  C5_12 
REMARK    4  A    between atoms: C5_12  and  O3_13 
REMARK    5  A    between atoms: C5_12  and  N4_15 
REMARK    6  A    between atoms: N4_15  and  C6_17 
ROOT
HETATM    1  N1  UNL     1      16.254  -8.337  20.197  1.00  0.00    -0.172 NA
HETATM    2  C1  UNL     1      15.235  -7.840  20.154  1.00  0.00     0.184 C 
HETATM    3  N2  UNL     1      13.979  -7.219  20.092  1.00  0.00    -0.256 N 
ATOM      4  H2  UNL     1      13.828  -6.404  19.495  1.00  0.00     0.181 HD
HETATM    5  C2  UNL     1      12.921  -7.749  20.879  1.00  0.00     0.322 C 
HETATM    6  O1  UNL     1      13.092  -8.743  21.600  1.00  0.00    -0.261 OA
ENDROOT
BRANCH   5   7
HETATM    7  C3  UNL     1      11.578  -7.081  20.813  1.00  0.00     0.310 C 
HETATM    8  O2  UNL     1      10.720  -7.462  21.623  1.00  0.00    -0.262 OA
HETATM    9  N3  UNL     1      11.409  -6.077  19.822  1.00  0.00    -0.349 N 
ATOM     10  H3  UNL     1      12.183  -5.799  19.220  1.00  0.00     0.163 HD
BRANCH   9  11
HETATM   11  C4  UNL     1      10.133  -5.473  19.694  1.00  0.00     0.176 C 
BRANCH  11  12
HETATM   12  C5  UNL     1       9.174  -6.049  18.717  1.00  0.00     0.231 C 
BRANCH  12  13
HETATM   13  O3  UNL     1       8.629  -7.220  19.343  1.00  0.00    -0.376 OA
ATOM     14  H3  UNL     1       9.080  -7.958  18.952  1.00  0.00     0.212 HD
ENDBRANCH  12  13
BRANCH  12  15
HETATM   15  N4  UNL     1       9.617  -6.201  17.406  1.00  0.00    -0.386 N 
ATOM     16  H4  UNL     1       9.953  -5.395  16.878  1.00  0.00     0.156 HD
BRANCH  15  17
HETATM   17  C6  UNL     1       9.597  -7.509  16.805  1.00  0.00     0.032 C 
HETATM   18  C7  UNL     1       8.140  -7.985  16.577  1.00  0.00     0.035 C 
HETATM   19  C8  UNL     1       8.377  -8.970  15.441  1.00  0.00    -0.011 C 
HETATM   20  C9  UNL     1       9.298 -10.096  15.893  1.00  0.00     0.009 C 
HETATM   21  C13 UNL     1       9.125  -8.066  14.474  1.00  0.00     0.012 C 
HETATM   22  C10 UNL     1      10.614  -9.593  16.382  1.00  0.00    -0.011 C 
HETATM   23  C11 UNL     1      11.258  -8.625  15.461  1.00  0.00     0.012 C 
HETATM   24  C14 UNL     1      10.237  -8.621  17.550  1.00  0.00     0.035 C 
HETATM   25  C12 UNL     1      10.194  -7.510  15.413  1.00  0.00     0.014 C 
ENDBRANCH  15  17
ENDBRANCH  12  15
ENDBRANCH  11  12
ENDBRANCH   9  11
ENDBRANCH   5   7
TORSDOF 6
ENDMDL
MODEL 5
REMARK VINA RESULT: -6.959360523      3.975      7.086
REMARK  6 active torsions:
REMARK  status: ('A' for Active; 'I' for Inactive)
REMARK       I    between atoms: N2_3  and  C2_5 
REMARK    1  A    between atoms: C2_5  and  C3_7 
REMARK       I    between atoms: C3_7  and  N3_9 
REMARK    2  A    between atoms: N3_9  and  C4_11 
REMARK    3  A    between atoms: C4_11  and  C5_12 
REMARK    4  A    between atoms: C5_12  and  O3_13 
REMARK    5  A    between atoms: C5_12  and  N4_15 
REMARK    6  A    between atoms: N4_15  and  C6_17 
ROOT
HETATM    1  N1  UNL     1       7.492 -15.031  14.368  1.00  0.00    -0.172 NA
HETATM    2  C1  UNL     1       7.673 -13.941  14.622  1.00  0.00     0.184 C 
HETATM    3  N2  UNL     1       7.899 -12.594  14.946  1.00  0.00    -0.256 N 
ATOM      4  H2  UNL     1       7.936 -12.291  15.920  1.00  0.00     0.181 HD
HETATM    5  C2  UNL     1       8.075 -11.663  13.887  1.00  0.00     0.322 C 
HETATM    6  O1  UNL     1       8.041 -12.023  12.702  1.00  0.00    -0.261 OA
ENDROOT
BRANCH   5   7
HETATM    7  C3  UNL     1       8.314 -10.222  14.237  1.00  0.00     0.310 C 
HETATM    8  O2  UNL     1       8.374  -9.417  13.295  1.00  0.00    -0.262 OA
HETATM    9  N3  UNL     1       8.457  -9.912  15.616  1.00  0.00    -0.349 N 
ATOM     10  H3  UNL     1       8.354 -10.634  16.329  1.00  0.00     0.163 HD
BRANCH   9  11
HETATM   11  C4  UNL     1       8.746  -8.571  15.972  1.00  0.00     0.176 C 
BRANCH  11  12
HETATM   12  C5  UNL     1      10.073  -8.268  16.564  1.00  0.00     0.231 C 
BRANCH  12  13
HETATM   13  O3  UNL     1      11.037  -8.572  15.546  1.00  0.00    -0.376 OA
ATOM     14  H3  UNL     1      11.817  -8.862  16.003  1.00  0.00     0.212 HD
ENDBRANCH  12  13
BRANCH  12  15
HETATM   15  N4  UNL     1      10.335  -8.780  17.832  1.00  0.00    -0.386 N 
ATOM     16  H4  UNL     1      10.515  -9.776  17.961  1.00  0.00     0.156 HD
BRANCH  15  17
HETATM   17  C6  UNL     1      10.349  -7.885  18.961  1.00  0.00     0.032 C 
HETATM   18  C7  UNL     1      11.142  -8.502  20.141  1.00  0.00     0.035 C 
HETATM   19  C8  UNL     1      11.541  -7.225  20.865  1.00  0.00    -0.011 C 
HETATM   20  C9  UNL     1      10.304  -6.463  21.324  1.00  0.00     0.009 C 
HETATM   21  C13 UNL     1      12.196  -6.476  19.716  1.00  0.00     0.012 C 
HETATM   22  C10 UNL     1       9.397  -6.116  20.193  1.00  0.00    -0.011 C 
HETATM   23  C11 UNL     1      10.095  -5.489  19.044  1.00  0.00     0.012 C 
HETATM   24  C14 UNL     1       9.044  -7.500  19.552  1.00  0.00     0.035 C 
HETATM   25  C12 UNL     1      11.095  -6.601  18.664  1.00  0.00     0.014 C 
ENDBRANCH  15  17
ENDBRANCH  12  15
ENDBRANCH  11  12
ENDBRANCH   9  11
ENDBRANCH   5   7
TORSDOF 6
ENDMDL
