MODEL 1
REMARK VINA RESULT: -6.489169430      0.000      0.000
REMARK  7 active torsions:
REMARK  status: ('A' for Active; 'I' for Inactive)
REMARK    1  A    between atoms: C1_2  and  C2_3 
REMARK    2  A    between atoms: C2_3  and  O2_4 
REMARK    3  A    between atoms: C2_3  and  C3_6 
REMARK       I    between atoms: C3_6  and  N1_8 
REMARK    4  A    between atoms: N1_8  and  C4_10 
REMARK    5  A    between atoms: C12_19  and  C13_20 
REMARK    6  A    between atoms: C13_20  and  O4_21 
REMARK    7  A    between atoms: C13_20  and  O5_23 
ROOT
HETATM    1  C4  UNL     1      11.340  -7.105  18.861  1.00  0.00     0.069 C 
HETATM    2  C5  UNL     1      10.875  -8.454  19.350  1.00  0.00     0.034 C 
HETATM    3  C6  UNL     1      10.306  -9.201  18.172  1.00  0.00     0.007 C 
HETATM    4  C7  UNL     1      10.341  -8.217  17.025  1.00  0.00    -0.012 C 
HETATM    5  C8  UNL     1       9.059  -7.662  16.614  1.00  0.00     0.012 C 
HETATM    6  C9  UNL     1       8.297  -6.704  17.361  1.00  0.00     0.043 C 
HETATM    7  C10 UNL     1       8.875  -5.354  17.606  1.00  0.00     0.279 C 
HETATM    8  N2  UNL     1       9.195  -5.805  18.932  1.00  0.00     0.101 N 
HETATM    9  C11 UNL     1       8.220  -6.770  18.845  1.00  0.00     0.279 C 
HETATM   10  C12 UNL     1      10.522  -5.965  19.267  1.00  0.00     0.305 C 
HETATM   11  C14 UNL     1      11.454  -7.329  17.377  1.00  0.00     0.038 C 
ENDROOT
BRANCH   1  12
HETATM   12  N1  UNL     1      12.683  -6.903  19.371  1.00  0.00    -0.347 N 
HETATM   13  C3  UNL     1      13.328  -7.591  20.394  1.00  0.00     0.254 C 
HETATM   14  O3  UNL     1      12.782  -8.511  21.026  1.00  0.00    -0.270 OA
ATOM     15  H1  UNL     1      13.224  -6.163  18.923  1.00  0.00     0.163 HD
BRANCH  13  16
HETATM   16  C2  UNL     1      14.740  -7.269  20.813  1.00  0.00     0.270 C 
BRANCH  16  17
HETATM   17  C1  UNL     1      15.503  -6.589  19.753  1.00  0.00     0.272 C 
HETATM   18  O1  UNL     1      15.572  -5.397  19.717  1.00  0.00    -0.304 OA
ENDBRANCH  16  17
BRANCH  16  19
HETATM   19  O2  UNL     1      15.425  -8.410  21.199  1.00  0.00    -0.379 OA
ATOM     20  H2  UNL     1      14.863  -8.933  21.756  1.00  0.00     0.211 HD
ENDBRANCH  16  19
ENDBRANCH  13  16
ENDBRANCH   1  12
BRANCH  10  21
HETATM   21  C13 UNL     1      10.717  -5.675  20.741  1.00  0.00     0.289 C 
BRANCH  21  22
HETATM   22  O4  UNL     1      10.232  -6.647  21.580  1.00  0.00    -0.369 OA
ATOM     23  H4  UNL     1      10.621  -6.648  22.447  1.00  0.00     0.212 HD
ENDBRANCH  21  22
BRANCH  21  24
HETATM   24  O5  UNL     1      10.024  -4.486  21.082  1.00  0.00    -0.369 OA
ATOM     25  H5  UNL     1       9.962  -4.418  22.028  1.00  0.00     0.212 HD
ENDBRANCH  21  24
ENDBRANCH  10  21
TORSDOF 7
ENDMDL
MODEL 2
REMARK VINA RESULT: -6.185550452      1.459      2.323
REMARK  7 active torsions:
REMARK  status: ('A' for Active; 'I' for Inactive)
REMARK    1  A    between atoms: C1_2  and  C2_3 
REMARK    2  A    between atoms: C2_3  and  O2_4 
REMARK    3  A    between atoms: C2_3  and  C3_6 
REMARK       I    between atoms: C3_6  and  N1_8 
REMARK    4  A    between atoms: N1_8  and  C4_10 
REMARK    5  A    between atoms: C12_19  and  C13_20 
REMARK    6  A    between atoms: C13_20  and  O4_21 
REMARK    7  A    between atoms: C13_20  and  O5_23 
ROOT
HETATM    1  C4  UNL     1      11.199  -7.396  18.852  1.00  0.00     0.069 C 
HETATM    2  C5  UNL     1      10.601  -8.568  18.114  1.00  0.00     0.034 C 
HETATM    3  C6  UNL     1       9.556  -8.036  17.171  1.00  0.00     0.007 C 
HETATM    4  C7  UNL     1       9.476  -6.555  17.463  1.00  0.00    -0.012 C 
HETATM    5  C8  UNL     1       8.294  -6.103  18.183  1.00  0.00     0.012 C 
HETATM    6  C9  UNL     1       8.027  -6.352  19.570  1.00  0.00     0.043 C 
HETATM    7  C10 UNL     1       8.945  -5.784  20.595  1.00  0.00     0.279 C 
HETATM    8  N2  UNL     1       9.529  -7.093  20.700  1.00  0.00     0.101 N 
HETATM    9  C11 UNL     1       8.377  -7.653  20.200  1.00  0.00     0.279 C 
HETATM   10  C12 UNL     1      10.821  -7.270  20.257  1.00  0.00     0.305 C 
HETATM   11  C14 UNL     1      10.817  -6.240  17.969  1.00  0.00     0.038 C 
ENDROOT
BRANCH   1  12
HETATM   12  N1  UNL     1      12.642  -7.535  18.781  1.00  0.00    -0.347 N 
HETATM   13  C3  UNL     1      13.615  -6.677  19.280  1.00  0.00     0.254 C 
HETATM   14  O3  UNL     1      13.333  -5.625  19.878  1.00  0.00    -0.270 OA
ATOM     15  H1  UNL     1      12.986  -8.368  18.303  1.00  0.00     0.163 HD
BRANCH  13  16
HETATM   16  C2  UNL     1      15.088  -6.960  19.132  1.00  0.00     0.270 C 
BRANCH  16  17
HETATM   17  C1  UNL     1      15.604  -7.845  20.190  1.00  0.00     0.272 C 
HETATM   18  O1  UNL     1      14.981  -8.800  20.548  1.00  0.00    -0.304 OA
ENDBRANCH  16  17
BRANCH  16  19
HETATM   19  O2  UNL     1      15.830  -5.789  19.126  1.00  0.00    -0.379 OA
ATOM     20  H2  UNL     1      15.242  -5.053  19.013  1.00  0.00     0.211 HD
ENDBRANCH  16  19
ENDBRANCH  13  16
ENDBRANCH   1  12
BRANCH  10  21
HETATM   21  C13 UNL     1      11.503  -8.342  21.083  1.00  0.00     0.289 C 
BRANCH  21  22
HETATM   22  O4  UNL     1      10.708  -8.908  22.048  1.00  0.00    -0.369 OA
ATOM     23  H4  UNL     1      11.168  -9.479  22.652  1.00  0.00     0.212 HD
ENDBRANCH  21  22
BRANCH  21  24
HETATM   24  O5  UNL     1      12.606  -7.775  21.772  1.00  0.00    -0.369 OA
ATOM     25  H5  UNL     1      12.912  -8.386  22.431  1.00  0.00     0.212 HD
ENDBRANCH  21  24
ENDBRANCH  10  21
TORSDOF 7
ENDMDL
MODEL 3
REMARK VINA RESULT: -5.457902098      7.174      8.787
REMARK  7 active torsions:
REMARK  status: ('A' for Active; 'I' for Inactive)
REMARK    1  A    between atoms: C1_2  and  C2_3 
REMARK    2  A    between atoms: C2_3  and  O2_4 
REMARK    3  A    between atoms: C2_3  and  C3_6 
REMARK       I    between atoms: C3_6  and  N1_8 
REMARK    4  A    between atoms: N1_8  and  C4_10 
REMARK    5  A    between atoms: C12_19  and  C13_20 
REMARK    6  A    between atoms: C13_20  and  O4_21 
REMARK    7  A    between atoms: C13_20  and  O5_23 
ROOT
HETATM    1  C4  UNL     1       7.067 -12.122  14.449  1.00  0.00     0.069 C 
HETATM    2  C5  UNL     1       6.064 -12.751  15.384  1.00  0.00     0.034 C 
HETATM    3  C6  UNL     1       6.460 -14.189  15.588  1.00  0.00     0.007 C 
HETATM    4  C7  UNL     1       7.635 -14.411  14.662  1.00  0.00    -0.012 C 
HETATM    5  C8  UNL     1       7.375 -15.206  13.471  1.00  0.00     0.012 C 
HETATM    6  C9  UNL     1       6.613 -14.769  12.337  1.00  0.00     0.043 C 
HETATM    7  C10 UNL     1       7.109 -13.616  11.536  1.00  0.00     0.279 C 
HETATM    8  N2  UNL     1       6.138 -12.809  12.221  1.00  0.00     0.101 N 
HETATM    9  C11 UNL     1       5.396 -13.931  12.503  1.00  0.00     0.279 C 
HETATM   10  C12 UNL     1       6.588 -11.845  13.097  1.00  0.00     0.305 C 
HETATM   11  C14 UNL     1       8.228 -13.075  14.546  1.00  0.00     0.038 C 
ENDROOT
BRANCH   1  12
HETATM   12  N1  UNL     1       7.485 -10.869  15.048  1.00  0.00    -0.347 N 
HETATM   13  C3  UNL     1       8.457  -9.982  14.598  1.00  0.00     0.254 C 
HETATM   14  O3  UNL     1       9.120 -10.185  13.567  1.00  0.00    -0.270 OA
ATOM     15  H1  UNL     1       7.005 -10.604  15.908  1.00  0.00     0.163 HD
BRANCH  13  16
HETATM   16  C2  UNL     1       8.781  -8.705  15.331  1.00  0.00     0.270 C 
BRANCH  16  17
HETATM   17  C1  UNL     1      10.001  -8.055  14.824  1.00  0.00     0.272 C 
HETATM   18  O1  UNL     1      11.050  -8.207  15.372  1.00  0.00    -0.304 OA
ENDBRANCH  16  17
BRANCH  16  19
HETATM   19  O2  UNL     1       8.922  -8.925  16.692  1.00  0.00    -0.379 OA
ATOM     20  H2  UNL     1       8.179  -9.429  17.001  1.00  0.00     0.211 HD
ENDBRANCH  16  19
ENDBRANCH  13  16
ENDBRANCH   1  12
BRANCH  10  21
HETATM   21  C13 UNL     1       5.627 -10.674  13.109  1.00  0.00     0.289 C 
BRANCH  21  22
HETATM   22  O4  UNL     1       4.427 -10.917  12.489  1.00  0.00    -0.369 OA
ATOM     23  H4  UNL     1       3.684 -10.973  13.079  1.00  0.00     0.212 HD
ENDBRANCH  21  22
BRANCH  21  24
HETATM   24  O5  UNL     1       6.208  -9.582  12.416  1.00  0.00    -0.369 OA
ATOM     25  H5  UNL     1       6.189  -9.756  11.482  1.00  0.00     0.212 HD
ENDBRANCH  21  24
ENDBRANCH  10  21
TORSDOF 7
ENDMDL
MODEL 4
REMARK VINA RESULT: -5.381982508      3.423      5.340
REMARK  7 active torsions:
REMARK  status: ('A' for Active; 'I' for Inactive)
REMARK    1  A    between atoms: C1_2  and  C2_3 
REMARK    2  A    between atoms: C2_3  and  O2_4 
REMARK    3  A    between atoms: C2_3  and  C3_6 
REMARK       I    between atoms: C3_6  and  N1_8 
REMARK    4  A    between atoms: N1_8  and  C4_10 
REMARK    5  A    between atoms: C12_19  and  C13_20 
REMARK    6  A    between atoms: C13_20  and  O4_21 
REMARK    7  A    between atoms: C13_20  and  O5_23 
ROOT
HETATM    1  C4  UNL     1      10.187  -7.798  18.544  1.00  0.00     0.069 C 
HETATM    2  C5  UNL     1      11.420  -7.152  17.963  1.00  0.00     0.034 C 
HETATM    3  C6  UNL     1      12.528  -7.278  18.974  1.00  0.00     0.007 C 
HETATM    4  C7  UNL     1      11.884  -7.898  20.193  1.00  0.00    -0.012 C 
HETATM    5  C8  UNL     1      11.668  -7.012  21.328  1.00  0.00     0.012 C 
HETATM    6  C9  UNL     1      10.685  -5.969  21.386  1.00  0.00     0.043 C 
HETATM    7  C10 UNL     1       9.242  -6.332  21.315  1.00  0.00     0.279 C 
HETATM    8  N2  UNL     1       9.277  -5.921  19.938  1.00  0.00     0.101 N 
HETATM    9  C11 UNL     1      10.375  -5.135  20.194  1.00  0.00     0.279 C 
HETATM   10  C12 UNL     1       9.128  -6.883  18.964  1.00  0.00     0.305 C 
HETATM   11  C14 UNL     1      10.767  -8.664  19.629  1.00  0.00     0.038 C 
ENDROOT
BRANCH   1  12
HETATM   12  N1  UNL     1       9.646  -8.681  17.528  1.00  0.00    -0.347 N 
HETATM   13  C3  UNL     1       9.930  -8.704  16.167  1.00  0.00     0.254 C 
HETATM   14  O3  UNL     1      10.727  -7.911  15.639  1.00  0.00    -0.270 OA
ATOM     15  H1  UNL     1       8.973  -9.375  17.853  1.00  0.00     0.163 HD
BRANCH  13  16
HETATM   16  C2  UNL     1       9.287  -9.693  15.229  1.00  0.00     0.270 C 
BRANCH  16  17
HETATM   17  C1  UNL     1       9.199  -9.188  13.848  1.00  0.00     0.272 C 
HETATM   18  O1  UNL     1       8.553  -9.764  13.025  1.00  0.00    -0.304 OA
ENDBRANCH  16  17
BRANCH  16  19
HETATM   19  O2  UNL     1       8.019 -10.049  15.659  1.00  0.00    -0.379 OA
ATOM     20  H2  UNL     1       7.512 -10.344  14.912  1.00  0.00     0.211 HD
ENDBRANCH  16  19
ENDBRANCH  13  16
ENDBRANCH   1  12
BRANCH  10  21
HETATM   21  C13 UNL     1       8.439  -6.285  17.754  1.00  0.00     0.289 C 
BRANCH  21  22
HETATM   22  O4  UNL     1       9.229  -5.450  17.005  1.00  0.00    -0.369 OA
ATOM     23  H4  UNL     1       8.915  -5.299  16.121  1.00  0.00     0.212 HD
ENDBRANCH  21  22
BRANCH  21  24
HETATM   24  O5  UNL     1       7.338  -5.500  18.181  1.00  0.00    -0.369 OA
ATOM     25  H5  UNL     1       6.745  -5.366  17.451  1.00  0.00     0.212 HD
ENDBRANCH  21  24
ENDBRANCH  10  21
TORSDOF 7
ENDMDL
MODEL 5
REMARK VINA RESULT: -5.368377837      9.166     10.972
REMARK  7 active torsions:
REMARK  status: ('A' for Active; 'I' for Inactive)
REMARK    1  A    between atoms: C1_2  and  C2_3 
REMARK    2  A    between atoms: C2_3  and  O2_4 
REMARK    3  A    between atoms: C2_3  and  C3_6 
REMARK       I    between atoms: C3_6  and  N1_8 
REMARK    4  A    between atoms: N1_8  and  C4_10 
REMARK    5  A    between atoms: C12_19  and  C13_20 
REMARK    6  A    between atoms: C13_20  and  O4_21 
REMARK    7  A    between atoms: C13_20  and  O5_23 
ROOT
HETATM    1  C4  UNL     1       5.645 -12.893  14.091  1.00  0.00     0.069 C 
HETATM    2  C5  UNL     1       6.738 -12.483  15.047  1.00  0.00     0.034 C 
HETATM    3  C6  UNL     1       8.017 -13.138  14.596  1.00  0.00     0.007 C 
HETATM    4  C7  UNL     1       7.620 -14.025  13.438  1.00  0.00    -0.012 C 
HETATM    5  C8  UNL     1       7.604 -15.457  13.700  1.00  0.00     0.012 C 
HETATM    6  C9  UNL     1       6.631 -16.138  14.504  1.00  0.00     0.043 C 
HETATM    7  C10 UNL     1       5.207 -16.137  14.070  1.00  0.00     0.279 C 
HETATM    8  N2  UNL     1       4.978 -15.113  15.051  1.00  0.00     0.101 N 
HETATM    9  C11 UNL     1       6.091 -15.522  15.746  1.00  0.00     0.279 C 
HETATM   10  C12 UNL     1       4.667 -13.844  14.613  1.00  0.00     0.305 C 
HETATM   11  C14 UNL     1       6.432 -13.357  12.895  1.00  0.00     0.038 C 
ENDROOT
BRANCH   1  12
HETATM   12  N1  UNL     1       4.941 -11.686  13.702  1.00  0.00    -0.347 N 
HETATM   13  C3  UNL     1       5.443 -10.572  13.038  1.00  0.00     0.254 C 
HETATM   14  O3  UNL     1       6.632 -10.484  12.688  1.00  0.00    -0.270 OA
ATOM     15  H1  UNL     1       3.951 -11.649  13.946  1.00  0.00     0.163 HD
BRANCH  13  16
HETATM   16  C2  UNL     1       4.580  -9.384  12.694  1.00  0.00     0.270 C 
BRANCH  16  17
HETATM   17  C1  UNL     1       3.154  -9.622  12.973  1.00  0.00     0.272 C 
HETATM   18  O1  UNL     1       2.771  -9.819  14.087  1.00  0.00    -0.304 OA
ENDBRANCH  16  17
BRANCH  16  19
HETATM   19  O2  UNL     1       4.724  -9.023  11.364  1.00  0.00    -0.379 OA
ATOM     20  H2  UNL     1       4.746  -9.808  10.832  1.00  0.00     0.211 HD
ENDBRANCH  16  19
ENDBRANCH  13  16
ENDBRANCH   1  12
BRANCH  10  21
HETATM   21  C13 UNL     1       3.756 -13.165  15.614  1.00  0.00     0.289 C 
BRANCH  21  22
HETATM   22  O4  UNL     1       3.296 -13.986  16.613  1.00  0.00    -0.369 OA
ATOM     23  H4  UNL     1       2.836 -13.536  17.312  1.00  0.00     0.212 HD
ENDBRANCH  21  22
BRANCH  21  24
HETATM   24  O5  UNL     1       2.602 -12.681  14.946  1.00  0.00    -0.369 OA
ATOM     25  H5  UNL     1       2.099 -12.137  15.541  1.00  0.00     0.212 HD
ENDBRANCH  21  24
ENDBRANCH  10  21
TORSDOF 7
ENDMDL
