MODEL 1
REMARK VINA RESULT: -5.836770637      0.000      0.000
REMARK  7 active torsions:
REMARK  status: ('A' for Active; 'I' for Inactive)
REMARK    1  A    between atoms: C2_2  and  N1_3 
REMARK    2  A    between atoms: N1_3  and  C3_5 
REMARK    3  A    between atoms: C3_5  and  N2_7 
REMARK    4  A    between atoms: N2_7  and  N3_9 
REMARK       I    between atoms: N3_9  and  C4_11 
REMARK       I    between atoms: C4_11  and  N4_13 
REMARK    5  A    between atoms: N4_13  and  N5_14 
REMARK    6  A    between atoms: C5_16  and  C6_17 
REMARK    7  A    between atoms: N6_21  and  O2_22 
ROOT
HETATM    1  N3  UNL     1      10.312  -7.878  18.119  1.00  0.00    -0.236 N 
ATOM      2  H3  UNL     1      10.584  -8.830  18.364  1.00  0.00     0.193 HD
HETATM    3  C4  UNL     1       9.521  -7.666  16.901  1.00  0.00     0.431 C 
HETATM    4  O1  UNL     1       9.282  -6.399  16.766  1.00  0.00    -0.227 OA
HETATM    5  N4  UNL     1       9.163  -8.696  16.131  1.00  0.00    -0.264 NA
ENDROOT
BRANCH   1   6
HETATM    6  N2  UNL     1      10.705  -6.845  18.948  1.00  0.00    -0.272 N 
ATOM      7  H2  UNL     1      11.472  -6.230  18.676  1.00  0.00     0.189 HD
BRANCH   6   8
HETATM    8  C3  UNL     1      10.037  -6.649  20.176  1.00  0.00     0.186 C 
HETATM    9  S1  UNL     1       8.570  -5.947  20.171  1.00  0.00    -0.040 SA
BRANCH   8  10
HETATM   10  N1  UNL     1      10.650  -7.057  21.387  1.00  0.00    -0.366 N 
ATOM     11  H1  UNL     1      10.107  -7.082  22.250  1.00  0.00     0.161 HD
BRANCH  10  12
HETATM   12  C2  UNL     1      12.045  -7.437  21.400  1.00  0.00     0.117 C 
HETATM   13  C1  UNL     1      12.162  -8.936  21.393  1.00  0.00     0.026 C 
ENDBRANCH  10  12
ENDBRANCH   8  10
ENDBRANCH   6   8
ENDBRANCH   1   6
BRANCH   5  14
HETATM   14  N5  UNL     1       8.811  -9.710  15.373  1.00  0.00    -0.239 N 
HETATM   15  C5  UNL     1       7.797 -10.477  15.422  1.00  0.00     0.160 C 
ATOM     16  H5  UNL     1       9.462  -9.917  14.616  1.00  0.00     0.201 HD
BRANCH  15  17
HETATM   17  C6  UNL     1       7.736 -11.526  14.382  1.00  0.00     0.120 A 
HETATM   18  S2  UNL     1       7.840 -13.222  14.550  1.00  0.00    -0.079 SA
HETATM   19  C7  UNL     1       7.684 -13.648  12.901  1.00  0.00     0.071 A 
HETATM   20  C8  UNL     1       7.557 -12.420  12.311  1.00  0.00     0.131 A 
HETATM   21  N6  UNL     1       7.585 -11.362  13.065  1.00  0.00    -0.227 N 
BRANCH  21  22
HETATM   22  O2  UNL     1       7.463 -10.048  12.547  1.00  0.00    -0.282 OA
ATOM     23  H2  UNL     1       7.486  -9.312  13.148  1.00  0.00     0.245 HD
ENDBRANCH  21  22
ENDBRANCH  15  17
ENDBRANCH   5  14
TORSDOF 7
ENDMDL
MODEL 2
REMARK VINA RESULT: -5.744335691      1.895      1.971
REMARK  7 active torsions:
REMARK  status: ('A' for Active; 'I' for Inactive)
REMARK    1  A    between atoms: C2_2  and  N1_3 
REMARK    2  A    between atoms: N1_3  and  C3_5 
REMARK    3  A    between atoms: C3_5  and  N2_7 
REMARK    4  A    between atoms: N2_7  and  N3_9 
REMARK       I    between atoms: N3_9  and  C4_11 
REMARK       I    between atoms: C4_11  and  N4_13 
REMARK    5  A    between atoms: N4_13  and  N5_14 
REMARK    6  A    between atoms: C5_16  and  C6_17 
REMARK    7  A    between atoms: N6_21  and  O2_22 
ROOT
HETATM    1  N3  UNL     1      11.062  -7.939  18.478  1.00  0.00    -0.236 N 
ATOM      2  H3  UNL     1      11.434  -8.887  18.435  1.00  0.00     0.193 HD
HETATM    3  C4  UNL     1       9.903  -7.601  17.643  1.00  0.00     0.431 C 
HETATM    4  O1  UNL     1       9.587  -6.359  17.839  1.00  0.00    -0.227 OA
HETATM    5  N4  UNL     1       9.347  -8.515  16.844  1.00  0.00    -0.264 NA
ENDROOT
BRANCH   1   6
HETATM    6  N2  UNL     1      11.670  -7.029  19.321  1.00  0.00    -0.272 N 
ATOM      7  H2  UNL     1      11.605  -6.029  19.132  1.00  0.00     0.189 HD
BRANCH   6   8
HETATM    8  C3  UNL     1      12.383  -7.495  20.447  1.00  0.00     0.186 C 
HETATM    9  S1  UNL     1      11.737  -8.682  21.353  1.00  0.00    -0.040 SA
BRANCH   8  10
HETATM   10  N1  UNL     1      13.638  -6.924  20.774  1.00  0.00    -0.366 N 
ATOM     11  H1  UNL     1      13.740  -6.369  21.624  1.00  0.00     0.161 HD
BRANCH  10  12
HETATM   12  C2  UNL     1      14.775  -7.127  19.904  1.00  0.00     0.117 C 
HETATM   13  C1  UNL     1      15.517  -8.367  20.319  1.00  0.00     0.026 C 
ENDBRANCH  10  12
ENDBRANCH   8  10
ENDBRANCH   6   8
ENDBRANCH   1   6
BRANCH   5  14
HETATM   14  N5  UNL     1       8.800  -9.415  16.058  1.00  0.00    -0.239 N 
HETATM   15  C5  UNL     1       8.859  -9.569  14.797  1.00  0.00     0.160 C 
ATOM     16  H5  UNL     1       8.229 -10.107  16.543  1.00  0.00     0.201 HD
BRANCH  15  17
HETATM   17  C6  UNL     1       8.100 -10.716  14.255  1.00  0.00     0.120 A 
HETATM   18  S2  UNL     1       8.072 -12.340  14.781  1.00  0.00    -0.079 SA
HETATM   19  C7  UNL     1       6.971 -12.959  13.629  1.00  0.00     0.071 A 
HETATM   20  C8  UNL     1       6.686 -11.841  12.892  1.00  0.00     0.131 A 
HETATM   21  N6  UNL     1       7.260 -10.721  13.217  1.00  0.00    -0.227 N 
BRANCH  21  22
HETATM   22  O2  UNL     1       7.031  -9.511  12.513  1.00  0.00    -0.282 OA
ATOM     23  H2  UNL     1       6.161  -9.334  12.174  1.00  0.00     0.245 HD
ENDBRANCH  21  22
ENDBRANCH  15  17
ENDBRANCH   5  14
TORSDOF 7
ENDMDL
MODEL 3
REMARK VINA RESULT: -5.709975755      2.400      2.640
REMARK  7 active torsions:
REMARK  status: ('A' for Active; 'I' for Inactive)
REMARK    1  A    between atoms: C2_2  and  N1_3 
REMARK    2  A    between atoms: N1_3  and  C3_5 
REMARK    3  A    between atoms: C3_5  and  N2_7 
REMARK    4  A    between atoms: N2_7  and  N3_9 
REMARK       I    between atoms: N3_9  and  C4_11 
REMARK       I    between atoms: C4_11  and  N4_13 
REMARK    5  A    between atoms: N4_13  and  N5_14 
REMARK    6  A    between atoms: C5_16  and  C6_17 
REMARK    7  A    between atoms: N6_21  and  O2_22 
ROOT
HETATM    1  N3  UNL     1      11.516  -7.336  18.786  1.00  0.00    -0.236 N 
ATOM      2  H3  UNL     1      12.107  -7.650  18.016  1.00  0.00     0.193 HD
HETATM    3  C4  UNL     1      10.069  -7.570  18.701  1.00  0.00     0.431 C 
HETATM    4  O1  UNL     1       9.500  -7.100  19.767  1.00  0.00    -0.227 OA
HETATM    5  N4  UNL     1       9.538  -8.182  17.641  1.00  0.00    -0.264 NA
ENDROOT
BRANCH   1   6
HETATM    6  N2  UNL     1      12.113  -6.709  19.862  1.00  0.00    -0.272 N 
ATOM      7  H2  UNL     1      12.002  -5.705  19.998  1.00  0.00     0.189 HD
BRANCH   6   8
HETATM    8  C3  UNL     1      12.877  -7.470  20.772  1.00  0.00     0.186 C 
HETATM    9  S1  UNL     1      12.188  -8.747  21.507  1.00  0.00    -0.040 SA
BRANCH   8  10
HETATM   10  N1  UNL     1      14.223  -7.112  21.037  1.00  0.00    -0.366 N 
ATOM     11  H1  UNL     1      14.456  -6.592  21.883  1.00  0.00     0.161 HD
BRANCH  10  12
HETATM   12  C2  UNL     1      15.267  -7.484  20.108  1.00  0.00     0.117 C 
HETATM   13  C1  UNL     1      15.884  -8.787  20.533  1.00  0.00     0.026 C 
ENDBRANCH  10  12
ENDBRANCH   8  10
ENDBRANCH   6   8
ENDBRANCH   1   6
BRANCH   5  14
HETATM   14  N5  UNL     1       9.014  -8.785  16.597  1.00  0.00    -0.239 N 
HETATM   15  C5  UNL     1       9.252  -9.925  16.085  1.00  0.00     0.160 C 
ATOM     16  H5  UNL     1       8.295  -8.246  16.115  1.00  0.00     0.201 HD
BRANCH  15  17
HETATM   17  C6  UNL     1       8.450 -10.271  14.891  1.00  0.00     0.120 A 
HETATM   18  S2  UNL     1       7.404 -11.597  14.638  1.00  0.00    -0.079 SA
HETATM   19  C7  UNL     1       6.916 -11.231  13.041  1.00  0.00     0.071 A 
HETATM   20  C8  UNL     1       7.610 -10.076  12.799  1.00  0.00     0.131 A 
HETATM   21  N6  UNL     1       8.377  -9.605  13.736  1.00  0.00    -0.227 N 
BRANCH  21  22
HETATM   22  O2  UNL     1       9.136  -8.417  13.580  1.00  0.00    -0.282 OA
ATOM     23  H2  UNL     1       8.693  -7.578  13.629  1.00  0.00     0.245 HD
ENDBRANCH  21  22
ENDBRANCH  15  17
ENDBRANCH   5  14
TORSDOF 7
ENDMDL
MODEL 4
REMARK VINA RESULT: -5.664557596      1.586      2.131
REMARK  7 active torsions:
REMARK  status: ('A' for Active; 'I' for Inactive)
REMARK    1  A    between atoms: C2_2  and  N1_3 
REMARK    2  A    between atoms: N1_3  and  C3_5 
REMARK    3  A    between atoms: C3_5  and  N2_7 
REMARK    4  A    between atoms: N2_7  and  N3_9 
REMARK       I    between atoms: N3_9  and  C4_11 
REMARK       I    between atoms: C4_11  and  N4_13 
REMARK    5  A    between atoms: N4_13  and  N5_14 
REMARK    6  A    between atoms: C5_16  and  C6_17 
REMARK    7  A    between atoms: N6_21  and  O2_22 
ROOT
HETATM    1  N3  UNL     1      10.207  -8.626  17.939  1.00  0.00    -0.236 N 
ATOM      2  H3  UNL     1      10.224  -9.624  18.152  1.00  0.00     0.193 HD
HETATM    3  C4  UNL     1       9.400  -8.166  16.803  1.00  0.00     0.431 C 
HETATM    4  O1  UNL     1       9.511  -6.878  16.698  1.00  0.00    -0.227 OA
HETATM    5  N4  UNL     1       8.702  -9.032  16.065  1.00  0.00    -0.264 NA
ENDROOT
BRANCH   1   6
HETATM    6  N2  UNL     1      10.944  -7.770  18.733  1.00  0.00    -0.272 N 
ATOM      7  H2  UNL     1      11.655  -7.168  18.318  1.00  0.00     0.189 HD
BRANCH   6   8
HETATM    8  C3  UNL     1      10.706  -7.734  20.124  1.00  0.00     0.186 C 
HETATM    9  S1  UNL     1      11.769  -8.450  21.124  1.00  0.00    -0.040 SA
BRANCH   8  10
HETATM   10  N1  UNL     1       9.550  -7.085  20.626  1.00  0.00    -0.366 N 
ATOM     11  H1  UNL     1       9.006  -7.517  21.373  1.00  0.00     0.161 HD
BRANCH  10  12
HETATM   12  C2  UNL     1       9.141  -5.810  20.080  1.00  0.00     0.117 C 
HETATM   13  C1  UNL     1       7.758  -5.925  19.501  1.00  0.00     0.026 C 
ENDBRANCH  10  12
ENDBRANCH   8  10
ENDBRANCH   6   8
ENDBRANCH   1   6
BRANCH   5  14
HETATM   14  N5  UNL     1       8.015  -9.884  15.339  1.00  0.00    -0.239 N 
HETATM   15  C5  UNL     1       8.357 -10.978  14.788  1.00  0.00     0.160 C 
ATOM     16  H5  UNL     1       7.040  -9.623  15.191  1.00  0.00     0.201 HD
BRANCH  15  17
HETATM   17  C6  UNL     1       7.293 -11.679  14.037  1.00  0.00     0.120 A 
HETATM   18  S2  UNL     1       6.709 -13.273  14.221  1.00  0.00    -0.079 SA
HETATM   19  C7  UNL     1       5.526 -13.252  12.987  1.00  0.00     0.071 A 
HETATM   20  C8  UNL     1       5.661 -11.980  12.499  1.00  0.00     0.131 A 
HETATM   21  N6  UNL     1       6.551 -11.200  13.035  1.00  0.00    -0.227 N 
BRANCH  21  22
HETATM   22  O2  UNL     1       6.766  -9.868  12.598  1.00  0.00    -0.282 OA
ATOM     23  H2  UNL     1       6.119  -9.204  12.810  1.00  0.00     0.245 HD
ENDBRANCH  21  22
ENDBRANCH  15  17
ENDBRANCH   5  14
TORSDOF 7
ENDMDL
MODEL 5
REMARK VINA RESULT: -5.571553971      1.849      7.931
REMARK  7 active torsions:
REMARK  status: ('A' for Active; 'I' for Inactive)
REMARK    1  A    between atoms: C2_2  and  N1_3 
REMARK    2  A    between atoms: N1_3  and  C3_5 
REMARK    3  A    between atoms: C3_5  and  N2_7 
REMARK    4  A    between atoms: N2_7  and  N3_9 
REMARK       I    between atoms: N3_9  and  C4_11 
REMARK       I    between atoms: C4_11  and  N4_13 
REMARK    5  A    between atoms: N4_13  and  N5_14 
REMARK    6  A    between atoms: C5_16  and  C6_17 
REMARK    7  A    between atoms: N6_21  and  O2_22 
ROOT
HETATM    1  N3  UNL     1       7.582 -10.549  14.790  1.00  0.00    -0.236 N 
ATOM      2  H3  UNL     1       7.110 -10.756  15.670  1.00  0.00     0.193 HD
HETATM    3  C4  UNL     1       8.652  -9.545  14.786  1.00  0.00     0.431 C 
HETATM    4  O1  UNL     1       9.118  -9.426  13.582  1.00  0.00    -0.227 OA
HETATM    5  N4  UNL     1       9.003  -8.917  15.910  1.00  0.00    -0.264 NA
ENDROOT
BRANCH   1   6
HETATM    6  N2  UNL     1       7.184 -11.226  13.653  1.00  0.00    -0.272 N 
ATOM      7  H2  UNL     1       6.634 -10.752  12.938  1.00  0.00     0.189 HD
BRANCH   6   8
HETATM    8  C3  UNL     1       7.545 -12.581  13.491  1.00  0.00     0.186 C 
HETATM    9  S1  UNL     1       7.365 -13.275  12.031  1.00  0.00    -0.040 SA
BRANCH   8  10
HETATM   10  N1  UNL     1       8.049 -13.315  14.594  1.00  0.00    -0.366 N 
ATOM     11  H1  UNL     1       8.712 -12.880  15.235  1.00  0.00     0.161 HD
BRANCH  10  12
HETATM   12  C2  UNL     1       7.624 -14.680  14.810  1.00  0.00     0.117 C 
HETATM   13  C1  UNL     1       6.768 -14.756  16.043  1.00  0.00     0.026 C 
ENDBRANCH  10  12
ENDBRANCH   8  10
ENDBRANCH   6   8
ENDBRANCH   1   6
BRANCH   5  14
HETATM   14  N5  UNL     1       9.349  -8.299  17.017  1.00  0.00    -0.239 N 
HETATM   15  C5  UNL     1      10.494  -8.004  17.487  1.00  0.00     0.160 C 
ATOM     16  H5  UNL     1       8.565  -8.006  17.600  1.00  0.00     0.201 HD
BRANCH  15  17
HETATM   17  C6  UNL     1      10.492  -7.293  18.782  1.00  0.00     0.120 A 
HETATM   18  S2  UNL     1      11.091  -7.803  20.298  1.00  0.00    -0.079 SA
HETATM   19  C7  UNL     1      10.688  -6.414  21.209  1.00  0.00     0.071 A 
HETATM   20  C8  UNL     1      10.102  -5.622  20.259  1.00  0.00     0.131 A 
HETATM   21  N6  UNL     1      10.010  -6.075  19.044  1.00  0.00    -0.227 N 
BRANCH  21  22
HETATM   22  O2  UNL     1       9.418  -5.330  17.992  1.00  0.00    -0.282 OA
ATOM     23  H2  UNL     1       9.978  -4.815  17.422  1.00  0.00     0.245 HD
ENDBRANCH  21  22
ENDBRANCH  15  17
ENDBRANCH   5  14
TORSDOF 7
ENDMDL
