MODEL 1
REMARK VINA RESULT: -6.062960301      0.000      0.000
REMARK  4 active torsions:
REMARK  status: ('A' for Active; 'I' for Inactive)
REMARK       I    between atoms: N1_2  and  C2_4 
REMARK       I    between atoms: C2_4  and  N2_6 
REMARK    1  A    between atoms: N2_6  and  N3_8 
REMARK       I    between atoms: C3_10  and  N4_11 
REMARK       I    between atoms: C3_10  and  N5_19 
REMARK    2  A    between atoms: N4_11  and  C4_13 
REMARK    3  A    between atoms: C4_13  and  C5_14 
REMARK    4  A    between atoms: N5_19  and  S1_21 
ROOT
HETATM    1  N3  UNL     1      11.710  -6.967  19.646  1.00  0.00    -0.128 N 
ATOM      2  H3  UNL     1      11.442  -6.355  20.416  1.00  0.00     0.205 HD
HETATM    3  C3  UNL     1      10.833  -7.549  18.901  1.00  0.00     0.702 C 
HETATM    4  N4  UNL     1      11.172  -8.406  17.825  1.00  0.00    -0.218 N 
ATOM      5  H4  UNL     1      11.458  -9.366  18.016  1.00  0.00     0.178 HD
HETATM    6  N5  UNL     1       9.457  -7.282  19.222  1.00  0.00    -0.116 N 
ATOM      7  H5  UNL     1       8.747  -7.944  18.908  1.00  0.00     0.197 HD
ENDROOT
BRANCH   1   8
HETATM    8  N2  UNL     1      13.064  -7.226  19.334  1.00  0.00    -0.237 N 
HETATM    9  C2  UNL     1      13.946  -7.796  20.282  1.00  0.00     0.334 C 
HETATM   10  N1  UNL     1      15.298  -8.038  19.922  1.00  0.00    -0.346 N 
HETATM   11  O1  UNL     1      13.579  -8.102  21.444  1.00  0.00    -0.246 OA
HETATM   12  C1  UNL     1      16.258  -8.619  20.839  1.00  0.00     0.151 C 
ATOM     13  H1  UNL     1      15.606  -7.794  18.981  1.00  0.00     0.163 HD
ATOM     14  H2  UNL     1      13.413  -6.995  18.404  1.00  0.00     0.192 HD
ENDBRANCH   1   8
BRANCH   4  15
HETATM   15  C4  UNL     1      11.118  -7.934  16.457  1.00  0.00     0.203 C 
BRANCH  15  16
HETATM   16  C5  UNL     1      10.124  -8.721  15.684  1.00  0.00     0.070 A 
HETATM   17  C6  UNL     1       9.656  -8.446  14.396  1.00  0.00     0.036 A 
HETATM   18  C7  UNL     1       8.745  -9.425  14.055  1.00  0.00     0.027 A 
HETATM   19  C8  UNL     1       8.696 -10.257  15.153  1.00  0.00     0.142 A 
HETATM   20  O2  UNL     1       9.514  -9.809  16.076  1.00  0.00    -0.325 OA
ENDBRANCH  15  16
ENDBRANCH   4  15
BRANCH   6  21
HETATM   21  S1  UNL     1       8.959  -5.915  20.101  1.00  0.00     0.240 S 
HETATM   22  C9  UNL     1       7.312  -5.393  19.663  1.00  0.00     0.186 C 
HETATM   23  O3  UNL     1       9.944  -4.807  19.887  1.00  0.00    -0.206 OA
HETATM   24  O4  UNL     1       8.933  -6.181  21.593  1.00  0.00    -0.206 OA
ENDBRANCH   6  21
TORSDOF 4
ENDMDL
MODEL 2
REMARK VINA RESULT: -6.035085796      2.368      5.539
REMARK  4 active torsions:
REMARK  status: ('A' for Active; 'I' for Inactive)
REMARK       I    between atoms: N1_2  and  C2_4 
REMARK       I    between atoms: C2_4  and  N2_6 
REMARK    1  A    between atoms: N2_6  and  N3_8 
REMARK       I    between atoms: C3_10  and  N4_11 
REMARK       I    between atoms: C3_10  and  N5_19 
REMARK    2  A    between atoms: N4_11  and  C4_13 
REMARK    3  A    between atoms: C4_13  and  C5_14 
REMARK    4  A    between atoms: N5_19  and  S1_21 
ROOT
HETATM    1  N3  UNL     1      11.954  -8.200  19.474  1.00  0.00    -0.128 N 
ATOM      2  H3  UNL     1      12.821  -8.447  18.997  1.00  0.00     0.205 HD
HETATM    3  C3  UNL     1      11.946  -7.485  20.548  1.00  0.00     0.702 C 
HETATM    4  N4  UNL     1      10.760  -7.127  21.234  1.00  0.00    -0.218 N 
ATOM      5  H4  UNL     1      10.302  -7.809  21.839  1.00  0.00     0.178 HD
HETATM    6  N5  UNL     1      13.231  -7.058  21.029  1.00  0.00    -0.116 N 
ATOM      7  H5  UNL     1      13.320  -6.792  22.010  1.00  0.00     0.197 HD
ENDROOT
BRANCH   1   8
HETATM    8  N2  UNL     1      10.692  -8.623  18.996  1.00  0.00    -0.237 N 
HETATM    9  C2  UNL     1      10.360  -8.553  17.622  1.00  0.00     0.334 C 
HETATM   10  N1  UNL     1       9.080  -8.989  17.190  1.00  0.00    -0.346 N 
HETATM   11  O1  UNL     1      11.159  -8.116  16.758  1.00  0.00    -0.246 OA
HETATM   12  C1  UNL     1       8.670  -8.948  15.801  1.00  0.00     0.151 C 
ATOM     13  H1  UNL     1       8.424  -9.347  17.884  1.00  0.00     0.163 HD
ATOM     14  H2  UNL     1      10.006  -8.986  19.658  1.00  0.00     0.192 HD
ENDBRANCH   1   8
BRANCH   4  15
HETATM   15  C4  UNL     1      10.189  -5.804  21.087  1.00  0.00     0.203 C 
BRANCH  15  16
HETATM   16  C5  UNL     1       9.378  -5.733  19.845  1.00  0.00     0.070 A 
HETATM   17  C6  UNL     1       7.999  -5.937  19.732  1.00  0.00     0.036 A 
HETATM   18  C7  UNL     1       7.652  -5.776  18.406  1.00  0.00     0.027 A 
HETATM   19  C8  UNL     1       8.836  -5.480  17.766  1.00  0.00     0.142 A 
HETATM   20  O2  UNL     1       9.813  -5.466  18.642  1.00  0.00    -0.325 OA
ENDBRANCH  15  16
ENDBRANCH   4  15
BRANCH   6  21
HETATM   21  S1  UNL     1      14.611  -6.974  20.039  1.00  0.00     0.240 S 
HETATM   22  C9  UNL     1      15.657  -8.408  20.213  1.00  0.00     0.186 C 
HETATM   23  O3  UNL     1      15.368  -5.721  20.355  1.00  0.00    -0.206 OA
HETATM   24  O4  UNL     1      14.249  -6.894  18.569  1.00  0.00    -0.206 OA
ENDBRANCH   6  21
TORSDOF 4
ENDMDL
MODEL 3
REMARK VINA RESULT: -5.638084626      5.974      9.108
REMARK  4 active torsions:
REMARK  status: ('A' for Active; 'I' for Inactive)
REMARK       I    between atoms: N1_2  and  C2_4 
REMARK       I    between atoms: C2_4  and  N2_6 
REMARK    1  A    between atoms: N2_6  and  N3_8 
REMARK       I    between atoms: C3_10  and  N4_11 
REMARK       I    between atoms: C3_10  and  N5_19 
REMARK    2  A    between atoms: N4_11  and  C4_13 
REMARK    3  A    between atoms: C4_13  and  C5_14 
REMARK    4  A    between atoms: N5_19  and  S1_21 
ROOT
HETATM    1  N3  UNL     1       6.114 -11.872  12.358  1.00  0.00    -0.128 N 
ATOM      2  H3  UNL     1       5.219 -11.802  11.875  1.00  0.00     0.205 HD
HETATM    3  C3  UNL     1       6.748 -10.828  12.772  1.00  0.00     0.702 C 
HETATM    4  N4  UNL     1       7.992 -10.891  13.446  1.00  0.00    -0.218 N 
ATOM      5  H4  UNL     1       8.848 -11.039  12.911  1.00  0.00     0.178 HD
HETATM    6  N5  UNL     1       6.116  -9.563  12.512  1.00  0.00    -0.116 N 
ATOM      7  H5  UNL     1       6.694  -8.723  12.507  1.00  0.00     0.197 HD
ENDROOT
BRANCH   1   8
HETATM    8  N2  UNL     1       6.730 -13.118  12.613  1.00  0.00    -0.237 N 
HETATM    9  C2  UNL     1       7.412 -13.828  11.596  1.00  0.00     0.334 C 
HETATM   10  N1  UNL     1       8.016 -15.076  11.900  1.00  0.00    -0.346 N 
HETATM   11  O1  UNL     1       7.507 -13.395  10.421  1.00  0.00    -0.246 OA
HETATM   12  C1  UNL     1       8.730 -15.859  10.912  1.00  0.00     0.151 C 
ATOM     13  H1  UNL     1       7.945 -15.437  12.852  1.00  0.00     0.163 HD
ATOM     14  H2  UNL     1       6.682 -13.515  13.552  1.00  0.00     0.192 HD
ENDBRANCH   1   8
BRANCH   4  15
HETATM   15  C4  UNL     1       8.064 -10.747  14.885  1.00  0.00     0.203 C 
BRANCH  15  16
HETATM   16  C5  UNL     1       8.767  -9.487  15.239  1.00  0.00     0.070 A 
HETATM   17  C6  UNL     1       9.516  -8.677  14.381  1.00  0.00     0.036 A 
HETATM   18  C7  UNL     1       9.993  -7.608  15.113  1.00  0.00     0.027 A 
HETATM   19  C8  UNL     1       9.514  -7.814  16.389  1.00  0.00     0.142 A 
HETATM   20  O2  UNL     1       8.806  -8.919  16.415  1.00  0.00    -0.325 OA
ENDBRANCH  15  16
ENDBRANCH   4  15
BRANCH   6  21
HETATM   21  S1  UNL     1       4.450  -9.403  12.210  1.00  0.00     0.240 S 
HETATM   22  C9  UNL     1       3.980  -7.714  11.890  1.00  0.00     0.186 C 
HETATM   23  O3  UNL     1       3.685  -9.959  13.372  1.00  0.00    -0.206 OA
HETATM   24  O4  UNL     1       4.017 -10.198  10.994  1.00  0.00    -0.206 OA
ENDBRANCH   6  21
TORSDOF 4
ENDMDL
MODEL 4
REMARK VINA RESULT: -5.539007944      6.432      9.975
REMARK  4 active torsions:
REMARK  status: ('A' for Active; 'I' for Inactive)
REMARK       I    between atoms: N1_2  and  C2_4 
REMARK       I    between atoms: C2_4  and  N2_6 
REMARK    1  A    between atoms: N2_6  and  N3_8 
REMARK       I    between atoms: C3_10  and  N4_11 
REMARK       I    between atoms: C3_10  and  N5_19 
REMARK    2  A    between atoms: N4_11  and  C4_13 
REMARK    3  A    between atoms: C4_13  and  C5_14 
REMARK    4  A    between atoms: N5_19  and  S1_21 
ROOT
HETATM    1  N3  UNL     1       5.897 -11.690  12.181  1.00  0.00    -0.128 N 
ATOM      2  H3  UNL     1       5.503 -12.403  11.568  1.00  0.00     0.205 HD
HETATM    3  C3  UNL     1       7.001 -11.876  12.822  1.00  0.00     0.702 C 
HETATM    4  N4  UNL     1       7.574 -10.906  13.681  1.00  0.00    -0.218 N 
ATOM      5  H4  UNL     1       7.199 -10.782  14.622  1.00  0.00     0.178 HD
HETATM    6  N5  UNL     1       7.640 -13.147  12.619  1.00  0.00    -0.116 N 
ATOM      7  H5  UNL     1       8.302 -13.477  13.322  1.00  0.00     0.197 HD
ENDROOT
BRANCH   1   8
HETATM    8  N2  UNL     1       5.265 -10.441  12.377  1.00  0.00    -0.237 N 
HETATM    9  C2  UNL     1       4.152 -10.302  13.240  1.00  0.00     0.334 C 
HETATM   10  N1  UNL     1       3.550  -9.027  13.405  1.00  0.00    -0.346 N 
HETATM   11  O1  UNL     1       3.667 -11.272  13.874  1.00  0.00    -0.246 OA
HETATM   12  C1  UNL     1       2.409  -8.809  14.270  1.00  0.00     0.151 C 
ATOM     13  H1  UNL     1       3.936  -8.233  12.894  1.00  0.00     0.163 HD
ATOM     14  H2  UNL     1       5.619  -9.621  11.884  1.00  0.00     0.192 HD
ENDBRANCH   1   8
BRANCH   4  15
HETATM   15  C4  UNL     1       8.685 -10.089  13.240  1.00  0.00     0.203 C 
BRANCH  15  16
HETATM   16  C5  UNL     1       9.215  -9.291  14.375  1.00  0.00     0.070 A 
HETATM   17  C6  UNL     1       9.390  -9.722  15.693  1.00  0.00     0.036 A 
HETATM   18  C7  UNL     1       9.907  -8.669  16.420  1.00  0.00     0.027 A 
HETATM   19  C8  UNL     1      10.023  -7.638  15.513  1.00  0.00     0.142 A 
HETATM   20  O2  UNL     1       9.609  -8.045  14.336  1.00  0.00    -0.325 OA
ENDBRANCH  15  16
ENDBRANCH   4  15
BRANCH   6  21
HETATM   21  S1  UNL     1       7.345 -14.128  11.261  1.00  0.00     0.240 S 
HETATM   22  C9  UNL     1       8.467 -15.510  11.168  1.00  0.00     0.186 C 
HETATM   23  O3  UNL     1       7.428 -13.289  10.022  1.00  0.00    -0.206 OA
HETATM   24  O4  UNL     1       5.950 -14.718  11.284  1.00  0.00    -0.206 OA
ENDBRANCH   6  21
TORSDOF 4
ENDMDL
MODEL 5
REMARK VINA RESULT: -5.462939247      6.151      9.380
REMARK  4 active torsions:
REMARK  status: ('A' for Active; 'I' for Inactive)
REMARK       I    between atoms: N1_2  and  C2_4 
REMARK       I    between atoms: C2_4  and  N2_6 
REMARK    1  A    between atoms: N2_6  and  N3_8 
REMARK       I    between atoms: C3_10  and  N4_11 
REMARK       I    between atoms: C3_10  and  N5_19 
REMARK    2  A    between atoms: N4_11  and  C4_13 
REMARK    3  A    between atoms: C4_13  and  C5_14 
REMARK    4  A    between atoms: N5_19  and  S1_21 
ROOT
HETATM    1  N3  UNL     1       7.310 -14.118  14.033  1.00  0.00    -0.128 N 
ATOM      2  H3  UNL     1       6.926 -14.807  13.387  1.00  0.00     0.205 HD
HETATM    3  C3  UNL     1       7.773 -12.986  13.626  1.00  0.00     0.702 C 
HETATM    4  N4  UNL     1       8.315 -12.009  14.498  1.00  0.00    -0.218 N 
ATOM      5  H4  UNL     1       9.264 -12.122  14.854  1.00  0.00     0.178 HD
HETATM    6  N5  UNL     1       7.714 -12.754  12.209  1.00  0.00    -0.116 N 
ATOM      7  H5  UNL     1       8.341 -12.060  11.803  1.00  0.00     0.197 HD
ENDROOT
BRANCH   1   8
HETATM    8  N2  UNL     1       7.366 -14.351  15.426  1.00  0.00    -0.237 N 
HETATM    9  C2  UNL     1       6.244 -14.832  16.142  1.00  0.00     0.334 C 
HETATM   10  N1  UNL     1       6.348 -15.051  17.541  1.00  0.00    -0.346 N 
HETATM   11  O1  UNL     1       5.145 -15.078  15.585  1.00  0.00    -0.246 OA
HETATM   12  C1  UNL     1       5.243 -15.542  18.338  1.00  0.00     0.151 C 
ATOM     13  H1  UNL     1       7.236 -14.856  18.003  1.00  0.00     0.163 HD
ATOM     14  H2  UNL     1       8.235 -14.167  15.927  1.00  0.00     0.192 HD
ENDBRANCH   1   8
BRANCH   4  15
HETATM   15  C4  UNL     1       7.537 -10.852  14.888  1.00  0.00     0.203 C 
BRANCH  15  16
HETATM   16  C5  UNL     1       8.430  -9.683  15.098  1.00  0.00     0.070 A 
HETATM   17  C6  UNL     1       9.209  -9.040  14.132  1.00  0.00     0.036 A 
HETATM   18  C7  UNL     1       9.882  -8.005  14.749  1.00  0.00     0.027 A 
HETATM   19  C8  UNL     1       9.485  -8.062  16.067  1.00  0.00     0.142 A 
HETATM   20  O2  UNL     1       8.640  -9.053  16.224  1.00  0.00    -0.325 OA
ENDBRANCH  15  16
ENDBRANCH   4  15
BRANCH   6  21
HETATM   21  S1  UNL     1       6.645 -13.583  11.178  1.00  0.00     0.240 S 
HETATM   22  C9  UNL     1       4.944 -13.129  11.460  1.00  0.00     0.186 C 
HETATM   23  O3  UNL     1       6.839 -15.058  11.353  1.00  0.00    -0.206 OA
HETATM   24  O4  UNL     1       6.924 -13.285   9.718  1.00  0.00    -0.206 OA
ENDBRANCH   6  21
TORSDOF 4
ENDMDL
