MODEL 1
REMARK VINA RESULT: -6.820489439      0.000      0.000
REMARK  8 active torsions:
REMARK  status: ('A' for Active; 'I' for Inactive)
REMARK    1  A    between atoms: N1_1  and  N2_4 
REMARK    2  A    between atoms: N2_4  and  C1_6 
REMARK    3  A    between atoms: C1_6  and  N3_8 
REMARK       I    between atoms: N3_8  and  C2_10 
REMARK    4  A    between atoms: C2_10  and  C3_12 
REMARK    5  A    between atoms: C3_12  and  C4_13 
REMARK    6  A    between atoms: C7_16  and  O2_17 
REMARK    7  A    between atoms: O2_17  and  S2_18 
REMARK    8  A    between atoms: S2_18  and  N4_19 
ROOT
HETATM    1  C4  UNL     1       9.562  -9.169  15.245  1.00  0.00    -0.049 A 
HETATM    2  C5  UNL     1       9.347  -8.802  13.963  1.00  0.00     0.010 A 
HETATM    3  C6  UNL     1       8.499  -9.515  13.120  1.00  0.00     0.039 A 
HETATM    4  C7  UNL     1       7.836 -10.636  13.564  1.00  0.00     0.091 A 
HETATM    5  C8  UNL     1       8.035 -11.029  14.866  1.00  0.00     0.039 A 
HETATM    6  C9  UNL     1       8.880 -10.316  15.697  1.00  0.00     0.010 A 
ENDROOT
BRANCH   1   7
HETATM    7  C3  UNL     1      10.467  -8.572  16.227  1.00  0.00     0.141 C 
BRANCH   7   8
HETATM    8  C2  UNL     1       9.882  -7.888  17.374  1.00  0.00     0.228 C 
HETATM    9  N3  UNL     1      10.180  -8.045  18.727  1.00  0.00    -0.302 N 
ATOM     10  H3  UNL     1      10.879  -8.735  18.999  1.00  0.00     0.171 HD
HETATM   11  O1  UNL     1       8.960  -7.022  17.073  1.00  0.00    -0.273 OA
BRANCH   9  12
HETATM   12  C1  UNL     1       9.545  -7.281  19.735  1.00  0.00     0.192 C 
HETATM   13  S1  UNL     1      10.472  -6.383  20.770  1.00  0.00    -0.039 SA
BRANCH  12  14
HETATM   14  N2  UNL     1       8.151  -7.213  19.906  1.00  0.00    -0.283 N 
ATOM     15  H2  UNL     1       7.632  -8.030  20.226  1.00  0.00     0.188 HD
BRANCH  14  16
HETATM   16  N1  UNL     1       7.482  -6.014  19.633  1.00  0.00    -0.343 N 
ATOM     17  H12 UNL     1       7.827  -5.408  18.888  1.00  0.00     0.176 HD
ATOM     18  H11 UNL     1       6.659  -5.762  20.180  1.00  0.00     0.176 HD
ENDBRANCH  14  16
ENDBRANCH  12  14
ENDBRANCH   9  12
ENDBRANCH   7   8
ENDBRANCH   1   7
BRANCH   4  19
HETATM   19  O2  UNL     1       7.005 -11.308  12.675  1.00  0.00    -0.217 OA
BRANCH  19  20
HETATM   20  S2  UNL     1       5.307 -11.237  12.830  1.00  0.00     0.360 S 
HETATM   21  O3  UNL     1       4.969  -9.903  13.408  1.00  0.00    -0.176 OA
HETATM   22  O4  UNL     1       4.612 -11.364  11.526  1.00  0.00    -0.176 OA
BRANCH  20  23
HETATM   23  N4  UNL     1       4.775 -12.477  13.916  1.00  0.00    -0.305 N 
ATOM     24  H42 UNL     1       4.485 -13.411  13.628  1.00  0.00     0.171 HD
ATOM     25  H41 UNL     1       4.801 -12.125  14.872  1.00  0.00     0.171 HD
ENDBRANCH  20  23
ENDBRANCH  19  20
ENDBRANCH   4  19
TORSDOF 8
ENDMDL
MODEL 2
REMARK VINA RESULT: -6.810755117      1.029      1.834
REMARK  8 active torsions:
REMARK  status: ('A' for Active; 'I' for Inactive)
REMARK    1  A    between atoms: N1_1  and  N2_4 
REMARK    2  A    between atoms: N2_4  and  C1_6 
REMARK    3  A    between atoms: C1_6  and  N3_8 
REMARK       I    between atoms: N3_8  and  C2_10 
REMARK    4  A    between atoms: C2_10  and  C3_12 
REMARK    5  A    between atoms: C3_12  and  C4_13 
REMARK    6  A    between atoms: C7_16  and  O2_17 
REMARK    7  A    between atoms: O2_17  and  S2_18 
REMARK    8  A    between atoms: S2_18  and  N4_19 
ROOT
HETATM    1  C4  UNL     1       9.463  -9.140  15.426  1.00  0.00    -0.049 A 
HETATM    2  C5  UNL     1       8.363  -9.840  15.780  1.00  0.00     0.010 A 
HETATM    3  C6  UNL     1       7.522 -10.424  14.838  1.00  0.00     0.039 A 
HETATM    4  C7  UNL     1       7.778 -10.311  13.491  1.00  0.00     0.091 A 
HETATM    5  C8  UNL     1       8.893  -9.605  13.104  1.00  0.00     0.039 A 
HETATM    6  C9  UNL     1       9.724  -9.028  14.047  1.00  0.00     0.010 A 
ENDROOT
BRANCH   1   7
HETATM    7  C3  UNL     1      10.400  -8.415  16.285  1.00  0.00     0.141 C 
BRANCH   7   8
HETATM    8  C2  UNL     1       9.863  -7.701  17.437  1.00  0.00     0.228 C 
HETATM    9  N3  UNL     1      10.055  -7.965  18.793  1.00  0.00    -0.302 N 
ATOM     10  H3  UNL     1      10.624  -8.767  19.062  1.00  0.00     0.171 HD
HETATM   11  O1  UNL     1       9.103  -6.690  17.139  1.00  0.00    -0.273 OA
BRANCH   9  12
HETATM   12  C1  UNL     1       9.489  -7.157  19.808  1.00  0.00     0.192 C 
HETATM   13  S1  UNL     1      10.491  -6.337  20.838  1.00  0.00    -0.039 SA
BRANCH  12  14
HETATM   14  N2  UNL     1       8.106  -6.982  19.991  1.00  0.00    -0.283 N 
ATOM     15  H2  UNL     1       7.520  -7.771  20.262  1.00  0.00     0.188 HD
BRANCH  14  16
HETATM   16  N1  UNL     1       7.541  -5.715  19.797  1.00  0.00    -0.343 N 
ATOM     17  H12 UNL     1       6.808  -5.599  19.097  1.00  0.00     0.176 HD
ATOM     18  H11 UNL     1       7.869  -4.929  20.357  1.00  0.00     0.176 HD
ENDBRANCH  14  16
ENDBRANCH  12  14
ENDBRANCH   9  12
ENDBRANCH   7   8
ENDBRANCH   1   7
BRANCH   4  19
HETATM   19  O2  UNL     1       6.899 -10.913  12.597  1.00  0.00    -0.217 OA
BRANCH  19  20
HETATM   20  S2  UNL     1       6.825 -12.610  12.441  1.00  0.00     0.360 S 
HETATM   21  O3  UNL     1       6.930 -12.928  10.987  1.00  0.00    -0.176 OA
HETATM   22  O4  UNL     1       7.937 -13.293  13.144  1.00  0.00    -0.176 OA
BRANCH  20  23
HETATM   23  N4  UNL     1       5.301 -13.177  13.037  1.00  0.00    -0.305 N 
ATOM     24  H42 UNL     1       4.519 -12.573  13.291  1.00  0.00     0.171 HD
ATOM     25  H41 UNL     1       5.315 -14.195  13.092  1.00  0.00     0.171 HD
ENDBRANCH  20  23
ENDBRANCH  19  20
ENDBRANCH   4  19
TORSDOF 8
ENDMDL
MODEL 3
REMARK VINA RESULT: -6.799652496      0.865      1.050
REMARK  8 active torsions:
REMARK  status: ('A' for Active; 'I' for Inactive)
REMARK    1  A    between atoms: N1_1  and  N2_4 
REMARK    2  A    between atoms: N2_4  and  C1_6 
REMARK    3  A    between atoms: C1_6  and  N3_8 
REMARK       I    between atoms: N3_8  and  C2_10 
REMARK    4  A    between atoms: C2_10  and  C3_12 
REMARK    5  A    between atoms: C3_12  and  C4_13 
REMARK    6  A    between atoms: C7_16  and  O2_17 
REMARK    7  A    between atoms: O2_17  and  S2_18 
REMARK    8  A    between atoms: S2_18  and  N4_19 
ROOT
HETATM    1  C4  UNL     1       9.609  -9.149  15.209  1.00  0.00    -0.049 A 
HETATM    2  C5  UNL     1       9.384  -8.814  13.919  1.00  0.00     0.010 A 
HETATM    3  C6  UNL     1       8.557  -9.568  13.091  1.00  0.00     0.039 A 
HETATM    4  C7  UNL     1       7.926 -10.697  13.558  1.00  0.00     0.091 A 
HETATM    5  C8  UNL     1       8.135 -11.058  14.868  1.00  0.00     0.039 A 
HETATM    6  C9  UNL     1       8.960 -10.304  15.684  1.00  0.00     0.010 A 
ENDROOT
BRANCH   1   7
HETATM    7  C3  UNL     1      10.497  -8.506  16.177  1.00  0.00     0.141 C 
BRANCH   7   8
HETATM    8  C2  UNL     1       9.896  -7.861  17.338  1.00  0.00     0.228 C 
HETATM    9  N3  UNL     1      10.240  -7.991  18.683  1.00  0.00    -0.302 N 
ATOM     10  H3  UNL     1      10.995  -8.628  18.938  1.00  0.00     0.171 HD
HETATM   11  O1  UNL     1       8.906  -7.065  17.061  1.00  0.00    -0.273 OA
BRANCH   9  12
HETATM   12  C1  UNL     1       9.579  -7.270  19.706  1.00  0.00     0.192 C 
HETATM   13  S1  UNL     1      10.474  -6.353  20.753  1.00  0.00    -0.039 SA
BRANCH  12  14
HETATM   14  N2  UNL     1       8.185  -7.260  19.883  1.00  0.00    -0.283 N 
ATOM     15  H2  UNL     1       7.692  -8.118  20.130  1.00  0.00     0.188 HD
BRANCH  14  16
HETATM   16  N1  UNL     1       7.477  -6.063  19.717  1.00  0.00    -0.343 N 
ATOM     17  H12 UNL     1       7.875  -5.325  19.135  1.00  0.00     0.176 HD
ATOM     18  H11 UNL     1       6.576  -5.944  20.178  1.00  0.00     0.176 HD
ENDBRANCH  14  16
ENDBRANCH  12  14
ENDBRANCH   9  12
ENDBRANCH   7   8
ENDBRANCH   1   7
BRANCH   4  19
HETATM   19  O2  UNL     1       7.114 -11.411  12.683  1.00  0.00    -0.217 OA
BRANCH  19  20
HETATM   20  S2  UNL     1       5.416 -11.404  12.852  1.00  0.00     0.360 S 
HETATM   21  O3  UNL     1       4.835 -11.729  11.517  1.00  0.00    -0.176 OA
HETATM   22  O4  UNL     1       4.938 -12.418  13.823  1.00  0.00    -0.176 OA
BRANCH  20  23
HETATM   23  N4  UNL     1       4.891  -9.824  13.330  1.00  0.00    -0.305 N 
ATOM     24  H42 UNL     1       5.509  -9.022  13.453  1.00  0.00     0.171 HD
ATOM     25  H41 UNL     1       3.880  -9.828  13.464  1.00  0.00     0.171 HD
ENDBRANCH  20  23
ENDBRANCH  19  20
ENDBRANCH   4  19
TORSDOF 8
ENDMDL
MODEL 4
REMARK VINA RESULT: -6.797163626      0.971      1.588
REMARK  8 active torsions:
REMARK  status: ('A' for Active; 'I' for Inactive)
REMARK    1  A    between atoms: N1_1  and  N2_4 
REMARK    2  A    between atoms: N2_4  and  C1_6 
REMARK    3  A    between atoms: C1_6  and  N3_8 
REMARK       I    between atoms: N3_8  and  C2_10 
REMARK    4  A    between atoms: C2_10  and  C3_12 
REMARK    5  A    between atoms: C3_12  and  C4_13 
REMARK    6  A    between atoms: C7_16  and  O2_17 
REMARK    7  A    between atoms: O2_17  and  S2_18 
REMARK    8  A    between atoms: S2_18  and  N4_19 
ROOT
HETATM    1  C4  UNL     1       9.399  -8.959  15.331  1.00  0.00    -0.049 A 
HETATM    2  C5  UNL     1       8.506  -9.824  15.859  1.00  0.00     0.010 A 
HETATM    3  C6  UNL     1       7.766 -10.700  15.070  1.00  0.00     0.039 A 
HETATM    4  C7  UNL     1       7.916 -10.721  13.702  1.00  0.00     0.091 A 
HETATM    5  C8  UNL     1       8.820  -9.852  13.139  1.00  0.00     0.039 A 
HETATM    6  C9  UNL     1       9.551  -8.984  13.931  1.00  0.00     0.010 A 
ENDROOT
BRANCH   1   7
HETATM    7  C3  UNL     1      10.195  -7.938  16.013  1.00  0.00     0.141 C 
BRANCH   7   8
HETATM    8  C2  UNL     1       9.709  -7.428  17.289  1.00  0.00     0.228 C 
HETATM    9  N3  UNL     1      10.085  -7.803  18.578  1.00  0.00    -0.302 N 
ATOM     10  H3  UNL     1      10.775  -8.545  18.692  1.00  0.00     0.171 HD
HETATM   11  O1  UNL     1       8.801  -6.503  17.189  1.00  0.00    -0.273 OA
BRANCH   9  12
HETATM   12  C1  UNL     1       9.543  -7.190  19.733  1.00  0.00     0.192 C 
HETATM   13  S1  UNL     1      10.569  -6.594  20.886  1.00  0.00    -0.039 SA
BRANCH  12  14
HETATM   14  N2  UNL     1       8.165  -7.028  19.961  1.00  0.00    -0.283 N 
ATOM     15  H2  UNL     1       7.578  -7.838  20.157  1.00  0.00     0.188 HD
BRANCH  14  16
HETATM   16  N1  UNL     1       7.605  -5.745  19.916  1.00  0.00    -0.343 N 
ATOM     17  H12 UNL     1       7.758  -5.163  19.092  1.00  0.00     0.176 HD
ATOM     18  H11 UNL     1       7.053  -5.411  20.705  1.00  0.00     0.176 HD
ENDBRANCH  14  16
ENDBRANCH  12  14
ENDBRANCH   9  12
ENDBRANCH   7   8
ENDBRANCH   1   7
BRANCH   4  19
HETATM   19  O2  UNL     1       7.146 -11.615  12.966  1.00  0.00    -0.217 OA
BRANCH  19  20
HETATM   20  S2  UNL     1       5.487 -11.330  12.690  1.00  0.00     0.360 S 
HETATM   21  O3  UNL     1       5.095 -12.118  11.484  1.00  0.00    -0.176 OA
HETATM   22  O4  UNL     1       4.639 -11.771  13.823  1.00  0.00    -0.176 OA
BRANCH  20  23
HETATM   23  N4  UNL     1       5.236  -9.646  12.373  1.00  0.00    -0.305 N 
ATOM     24  H42 UNL     1       5.971  -8.994  12.100  1.00  0.00     0.171 HD
ATOM     25  H41 UNL     1       4.251  -9.419  12.503  1.00  0.00     0.171 HD
ENDBRANCH  20  23
ENDBRANCH  19  20
ENDBRANCH   4  19
TORSDOF 8
ENDMDL
MODEL 5
REMARK VINA RESULT: -6.779087961      0.141      1.086
REMARK  8 active torsions:
REMARK  status: ('A' for Active; 'I' for Inactive)
REMARK    1  A    between atoms: N1_1  and  N2_4 
REMARK    2  A    between atoms: N2_4  and  C1_6 
REMARK    3  A    between atoms: C1_6  and  N3_8 
REMARK       I    between atoms: N3_8  and  C2_10 
REMARK    4  A    between atoms: C2_10  and  C3_12 
REMARK    5  A    between atoms: C3_12  and  C4_13 
REMARK    6  A    between atoms: C7_16  and  O2_17 
REMARK    7  A    between atoms: O2_17  and  S2_18 
REMARK    8  A    between atoms: S2_18  and  N4_19 
ROOT
HETATM    1  C4  UNL     1       9.564  -9.214  15.307  1.00  0.00    -0.049 A 
HETATM    2  C5  UNL     1       8.821 -10.261  15.727  1.00  0.00     0.010 A 
HETATM    3  C6  UNL     1       8.009 -10.988  14.861  1.00  0.00     0.039 A 
HETATM    4  C7  UNL     1       7.929 -10.666  13.526  1.00  0.00     0.091 A 
HETATM    5  C8  UNL     1       8.678  -9.606  13.072  1.00  0.00     0.039 A 
HETATM    6  C9  UNL     1       9.482  -8.889  13.940  1.00  0.00     0.010 A 
ENDROOT
BRANCH   1   7
HETATM    7  C3  UNL     1      10.405  -8.316  16.099  1.00  0.00     0.141 C 
BRANCH   7   8
HETATM    8  C2  UNL     1       9.838  -7.733  17.309  1.00  0.00     0.228 C 
HETATM    9  N3  UNL     1      10.206  -7.951  18.636  1.00  0.00    -0.302 N 
ATOM     10  H3  UNL     1      10.952  -8.615  18.837  1.00  0.00     0.171 HD
HETATM   11  O1  UNL     1       8.859  -6.905  17.100  1.00  0.00    -0.273 OA
BRANCH   9  12
HETATM   12  C1  UNL     1       9.577  -7.282  19.714  1.00  0.00     0.192 C 
HETATM   13  S1  UNL     1      10.510  -6.459  20.805  1.00  0.00    -0.039 SA
BRANCH  12  14
HETATM   14  N2  UNL     1       8.186  -7.248  19.913  1.00  0.00    -0.283 N 
ATOM     15  H2  UNL     1       7.686  -8.093  20.188  1.00  0.00     0.188 HD
BRANCH  14  16
HETATM   16  N1  UNL     1       7.493  -6.045  19.728  1.00  0.00    -0.343 N 
ATOM     17  H12 UNL     1       6.791  -5.764  20.413  1.00  0.00     0.176 HD
ATOM     18  H11 UNL     1       7.699  -5.468  18.914  1.00  0.00     0.176 HD
ENDBRANCH  14  16
ENDBRANCH  12  14
ENDBRANCH   9  12
ENDBRANCH   7   8
ENDBRANCH   1   7
BRANCH   4  19
HETATM   19  O2  UNL     1       7.098 -11.426  12.710  1.00  0.00    -0.217 OA
BRANCH  19  20
HETATM   20  S2  UNL     1       5.401 -11.273  12.795  1.00  0.00     0.360 S 
HETATM   21  O3  UNL     1       5.102  -9.893  13.276  1.00  0.00    -0.176 OA
HETATM   22  O4  UNL     1       4.749 -11.452  11.475  1.00  0.00    -0.176 OA
BRANCH  20  23
HETATM   23  N4  UNL     1       4.775 -12.419  13.933  1.00  0.00    -0.305 N 
ATOM     24  H42 UNL     1       3.917 -12.291  14.469  1.00  0.00     0.171 HD
ATOM     25  H41 UNL     1       5.394 -13.228  13.976  1.00  0.00     0.171 HD
ENDBRANCH  20  23
ENDBRANCH  19  20
ENDBRANCH   4  19
TORSDOF 8
ENDMDL
