MODEL 1
REMARK VINA RESULT: -6.297352271      0.000      0.000
REMARK  7 active torsions:
REMARK  status: ('A' for Active; 'I' for Inactive)
REMARK    1  A    between atoms: C3_3  and  N1_4 
REMARK       I    between atoms: N1_4  and  C4_6 
REMARK    2  A    between atoms: C9_13  and  O3_14 
REMARK    3  A    between atoms: C9_13  and  C10_16 
REMARK    4  A    between atoms: C11_17  and  C12_18 
REMARK    5  A    between atoms: C12_18  and  O4_19 
REMARK    6  A    between atoms: C12_18  and  C13_21 
REMARK    7  A    between atoms: C13_21  and  O5_23 
ROOT
HETATM    1  C1  UNL     1      11.155  -9.332  16.543  1.00  0.00     0.017 C 
HETATM    2  C2  UNL     1      10.289  -8.398  16.872  1.00  0.00    -0.056 A 
HETATM    3  C3  UNL     1       8.810  -8.301  16.782  1.00  0.00     0.120 A 
HETATM    4  C6  UNL     1       8.882  -6.871  17.273  1.00  0.00     0.055 A 
HETATM    5  C7  UNL     1       8.377  -6.650  18.655  1.00  0.00     0.128 C 
HETATM    6  C8  UNL     1       7.231  -5.675  18.730  1.00  0.00     0.040 C 
HETATM    7  O2  UNL     1       9.465  -6.256  19.433  1.00  0.00    -0.346 OA
HETATM    8  C9  UNL     1      10.488  -7.057  18.973  1.00  0.00     0.189 C 
HETATM    9  C15 UNL     1      10.376  -7.053  17.466  1.00  0.00     0.091 A 
ENDROOT
BRANCH   8  10
HETATM   10  O3  UNL     1      10.426  -8.356  19.453  1.00  0.00    -0.362 OA
ATOM     11  H3  UNL     1      10.757  -8.444  20.339  1.00  0.00     0.213 HD
ENDBRANCH   8  10
BRANCH   8  12
HETATM   12  C10 UNL     1      11.786  -6.472  19.400  1.00  0.00     0.040 C 
HETATM   13  C11 UNL     1      12.849  -7.239  19.485  1.00  0.00     0.008 C 
BRANCH  13  14
HETATM   14  C12 UNL     1      14.152  -6.684  19.908  1.00  0.00     0.169 C 
BRANCH  14  15
HETATM   15  O4  UNL     1      15.065  -6.646  18.841  1.00  0.00    -0.389 OA
ATOM     16  H4  UNL     1      15.924  -6.950  19.109  1.00  0.00     0.210 HD
ENDBRANCH  14  15
BRANCH  14  17
HETATM   17  C13 UNL     1      14.740  -7.676  20.920  1.00  0.00     0.146 C 
HETATM   18  C14 UNL     1      15.750  -8.506  20.184  1.00  0.00     0.042 C 
BRANCH  17  19
HETATM   19  O5  UNL     1      13.713  -8.496  21.351  1.00  0.00    -0.393 OA
ATOM     20  H5  UNL     1      13.788  -8.582  22.295  1.00  0.00     0.210 HD
ENDBRANCH  17  19
ENDBRANCH  14  17
ENDBRANCH  13  14
ENDBRANCH   8  12
BRANCH   3  21
HETATM   21  N1  UNL     1       8.270  -8.445  15.441  1.00  0.00    -0.353 N 
HETATM   22  C4  UNL     1       8.007  -9.704  14.856  1.00  0.00     0.214 C 
HETATM   23  C5  UNL     1       7.458  -9.769  13.489  1.00  0.00     0.117 C 
HETATM   24  O1  UNL     1       8.252 -10.734  15.528  1.00  0.00    -0.274 OA
ATOM     25  H1  UNL     1       8.073  -7.603  14.899  1.00  0.00     0.163 HD
ENDBRANCH   3  21
TORSDOF 7
ENDMDL
MODEL 2
REMARK VINA RESULT: -5.717881130      3.770      6.812
REMARK  7 active torsions:
REMARK  status: ('A' for Active; 'I' for Inactive)
REMARK    1  A    between atoms: C3_3  and  N1_4 
REMARK       I    between atoms: N1_4  and  C4_6 
REMARK    2  A    between atoms: C9_13  and  O3_14 
REMARK    3  A    between atoms: C9_13  and  C10_16 
REMARK    4  A    between atoms: C11_17  and  C12_18 
REMARK    5  A    between atoms: C12_18  and  O4_19 
REMARK    6  A    between atoms: C12_18  and  C13_21 
REMARK    7  A    between atoms: C13_21  and  O5_23 
ROOT
HETATM    1  C1  UNL     1       5.640  -9.584  12.527  1.00  0.00     0.017 C 
HETATM    2  C2  UNL     1       5.910 -10.714  13.143  1.00  0.00    -0.056 A 
HETATM    3  C3  UNL     1       5.634 -12.139  12.831  1.00  0.00     0.120 A 
HETATM    4  C6  UNL     1       6.218 -12.538  14.169  1.00  0.00     0.055 A 
HETATM    5  C7  UNL     1       7.533 -13.231  14.103  1.00  0.00     0.128 C 
HETATM    6  C8  UNL     1       7.518 -14.612  14.706  1.00  0.00     0.040 C 
HETATM    7  O2  UNL     1       8.471 -12.394  14.708  1.00  0.00    -0.346 OA
HETATM    8  C9  UNL     1       8.099 -11.140  14.275  1.00  0.00     0.189 C 
HETATM    9  C15 UNL     1       6.594 -11.085  14.394  1.00  0.00     0.091 A 
ENDROOT
BRANCH   8  10
HETATM   10  O3  UNL     1       8.484 -10.874  12.970  1.00  0.00    -0.362 OA
ATOM     11  H3  UNL     1       7.834 -11.131  12.327  1.00  0.00     0.213 HD
ENDBRANCH   8  10
BRANCH   8  12
HETATM   12  C10 UNL     1       8.729 -10.121  15.155  1.00  0.00     0.040 C 
HETATM   13  C11 UNL     1       9.265  -9.045  14.626  1.00  0.00     0.008 C 
BRANCH  13  14
HETATM   14  C12 UNL     1       9.898  -8.017  15.478  1.00  0.00     0.169 C 
BRANCH  14  15
HETATM   15  O4  UNL     1      11.282  -8.226  15.594  1.00  0.00    -0.389 OA
ATOM     16  H4  UNL     1      11.611  -7.918  16.430  1.00  0.00     0.210 HD
ENDBRANCH  14  15
BRANCH  14  17
HETATM   17  C13 UNL     1       9.331  -8.213  16.890  1.00  0.00     0.146 C 
HETATM   18  C14 UNL     1       8.808  -6.881  17.341  1.00  0.00     0.042 C 
BRANCH  17  19
HETATM   19  O5  UNL     1      10.377  -8.587  17.716  1.00  0.00    -0.393 OA
ATOM     20  H5  UNL     1      10.973  -7.850  17.779  1.00  0.00     0.210 HD
ENDBRANCH  17  19
ENDBRANCH  14  17
ENDBRANCH  13  14
ENDBRANCH   8  12
BRANCH   3  21
HETATM   21  N1  UNL     1       4.226 -12.466  12.673  1.00  0.00    -0.353 N 
HETATM   22  C4  UNL     1       3.574 -12.444  11.419  1.00  0.00     0.214 C 
HETATM   23  C5  UNL     1       2.143 -12.789  11.340  1.00  0.00     0.117 C 
HETATM   24  O1  UNL     1       4.243 -12.129  10.407  1.00  0.00    -0.274 OA
ATOM     25  H1  UNL     1       3.687 -12.721  13.500  1.00  0.00     0.163 HD
ENDBRANCH   3  21
TORSDOF 7
ENDMDL
MODEL 3
REMARK VINA RESULT: -5.701498599      0.854      1.228
REMARK  7 active torsions:
REMARK  status: ('A' for Active; 'I' for Inactive)
REMARK    1  A    between atoms: C3_3  and  N1_4 
REMARK       I    between atoms: N1_4  and  C4_6 
REMARK    2  A    between atoms: C9_13  and  O3_14 
REMARK    3  A    between atoms: C9_13  and  C10_16 
REMARK    4  A    between atoms: C11_17  and  C12_18 
REMARK    5  A    between atoms: C12_18  and  O4_19 
REMARK    6  A    between atoms: C12_18  and  C13_21 
REMARK    7  A    between atoms: C13_21  and  O5_23 
ROOT
HETATM    1  C1  UNL     1      10.796 -10.086  16.979  1.00  0.00     0.017 C 
HETATM    2  C2  UNL     1      10.173  -8.930  17.053  1.00  0.00    -0.056 A 
HETATM    3  C3  UNL     1       8.852  -8.451  16.574  1.00  0.00     0.120 A 
HETATM    4  C6  UNL     1       9.197  -7.054  17.043  1.00  0.00     0.055 A 
HETATM    5  C7  UNL     1       8.447  -6.584  18.239  1.00  0.00     0.128 C 
HETATM    6  C8  UNL     1       7.639  -5.336  17.993  1.00  0.00     0.040 C 
HETATM    7  O2  UNL     1       9.373  -6.427  19.270  1.00  0.00    -0.346 OA
HETATM    8  C9  UNL     1      10.211  -7.508  19.109  1.00  0.00     0.189 C 
HETATM    9  C15 UNL     1      10.483  -7.610  17.626  1.00  0.00     0.091 A 
ENDROOT
BRANCH   8  10
HETATM   10  O3  UNL     1       9.670  -8.695  19.577  1.00  0.00    -0.362 OA
ATOM     11  H3  UNL     1      10.103  -9.467  19.231  1.00  0.00     0.213 HD
ENDBRANCH   8  10
BRANCH   8  12
HETATM   12  C10 UNL     1      11.472  -7.254  19.854  1.00  0.00     0.040 C 
HETATM   13  C11 UNL     1      12.189  -8.267  20.284  1.00  0.00     0.008 C 
BRANCH  13  14
HETATM   14  C12 UNL     1      13.447  -8.043  21.028  1.00  0.00     0.169 C 
BRANCH  14  15
HETATM   15  O4  UNL     1      13.370  -6.895  21.833  1.00  0.00    -0.389 OA
ATOM     16  H4  UNL     1      14.217  -6.670  22.198  1.00  0.00     0.210 HD
ENDBRANCH  14  15
BRANCH  14  17
HETATM   17  C13 UNL     1      14.525  -7.740  19.978  1.00  0.00     0.146 C 
HETATM   18  C14 UNL     1      15.718  -8.583  20.320  1.00  0.00     0.042 C 
BRANCH  17  19
HETATM   19  O5  UNL     1      14.868  -6.405  20.100  1.00  0.00    -0.393 OA
ATOM     20  H5  UNL     1      15.300  -6.293  20.940  1.00  0.00     0.210 HD
ENDBRANCH  17  19
ENDBRANCH  14  17
ENDBRANCH  13  14
ENDBRANCH   8  12
BRANCH   3  21
HETATM   21  N1  UNL     1       8.645  -8.566  15.141  1.00  0.00    -0.353 N 
HETATM   22  C4  UNL     1       8.112  -9.728  14.537  1.00  0.00     0.214 C 
HETATM   23  C5  UNL     1       7.931  -9.767  13.075  1.00  0.00     0.117 C 
HETATM   24  O1  UNL     1       7.809 -10.695  15.275  1.00  0.00    -0.274 OA
ATOM     25  H1  UNL     1       8.893  -7.776  14.545  1.00  0.00     0.163 HD
ENDBRANCH   3  21
TORSDOF 7
ENDMDL
MODEL 4
REMARK VINA RESULT: -5.452862666      4.436      9.522
REMARK  7 active torsions:
REMARK  status: ('A' for Active; 'I' for Inactive)
REMARK    1  A    between atoms: C3_3  and  N1_4 
REMARK       I    between atoms: N1_4  and  C4_6 
REMARK    2  A    between atoms: C9_13  and  O3_14 
REMARK    3  A    between atoms: C9_13  and  C10_16 
REMARK    4  A    between atoms: C11_17  and  C12_18 
REMARK    5  A    between atoms: C12_18  and  O4_19 
REMARK    6  A    between atoms: C12_18  and  C13_21 
REMARK    7  A    between atoms: C13_21  and  O5_23 
ROOT
HETATM    1  C1  UNL     1       8.894  -9.954  12.654  1.00  0.00     0.017 C 
HETATM    2  C2  UNL     1       8.382 -10.855  13.463  1.00  0.00    -0.056 A 
HETATM    3  C3  UNL     1       7.951 -10.824  14.884  1.00  0.00     0.120 A 
HETATM    4  C6  UNL     1       7.674 -12.311  14.825  1.00  0.00     0.055 A 
HETATM    5  C7  UNL     1       6.236 -12.689  14.850  1.00  0.00     0.128 C 
HETATM    6  C8  UNL     1       5.864 -13.573  16.012  1.00  0.00     0.040 C 
HETATM    7  O2  UNL     1       5.941 -13.273  13.619  1.00  0.00    -0.346 OA
HETATM    8  C9  UNL     1       6.646 -12.496  12.725  1.00  0.00     0.189 C 
HETATM    9  C15 UNL     1       8.006 -12.274  13.344  1.00  0.00     0.091 A 
ENDROOT
BRANCH   8  10
HETATM   10  O3  UNL     1       6.038 -11.279  12.459  1.00  0.00    -0.362 OA
ATOM     11  H3  UNL     1       6.576 -10.698  11.934  1.00  0.00     0.213 HD
ENDBRANCH   8  10
BRANCH   8  12
HETATM   12  C10 UNL     1       6.772 -13.235  11.441  1.00  0.00     0.040 C 
HETATM   13  C11 UNL     1       7.496 -14.330  11.389  1.00  0.00     0.008 C 
BRANCH  13  14
HETATM   14  C12 UNL     1       7.639 -15.084  10.125  1.00  0.00     0.169 C 
BRANCH  14  15
HETATM   15  O4  UNL     1       6.389 -15.470   9.613  1.00  0.00    -0.389 OA
ATOM     16  H4  UNL     1       6.478 -15.904   8.773  1.00  0.00     0.210 HD
ENDBRANCH  14  15
BRANCH  14  17
HETATM   17  C13 UNL     1       8.362 -16.390  10.477  1.00  0.00     0.146 C 
HETATM   18  C14 UNL     1       8.614 -16.366  11.957  1.00  0.00     0.042 C 
BRANCH  17  19
HETATM   19  O5  UNL     1       9.577 -16.391   9.816  1.00  0.00    -0.393 OA
ATOM     20  H5  UNL     1      10.083 -15.655  10.139  1.00  0.00     0.210 HD
ENDBRANCH  17  19
ENDBRANCH  14  17
ENDBRANCH  13  14
ENDBRANCH   8  12
BRANCH   3  21
HETATM   21  N1  UNL     1       8.990 -10.447  15.827  1.00  0.00    -0.353 N 
HETATM   22  C4  UNL     1       9.189  -9.114  16.251  1.00  0.00     0.214 C 
HETATM   23  C5  UNL     1      10.264  -8.810  17.212  1.00  0.00     0.117 C 
HETATM   24  O1  UNL     1       8.434  -8.225  15.789  1.00  0.00    -0.274 OA
ATOM     25  H1  UNL     1       9.601 -11.174  16.199  1.00  0.00     0.163 HD
ENDBRANCH   3  21
TORSDOF 7
ENDMDL
MODEL 5
REMARK VINA RESULT: -5.446551716      3.565      6.713
REMARK  7 active torsions:
REMARK  status: ('A' for Active; 'I' for Inactive)
REMARK    1  A    between atoms: C3_3  and  N1_4 
REMARK       I    between atoms: N1_4  and  C4_6 
REMARK    2  A    between atoms: C9_13  and  O3_14 
REMARK    3  A    between atoms: C9_13  and  C10_16 
REMARK    4  A    between atoms: C11_17  and  C12_18 
REMARK    5  A    between atoms: C12_18  and  O4_19 
REMARK    6  A    between atoms: C12_18  and  C13_21 
REMARK    7  A    between atoms: C13_21  and  O5_23 
ROOT
HETATM    1  C1  UNL     1       4.984  -9.662  12.554  1.00  0.00     0.017 C 
HETATM    2  C2  UNL     1       5.509 -10.620  13.286  1.00  0.00    -0.056 A 
HETATM    3  C3  UNL     1       5.274 -12.084  13.371  1.00  0.00     0.120 A 
HETATM    4  C6  UNL     1       6.243 -12.164  14.532  1.00  0.00     0.055 A 
HETATM    5  C7  UNL     1       7.539 -12.829  14.231  1.00  0.00     0.128 C 
HETATM    6  C8  UNL     1       7.808 -14.041  15.085  1.00  0.00     0.040 C 
HETATM    7  O2  UNL     1       8.536 -11.861  14.347  1.00  0.00    -0.346 OA
HETATM    8  C9  UNL     1       7.955 -10.742  13.791  1.00  0.00     0.189 C 
HETATM    9  C15 UNL     1       6.545 -10.690  14.330  1.00  0.00     0.091 A 
ENDROOT
BRANCH   8  10
HETATM   10  O3  UNL     1       7.935 -10.767  12.405  1.00  0.00    -0.362 OA
ATOM     11  H3  UNL     1       7.604  -9.964  12.020  1.00  0.00     0.213 HD
ENDBRANCH   8  10
BRANCH   8  12
HETATM   12  C10 UNL     1       8.721  -9.542  14.216  1.00  0.00     0.040 C 
HETATM   13  C11 UNL     1       8.930  -9.322  15.494  1.00  0.00     0.008 C 
BRANCH  13  14
HETATM   14  C12 UNL     1       9.688  -8.135  15.945  1.00  0.00     0.169 C 
BRANCH  14  15
HETATM   15  O4  UNL     1      11.071  -8.380  15.949  1.00  0.00    -0.389 OA
ATOM     16  H4  UNL     1      11.506  -7.920  15.241  1.00  0.00     0.210 HD
ENDBRANCH  14  15
BRANCH  14  17
HETATM   17  C13 UNL     1       9.304  -7.906  17.413  1.00  0.00     0.146 C 
HETATM   18  C14 UNL     1       9.220  -6.422  17.617  1.00  0.00     0.042 C 
BRANCH  17  19
HETATM   19  O5  UNL     1      10.326  -8.409  18.199  1.00  0.00    -0.393 OA
ATOM     20  H5  UNL     1      10.192  -9.347  18.281  1.00  0.00     0.210 HD
ENDBRANCH  17  19
ENDBRANCH  14  17
ENDBRANCH  13  14
ENDBRANCH   8  12
BRANCH   3  21
HETATM   21  N1  UNL     1       3.912 -12.464  13.704  1.00  0.00    -0.353 N 
HETATM   22  C4  UNL     1       3.474 -13.808  13.707  1.00  0.00     0.214 C 
HETATM   23  C5  UNL     1       2.075 -14.114  14.056  1.00  0.00     0.117 C 
HETATM   24  O1  UNL     1       4.301 -14.702  13.410  1.00  0.00    -0.274 OA
ATOM     25  H1  UNL     1       3.244 -11.731  13.944  1.00  0.00     0.163 HD
ENDBRANCH   3  21
TORSDOF 7
ENDMDL
