MODEL 1
REMARK VINA RESULT: -7.496471578      0.000      0.000
REMARK  7 active torsions:
REMARK  status: ('A' for Active; 'I' for Inactive)
REMARK       I    between atoms: C2_2  and  N1_4 
REMARK    1  A    between atoms: N1_4  and  C3_6 
REMARK    2  A    between atoms: C6_9  and  S1_10 
REMARK    3  A    between atoms: S1_10  and  N2_12 
REMARK    4  A    between atoms: S1_10  and  N6_22 
REMARK       I    between atoms: C7_14  and  N4_16 
REMARK    5  A    between atoms: N4_16  and  N5_18 
REMARK    6  A    between atoms: N5_18  and  O3_20 
REMARK    7  A    between atoms: N6_22  and  N7_24 
ROOT
HETATM    1  S1  UNL     1      10.615  -7.044  19.918  1.00  0.00     0.158 S 
HETATM    2  O2  UNL     1       9.356  -7.080  20.774  1.00  0.00    -0.221 OA
ENDROOT
BRANCH   1   3
HETATM    3  C6  UNL     1      10.249  -7.753  18.365  1.00  0.00     0.060 A 
HETATM    4  C5  UNL     1      10.617  -9.030  18.002  1.00  0.00     0.026 A 
HETATM    5  C4  UNL     1      10.306  -9.544  16.770  1.00  0.00     0.031 A 
HETATM    6  C3  UNL     1       9.601  -8.789  15.828  1.00  0.00     0.034 A 
HETATM    7  C9  UNL     1       9.231  -7.513  16.184  1.00  0.00     0.031 A 
HETATM    8  C8  UNL     1       9.555  -7.002  17.447  1.00  0.00     0.026 A 
BRANCH   6   9
HETATM    9  N1  UNL     1       9.304  -9.355  14.578  1.00  0.00    -0.328 N 
HETATM   10  C2  UNL     1       8.390 -10.350  14.272  1.00  0.00     0.218 C 
HETATM   11  C1  UNL     1       8.254 -10.797  12.821  1.00  0.00     0.117 C 
HETATM   12  O1  UNL     1       7.622 -10.967  15.054  1.00  0.00    -0.274 OA
ATOM     13  H1  UNL     1       9.833  -8.983  13.789  1.00  0.00     0.169 HD
ENDBRANCH   6   9
ENDBRANCH   1   3
BRANCH   1  14
HETATM   14  N2  UNL     1      11.803  -7.947  20.773  1.00  0.00    -0.268 N 
HETATM   15  C7  UNL     1      13.030  -7.726  20.528  1.00  0.00     0.217 C 
HETATM   16  N3  UNL     1      13.401  -6.760  19.573  1.00  0.00    -0.061 NA
HETATM   17  N4  UNL     1      14.006  -8.468  21.229  1.00  0.00    -0.253 N 
ATOM     18  H4  UNL     1      14.175  -8.258  22.213  1.00  0.00     0.191 HD
ATOM     19  H2  UNL     1      11.527  -8.646  21.463  1.00  0.00     0.180 HD
BRANCH  17  20
HETATM   20  N5  UNL     1      14.745  -9.479  20.619  1.00  0.00    -0.208 N 
ATOM     21  H5  UNL     1      14.251 -10.249  20.167  1.00  0.00     0.215 HD
BRANCH  20  22
HETATM   22  O3  UNL     1      16.005  -9.470  20.609  1.00  0.00    -0.274 OA
ATOM     23  H3  UNL     1      16.512  -9.481  21.413  1.00  0.00     0.246 HD
ENDBRANCH  20  22
ENDBRANCH  17  20
ENDBRANCH   1  14
BRANCH   1  24
HETATM   24  N6  UNL     1      10.996  -5.529  19.783  1.00  0.00    -0.246 N 
ATOM     25  H6  UNL     1      11.915  -5.249  19.439  1.00  0.00     0.198 HD
BRANCH  24  26
HETATM   26  N7  UNL     1      10.044  -4.574  20.149  1.00  0.00    -0.337 N 
ATOM     27  H72 UNL     1       9.297  -4.326  19.500  1.00  0.00     0.177 HD
ATOM     28  H71 UNL     1      10.123  -4.144  21.070  1.00  0.00     0.177 HD
ENDBRANCH  24  26
ENDBRANCH   1  24
TORSDOF 7
ENDMDL
MODEL 2
REMARK VINA RESULT: -7.374314255      0.064      1.059
REMARK  7 active torsions:
REMARK  status: ('A' for Active; 'I' for Inactive)
REMARK       I    between atoms: C2_2  and  N1_4 
REMARK    1  A    between atoms: N1_4  and  C3_6 
REMARK    2  A    between atoms: C6_9  and  S1_10 
REMARK    3  A    between atoms: S1_10  and  N2_12 
REMARK    4  A    between atoms: S1_10  and  N6_22 
REMARK       I    between atoms: C7_14  and  N4_16 
REMARK    5  A    between atoms: N4_16  and  N5_18 
REMARK    6  A    between atoms: N5_18  and  O3_20 
REMARK    7  A    between atoms: N6_22  and  N7_24 
ROOT
HETATM    1  S1  UNL     1      10.615  -7.036  19.938  1.00  0.00     0.158 S 
HETATM    2  O2  UNL     1       9.361  -7.061  20.802  1.00  0.00    -0.221 OA
ENDROOT
BRANCH   1   3
HETATM    3  C6  UNL     1      10.220  -7.691  18.368  1.00  0.00     0.060 A 
HETATM    4  C5  UNL     1       9.536  -6.992  17.399  1.00  0.00     0.026 A 
HETATM    5  C4  UNL     1       9.250  -7.549  16.179  1.00  0.00     0.031 A 
HETATM    6  C3  UNL     1       9.642  -8.855  15.871  1.00  0.00     0.034 A 
HETATM    7  C9  UNL     1      10.325  -9.559  16.835  1.00  0.00     0.031 A 
HETATM    8  C8  UNL     1      10.611  -8.976  18.076  1.00  0.00     0.026 A 
BRANCH   6   9
HETATM    9  N1  UNL     1       9.327  -9.386  14.610  1.00  0.00    -0.328 N 
HETATM   10  C2  UNL     1       8.401 -10.365  14.288  1.00  0.00     0.218 C 
HETATM   11  C1  UNL     1       8.245 -10.773  12.827  1.00  0.00     0.117 C 
HETATM   12  O1  UNL     1       7.635 -10.995  15.062  1.00  0.00    -0.274 OA
ATOM     13  H1  UNL     1       9.851  -8.999  13.825  1.00  0.00     0.169 HD
ENDBRANCH   6   9
ENDBRANCH   1   3
BRANCH   1  14
HETATM   14  N2  UNL     1      11.782  -7.996  20.760  1.00  0.00    -0.268 N 
HETATM   15  C7  UNL     1      13.015  -7.750  20.572  1.00  0.00     0.217 C 
HETATM   16  N3  UNL     1      13.408  -6.712  19.706  1.00  0.00    -0.061 NA
HETATM   17  N4  UNL     1      13.973  -8.539  21.247  1.00  0.00    -0.253 N 
ATOM     18  H4  UNL     1      14.109  -8.404  22.248  1.00  0.00     0.191 HD
ATOM     19  H2  UNL     1      11.490  -8.748  21.385  1.00  0.00     0.180 HD
BRANCH  17  20
HETATM   20  N5  UNL     1      14.739  -9.496  20.585  1.00  0.00    -0.208 N 
ATOM     21  H5  UNL     1      14.266 -10.232  20.059  1.00  0.00     0.215 HD
BRANCH  20  22
HETATM   22  O3  UNL     1      15.999  -9.479  20.617  1.00  0.00    -0.274 OA
ATOM     23  H3  UNL     1      16.486  -8.675  20.757  1.00  0.00     0.246 HD
ENDBRANCH  20  22
ENDBRANCH  17  20
ENDBRANCH   1  14
BRANCH   1  24
HETATM   24  N6  UNL     1      11.038  -5.530  19.843  1.00  0.00    -0.246 N 
ATOM     25  H6  UNL     1      11.999  -5.269  19.621  1.00  0.00     0.198 HD
BRANCH  24  26
HETATM   26  N7  UNL     1      10.064  -4.555  20.070  1.00  0.00    -0.337 N 
ATOM     27  H72 UNL     1      10.155  -3.634  19.643  1.00  0.00     0.177 HD
ATOM     28  H71 UNL     1       9.273  -4.795  20.669  1.00  0.00     0.177 HD
ENDBRANCH  24  26
ENDBRANCH   1  24
TORSDOF 7
ENDMDL
MODEL 3
REMARK VINA RESULT: -6.922575445      1.224      1.689
REMARK  7 active torsions:
REMARK  status: ('A' for Active; 'I' for Inactive)
REMARK       I    between atoms: C2_2  and  N1_4 
REMARK    1  A    between atoms: N1_4  and  C3_6 
REMARK    2  A    between atoms: C6_9  and  S1_10 
REMARK    3  A    between atoms: S1_10  and  N2_12 
REMARK    4  A    between atoms: S1_10  and  N6_22 
REMARK       I    between atoms: C7_14  and  N4_16 
REMARK    5  A    between atoms: N4_16  and  N5_18 
REMARK    6  A    between atoms: N5_18  and  O3_20 
REMARK    7  A    between atoms: N6_22  and  N7_24 
ROOT
HETATM    1  S1  UNL     1      10.380  -7.353  19.095  1.00  0.00     0.158 S 
HETATM    2  O2  UNL     1       9.425  -7.692  20.233  1.00  0.00    -0.221 OA
ENDROOT
BRANCH   1   3
HETATM    3  C6  UNL     1       9.807  -8.129  17.640  1.00  0.00     0.060 A 
HETATM    4  C5  UNL     1       8.768  -7.647  16.875  1.00  0.00     0.026 A 
HETATM    5  C4  UNL     1       8.354  -8.292  15.738  1.00  0.00     0.031 A 
HETATM    6  C3  UNL     1       8.972  -9.470  15.310  1.00  0.00     0.034 A 
HETATM    7  C9  UNL     1      10.011  -9.957  16.070  1.00  0.00     0.031 A 
HETATM    8  C8  UNL     1      10.422  -9.287  17.228  1.00  0.00     0.026 A 
BRANCH   6   9
HETATM    9  N1  UNL     1       8.515 -10.098  14.140  1.00  0.00    -0.328 N 
HETATM   10  C2  UNL     1       8.167 -11.425  13.948  1.00  0.00     0.218 C 
HETATM   11  C1  UNL     1       7.696 -11.866  12.566  1.00  0.00     0.117 C 
HETATM   12  O1  UNL     1       8.185 -12.363  14.787  1.00  0.00    -0.274 OA
ATOM     13  H1  UNL     1       8.428  -9.496  13.321  1.00  0.00     0.169 HD
ENDBRANCH   6   9
ENDBRANCH   1   3
BRANCH   1  14
HETATM   14  N2  UNL     1      11.923  -7.942  19.573  1.00  0.00    -0.268 N 
HETATM   15  C7  UNL     1      12.436  -7.505  20.651  1.00  0.00     0.217 C 
HETATM   16  N3  UNL     1      11.747  -6.556  21.432  1.00  0.00    -0.061 NA
HETATM   17  N4  UNL     1      13.704  -7.988  21.044  1.00  0.00    -0.253 N 
ATOM     18  H4  UNL     1      13.780  -8.939  21.404  1.00  0.00     0.191 HD
ATOM     19  H2  UNL     1      12.417  -8.629  19.003  1.00  0.00     0.180 HD
BRANCH  17  20
HETATM   20  N5  UNL     1      14.852  -7.206  20.953  1.00  0.00    -0.208 N 
ATOM     21  H5  UNL     1      15.130  -6.638  21.753  1.00  0.00     0.215 HD
BRANCH  20  22
HETATM   22  O3  UNL     1      15.558  -7.179  19.909  1.00  0.00    -0.274 OA
ATOM     23  H3  UNL     1      15.244  -6.792  19.101  1.00  0.00     0.246 HD
ENDBRANCH  20  22
ENDBRANCH  17  20
ENDBRANCH   1  14
BRANCH   1  24
HETATM   24  N6  UNL     1      10.349  -5.791  18.964  1.00  0.00    -0.246 N 
ATOM     25  H6  UNL     1      10.859  -5.318  18.217  1.00  0.00     0.198 HD
BRANCH  24  26
HETATM   26  N7  UNL     1       9.606  -5.065  19.898  1.00  0.00    -0.337 N 
ATOM     27  H72 UNL     1       9.552  -5.384  20.865  1.00  0.00     0.177 HD
ATOM     28  H71 UNL     1       9.128  -4.221  19.582  1.00  0.00     0.177 HD
ENDBRANCH  24  26
ENDBRANCH   1  24
TORSDOF 7
ENDMDL
MODEL 4
REMARK VINA RESULT: -6.889749633      1.850      2.351
REMARK  7 active torsions:
REMARK  status: ('A' for Active; 'I' for Inactive)
REMARK       I    between atoms: C2_2  and  N1_4 
REMARK    1  A    between atoms: N1_4  and  C3_6 
REMARK    2  A    between atoms: C6_9  and  S1_10 
REMARK    3  A    between atoms: S1_10  and  N2_12 
REMARK    4  A    between atoms: S1_10  and  N6_22 
REMARK       I    between atoms: C7_14  and  N4_16 
REMARK    5  A    between atoms: N4_16  and  N5_18 
REMARK    6  A    between atoms: N5_18  and  O3_20 
REMARK    7  A    between atoms: N6_22  and  N7_24 
ROOT
HETATM    1  S1  UNL     1      10.031  -7.320  18.077  1.00  0.00     0.158 S 
HETATM    2  O2  UNL     1       9.240  -7.834  19.273  1.00  0.00    -0.221 OA
ENDROOT
BRANCH   1   3
HETATM    3  C6  UNL     1       9.602  -8.272  16.677  1.00  0.00     0.060 A 
HETATM    4  C5  UNL     1      10.393  -8.379  15.555  1.00  0.00     0.026 A 
HETATM    5  C4  UNL     1      10.014  -9.141  14.480  1.00  0.00     0.031 A 
HETATM    6  C3  UNL     1       8.805  -9.842  14.481  1.00  0.00     0.034 A 
HETATM    7  C9  UNL     1       8.010  -9.739  15.599  1.00  0.00     0.031 A 
HETATM    8  C8  UNL     1       8.411  -8.957  16.690  1.00  0.00     0.026 A 
BRANCH   6   9
HETATM    9  N1  UNL     1       8.456 -10.610  13.358  1.00  0.00    -0.328 N 
HETATM   10  C2  UNL     1       8.013 -11.921  13.308  1.00  0.00     0.218 C 
HETATM   11  C1  UNL     1       7.697 -12.536  11.950  1.00  0.00     0.117 C 
HETATM   12  O1  UNL     1       7.826 -12.715  14.266  1.00  0.00    -0.274 OA
ATOM     13  H1  UNL     1       8.539 -10.138  12.457  1.00  0.00     0.169 HD
ENDBRANCH   6   9
ENDBRANCH   1   3
BRANCH   1  14
HETATM   14  N2  UNL     1      11.691  -7.495  18.489  1.00  0.00    -0.268 N 
HETATM   15  C7  UNL     1      12.198  -6.691  19.333  1.00  0.00     0.217 C 
HETATM   16  N3  UNL     1      11.408  -5.679  19.914  1.00  0.00    -0.061 NA
HETATM   17  N4  UNL     1      13.562  -6.834  19.672  1.00  0.00    -0.253 N 
ATOM     18  H4  UNL     1      13.846  -7.617  20.262  1.00  0.00     0.191 HD
ATOM     19  H2  UNL     1      12.258  -8.229  18.065  1.00  0.00     0.180 HD
BRANCH  17  20
HETATM   20  N5  UNL     1      14.531  -5.939  19.225  1.00  0.00    -0.208 N 
ATOM     21  H5  UNL     1      14.260  -4.978  19.018  1.00  0.00     0.215 HD
BRANCH  20  22
HETATM   22  O3  UNL     1      15.733  -6.285  19.068  1.00  0.00    -0.274 OA
ATOM     23  H3  UNL     1      16.355  -5.738  18.602  1.00  0.00     0.246 HD
ENDBRANCH  20  22
ENDBRANCH  17  20
ENDBRANCH   1  14
BRANCH   1  24
HETATM   24  N6  UNL     1       9.612  -5.819  17.901  1.00  0.00    -0.246 N 
ATOM     25  H6  UNL     1      10.144  -5.194  17.295  1.00  0.00     0.198 HD
BRANCH  24  26
HETATM   26  N7  UNL     1       8.492  -5.361  18.599  1.00  0.00    -0.337 N 
ATOM     27  H72 UNL     1       8.077  -5.937  19.332  1.00  0.00     0.177 HD
ATOM     28  H71 UNL     1       8.111  -4.448  18.352  1.00  0.00     0.177 HD
ENDBRANCH  24  26
ENDBRANCH   1  24
TORSDOF 7
ENDMDL
MODEL 5
REMARK VINA RESULT: -6.836617141      2.014      2.546
REMARK  7 active torsions:
REMARK  status: ('A' for Active; 'I' for Inactive)
REMARK       I    between atoms: C2_2  and  N1_4 
REMARK    1  A    between atoms: N1_4  and  C3_6 
REMARK    2  A    between atoms: C6_9  and  S1_10 
REMARK    3  A    between atoms: S1_10  and  N2_12 
REMARK    4  A    between atoms: S1_10  and  N6_22 
REMARK       I    between atoms: C7_14  and  N4_16 
REMARK    5  A    between atoms: N4_16  and  N5_18 
REMARK    6  A    between atoms: N5_18  and  O3_20 
REMARK    7  A    between atoms: N6_22  and  N7_24 
ROOT
HETATM    1  S1  UNL     1      11.682  -7.236  19.630  1.00  0.00     0.158 S 
HETATM    2  O2  UNL     1      11.999  -8.432  20.519  1.00  0.00    -0.221 OA
ENDROOT
BRANCH   1   3
HETATM    3  C6  UNL     1      10.621  -7.765  18.348  1.00  0.00     0.060 A 
HETATM    4  C5  UNL     1       9.604  -6.994  17.831  1.00  0.00     0.026 A 
HETATM    5  C4  UNL     1       8.796  -7.452  16.822  1.00  0.00     0.031 A 
HETATM    6  C3  UNL     1       8.975  -8.727  16.276  1.00  0.00     0.034 A 
HETATM    7  C9  UNL     1       9.990  -9.502  16.787  1.00  0.00     0.031 A 
HETATM    8  C8  UNL     1      10.807  -9.019  17.818  1.00  0.00     0.026 A 
BRANCH   6   9
HETATM    9  N1  UNL     1       8.125  -9.156  15.244  1.00  0.00    -0.328 N 
HETATM   10  C2  UNL     1       8.450  -9.512  13.945  1.00  0.00     0.218 C 
HETATM   11  C1  UNL     1       7.332  -9.948  13.005  1.00  0.00     0.117 C 
HETATM   12  O1  UNL     1       9.586  -9.528  13.404  1.00  0.00    -0.274 OA
ATOM     13  H1  UNL     1       7.135  -9.214  15.483  1.00  0.00     0.169 HD
ENDBRANCH   6   9
ENDBRANCH   1   3
BRANCH   1  14
HETATM   14  N2  UNL     1      13.191  -6.675  19.025  1.00  0.00    -0.268 N 
HETATM   15  C7  UNL     1      14.212  -6.740  19.780  1.00  0.00     0.217 C 
HETATM   16  N3  UNL     1      14.100  -7.260  21.084  1.00  0.00    -0.061 NA
HETATM   17  N4  UNL     1      15.452  -6.278  19.284  1.00  0.00    -0.253 N 
ATOM     18  H4  UNL     1      15.944  -6.837  18.587  1.00  0.00     0.191 HD
ATOM     19  H2  UNL     1      13.265  -6.299  18.080  1.00  0.00     0.180 HD
BRANCH  17  20
HETATM   20  N5  UNL     1      16.022  -5.084  19.717  1.00  0.00    -0.208 N 
ATOM     21  H5  UNL     1      16.263  -4.979  20.702  1.00  0.00     0.215 HD
BRANCH  20  22
HETATM   22  O3  UNL     1      16.247  -4.129  18.926  1.00  0.00    -0.274 OA
ATOM     23  H3  UNL     1      15.965  -4.152  18.019  1.00  0.00     0.246 HD
ENDBRANCH  20  22
ENDBRANCH  17  20
ENDBRANCH   1  14
BRANCH   1  24
HETATM   24  N6  UNL     1      10.981  -6.187  20.560  1.00  0.00    -0.246 N 
ATOM     25  H6  UNL     1      11.255  -5.204  20.540  1.00  0.00     0.198 HD
BRANCH  24  26
HETATM   26  N7  UNL     1       9.972  -6.634  21.416  1.00  0.00    -0.337 N 
ATOM     27  H72 UNL     1       9.378  -5.960  21.899  1.00  0.00     0.177 HD
ATOM     28  H71 UNL     1       9.855  -7.640  21.538  1.00  0.00     0.177 HD
ENDBRANCH  24  26
ENDBRANCH   1  24
TORSDOF 7
ENDMDL
