MODEL 1
REMARK VINA RESULT: -9.152408547      0.000      0.000
REMARK  6 active torsions:
REMARK  status: ('A' for Active; 'I' for Inactive)
REMARK    1  A    between atoms: C8_8  and  N1_9 
REMARK    2  A    between atoms: N1_9  and  C10_11 
REMARK    3  A    between atoms: C10_11  and  C11_12 
REMARK    4  A    between atoms: C11_12  and  N2_13 
REMARK    5  A    between atoms: C14_16  and  N3_17 
REMARK    6  A    between atoms: N3_17  and  C16_19 
ROOT
HETATM    1  N2  UNL     1      60.433  27.969  41.849  1.00  0.00     0.090 N 
HETATM    2  C12 UNL     1      61.708  27.494  41.259  1.00  0.00     0.274 C 
HETATM    3  C13 UNL     1      62.552  26.833  42.319  1.00  0.00     0.055 C 
HETATM    4  C14 UNL     1      61.946  25.455  42.564  1.00  0.00     0.088 C 
HETATM    5  C21 UNL     1      60.477  25.608  42.236  1.00  0.00     0.055 C 
HETATM    6  C22 UNL     1      60.065  26.973  42.825  1.00  0.00     0.274 C 
ENDROOT
BRANCH   4   7
HETATM    7  N3  UNL     1      62.622  24.431  41.838  1.00  0.00    -0.365 N 
HETATM    8  C15 UNL     1      63.552  24.776  40.785  1.00  0.00     0.151 C 
BRANCH   7   9
HETATM    9  C16 UNL     1      62.421  23.053  42.090  1.00  0.00     0.135 A 
HETATM   10  N4  UNL     1      62.835  22.540  43.261  1.00  0.00    -0.337 N 
HETATM   11  C17 UNL     1      62.663  21.216  43.548  1.00  0.00     0.183 A 
ATOM     12  H4  UNL     1      63.284  23.148  43.946  1.00  0.00     0.168 HD
HETATM   13  N5  UNL     1      62.072  20.379  42.667  1.00  0.00    -0.337 N 
HETATM   14  C18 UNL     1      61.649  20.844  41.498  1.00  0.00     0.138 A 
ATOM     15  H5  UNL     1      61.952  19.394  42.899  1.00  0.00     0.168 HD
HETATM   16  N6  UNL     1      61.046  20.268  40.456  1.00  0.00    -0.337 N 
HETATM   17  C20 UNL     1      61.821  22.191  41.199  1.00  0.00     0.122 A 
HETATM   18  C19 UNL     1      60.821  21.204  39.487  1.00  0.00     0.182 A 
ATOM     19  H6  UNL     1      60.793  19.281  40.393  1.00  0.00     0.168 HD
HETATM   20  N7  UNL     1      61.303  22.368  39.966  1.00  0.00    -0.346 N 
ATOM     21  H7  UNL     1      61.280  23.257  39.467  1.00  0.00     0.167 HD
ENDBRANCH   7   9
ENDBRANCH   4   7
BRANCH   1  22
HETATM   22  C11 UNL     1      60.697  29.269  42.339  1.00  0.00     0.291 C 
BRANCH  22  23
HETATM   23  C10 UNL     1      59.682  29.970  43.140  1.00  0.00     0.147 C 
BRANCH  23  24
HETATM   24  N1  UNL     1      60.075  31.038  43.973  1.00  0.00    -0.407 N 
HETATM   25  C9  UNL     1      60.901  32.041  43.399  1.00  0.00     0.144 C 
BRANCH  24  26
HETATM   26  C8  UNL     1      60.395  30.746  45.334  1.00  0.00     0.107 C 
HETATM   27  C2  UNL     1      59.522  31.606  46.207  1.00  0.00    -0.063 C 
HETATM   28  C1  UNL     1      59.979  32.772  46.663  1.00  0.00     0.017 C 
HETATM   29  C3  UNL     1      58.156  31.195  46.596  1.00  0.00     0.011 C 
HETATM   30  C4  UNL     1      57.178  31.122  45.468  1.00  0.00     0.015 C 
HETATM   31  C5  UNL     1      58.308  29.786  47.192  1.00  0.00     0.009 C 
HETATM   32  C6  UNL     1      58.828  28.910  46.103  1.00  0.00     0.003 C 
HETATM   33  C7  UNL     1      60.228  29.324  45.732  1.00  0.00     0.029 C 
ENDBRANCH  24  26
ENDBRANCH  23  24
ENDBRANCH  22  23
ENDBRANCH   1  22
TORSDOF 6
ENDMDL
MODEL 2
REMARK VINA RESULT: -8.963945677      2.865      8.859
REMARK  6 active torsions:
REMARK  status: ('A' for Active; 'I' for Inactive)
REMARK    1  A    between atoms: C8_8  and  N1_9 
REMARK    2  A    between atoms: N1_9  and  C10_11 
REMARK    3  A    between atoms: C10_11  and  C11_12 
REMARK    4  A    between atoms: C11_12  and  N2_13 
REMARK    5  A    between atoms: C14_16  and  N3_17 
REMARK    6  A    between atoms: N3_17  and  C16_19 
ROOT
HETATM    1  N2  UNL     1      63.319  25.567  41.863  1.00  0.00     0.090 N 
HETATM    2  C12 UNL     1      62.030  26.060  41.320  1.00  0.00     0.274 C 
HETATM    3  C13 UNL     1      61.240  26.742  42.407  1.00  0.00     0.055 C 
HETATM    4  C14 UNL     1      61.878  28.111  42.620  1.00  0.00     0.088 C 
HETATM    5  C21 UNL     1      63.330  27.931  42.236  1.00  0.00     0.055 C 
HETATM    6  C22 UNL     1      63.741  26.562  42.817  1.00  0.00     0.274 C 
ENDROOT
BRANCH   4   7
HETATM    7  N3  UNL     1      61.192  29.142  41.914  1.00  0.00    -0.365 N 
HETATM    8  C15 UNL     1      60.260  28.808  40.858  1.00  0.00     0.151 C 
BRANCH   7   9
HETATM    9  C16 UNL     1      61.384  30.517  42.188  1.00  0.00     0.135 A 
HETATM   10  N4  UNL     1      60.972  31.007  43.370  1.00  0.00    -0.337 N 
HETATM   11  C17 UNL     1      61.137  32.327  43.678  1.00  0.00     0.183 A 
ATOM     12  H4  UNL     1      60.531  30.384  44.046  1.00  0.00     0.168 HD
HETATM   13  N5  UNL     1      61.717  33.183  42.809  1.00  0.00    -0.337 N 
HETATM   14  C18 UNL     1      62.138  32.741  41.630  1.00  0.00     0.138 A 
ATOM     15  H5  UNL     1      61.832  34.165  43.057  1.00  0.00     0.168 HD
HETATM   16  N6  UNL     1      62.732  33.339  40.595  1.00  0.00    -0.337 N 
HETATM   17  C20 UNL     1      61.975  31.398  41.309  1.00  0.00     0.122 A 
HETATM   18  C19 UNL     1      62.959  32.421  39.609  1.00  0.00     0.182 A 
ATOM     19  H6  UNL     1      62.978  34.328  40.548  1.00  0.00     0.168 HD
HETATM   20  N7  UNL     1      62.487  31.246  40.071  1.00  0.00    -0.346 N 
ATOM     21  H7  UNL     1      62.514  30.366  39.557  1.00  0.00     0.167 HD
ENDBRANCH   7   9
ENDBRANCH   4   7
BRANCH   1  22
HETATM   22  C11 UNL     1      63.052  24.275  42.371  1.00  0.00     0.291 C 
BRANCH  22  23
HETATM   23  C10 UNL     1      64.090  23.555  43.125  1.00  0.00     0.147 C 
BRANCH  23  24
HETATM   24  N1  UNL     1      63.719  22.479  43.957  1.00  0.00    -0.407 N 
HETATM   25  C9  UNL     1      62.881  21.480  43.395  1.00  0.00     0.144 C 
BRANCH  24  26
HETATM   26  C8  UNL     1      63.432  22.759  45.328  1.00  0.00     0.107 C 
HETATM   27  C2  UNL     1      64.273  21.840  46.173  1.00  0.00    -0.063 C 
HETATM   28  C1  UNL     1      63.765  20.689  46.611  1.00  0.00     0.017 C 
HETATM   29  C3  UNL     1      65.662  22.176  46.550  1.00  0.00     0.011 C 
HETATM   30  C4  UNL     1      66.627  22.224  45.410  1.00  0.00     0.015 C 
HETATM   31  C5  UNL     1      65.588  23.578  47.176  1.00  0.00     0.009 C 
HETATM   32  C6  UNL     1      65.096  24.500  46.111  1.00  0.00     0.003 C 
HETATM   33  C7  UNL     1      63.673  24.162  45.752  1.00  0.00     0.029 C 
ENDBRANCH  24  26
ENDBRANCH  23  24
ENDBRANCH  22  23
ENDBRANCH   1  22
TORSDOF 6
ENDMDL
MODEL 3
REMARK VINA RESULT: -8.885091343      1.010      2.151
REMARK  6 active torsions:
REMARK  status: ('A' for Active; 'I' for Inactive)
REMARK    1  A    between atoms: C8_8  and  N1_9 
REMARK    2  A    between atoms: N1_9  and  C10_11 
REMARK    3  A    between atoms: C10_11  and  C11_12 
REMARK    4  A    between atoms: C11_12  and  N2_13 
REMARK    5  A    between atoms: C14_16  and  N3_17 
REMARK    6  A    between atoms: N3_17  and  C16_19 
ROOT
HETATM    1  N2  UNL     1      60.301  28.315  41.801  1.00  0.00     0.090 N 
HETATM    2  C12 UNL     1      61.530  27.927  41.067  1.00  0.00     0.274 C 
HETATM    3  C13 UNL     1      62.558  27.391  42.032  1.00  0.00     0.055 C 
HETATM    4  C14 UNL     1      62.117  25.978  42.399  1.00  0.00     0.088 C 
HETATM    5  C21 UNL     1      60.612  25.986  42.259  1.00  0.00     0.055 C 
HETATM    6  C22 UNL     1      60.152  27.336  42.849  1.00  0.00     0.274 C 
ENDROOT
BRANCH   4   7
HETATM    7  N3  UNL     1      62.789  24.985  41.628  1.00  0.00    -0.365 N 
HETATM    8  C15 UNL     1      63.414  25.337  40.371  1.00  0.00     0.151 C 
BRANCH   7   9
HETATM    9  C16 UNL     1      62.872  23.630  42.027  1.00  0.00     0.135 A 
HETATM   10  N4  UNL     1      62.539  22.671  41.145  1.00  0.00    -0.337 N 
HETATM   11  C17 UNL     1      62.602  21.351  41.487  1.00  0.00     0.183 A 
ATOM     12  H4  UNL     1      62.234  22.934  40.208  1.00  0.00     0.168 HD
HETATM   13  N5  UNL     1      63.001  20.963  42.718  1.00  0.00    -0.337 N 
HETATM   14  C18 UNL     1      63.339  21.877  43.619  1.00  0.00     0.138 A 
ATOM     15  H5  UNL     1      63.044  19.972  42.953  1.00  0.00     0.168 HD
HETATM   16  N6  UNL     1      63.760  21.793  44.884  1.00  0.00    -0.337 N 
HETATM   17  C20 UNL     1      63.277  23.223  43.280  1.00  0.00     0.122 A 
HETATM   18  C19 UNL     1      63.972  23.050  45.375  1.00  0.00     0.182 A 
ATOM     19  H6  UNL     1      63.900  20.926  45.402  1.00  0.00     0.168 HD
HETATM   20  N7  UNL     1      63.670  23.903  44.376  1.00  0.00    -0.346 N 
ATOM     21  H7  UNL     1      63.730  24.919  44.441  1.00  0.00     0.167 HD
ENDBRANCH   7   9
ENDBRANCH   4   7
BRANCH   1  22
HETATM   22  C11 UNL     1      60.503  29.654  42.207  1.00  0.00     0.291 C 
BRANCH  22  23
HETATM   23  C10 UNL     1      59.609  30.259  43.207  1.00  0.00     0.147 C 
BRANCH  23  24
HETATM   24  N1  UNL     1      60.105  31.268  44.058  1.00  0.00    -0.407 N 
HETATM   25  C9  UNL     1      61.016  32.203  43.496  1.00  0.00     0.144 C 
BRANCH  24  26
HETATM   26  C8  UNL     1      60.408  30.918  45.409  1.00  0.00     0.107 C 
HETATM   27  C2  UNL     1      59.506  31.722  46.307  1.00  0.00    -0.063 C 
HETATM   28  C1  UNL     1      59.936  32.873  46.823  1.00  0.00     0.017 C 
HETATM   29  C3  UNL     1      58.142  31.271  46.653  1.00  0.00     0.011 C 
HETATM   30  C4  UNL     1      57.184  31.234  45.506  1.00  0.00     0.015 C 
HETATM   31  C5  UNL     1      58.308  29.839  47.186  1.00  0.00     0.009 C 
HETATM   32  C6  UNL     1      58.862  29.023  46.066  1.00  0.00     0.003 C 
HETATM   33  C7  UNL     1      60.260  29.477  45.739  1.00  0.00     0.029 C 
ENDBRANCH  24  26
ENDBRANCH  23  24
ENDBRANCH  22  23
ENDBRANCH   1  22
TORSDOF 6
ENDMDL
MODEL 4
REMARK VINA RESULT: -8.864716014      2.450      8.739
REMARK  6 active torsions:
REMARK  status: ('A' for Active; 'I' for Inactive)
REMARK    1  A    between atoms: C8_8  and  N1_9 
REMARK    2  A    between atoms: N1_9  and  C10_11 
REMARK    3  A    between atoms: C10_11  and  C11_12 
REMARK    4  A    between atoms: C11_12  and  N2_13 
REMARK    5  A    between atoms: C14_16  and  N3_17 
REMARK    6  A    between atoms: N3_17  and  C16_19 
ROOT
HETATM    1  N2  UNL     1      63.442  25.246  41.833  1.00  0.00     0.090 N 
HETATM    2  C12 UNL     1      62.200  25.659  41.135  1.00  0.00     0.274 C 
HETATM    3  C13 UNL     1      61.211  26.214  42.129  1.00  0.00     0.055 C 
HETATM    4  C14 UNL     1      61.689  27.618  42.484  1.00  0.00     0.088 C 
HETATM    5  C21 UNL     1      63.190  27.580  42.300  1.00  0.00     0.055 C 
HETATM    6  C22 UNL     1      63.640  26.221  42.877  1.00  0.00     0.274 C 
ENDROOT
BRANCH   4   7
HETATM    7  N3  UNL     1      61.016  28.625  41.732  1.00  0.00    -0.365 N 
HETATM    8  C15 UNL     1      60.326  28.282  40.507  1.00  0.00     0.151 C 
BRANCH   7   9
HETATM    9  C16 UNL     1      60.991  29.985  42.122  1.00  0.00     0.135 A 
HETATM   10  N4  UNL     1      61.396  30.919  41.244  1.00  0.00    -0.337 N 
HETATM   11  C17 UNL     1      61.390  32.243  41.576  1.00  0.00     0.183 A 
ATOM     12  H4  UNL     1      61.711  30.635  40.317  1.00  0.00     0.168 HD
HETATM   13  N5  UNL     1      60.978  32.659  42.794  1.00  0.00    -0.337 N 
HETATM   14  C18 UNL     1      60.570  31.770  43.691  1.00  0.00     0.138 A 
ATOM     15  H5  UNL     1      60.980  33.653  43.023  1.00  0.00     0.168 HD
HETATM   16  N6  UNL     1      60.120  31.883  44.943  1.00  0.00    -0.337 N 
HETATM   17  C20 UNL     1      60.573  30.420  43.360  1.00  0.00     0.122 A 
HETATM   18  C19 UNL     1      59.831  30.643  45.435  1.00  0.00     0.182 A 
ATOM     19  H6  UNL     1      60.010  32.761  45.452  1.00  0.00     0.168 HD
HETATM   20  N7  UNL     1      60.116  29.769  44.450  1.00  0.00    -0.346 N 
ATOM     21  H7  UNL     1      60.003  28.758  44.518  1.00  0.00     0.167 HD
ENDBRANCH   7   9
ENDBRANCH   4   7
BRANCH   1  22
HETATM   22  C11 UNL     1      63.225  23.911  42.245  1.00  0.00     0.291 C 
BRANCH  22  23
HETATM   23  C10 UNL     1      64.157  23.276  43.191  1.00  0.00     0.147 C 
BRANCH  23  24
HETATM   24  N1  UNL     1      63.689  22.251  44.038  1.00  0.00    -0.407 N 
HETATM   25  C9  UNL     1      62.795  21.300  43.478  1.00  0.00     0.144 C 
BRANCH  24  26
HETATM   26  C8  UNL     1      63.388  22.586  45.394  1.00  0.00     0.107 C 
HETATM   27  C2  UNL     1      64.285  21.767  46.281  1.00  0.00    -0.063 C 
HETATM   28  C1  UNL     1      63.850  20.611  46.784  1.00  0.00     0.017 C 
HETATM   29  C3  UNL     1      65.652  22.206  46.633  1.00  0.00     0.011 C 
HETATM   30  C4  UNL     1      66.610  22.252  45.487  1.00  0.00     0.015 C 
HETATM   31  C5  UNL     1      65.494  23.632  47.183  1.00  0.00     0.009 C 
HETATM   32  C6  UNL     1      64.945  24.465  46.074  1.00  0.00     0.003 C 
HETATM   33  C7  UNL     1      63.544  24.023  45.741  1.00  0.00     0.029 C 
ENDBRANCH  24  26
ENDBRANCH  23  24
ENDBRANCH  22  23
ENDBRANCH   1  22
TORSDOF 6
ENDMDL
MODEL 5
REMARK VINA RESULT: -8.267340575      0.885      2.013
REMARK  6 active torsions:
REMARK  status: ('A' for Active; 'I' for Inactive)
REMARK    1  A    between atoms: C8_8  and  N1_9 
REMARK    2  A    between atoms: N1_9  and  C10_11 
REMARK    3  A    between atoms: C10_11  and  C11_12 
REMARK    4  A    between atoms: C11_12  and  N2_13 
REMARK    5  A    between atoms: C14_16  and  N3_17 
REMARK    6  A    between atoms: N3_17  and  C16_19 
ROOT
HETATM    1  N2  UNL     1      61.722  28.630  42.803  1.00  0.00     0.090 N 
HETATM    2  C12 UNL     1      61.167  27.299  43.151  1.00  0.00     0.274 C 
HETATM    3  C13 UNL     1      61.201  26.395  41.946  1.00  0.00     0.055 C 
HETATM    4  C14 UNL     1      62.649  25.944  41.779  1.00  0.00     0.088 C 
HETATM    5  C21 UNL     1      63.479  27.067  42.360  1.00  0.00     0.055 C 
HETATM    6  C22 UNL     1      62.802  28.368  41.883  1.00  0.00     0.274 C 
ENDROOT
BRANCH   4   7
HETATM    7  N3  UNL     1      62.885  24.661  42.353  1.00  0.00    -0.365 N 
HETATM    8  C15 UNL     1      63.640  24.538  43.581  1.00  0.00     0.151 C 
BRANCH   7   9
HETATM    9  C16 UNL     1      62.418  23.461  41.765  1.00  0.00     0.135 A 
HETATM   10  N4  UNL     1      61.993  23.486  40.490  1.00  0.00    -0.337 N 
HETATM   11  C17 UNL     1      61.533  22.353  39.882  1.00  0.00     0.183 A 
ATOM     12  H4  UNL     1      62.015  24.362  39.970  1.00  0.00     0.168 HD
HETATM   13  N5  UNL     1      61.490  21.173  40.538  1.00  0.00    -0.337 N 
HETATM   14  C18 UNL     1      61.900  21.104  41.799  1.00  0.00     0.138 A 
ATOM     15  H5  UNL     1      61.145  20.337  40.067  1.00  0.00     0.168 HD
HETATM   16  N6  UNL     1      61.971  20.101  42.677  1.00  0.00    -0.337 N 
HETATM   17  C20 UNL     1      62.370  22.253  42.425  1.00  0.00     0.122 A 
HETATM   18  C19 UNL     1      62.474  20.568  43.859  1.00  0.00     0.182 A 
ATOM     19  H6  UNL     1      61.692  19.137  42.495  1.00  0.00     0.168 HD
HETATM   20  N7  UNL     1      62.708  21.883  43.677  1.00  0.00    -0.346 N 
ATOM     21  H7  UNL     1      63.088  22.510  44.386  1.00  0.00     0.167 HD
ENDBRANCH   7   9
ENDBRANCH   4   7
BRANCH   1  22
HETATM   22  C11 UNL     1      60.633  29.382  42.304  1.00  0.00     0.291 C 
BRANCH  22  23
HETATM   23  C10 UNL     1      59.642  29.943  43.236  1.00  0.00     0.147 C 
BRANCH  23  24
HETATM   24  N1  UNL     1      60.000  31.038  44.048  1.00  0.00    -0.407 N 
HETATM   25  C9  UNL     1      60.798  32.054  43.457  1.00  0.00     0.144 C 
BRANCH  24  26
HETATM   26  C8  UNL     1      60.324  30.783  45.416  1.00  0.00     0.107 C 
HETATM   27  C2  UNL     1      59.453  31.665  46.269  1.00  0.00    -0.063 C 
HETATM   28  C1  UNL     1      59.910  32.843  46.691  1.00  0.00     0.017 C 
HETATM   29  C3  UNL     1      58.089  31.263  46.672  1.00  0.00     0.011 C 
HETATM   30  C4  UNL     1      57.108  31.159  45.549  1.00  0.00     0.015 C 
HETATM   31  C5  UNL     1      58.243  29.871  47.305  1.00  0.00     0.009 C 
HETATM   32  C6  UNL     1      58.762  28.967  46.238  1.00  0.00     0.003 C 
HETATM   33  C7  UNL     1      60.160  29.372  45.853  1.00  0.00     0.029 C 
ENDBRANCH  24  26
ENDBRANCH  23  24
ENDBRANCH  22  23
ENDBRANCH   1  22
TORSDOF 6
ENDMDL
