MODEL 1
REMARK VINA RESULT: -9.089095099      0.000      0.000
REMARK  7 active torsions:
REMARK  status: ('A' for Active; 'I' for Inactive)
REMARK    1  A    between atoms: C5_5  and  C6_6 
REMARK    2  A    between atoms: C6_6  and  C7_7 
REMARK    3  A    between atoms: C7_7  and  N1_8 
REMARK    4  A    between atoms: C8_11  and  C9_12 
REMARK    5  A    between atoms: N3_18  and  C14_19 
REMARK    6  A    between atoms: C14_19  and  C15_20 
REMARK       I    between atoms: C15_20  and  N4_22 
REMARK    7  A    between atoms: N4_22  and  C16_24 
ROOT
HETATM    1  N1  UNL     1      60.668  31.285  42.248  1.00  0.00    -0.242 N 
HETATM    2  N2  UNL     1      60.192  31.422  43.472  1.00  0.00    -0.292 N 
ATOM      3  H2  UNL     1      60.126  32.362  43.866  1.00  0.00     0.187 HD
HETATM    4  C8  UNL     1      59.792  30.384  44.224  1.00  0.00     0.102 A 
HETATM    5  C13 UNL     1      59.903  29.121  43.640  1.00  0.00     0.276 A 
HETATM    6  O1  UNL     1      59.534  28.117  44.320  1.00  0.00    -0.266 OA
HETATM    7  N3  UNL     1      60.391  29.001  42.391  1.00  0.00    -0.255 N 
HETATM    8  C19 UNL     1      60.786  30.090  41.665  1.00  0.00     0.346 A 
HETATM    9  O3  UNL     1      61.232  29.914  40.506  1.00  0.00    -0.245 OA
ENDROOT
BRANCH   1  10
HETATM   10  C7  UNL     1      61.081  32.456  41.500  1.00  0.00     0.154 C 
BRANCH  10  11
HETATM   11  C6  UNL     1      62.581  32.536  41.492  1.00  0.00     0.026 C 
BRANCH  11  12
HETATM   12  C5  UNL     1      63.148  33.297  40.349  1.00  0.00    -0.013 C 
HETATM   13  C4  UNL     1      62.594  34.670  40.170  1.00  0.00     0.005 C 
HETATM   14  C3  UNL     1      63.410  35.372  39.090  1.00  0.00     0.004 C 
HETATM   15  C2  UNL     1      63.607  34.529  37.881  1.00  0.00    -0.019 C 
HETATM   16  C1  UNL     1      63.370  35.379  36.651  1.00  0.00     0.010 C 
HETATM   17  C21 UNL     1      62.608  33.399  37.903  1.00  0.00     0.004 C 
HETATM   18  C20 UNL     1      62.879  32.509  39.085  1.00  0.00     0.005 C 
ENDBRANCH  11  12
ENDBRANCH  10  11
ENDBRANCH   1  10
BRANCH   4  19
HETATM   19  C9  UNL     1      59.252  30.513  45.602  1.00  0.00    -0.002 C 
HETATM   20  C10 UNL     1      59.982  29.502  46.481  1.00  0.00     0.021 C 
HETATM   21  C11 UNL     1      57.778  30.336  45.696  1.00  0.00     0.021 C 
HETATM   22  C12 UNL     1      59.620  31.884  46.173  1.00  0.00     0.021 C 
ENDBRANCH   4  19
BRANCH   7  23
HETATM   23  C14 UNL     1      60.525  27.712  41.757  1.00  0.00     0.240 C 
BRANCH  23  24
HETATM   24  C15 UNL     1      61.801  27.103  42.217  1.00  0.00     0.236 C 
HETATM   25  O2  UNL     1      62.859  27.815  42.288  1.00  0.00    -0.272 OA
HETATM   26  N4  UNL     1      61.922  25.742  42.589  1.00  0.00    -0.355 N 
ATOM     27  H4  UNL     1      61.108  25.129  42.549  1.00  0.00     0.162 HD
BRANCH  26  28
HETATM   28  C16 UNL     1      63.196  25.222  43.027  1.00  0.00     0.084 A 
HETATM   29  C17 UNL     1      63.516  23.789  42.771  1.00  0.00     0.027 A 
HETATM   30  C18 UNL     1      63.122  24.232  44.132  1.00  0.00     0.027 A 
ENDBRANCH  26  28
ENDBRANCH  23  24
ENDBRANCH   7  23
TORSDOF 7
ENDMDL
MODEL 2
REMARK VINA RESULT: -9.021512145      4.248      9.984
REMARK  7 active torsions:
REMARK  status: ('A' for Active; 'I' for Inactive)
REMARK    1  A    between atoms: C5_5  and  C6_6 
REMARK    2  A    between atoms: C6_6  and  C7_7 
REMARK    3  A    between atoms: C7_7  and  N1_8 
REMARK    4  A    between atoms: C8_11  and  C9_12 
REMARK    5  A    between atoms: N3_18  and  C14_19 
REMARK    6  A    between atoms: C14_19  and  C15_20 
REMARK       I    between atoms: C15_20  and  N4_22 
REMARK    7  A    between atoms: N4_22  and  C16_24 
ROOT
HETATM    1  N1  UNL     1      63.160  22.279  42.148  1.00  0.00    -0.242 N 
HETATM    2  N2  UNL     1      63.624  22.110  43.373  1.00  0.00    -0.292 N 
ATOM      3  H2  UNL     1      63.721  21.159  43.729  1.00  0.00     0.187 HD
HETATM    4  C8  UNL     1      63.975  23.131  44.171  1.00  0.00     0.102 A 
HETATM    5  C13 UNL     1      63.823  24.412  43.637  1.00  0.00     0.276 A 
HETATM    6  O1  UNL     1      64.145  25.401  44.362  1.00  0.00    -0.266 OA
HETATM    7  N3  UNL     1      63.348  24.564  42.386  1.00  0.00    -0.255 N 
HETATM    8  C19 UNL     1      63.004  23.491  41.611  1.00  0.00     0.346 A 
HETATM    9  O3  UNL     1      62.568  23.697  40.454  1.00  0.00    -0.245 OA
ENDROOT
BRANCH   1  10
HETATM   10  C7  UNL     1      62.802  21.125  41.348  1.00  0.00     0.154 C 
BRANCH  10  11
HETATM   11  C6  UNL     1      61.321  20.897  41.438  1.00  0.00     0.026 C 
BRANCH  11  12
HETATM   12  C5  UNL     1      60.724  20.252  40.241  1.00  0.00    -0.013 C 
HETATM   13  C4  UNL     1      61.097  18.821  40.045  1.00  0.00     0.005 C 
HETATM   14  C3  UNL     1      60.259  18.266  38.899  1.00  0.00     0.004 C 
HETATM   15  C2  UNL     1      60.250  19.159  37.711  1.00  0.00    -0.019 C 
HETATM   16  C1  UNL     1      60.442  18.318  36.467  1.00  0.00     0.010 C 
HETATM   17  C21 UNL     1      61.390  20.141  37.826  1.00  0.00     0.004 C 
HETATM   18  C20 UNL     1      61.172  21.029  39.021  1.00  0.00     0.005 C 
ENDBRANCH  11  12
ENDBRANCH  10  11
ENDBRANCH   1  10
BRANCH   4  19
HETATM   19  C9  UNL     1      64.500  22.966  45.551  1.00  0.00    -0.002 C 
HETATM   20  C10 UNL     1      63.723  23.916  46.458  1.00  0.00     0.021 C 
HETATM   21  C11 UNL     1      65.966  23.191  45.674  1.00  0.00     0.021 C 
HETATM   22  C12 UNL     1      64.173  21.562  46.063  1.00  0.00     0.021 C 
ENDBRANCH   4  19
BRANCH   7  23
HETATM   23  C14 UNL     1      63.174  25.872  41.803  1.00  0.00     0.240 C 
BRANCH  23  24
HETATM   24  C15 UNL     1      61.884  26.426  42.291  1.00  0.00     0.236 C 
HETATM   25  O2  UNL     1      60.857  25.672  42.378  1.00  0.00    -0.272 OA
HETATM   26  N4  UNL     1      61.715  27.778  42.676  1.00  0.00    -0.355 N 
ATOM     27  H4  UNL     1      62.503  28.424  42.625  1.00  0.00     0.162 HD
BRANCH  26  28
HETATM   28  C16 UNL     1      60.429  28.244  43.142  1.00  0.00     0.084 A 
HETATM   29  C17 UNL     1      60.156  29.709  43.158  1.00  0.00     0.027 A 
HETATM   30  C18 UNL     1      60.463  28.996  44.424  1.00  0.00     0.027 A 
ENDBRANCH  26  28
ENDBRANCH  23  24
ENDBRANCH   7  23
TORSDOF 7
ENDMDL
MODEL 3
REMARK VINA RESULT: -8.531309799      1.620      7.261
REMARK  7 active torsions:
REMARK  status: ('A' for Active; 'I' for Inactive)
REMARK    1  A    between atoms: C5_5  and  C6_6 
REMARK    2  A    between atoms: C6_6  and  C7_7 
REMARK    3  A    between atoms: C7_7  and  N1_8 
REMARK    4  A    between atoms: C8_11  and  C9_12 
REMARK    5  A    between atoms: N3_18  and  C14_19 
REMARK    6  A    between atoms: C14_19  and  C15_20 
REMARK       I    between atoms: C15_20  and  N4_22 
REMARK    7  A    between atoms: N4_22  and  C16_24 
ROOT
HETATM    1  N1  UNL     1      60.342  28.581  42.729  1.00  0.00    -0.242 N 
HETATM    2  N2  UNL     1      59.976  28.613  43.997  1.00  0.00    -0.292 N 
ATOM      3  H2  UNL     1      59.874  27.728  44.496  1.00  0.00     0.187 HD
HETATM    4  C8  UNL     1      59.730  29.754  44.660  1.00  0.00     0.102 A 
HETATM    5  C13 UNL     1      59.882  30.935  43.932  1.00  0.00     0.276 A 
HETATM    6  O1  UNL     1      59.659  32.033  44.527  1.00  0.00    -0.266 OA
HETATM    7  N3  UNL     1      60.256  30.883  42.640  1.00  0.00    -0.255 N 
HETATM    8  C19 UNL     1      60.495  29.694  42.008  1.00  0.00     0.346 A 
HETATM    9  O3  UNL     1      60.842  29.710  40.803  1.00  0.00    -0.245 OA
ENDROOT
BRANCH   1  10
HETATM   10  C7  UNL     1      60.588  27.308  42.082  1.00  0.00     0.154 C 
BRANCH  10  11
HETATM   11  C6  UNL     1      61.966  26.828  42.436  1.00  0.00     0.026 C 
BRANCH  11  12
HETATM   12  C5  UNL     1      62.190  25.377  42.204  1.00  0.00    -0.013 C 
HETATM   13  C4  UNL     1      60.991  24.514  42.415  1.00  0.00     0.005 C 
HETATM   14  C3  UNL     1      61.338  23.103  41.954  1.00  0.00     0.004 C 
HETATM   15  C2  UNL     1      62.646  22.633  42.483  1.00  0.00    -0.019 C 
HETATM   16  C1  UNL     1      62.490  21.208  42.971  1.00  0.00     0.010 C 
HETATM   17  C21 UNL     1      63.053  23.512  43.640  1.00  0.00     0.004 C 
HETATM   18  C20 UNL     1      63.277  24.917  43.152  1.00  0.00     0.005 C 
ENDBRANCH  11  12
ENDBRANCH  10  11
ENDBRANCH   1  10
BRANCH   4  19
HETATM   19  C9  UNL     1      59.318  29.815  46.086  1.00  0.00    -0.002 C 
HETATM   20  C10 UNL     1      57.800  29.969  46.123  1.00  0.00     0.021 C 
HETATM   21  C11 UNL     1      59.982  30.896  46.864  1.00  0.00     0.021 C 
HETATM   22  C12 UNL     1      59.604  28.474  46.764  1.00  0.00     0.021 C 
ENDBRANCH   4  19
BRANCH   7  23
HETATM   23  C14 UNL     1      60.419  32.083  41.855  1.00  0.00     0.240 C 
BRANCH  23  24
HETATM   24  C15 UNL     1      61.837  32.155  41.414  1.00  0.00     0.236 C 
HETATM   25  O2  UNL     1      62.775  31.859  42.229  1.00  0.00    -0.272 OA
HETATM   26  N4  UNL     1      62.225  32.545  40.110  1.00  0.00    -0.355 N 
ATOM     27  H4  UNL     1      61.516  32.793  39.420  1.00  0.00     0.162 HD
BRANCH  26  28
HETATM   28  C16 UNL     1      63.625  32.590  39.754  1.00  0.00     0.084 A 
HETATM   29  C17 UNL     1      64.184  33.853  39.193  1.00  0.00     0.027 A 
HETATM   30  C18 UNL     1      63.897  32.704  38.297  1.00  0.00     0.027 A 
ENDBRANCH  26  28
ENDBRANCH  23  24
ENDBRANCH   7  23
TORSDOF 7
ENDMDL
MODEL 4
REMARK VINA RESULT: -8.429030451      1.781      7.327
REMARK  7 active torsions:
REMARK  status: ('A' for Active; 'I' for Inactive)
REMARK    1  A    between atoms: C5_5  and  C6_6 
REMARK    2  A    between atoms: C6_6  and  C7_7 
REMARK    3  A    between atoms: C7_7  and  N1_8 
REMARK    4  A    between atoms: C8_11  and  C9_12 
REMARK    5  A    between atoms: N3_18  and  C14_19 
REMARK    6  A    between atoms: C14_19  and  C15_20 
REMARK       I    between atoms: C15_20  and  N4_22 
REMARK    7  A    between atoms: N4_22  and  C16_24 
ROOT
HETATM    1  N1  UNL     1      61.501  29.225  42.981  1.00  0.00    -0.242 N 
HETATM    2  N2  UNL     1      60.553  29.082  43.889  1.00  0.00    -0.292 N 
ATOM      3  H2  UNL     1      60.211  28.142  44.092  1.00  0.00     0.187 HD
HETATM    4  C8  UNL     1      60.016  30.116  44.558  1.00  0.00     0.102 A 
HETATM    5  C13 UNL     1      60.517  31.380  44.244  1.00  0.00     0.276 A 
HETATM    6  O1  UNL     1      60.035  32.380  44.857  1.00  0.00    -0.266 OA
HETATM    7  N3  UNL     1      61.484  31.506  43.315  1.00  0.00    -0.255 N 
HETATM    8  C19 UNL     1      61.998  30.421  42.660  1.00  0.00     0.346 A 
HETATM    9  O3  UNL     1      62.898  30.603  41.805  1.00  0.00    -0.245 OA
ENDROOT
BRANCH   1  10
HETATM   10  C7  UNL     1      62.028  28.059  42.300  1.00  0.00     0.154 C 
BRANCH  10  11
HETATM   11  C6  UNL     1      61.056  26.923  42.434  1.00  0.00     0.026 C 
BRANCH  11  12
HETATM   12  C5  UNL     1      61.648  25.579  42.211  1.00  0.00    -0.013 C 
HETATM   13  C4  UNL     1      60.733  24.434  42.488  1.00  0.00     0.005 C 
HETATM   14  C3  UNL     1      61.424  23.155  42.030  1.00  0.00     0.004 C 
HETATM   15  C2  UNL     1      62.830  23.062  42.503  1.00  0.00    -0.019 C 
HETATM   16  C1  UNL     1      63.080  21.659  43.017  1.00  0.00     0.010 C 
HETATM   17  C21 UNL     1      63.035  24.045  43.629  1.00  0.00     0.004 C 
HETATM   18  C20 UNL     1      62.857  25.447  43.112  1.00  0.00     0.005 C 
ENDBRANCH  11  12
ENDBRANCH  10  11
ENDBRANCH   1  10
BRANCH   4  19
HETATM   19  C9  UNL     1      58.951  29.980  45.584  1.00  0.00    -0.002 C 
HETATM   20  C10 UNL     1      58.633  28.494  45.726  1.00  0.00     0.021 C 
HETATM   21  C11 UNL     1      57.720  30.762  45.288  1.00  0.00     0.021 C 
HETATM   22  C12 UNL     1      59.490  30.410  46.950  1.00  0.00     0.021 C 
ENDBRANCH   4  19
BRANCH   7  23
HETATM   23  C14 UNL     1      62.023  32.797  42.961  1.00  0.00     0.240 C 
BRANCH  23  24
HETATM   24  C15 UNL     1      61.857  32.979  41.496  1.00  0.00     0.236 C 
HETATM   25  O2  UNL     1      60.694  32.913  40.971  1.00  0.00    -0.272 OA
HETATM   26  N4  UNL     1      62.939  33.225  40.616  1.00  0.00    -0.355 N 
ATOM     27  H4  UNL     1      63.889  33.285  40.982  1.00  0.00     0.162 HD
BRANCH  26  28
HETATM   28  C16 UNL     1      62.699  33.392  39.202  1.00  0.00     0.084 A 
HETATM   29  C17 UNL     1      63.751  32.962  38.237  1.00  0.00     0.027 A 
HETATM   30  C18 UNL     1      63.560  34.404  38.535  1.00  0.00     0.027 A 
ENDBRANCH  26  28
ENDBRANCH  23  24
ENDBRANCH   7  23
TORSDOF 7
ENDMDL
MODEL 5
REMARK VINA RESULT: -8.360716358      4.089      7.051
REMARK  7 active torsions:
REMARK  status: ('A' for Active; 'I' for Inactive)
REMARK    1  A    between atoms: C5_5  and  C6_6 
REMARK    2  A    between atoms: C6_6  and  C7_7 
REMARK    3  A    between atoms: C7_7  and  N1_8 
REMARK    4  A    between atoms: C8_11  and  C9_12 
REMARK    5  A    between atoms: N3_18  and  C14_19 
REMARK    6  A    between atoms: C14_19  and  C15_20 
REMARK       I    between atoms: C15_20  and  N4_22 
REMARK    7  A    between atoms: N4_22  and  C16_24 
ROOT
HETATM    1  N1  UNL     1      63.475  24.953  42.736  1.00  0.00    -0.242 N 
HETATM    2  N2  UNL     1      63.824  24.884  44.008  1.00  0.00    -0.292 N 
ATOM      3  H2  UNL     1      63.926  25.753  44.532  1.00  0.00     0.187 HD
HETATM    4  C8  UNL     1      64.050  23.723  44.644  1.00  0.00     0.102 A 
HETATM    5  C13 UNL     1      63.897  22.563  43.882  1.00  0.00     0.276 A 
HETATM    6  O1  UNL     1      64.102  21.448  44.451  1.00  0.00    -0.266 OA
HETATM    7  N3  UNL     1      63.541  22.654  42.587  1.00  0.00    -0.255 N 
HETATM    8  C19 UNL     1      63.321  23.860  41.984  1.00  0.00     0.346 A 
HETATM    9  O3  UNL     1      62.991  23.880  40.774  1.00  0.00    -0.245 OA
ENDROOT
BRANCH   1  10
HETATM   10  C7  UNL     1      63.249  26.245  42.120  1.00  0.00     0.154 C 
BRANCH  10  11
HETATM   11  C6  UNL     1      61.858  26.711  42.438  1.00  0.00     0.026 C 
BRANCH  11  12
HETATM   12  C5  UNL     1      61.631  28.163  42.217  1.00  0.00    -0.013 C 
HETATM   13  C4  UNL     1      62.825  29.028  42.444  1.00  0.00     0.005 C 
HETATM   14  C3  UNL     1      62.476  30.442  41.993  1.00  0.00     0.004 C 
HETATM   15  C2  UNL     1      61.164  30.904  42.516  1.00  0.00    -0.019 C 
HETATM   16  C1  UNL     1      61.311  32.324  43.018  1.00  0.00     0.010 C 
HETATM   17  C21 UNL     1      60.751  30.013  43.662  1.00  0.00     0.004 C 
HETATM   18  C20 UNL     1      60.535  28.612  43.160  1.00  0.00     0.005 C 
ENDBRANCH  11  12
ENDBRANCH  10  11
ENDBRANCH   1  10
BRANCH   4  19
HETATM   19  C9  UNL     1      64.442  23.620  46.072  1.00  0.00    -0.002 C 
HETATM   20  C10 UNL     1      65.956  23.438  46.125  1.00  0.00     0.021 C 
HETATM   21  C11 UNL     1      63.748  22.533  46.816  1.00  0.00     0.021 C 
HETATM   22  C12 UNL     1      64.172  24.950  46.779  1.00  0.00     0.021 C 
ENDBRANCH   4  19
BRANCH   7  23
HETATM   23  C14 UNL     1      63.377  21.476  41.769  1.00  0.00     0.240 C 
BRANCH  23  24
HETATM   24  C15 UNL     1      61.966  21.431  41.304  1.00  0.00     0.236 C 
HETATM   25  O2  UNL     1      61.020  21.741  42.103  1.00  0.00    -0.272 OA
HETATM   26  N4  UNL     1      61.592  21.053  39.991  1.00  0.00    -0.355 N 
ATOM     27  H4  UNL     1      62.308  20.794  39.313  1.00  0.00     0.162 HD
BRANCH  26  28
HETATM   28  C16 UNL     1      60.199  21.034  39.613  1.00  0.00     0.084 A 
HETATM   29  C17 UNL     1      59.620  19.777  39.058  1.00  0.00     0.027 A 
HETATM   30  C18 UNL     1      59.949  20.907  38.153  1.00  0.00     0.027 A 
ENDBRANCH  26  28
ENDBRANCH  23  24
ENDBRANCH   7  23
TORSDOF 7
ENDMDL
