MODEL 1
REMARK VINA RESULT: -8.369969615      0.000      0.000
REMARK  7 active torsions:
REMARK  status: ('A' for Active; 'I' for Inactive)
REMARK    1  A    between atoms: C3_4  and  C4_5 
REMARK    2  A    between atoms: C4_5  and  N1_6 
REMARK    3  A    between atoms: N1_6  and  C5_8 
REMARK    4  A    between atoms: N4_18  and  C11_19 
REMARK    5  A    between atoms: C11_19  and  C12_20 
REMARK    6  A    between atoms: C12_20  and  C13_21 
REMARK    7  A    between atoms: C13_21  and  N5_22 
ROOT
HETATM    1  C5  UNL     1      60.581  27.638  42.064  1.00  0.00     0.117 A 
HETATM    2  N2  UNL     1      61.110  27.607  40.827  1.00  0.00    -0.338 N 
ATOM      3  H2  UNL     1      61.244  26.699  40.381  1.00  0.00     0.168 HD
HETATM    4  C6  UNL     1      61.471  28.710  40.149  1.00  0.00     0.183 A 
HETATM    5  N3  UNL     1      61.319  29.937  40.680  1.00  0.00    -0.338 N 
ATOM      6  H3  UNL     1      61.591  30.776  40.168  1.00  0.00     0.168 HD
HETATM    7  C7  UNL     1      60.791  30.005  41.919  1.00  0.00     0.123 A 
HETATM    8  C8  UNL     1      60.411  28.881  42.641  1.00  0.00     0.060 A 
HETATM    9  C9  UNL     1      59.904  29.264  43.864  1.00  0.00    -0.018 A 
HETATM   10  C10 UNL     1      59.981  30.640  43.882  1.00  0.00     0.020 A 
HETATM   11  N4  UNL     1      60.513  31.079  42.713  1.00  0.00    -0.335 N 
HETATM   12  C18 UNL     1      59.494  31.318  45.109  1.00  0.00     0.058 C 
HETATM   13  C19 UNL     1      60.044  30.637  46.349  1.00  0.00     0.006 C 
HETATM   14  C20 UNL     1      60.024  29.150  46.286  1.00  0.00     0.005 C 
HETATM   15  C21 UNL     1      59.345  28.584  45.057  1.00  0.00     0.042 C 
ENDROOT
BRANCH  11  16
HETATM   16  C11 UNL     1      60.769  32.446  42.313  1.00  0.00     0.132 C 
BRANCH  16  17
HETATM   17  C12 UNL     1      62.198  32.598  41.825  1.00  0.00     0.040 C 
BRANCH  17  18
HETATM   18  C13 UNL     1      62.296  33.606  40.707  1.00  0.00     0.118 C 
BRANCH  18  19
HETATM   19  N5  UNL     1      63.426  33.303  39.898  1.00  0.00    -0.408 N 
HETATM   20  C14 UNL     1      64.244  34.419  39.524  1.00  0.00     0.143 C 
HETATM   21  C15 UNL     1      64.183  34.743  38.052  1.00  0.00     0.187 C 
HETATM   22  O2  UNL     1      62.902  34.414  37.610  1.00  0.00    -0.388 OA
HETATM   23  C16 UNL     1      62.843  33.025  37.530  1.00  0.00     0.187 C 
HETATM   24  C17 UNL     1      63.190  32.366  38.839  1.00  0.00     0.143 C 
ENDBRANCH  18  19
ENDBRANCH  17  18
ENDBRANCH  16  17
ENDBRANCH  11  16
BRANCH   1  25
HETATM   25  N1  UNL     1      60.232  26.568  42.721  1.00  0.00    -0.369 N 
ATOM     26  H1  UNL     1      59.638  26.614  43.549  1.00  0.00     0.161 HD
BRANCH  25  27
HETATM   27  C4  UNL     1      60.734  25.308  42.210  1.00  0.00     0.186 C 
BRANCH  27  28
HETATM   28  C3  UNL     1      61.960  24.877  42.926  1.00  0.00     0.070 A 
HETATM   29  O1  UNL     1      62.133  23.671  43.393  1.00  0.00    -0.325 OA
HETATM   30  C2  UNL     1      63.272  23.534  43.974  1.00  0.00     0.142 A 
HETATM   31  C1  UNL     1      63.937  24.725  43.907  1.00  0.00     0.027 A 
HETATM   32  C22 UNL     1      63.098  25.586  43.235  1.00  0.00     0.036 A 
ENDBRANCH  27  28
ENDBRANCH  25  27
ENDBRANCH   1  25
TORSDOF 7
ENDMDL
MODEL 2
REMARK VINA RESULT: -8.351399622      0.675      1.091
REMARK  7 active torsions:
REMARK  status: ('A' for Active; 'I' for Inactive)
REMARK    1  A    between atoms: C3_4  and  C4_5 
REMARK    2  A    between atoms: C4_5  and  N1_6 
REMARK    3  A    between atoms: N1_6  and  C5_8 
REMARK    4  A    between atoms: N4_18  and  C11_19 
REMARK    5  A    between atoms: C11_19  and  C12_20 
REMARK    6  A    between atoms: C12_20  and  C13_21 
REMARK    7  A    between atoms: C13_21  and  N5_22 
ROOT
HETATM    1  C5  UNL     1      60.607  27.431  41.987  1.00  0.00     0.117 A 
HETATM    2  N2  UNL     1      61.100  27.330  40.738  1.00  0.00    -0.338 N 
ATOM      3  H2  UNL     1      61.247  26.399  40.349  1.00  0.00     0.168 HD
HETATM    4  C6  UNL     1      61.409  28.394  39.977  1.00  0.00     0.183 A 
HETATM    5  N3  UNL     1      61.238  29.649  40.429  1.00  0.00    -0.338 N 
ATOM      6  H3  UNL     1      61.470  30.459  39.855  1.00  0.00     0.168 HD
HETATM    7  C7  UNL     1      60.745  29.787  41.677  1.00  0.00     0.123 A 
HETATM    8  C8  UNL     1      60.419  28.705  42.484  1.00  0.00     0.060 A 
HETATM    9  C9  UNL     1      59.938  29.156  43.694  1.00  0.00    -0.018 A 
HETATM   10  C10 UNL     1      59.976  30.532  43.618  1.00  0.00     0.020 A 
HETATM   11  N4  UNL     1      60.460  30.904  42.407  1.00  0.00    -0.335 N 
HETATM   12  C18 UNL     1      59.506  31.277  44.812  1.00  0.00     0.058 C 
HETATM   13  C19 UNL     1      60.112  30.696  46.077  1.00  0.00     0.006 C 
HETATM   14  C20 UNL     1      60.133  29.208  46.114  1.00  0.00     0.005 C 
HETATM   15  C21 UNL     1      59.434  28.543  44.947  1.00  0.00     0.042 C 
ENDROOT
BRANCH  11  16
HETATM   16  C11 UNL     1      60.664  32.248  41.908  1.00  0.00     0.132 C 
BRANCH  16  17
HETATM   17  C12 UNL     1      62.118  32.656  42.064  1.00  0.00     0.040 C 
BRANCH  17  18
HETATM   18  C13 UNL     1      62.855  32.583  40.749  1.00  0.00     0.118 C 
BRANCH  18  19
HETATM   19  N5  UNL     1      62.379  33.607  39.886  1.00  0.00    -0.408 N 
HETATM   20  C14 UNL     1      62.503  33.350  38.481  1.00  0.00     0.143 C 
HETATM   21  C15 UNL     1      63.511  34.238  37.794  1.00  0.00     0.187 C 
HETATM   22  O2  UNL     1      64.513  34.519  38.722  1.00  0.00    -0.388 OA
HETATM   23  C16 UNL     1      63.988  35.442  39.622  1.00  0.00     0.187 C 
HETATM   24  C17 UNL     1      62.723  34.945  40.271  1.00  0.00     0.143 C 
ENDBRANCH  18  19
ENDBRANCH  17  18
ENDBRANCH  16  17
ENDBRANCH  11  16
BRANCH   1  25
HETATM   25  N1  UNL     1      60.309  26.398  42.724  1.00  0.00    -0.369 N 
ATOM     26  H1  UNL     1      59.766  26.489  43.582  1.00  0.00     0.161 HD
BRANCH  25  27
HETATM   27  C4  UNL     1      60.792  25.114  42.256  1.00  0.00     0.186 C 
BRANCH  27  28
HETATM   28  C3  UNL     1      62.027  24.702  42.968  1.00  0.00     0.070 A 
HETATM   29  O1  UNL     1      62.254  23.479  43.363  1.00  0.00    -0.325 OA
HETATM   30  C2  UNL     1      63.389  23.364  43.957  1.00  0.00     0.142 A 
HETATM   31  C1  UNL     1      63.992  24.589  43.978  1.00  0.00     0.027 A 
HETATM   32  C22 UNL     1      63.120  25.447  43.344  1.00  0.00     0.036 A 
ENDBRANCH  27  28
ENDBRANCH  25  27
ENDBRANCH   1  25
TORSDOF 7
ENDMDL
MODEL 3
REMARK VINA RESULT: -8.257002648      4.132      9.353
REMARK  7 active torsions:
REMARK  status: ('A' for Active; 'I' for Inactive)
REMARK    1  A    between atoms: C3_4  and  C4_5 
REMARK    2  A    between atoms: C4_5  and  N1_6 
REMARK    3  A    between atoms: N1_6  and  C5_8 
REMARK    4  A    between atoms: N4_18  and  C11_19 
REMARK    5  A    between atoms: C11_19  and  C12_20 
REMARK    6  A    between atoms: C12_20  and  C13_21 
REMARK    7  A    between atoms: C13_21  and  N5_22 
ROOT
HETATM    1  C5  UNL     1      63.126  26.074  41.963  1.00  0.00     0.117 A 
HETATM    2  N2  UNL     1      62.620  26.183  40.721  1.00  0.00    -0.338 N 
ATOM      3  H2  UNL     1      62.455  27.117  40.346  1.00  0.00     0.168 HD
HETATM    4  C6  UNL     1      62.320  25.124  39.948  1.00  0.00     0.183 A 
HETATM    5  N3  UNL     1      62.516  23.866  40.382  1.00  0.00    -0.338 N 
ATOM      6  H3  UNL     1      62.290  23.060  39.799  1.00  0.00     0.168 HD
HETATM    7  C7  UNL     1      63.022  23.719  41.624  1.00  0.00     0.123 A 
HETATM    8  C8  UNL     1      63.339  24.796  42.442  1.00  0.00     0.060 A 
HETATM    9  C9  UNL     1      63.839  24.337  43.641  1.00  0.00    -0.018 A 
HETATM   10  C10 UNL     1      63.822  22.962  43.547  1.00  0.00     0.020 A 
HETATM   11  N4  UNL     1      63.332  22.598  42.335  1.00  0.00    -0.335 N 
HETATM   12  C18 UNL     1      64.315  22.208  44.727  1.00  0.00     0.058 C 
HETATM   13  C19 UNL     1      63.712  22.762  46.005  1.00  0.00     0.006 C 
HETATM   14  C20 UNL     1      63.668  24.249  46.061  1.00  0.00     0.005 C 
HETATM   15  C21 UNL     1      64.345  24.941  44.897  1.00  0.00     0.042 C 
ENDROOT
BRANCH  11  16
HETATM   16  C11 UNL     1      63.144  21.257  41.821  1.00  0.00     0.132 C 
BRANCH  16  17
HETATM   17  C12 UNL     1      61.686  20.848  41.928  1.00  0.00     0.040 C 
BRANCH  17  18
HETATM   18  C13 UNL     1      60.994  20.923  40.589  1.00  0.00     0.118 C 
BRANCH  18  19
HETATM   19  N5  UNL     1      61.449  19.857  39.764  1.00  0.00    -0.408 N 
HETATM   20  C14 UNL     1      61.387  20.090  38.351  1.00  0.00     0.143 C 
HETATM   21  C15 UNL     1      60.362  19.236  37.646  1.00  0.00     0.187 C 
HETATM   22  O2  UNL     1      59.315  19.024  38.542  1.00  0.00    -0.388 OA
HETATM   23  C16 UNL     1      59.763  18.097  39.480  1.00  0.00     0.187 C 
HETATM   24  C17 UNL     1      61.027  18.547  40.163  1.00  0.00     0.143 C 
ENDBRANCH  18  19
ENDBRANCH  17  18
ENDBRANCH  16  17
ENDBRANCH  11  16
BRANCH   1  25
HETATM   25  N1  UNL     1      63.415  27.101  42.711  1.00  0.00    -0.369 N 
ATOM     26  H1  UNL     1      63.966  27.007  43.564  1.00  0.00     0.161 HD
BRANCH  25  27
HETATM   27  C4  UNL     1      62.911  28.384  42.263  1.00  0.00     0.186 C 
BRANCH  27  28
HETATM   28  C3  UNL     1      61.707  28.795  43.027  1.00  0.00     0.070 A 
HETATM   29  O1  UNL     1      61.537  29.996  43.508  1.00  0.00    -0.325 OA
HETATM   30  C2  UNL     1      60.419  30.115  44.132  1.00  0.00     0.142 A 
HETATM   31  C1  UNL     1      59.766  28.916  44.081  1.00  0.00     0.027 A 
HETATM   32  C22 UNL     1      60.590  28.070  43.373  1.00  0.00     0.036 A 
ENDBRANCH  27  28
ENDBRANCH  25  27
ENDBRANCH   1  25
TORSDOF 7
ENDMDL
MODEL 4
REMARK VINA RESULT: -7.929910669      3.668      6.251
REMARK  7 active torsions:
REMARK  status: ('A' for Active; 'I' for Inactive)
REMARK    1  A    between atoms: C3_4  and  C4_5 
REMARK    2  A    between atoms: C4_5  and  N1_6 
REMARK    3  A    between atoms: N1_6  and  C5_8 
REMARK    4  A    between atoms: N4_18  and  C11_19 
REMARK    5  A    between atoms: C11_19  and  C12_20 
REMARK    6  A    between atoms: C12_20  and  C13_21 
REMARK    7  A    between atoms: C13_21  and  N5_22 
ROOT
HETATM    1  C5  UNL     1      62.334  22.550  41.583  1.00  0.00     0.117 A 
HETATM    2  N2  UNL     1      61.939  22.919  40.350  1.00  0.00    -0.338 N 
ATOM      3  H2  UNL     1      61.519  22.213  39.745  1.00  0.00     0.168 HD
HETATM    4  C6  UNL     1      62.070  24.169  39.875  1.00  0.00     0.183 A 
HETATM    5  N3  UNL     1      62.614  25.147  40.622  1.00  0.00    -0.338 N 
ATOM      6  H3  UNL     1      62.714  26.097  40.265  1.00  0.00     0.168 HD
HETATM    7  C7  UNL     1      63.020  24.813  41.864  1.00  0.00     0.123 A 
HETATM    8  C8  UNL     1      62.897  23.528  42.378  1.00  0.00     0.060 A 
HETATM    9  C9  UNL     1      63.392  23.493  43.664  1.00  0.00    -0.018 A 
HETATM   10  C10 UNL     1      63.822  24.776  43.930  1.00  0.00     0.020 A 
HETATM   11  N4  UNL     1      63.596  25.562  42.847  1.00  0.00    -0.335 N 
HETATM   12  C18 UNL     1      64.411  25.016  45.271  1.00  0.00     0.058 C 
HETATM   13  C19 UNL     1      65.412  23.928  45.617  1.00  0.00     0.006 C 
HETATM   14  C20 UNL     1      64.966  22.555  45.256  1.00  0.00     0.005 C 
HETATM   15  C21 UNL     1      63.549  22.473  44.729  1.00  0.00     0.042 C 
ENDROOT
BRANCH  11  16
HETATM   16  C11 UNL     1      63.893  26.971  42.697  1.00  0.00     0.132 C 
BRANCH  16  17
HETATM   17  C12 UNL     1      62.614  27.764  42.497  1.00  0.00     0.040 C 
BRANCH  17  18
HETATM   18  C13 UNL     1      62.887  29.247  42.444  1.00  0.00     0.118 C 
BRANCH  18  19
HETATM   19  N5  UNL     1      61.868  29.886  41.684  1.00  0.00    -0.408 N 
HETATM   20  C14 UNL     1      62.182  31.197  41.195  1.00  0.00     0.143 C 
HETATM   21  C15 UNL     1      61.375  32.291  41.850  1.00  0.00     0.187 C 
HETATM   22  O2  UNL     1      61.117  31.886  43.159  1.00  0.00    -0.388 OA
HETATM   23  C16 UNL     1      60.136  30.901  43.096  1.00  0.00     0.187 C 
HETATM   24  C17 UNL     1      60.539  29.755  42.206  1.00  0.00     0.143 C 
ENDBRANCH  18  19
ENDBRANCH  17  18
ENDBRANCH  16  17
ENDBRANCH  11  16
BRANCH   1  25
HETATM   25  N1  UNL     1      62.207  21.337  42.042  1.00  0.00    -0.369 N 
ATOM     26  H1  UNL     1      61.816  21.149  42.965  1.00  0.00     0.161 HD
BRANCH  25  27
HETATM   27  C4  UNL     1      62.653  20.270  41.169  1.00  0.00     0.186 C 
BRANCH  27  28
HETATM   28  C3  UNL     1      61.513  19.614  40.482  1.00  0.00     0.070 A 
HETATM   29  O1  UNL     1      60.507  20.270  39.972  1.00  0.00    -0.325 OA
HETATM   30  C2  UNL     1      59.643  19.488  39.429  1.00  0.00     0.142 A 
HETATM   31  C1  UNL     1      60.075  18.201  39.570  1.00  0.00     0.027 A 
HETATM   32  C22 UNL     1      61.274  18.280  40.244  1.00  0.00     0.036 A 
ENDBRANCH  27  28
ENDBRANCH  25  27
ENDBRANCH   1  25
TORSDOF 7
ENDMDL
MODEL 5
REMARK VINA RESULT: -7.886754164      1.422      7.559
REMARK  7 active torsions:
REMARK  status: ('A' for Active; 'I' for Inactive)
REMARK    1  A    between atoms: C3_4  and  C4_5 
REMARK    2  A    between atoms: C4_5  and  N1_6 
REMARK    3  A    between atoms: N1_6  and  C5_8 
REMARK    4  A    between atoms: N4_18  and  C11_19 
REMARK    5  A    between atoms: C11_19  and  C12_20 
REMARK    6  A    between atoms: C12_20  and  C13_21 
REMARK    7  A    between atoms: C13_21  and  N5_22 
ROOT
HETATM    1  C5  UNL     1      60.846  31.249  41.870  1.00  0.00     0.117 A 
HETATM    2  N2  UNL     1      61.337  30.957  40.651  1.00  0.00    -0.338 N 
ATOM      3  H2  UNL     1      61.627  31.728  40.049  1.00  0.00     0.168 HD
HETATM    4  C6  UNL     1      61.467  29.702  40.187  1.00  0.00     0.183 A 
HETATM    5  N3  UNL     1      61.106  28.642  40.932  1.00  0.00    -0.338 N 
ATOM      6  H3  UNL     1      61.203  27.688  40.584  1.00  0.00     0.168 HD
HETATM    7  C7  UNL     1      60.609  28.897  42.159  1.00  0.00     0.123 A 
HETATM    8  C8  UNL     1      60.464  30.184  42.662  1.00  0.00     0.060 A 
HETATM    9  C9  UNL     1      59.939  30.129  43.934  1.00  0.00    -0.018 A 
HETATM   10  C10 UNL     1      59.762  28.789  44.205  1.00  0.00     0.020 A 
HETATM   11  N4  UNL     1      60.166  28.056  43.137  1.00  0.00    -0.335 N 
HETATM   12  C18 UNL     1      59.196  28.447  45.533  1.00  0.00     0.058 C 
HETATM   13  C19 UNL     1      57.993  29.319  45.842  1.00  0.00     0.006 C 
HETATM   14  C20 UNL     1      58.170  30.751  45.476  1.00  0.00     0.005 C 
HETATM   15  C21 UNL     1      59.557  31.106  44.984  1.00  0.00     0.042 C 
ENDROOT
BRANCH  11  16
HETATM   16  C11 UNL     1      60.155  26.615  42.995  1.00  0.00     0.132 C 
BRANCH  16  17
HETATM   17  C12 UNL     1      61.517  26.116  42.545  1.00  0.00     0.040 C 
BRANCH  17  18
HETATM   18  C13 UNL     1      61.617  24.615  42.652  1.00  0.00     0.118 C 
BRANCH  18  19
HETATM   19  N5  UNL     1      62.987  24.233  42.644  1.00  0.00    -0.408 N 
HETATM   20  C14 UNL     1      63.246  22.830  42.783  1.00  0.00     0.143 C 
HETATM   21  C15 UNL     1      63.900  22.467  44.093  1.00  0.00     0.187 C 
HETATM   22  O2  UNL     1      63.433  23.367  45.050  1.00  0.00    -0.388 OA
HETATM   23  C16 UNL     1      64.075  24.580  44.816  1.00  0.00     0.187 C 
HETATM   24  C17 UNL     1      63.863  25.071  43.409  1.00  0.00     0.143 C 
ENDBRANCH  18  19
ENDBRANCH  17  18
ENDBRANCH  16  17
ENDBRANCH  11  16
BRANCH   1  25
HETATM   25  N1  UNL     1      60.720  32.466  42.318  1.00  0.00    -0.369 N 
ATOM     26  H1  UNL     1      59.808  32.870  42.529  1.00  0.00     0.161 HD
BRANCH  25  27
HETATM   27  C4  UNL     1      61.948  33.214  42.500  1.00  0.00     0.186 C 
BRANCH  27  28
HETATM   28  C3  UNL     1      62.481  33.713  41.209  1.00  0.00     0.070 A 
HETATM   29  O1  UNL     1      63.322  33.042  40.470  1.00  0.00    -0.325 OA
HETATM   30  C2  UNL     1      63.641  33.677  39.399  1.00  0.00     0.142 A 
HETATM   31  C1  UNL     1      62.977  34.870  39.389  1.00  0.00     0.027 A 
HETATM   32  C22 UNL     1      62.233  34.894  40.548  1.00  0.00     0.036 A 
ENDBRANCH  27  28
ENDBRANCH  25  27
ENDBRANCH   1  25
TORSDOF 7
ENDMDL
