MODEL 1
REMARK VINA RESULT: -8.157992579      0.000      0.000
REMARK  6 active torsions:
REMARK  status: ('A' for Active; 'I' for Inactive)
REMARK    1  A    between atoms: C2_2  and  C3_3 
REMARK    2  A    between atoms: C4_6  and  S1_7 
REMARK    3  A    between atoms: S1_7  and  C5_8 
REMARK    4  A    between atoms: C5_8  and  C7_10 
REMARK    5  A    between atoms: N3_15  and  C8_16 
REMARK       I    between atoms: N4_19  and  C11_20 
REMARK    6  A    between atoms: C11_20  and  C12_22 
ROOT
HETATM    1  C3  UNL     1      61.673  30.662  42.237  1.00  0.00     0.100 A 
HETATM    2  N1  UNL     1      61.213  31.594  43.107  1.00  0.00    -0.324 N 
ATOM      3  H1  UNL     1      61.422  32.592  43.107  1.00  0.00     0.169 HD
HETATM    4  C4  UNL     1      60.430  30.937  43.961  1.00  0.00     0.161 A 
HETATM    5  N2  UNL     1      60.421  29.666  43.620  1.00  0.00    -0.276 N 
ATOM      6  H2  UNL     1      59.898  28.942  44.113  1.00  0.00     0.189 HD
HETATM    7  N3  UNL     1      61.174  29.447  42.559  1.00  0.00    -0.273 N 
ENDROOT
BRANCH   7   8
HETATM    8  C8  UNL     1      61.378  28.178  41.937  1.00  0.00     0.113 C 
HETATM    9  C9  UNL     1      60.264  27.207  42.099  1.00  0.00     0.047 C 
HETATM   10  C10 UNL     1      60.715  25.804  42.505  1.00  0.00     0.128 C 
HETATM   11  N4  UNL     1      61.904  25.368  41.860  1.00  0.00    -0.352 N 
HETATM   12  C11 UNL     1      62.149  24.068  41.352  1.00  0.00     0.224 C 
HETATM   13  C18 UNL     1      62.994  26.347  41.700  1.00  0.00     0.128 C 
HETATM   14  O3  UNL     1      63.278  23.822  40.785  1.00  0.00    -0.273 OA
HETATM   15  C19 UNL     1      62.628  27.526  42.538  1.00  0.00     0.047 C 
BRANCH  12  16
HETATM   16  C12 UNL     1      61.230  22.924  41.401  1.00  0.00     0.078 C 
HETATM   17  C13 UNL     1      61.440  22.060  42.624  1.00  0.00     0.014 C 
HETATM   18  C14 UNL     1      62.660  21.203  42.552  1.00  0.00     0.001 C 
HETATM   19  C15 UNL     1      62.778  20.411  41.281  1.00  0.00     0.000 C 
HETATM   20  C16 UNL     1      61.504  20.597  40.500  1.00  0.00     0.001 C 
HETATM   21  C17 UNL     1      61.395  22.067  40.165  1.00  0.00     0.014 C 
ENDBRANCH  12  16
ENDBRANCH   7   8
BRANCH   1  22
HETATM   22  C2  UNL     1      62.581  30.962  41.119  1.00  0.00     0.073 C 
HETATM   23  C1  UNL     1      62.584  32.457  40.776  1.00  0.00     0.013 C 
ENDBRANCH   1  22
BRANCH   4  24
HETATM   24  S1  UNL     1      59.549  31.656  45.332  1.00  0.00    -0.077 SA
BRANCH  24  25
HETATM   25  C5  UNL     1      57.962  30.811  45.571  1.00  0.00     0.152 C 
HETATM   26  C6  UNL     1      57.000  31.662  46.365  1.00  0.00     0.033 C 
BRANCH  25  27
HETATM   27  C7  UNL     1      58.230  29.558  46.323  1.00  0.00     0.187 C 
HETATM   28  O1  UNL     1      58.413  29.538  47.550  1.00  0.00    -0.647 OA
HETATM   29  O2  UNL     1      58.267  28.377  45.574  1.00  0.00    -0.647 OA
ENDBRANCH  25  27
ENDBRANCH  24  25
ENDBRANCH   4  24
TORSDOF 6
ENDMDL
MODEL 2
REMARK VINA RESULT: -7.999539932      3.723      9.117
REMARK  6 active torsions:
REMARK  status: ('A' for Active; 'I' for Inactive)
REMARK    1  A    between atoms: C2_2  and  C3_3 
REMARK    2  A    between atoms: C4_6  and  S1_7 
REMARK    3  A    between atoms: S1_7  and  C5_8 
REMARK    4  A    between atoms: C5_8  and  C7_10 
REMARK    5  A    between atoms: N3_15  and  C8_16 
REMARK       I    between atoms: N4_19  and  C11_20 
REMARK    6  A    between atoms: C11_20  and  C12_22 
ROOT
HETATM    1  C3  UNL     1      62.829  23.249  42.825  1.00  0.00     0.100 A 
HETATM    2  N1  UNL     1      62.837  21.899  42.711  1.00  0.00    -0.324 N 
ATOM      3  H1  UNL     1      63.167  21.225  43.402  1.00  0.00     0.169 HD
HETATM    4  C4  UNL     1      62.324  21.634  41.511  1.00  0.00     0.161 A 
HETATM    5  N2  UNL     1      62.022  22.775  40.929  1.00  0.00    -0.276 N 
ATOM      6  H2  UNL     1      61.613  22.856  39.998  1.00  0.00     0.189 HD
HETATM    7  N3  UNL     1      62.315  23.802  41.703  1.00  0.00    -0.273 N 
ENDROOT
BRANCH   7   8
HETATM    8  C8  UNL     1      62.113  25.176  41.368  1.00  0.00     0.113 C 
HETATM    9  C9  UNL     1      63.298  26.055  41.557  1.00  0.00     0.047 C 
HETATM   10  C10 UNL     1      62.991  27.366  42.280  1.00  0.00     0.128 C 
HETATM   11  N4  UNL     1      61.759  27.963  41.901  1.00  0.00    -0.352 N 
HETATM   12  C11 UNL     1      61.532  29.346  41.689  1.00  0.00     0.224 C 
HETATM   13  C18 UNL     1      60.598  27.076  41.711  1.00  0.00     0.128 C 
HETATM   14  O3  UNL     1      60.358  29.740  41.342  1.00  0.00    -0.273 OA
HETATM   15  C19 UNL     1      60.994  25.741  42.250  1.00  0.00     0.047 C 
BRANCH  12  16
HETATM   16  C12 UNL     1      62.520  30.423  41.827  1.00  0.00     0.078 C 
HETATM   17  C13 UNL     1      62.229  31.335  42.998  1.00  0.00     0.014 C 
HETATM   18  C14 UNL     1      61.092  32.273  42.761  1.00  0.00     0.001 C 
HETATM   19  C15 UNL     1      61.185  33.035  41.469  1.00  0.00     0.000 C 
HETATM   20  C16 UNL     1      62.527  32.737  40.854  1.00  0.00     0.001 C 
HETATM   21  C17 UNL     1      62.568  31.254  40.563  1.00  0.00     0.014 C 
ENDBRANCH  12  16
ENDBRANCH   7   8
BRANCH   1  22
HETATM   22  C2  UNL     1      63.317  23.975  44.009  1.00  0.00     0.073 C 
HETATM   23  C1  UNL     1      64.418  23.194  44.739  1.00  0.00     0.013 C 
ENDBRANCH   1  22
BRANCH   4  24
HETATM   24  S1  UNL     1      62.089  20.013  40.812  1.00  0.00    -0.077 SA
BRANCH  24  25
HETATM   25  C5  UNL     1      60.474  19.909  39.993  1.00  0.00     0.152 C 
HETATM   26  C6  UNL     1      60.198  18.510  39.497  1.00  0.00     0.033 C 
BRANCH  25  27
HETATM   27  C7  UNL     1      60.501  20.836  38.832  1.00  0.00     0.187 C 
HETATM   28  O1  UNL     1      61.530  21.064  38.179  1.00  0.00    -0.647 OA
HETATM   29  O2  UNL     1      59.289  21.452  38.498  1.00  0.00    -0.647 OA
ENDBRANCH  25  27
ENDBRANCH  24  25
ENDBRANCH   4  24
TORSDOF 6
ENDMDL
MODEL 3
REMARK VINA RESULT: -7.933935674      3.650      8.529
REMARK  6 active torsions:
REMARK  status: ('A' for Active; 'I' for Inactive)
REMARK    1  A    between atoms: C2_2  and  C3_3 
REMARK    2  A    between atoms: C4_6  and  S1_7 
REMARK    3  A    between atoms: S1_7  and  C5_8 
REMARK    4  A    between atoms: C5_8  and  C7_10 
REMARK    5  A    between atoms: N3_15  and  C8_16 
REMARK       I    between atoms: N4_19  and  C11_20 
REMARK    6  A    between atoms: C11_20  and  C12_22 
ROOT
HETATM    1  C3  UNL     1      62.224  22.671  42.391  1.00  0.00     0.100 A 
HETATM    2  N1  UNL     1      62.613  21.762  43.318  1.00  0.00    -0.324 N 
ATOM      3  H1  UNL     1      62.449  20.756  43.300  1.00  0.00     0.169 HD
HETATM    4  C4  UNL     1      63.254  22.455  44.257  1.00  0.00     0.161 A 
HETATM    5  N2  UNL     1      63.250  23.724  43.910  1.00  0.00    -0.276 N 
ATOM      6  H2  UNL     1      63.675  24.472  44.459  1.00  0.00     0.189 HD
HETATM    7  N3  UNL     1      62.625  23.908  42.763  1.00  0.00    -0.273 N 
ENDROOT
BRANCH   7   8
HETATM    8  C8  UNL     1      62.443  25.166  42.111  1.00  0.00     0.113 C 
HETATM    9  C9  UNL     1      63.546  26.144  42.306  1.00  0.00     0.047 C 
HETATM   10  C10 UNL     1      63.073  27.551  42.667  1.00  0.00     0.128 C 
HETATM   11  N4  UNL     1      61.912  27.972  41.964  1.00  0.00    -0.352 N 
HETATM   12  C11 UNL     1      61.684  29.262  41.425  1.00  0.00     0.224 C 
HETATM   13  C18 UNL     1      60.833  26.986  41.774  1.00  0.00     0.128 C 
HETATM   14  O3  UNL     1      60.581  29.494  40.806  1.00  0.00    -0.273 OA
HETATM   15  C19 UNL     1      61.166  25.822  42.647  1.00  0.00     0.047 C 
BRANCH  12  16
HETATM   16  C12 UNL     1      62.597  30.410  41.494  1.00  0.00     0.078 C 
HETATM   17  C13 UNL     1      62.421  31.219  42.759  1.00  0.00     0.014 C 
HETATM   18  C14 UNL     1      61.193  32.069  42.764  1.00  0.00     0.001 C 
HETATM   19  C15 UNL     1      61.028  32.914  41.532  1.00  0.00     0.000 C 
HETATM   20  C16 UNL     1      62.278  32.771  40.704  1.00  0.00     0.001 C 
HETATM   21  C17 UNL     1      62.386  31.318  40.302  1.00  0.00     0.014 C 
ENDBRANCH  12  16
ENDBRANCH   7   8
BRANCH   1  22
HETATM   22  C2  UNL     1      61.474  22.330  41.171  1.00  0.00     0.073 C 
HETATM   23  C1  UNL     1      61.447  20.815  40.929  1.00  0.00     0.013 C 
ENDBRANCH   1  22
BRANCH   4  24
HETATM   24  S1  UNL     1      63.990  21.779  45.731  1.00  0.00    -0.077 SA
BRANCH  24  25
HETATM   25  C5  UNL     1      64.939  23.055  46.603  1.00  0.00     0.152 C 
HETATM   26  C6  UNL     1      64.287  24.411  46.472  1.00  0.00     0.033 C 
BRANCH  25  27
HETATM   27  C7  UNL     1      66.290  23.109  45.986  1.00  0.00     0.187 C 
HETATM   28  O1  UNL     1      66.875  24.175  45.744  1.00  0.00    -0.647 OA
HETATM   29  O2  UNL     1      66.887  21.879  45.685  1.00  0.00    -0.647 OA
ENDBRANCH  25  27
ENDBRANCH  24  25
ENDBRANCH   4  24
TORSDOF 6
ENDMDL
MODEL 4
REMARK VINA RESULT: -7.901743183      2.865      4.526
REMARK  6 active torsions:
REMARK  status: ('A' for Active; 'I' for Inactive)
REMARK    1  A    between atoms: C2_2  and  C3_3 
REMARK    2  A    between atoms: C4_6  and  S1_7 
REMARK    3  A    between atoms: S1_7  and  C5_8 
REMARK    4  A    between atoms: C5_8  and  C7_10 
REMARK    5  A    between atoms: N3_15  and  C8_16 
REMARK       I    between atoms: N4_19  and  C11_20 
REMARK    6  A    between atoms: C11_20  and  C12_22 
ROOT
HETATM    1  C3  UNL     1      61.046  30.330  43.044  1.00  0.00     0.100 A 
HETATM    2  N1  UNL     1      61.016  31.684  42.982  1.00  0.00    -0.324 N 
ATOM      3  H1  UNL     1      60.707  32.327  43.712  1.00  0.00     0.169 HD
HETATM    4  C4  UNL     1      61.473  32.002  41.773  1.00  0.00     0.161 A 
HETATM    5  N2  UNL     1      61.764  30.888  41.135  1.00  0.00    -0.276 N 
ATOM      6  H2  UNL     1      62.134  30.849  40.185  1.00  0.00     0.189 HD
HETATM    7  N3  UNL     1      61.518  29.828  41.880  1.00  0.00    -0.273 N 
ENDROOT
BRANCH   7   8
HETATM    8  C8  UNL     1      61.724  28.471  41.484  1.00  0.00     0.113 C 
HETATM    9  C9  UNL     1      60.540  27.583  41.630  1.00  0.00     0.047 C 
HETATM   10  C10 UNL     1      60.848  26.241  42.294  1.00  0.00     0.128 C 
HETATM   11  N4  UNL     1      62.082  25.664  41.891  1.00  0.00    -0.352 N 
HETATM   12  C11 UNL     1      62.312  24.293  41.617  1.00  0.00     0.224 C 
HETATM   13  C18 UNL     1      63.241  26.561  41.743  1.00  0.00     0.128 C 
HETATM   14  O3  UNL     1      63.487  23.917  41.254  1.00  0.00    -0.273 OA
HETATM   15  C19 UNL     1      62.842  27.869  42.341  1.00  0.00     0.047 C 
BRANCH  12  16
HETATM   16  C12 UNL     1      61.326  23.208  41.704  1.00  0.00     0.078 C 
HETATM   17  C13 UNL     1      61.547  22.314  42.903  1.00  0.00     0.014 C 
HETATM   18  C14 UNL     1      62.704  21.382  42.752  1.00  0.00     0.001 C 
HETATM   19  C15 UNL     1      62.701  20.604  41.466  1.00  0.00     0.000 C 
HETATM   20  C16 UNL     1      61.400  20.883  40.762  1.00  0.00     0.001 C 
HETATM   21  C17 UNL     1      61.366  22.362  40.450  1.00  0.00     0.014 C 
ENDBRANCH  12  16
ENDBRANCH   7   8
BRANCH   1  22
HETATM   22  C2  UNL     1      60.619  29.553  44.218  1.00  0.00     0.073 C 
HETATM   23  C1  UNL     1      59.276  30.050  44.769  1.00  0.00     0.013 C 
ENDBRANCH   1  22
BRANCH   4  24
HETATM   24  S1  UNL     1      61.657  33.652  41.128  1.00  0.00    -0.077 SA
BRANCH  24  25
HETATM   25  C5  UNL     1      63.166  33.772  40.129  1.00  0.00     0.152 C 
HETATM   26  C6  UNL     1      63.423  35.194  39.690  1.00  0.00     0.033 C 
BRANCH  25  27
HETATM   27  C7  UNL     1      62.973  32.924  38.924  1.00  0.00     0.187 C 
HETATM   28  O1  UNL     1      62.142  33.189  38.042  1.00  0.00    -0.647 OA
HETATM   29  O2  UNL     1      63.787  31.790  38.823  1.00  0.00    -0.647 OA
ENDBRANCH  25  27
ENDBRANCH  24  25
ENDBRANCH   4  24
TORSDOF 6
ENDMDL
MODEL 5
REMARK VINA RESULT: -7.883514296      3.702      9.104
REMARK  6 active torsions:
REMARK  status: ('A' for Active; 'I' for Inactive)
REMARK    1  A    between atoms: C2_2  and  C3_3 
REMARK    2  A    between atoms: C4_6  and  S1_7 
REMARK    3  A    between atoms: S1_7  and  C5_8 
REMARK    4  A    between atoms: C5_8  and  C7_10 
REMARK    5  A    between atoms: N3_15  and  C8_16 
REMARK       I    between atoms: N4_19  and  C11_20 
REMARK    6  A    between atoms: C11_20  and  C12_22 
ROOT
HETATM    1  C3  UNL     1      62.996  21.752  43.029  1.00  0.00     0.100 A 
HETATM    2  N1  UNL     1      62.883  20.615  42.299  1.00  0.00    -0.324 N 
ATOM      3  H1  UNL     1      63.179  19.678  42.570  1.00  0.00     0.169 HD
HETATM    4  C4  UNL     1      62.304  20.976  41.155  1.00  0.00     0.161 A 
HETATM    5  N2  UNL     1      62.080  22.272  41.196  1.00  0.00    -0.276 N 
ATOM      6  H2  UNL     1      61.645  22.804  40.442  1.00  0.00     0.189 HD
HETATM    7  N3  UNL     1      62.491  22.796  42.334  1.00  0.00    -0.273 N 
ENDROOT
BRANCH   7   8
HETATM    8  C8  UNL     1      62.395  24.176  42.693  1.00  0.00     0.113 C 
HETATM    9  C9  UNL     1      61.012  24.717  42.760  1.00  0.00     0.047 C 
HETATM   10  C10 UNL     1      60.836  26.063  42.057  1.00  0.00     0.128 C 
HETATM   11  N4  UNL     1      61.923  26.960  42.238  1.00  0.00    -0.352 N 
HETATM   12  C11 UNL     1      61.826  28.353  42.472  1.00  0.00     0.224 C 
HETATM   13  C18 UNL     1      63.286  26.403  42.177  1.00  0.00     0.128 C 
HETATM   14  O3  UNL     1      62.904  29.038  42.623  1.00  0.00    -0.273 OA
HETATM   15  C19 UNL     1      63.151  25.011  41.654  1.00  0.00     0.047 C 
BRANCH  12  16
HETATM   16  C12 UNL     1      60.588  29.138  42.563  1.00  0.00     0.078 C 
HETATM   17  C13 UNL     1      60.475  30.178  41.471  1.00  0.00     0.014 C 
HETATM   18  C14 UNL     1      61.359  31.363  41.676  1.00  0.00     0.001 C 
HETATM   19  C15 UNL     1      61.255  31.976  43.044  1.00  0.00     0.000 C 
HETATM   20  C16 UNL     1      60.130  31.290  43.772  1.00  0.00     0.001 C 
HETATM   21  C17 UNL     1      60.506  29.832  43.906  1.00  0.00     0.014 C 
ENDBRANCH  12  16
ENDBRANCH   7   8
BRANCH   1  22
HETATM   22  C2  UNL     1      63.590  21.807  44.374  1.00  0.00     0.073 C 
HETATM   23  C1  UNL     1      64.742  22.818  44.444  1.00  0.00     0.013 C 
ENDBRANCH   1  22
BRANCH   4  24
HETATM   24  S1  UNL     1      61.902  19.890  39.803  1.00  0.00    -0.077 SA
BRANCH  24  25
HETATM   25  C5  UNL     1      60.145  20.035  39.380  1.00  0.00     0.152 C 
HETATM   26  C6  UNL     1      59.634  18.781  38.710  1.00  0.00     0.033 C 
BRANCH  25  27
HETATM   27  C7  UNL     1      60.004  21.175  38.437  1.00  0.00     0.187 C 
HETATM   28  O1  UNL     1      58.917  21.502  37.937  1.00  0.00    -0.647 OA
HETATM   29  O2  UNL     1      61.174  21.879  38.132  1.00  0.00    -0.647 OA
ENDBRANCH  25  27
ENDBRANCH  24  25
ENDBRANCH   4  24
TORSDOF 6
ENDMDL
