MODEL 1
REMARK VINA RESULT: -6.091843924      0.000      0.000
REMARK  8 active torsions:
REMARK  status: ('A' for Active; 'I' for Inactive)
REMARK    1  A    between atoms: C2_2  and  N1_5 
REMARK       I    between atoms: C5_7  and  N3_9 
REMARK    2  A    between atoms: N4_11  and  C6_13 
REMARK    3  A    between atoms: C6_13  and  N5_15 
REMARK    4  A    between atoms: N5_15  and  N6_17 
REMARK       I    between atoms: N6_17  and  C7_19 
REMARK    5  A    between atoms: C7_19  and  C8_21 
REMARK    6  A    between atoms: C8_21  and  C9_22 
REMARK    7  A    between atoms: C9_22  and  C10_23 
REMARK    8  A    between atoms: C10_23  and  C11_24 
ROOT
HETATM    1  N5  UNL     1     -18.299  -5.380 -15.151  1.00  0.00    -0.272 N 
ATOM      2  H5  UNL     1     -17.797  -4.493 -15.104  1.00  0.00     0.189 HD
ENDROOT
BRANCH   1   3
HETATM    3  C6  UNL     1     -19.177  -5.628 -16.217  1.00  0.00     0.205 C 
HETATM    4  S1  UNL     1     -20.202  -6.902 -16.254  1.00  0.00    -0.038 SA
BRANCH   3   5
HETATM    5  N4  UNL     1     -19.203  -4.737 -17.315  1.00  0.00    -0.273 N 
HETATM    6  N3  UNL     1     -19.809  -3.670 -17.273  1.00  0.00    -0.272 N 
HETATM    7  C5  UNL     1     -20.568  -3.068 -16.258  1.00  0.00     0.203 C 
ATOM      8  H3  UNL     1     -19.749  -3.122 -18.132  1.00  0.00     0.189 HD
HETATM    9  N1  UNL     1     -21.152  -1.949 -16.495  1.00  0.00    -0.355 N 
HETATM   10  N2  UNL     1     -20.746  -3.615 -14.944  1.00  0.00    -0.062 NA
ATOM     11  H1  UNL     1     -21.685  -1.572 -15.711  1.00  0.00     0.163 HD
ATOM     12  H4  UNL     1     -18.705  -4.989 -18.169  1.00  0.00     0.189 HD
BRANCH   9  13
HETATM   13  C2  UNL     1     -21.178  -1.156 -17.660  1.00  0.00     0.021 C 
HETATM   14  C1  UNL     1     -22.175  -0.012 -17.389  1.00  0.00     0.037 C 
HETATM   15  C3  UNL     1     -21.616  -1.816 -18.930  1.00  0.00     0.037 C 
HETATM   16  C4  UNL     1     -19.842  -0.488 -17.959  1.00  0.00     0.037 C 
ENDBRANCH   9  13
ENDBRANCH   3   5
ENDBRANCH   1   3
BRANCH   1  17
HETATM   17  N6  UNL     1     -18.108  -6.333 -14.163  1.00  0.00    -0.268 N 
HETATM   18  C7  UNL     1     -18.326  -5.984 -12.811  1.00  0.00     0.236 C 
HETATM   19  O1  UNL     1     -18.689  -4.837 -12.518  1.00  0.00    -0.272 OA
ATOM     20  H6  UNL     1     -17.813  -7.278 -14.409  1.00  0.00     0.190 HD
BRANCH  18  21
HETATM   21  C8  UNL     1     -18.123  -6.989 -11.745  1.00  0.00     0.105 C 
BRANCH  21  22
HETATM   22  C9  UNL     1     -19.363  -7.132 -10.931  1.00  0.00     0.017 C 
BRANCH  22  23
HETATM   23  C10 UNL     1     -20.580  -7.447 -11.779  1.00  0.00     0.080 C 
BRANCH  23  24
HETATM   24  C11 UNL     1     -21.475  -6.288 -11.919  1.00  0.00     0.112 A 
HETATM   25  N7  UNL     1     -22.083  -5.654 -10.901  1.00  0.00    -0.272 N 
HETATM   26  N8  UNL     1     -22.809  -4.658 -11.361  1.00  0.00    -0.227 N 
ATOM     27  H7  UNL     1     -21.994  -5.908  -9.917  1.00  0.00     0.190 HD
HETATM   28  N9  UNL     1     -22.675  -4.646 -12.665  1.00  0.00    -0.227 N 
ATOM     29  H8  UNL     1     -23.373  -4.015 -10.805  1.00  0.00     0.210 HD
HETATM   30  N10 UNL     1     -21.872  -5.623 -13.021  1.00  0.00    -0.272 N 
ATOM     31  H9  UNL     1     -23.122  -3.985 -13.300  1.00  0.00     0.210 HD
ATOM     32  H10 UNL     1     -21.593  -5.843 -13.978  1.00  0.00     0.190 HD
ENDBRANCH  23  24
ENDBRANCH  22  23
ENDBRANCH  21  22
ENDBRANCH  18  21
ENDBRANCH   1  17
TORSDOF 8
ENDMDL
MODEL 2
REMARK VINA RESULT: -5.948263833      2.008      2.788
REMARK  8 active torsions:
REMARK  status: ('A' for Active; 'I' for Inactive)
REMARK    1  A    between atoms: C2_2  and  N1_5 
REMARK       I    between atoms: C5_7  and  N3_9 
REMARK    2  A    between atoms: N4_11  and  C6_13 
REMARK    3  A    between atoms: C6_13  and  N5_15 
REMARK    4  A    between atoms: N5_15  and  N6_17 
REMARK       I    between atoms: N6_17  and  C7_19 
REMARK    5  A    between atoms: C7_19  and  C8_21 
REMARK    6  A    between atoms: C8_21  and  C9_22 
REMARK    7  A    between atoms: C9_22  and  C10_23 
REMARK    8  A    between atoms: C10_23  and  C11_24 
ROOT
HETATM    1  N5  UNL     1     -16.711  -7.538 -14.548  1.00  0.00    -0.272 N 
ATOM      2  H5  UNL     1     -15.842  -7.042 -14.745  1.00  0.00     0.189 HD
ENDROOT
BRANCH   1   3
HETATM    3  C6  UNL     1     -17.399  -8.179 -15.589  1.00  0.00     0.205 C 
HETATM    4  S1  UNL     1     -16.696  -9.265 -16.592  1.00  0.00    -0.038 SA
BRANCH   3   5
HETATM    5  N4  UNL     1     -18.770  -7.898 -15.792  1.00  0.00    -0.273 N 
HETATM    6  N3  UNL     1     -19.147  -6.894 -16.388  1.00  0.00    -0.272 N 
HETATM    7  C5  UNL     1     -18.436  -5.842 -16.984  1.00  0.00     0.203 C 
ATOM      8  H3  UNL     1     -20.161  -6.810 -16.465  1.00  0.00     0.189 HD
HETATM    9  N1  UNL     1     -19.087  -4.866 -17.507  1.00  0.00    -0.355 N 
HETATM   10  N2  UNL     1     -17.006  -5.767 -17.059  1.00  0.00    -0.062 NA
ATOM     11  H1  UNL     1     -18.504  -4.138 -17.922  1.00  0.00     0.163 HD
ATOM     12  H4  UNL     1     -19.467  -8.550 -15.430  1.00  0.00     0.189 HD
BRANCH   9  13
HETATM   13  C2  UNL     1     -20.474  -4.634 -17.603  1.00  0.00     0.021 C 
HETATM   14  C1  UNL     1     -20.940  -4.179 -16.206  1.00  0.00     0.037 C 
HETATM   15  C3  UNL     1     -21.338  -5.793 -17.989  1.00  0.00     0.037 C 
HETATM   16  C4  UNL     1     -20.826  -3.497 -18.555  1.00  0.00     0.037 C 
ENDBRANCH   9  13
ENDBRANCH   3   5
ENDBRANCH   1   3
BRANCH   1  17
HETATM   17  N6  UNL     1     -17.205  -7.576 -13.253  1.00  0.00    -0.268 N 
HETATM   18  C7  UNL     1     -18.012  -6.514 -12.788  1.00  0.00     0.236 C 
HETATM   19  O1  UNL     1     -18.277  -5.562 -13.535  1.00  0.00    -0.272 OA
ATOM     20  H6  UNL     1     -16.988  -8.363 -12.642  1.00  0.00     0.190 HD
BRANCH  18  21
HETATM   21  C8  UNL     1     -18.544  -6.538 -11.407  1.00  0.00     0.105 C 
BRANCH  21  22
HETATM   22  C9  UNL     1     -19.667  -7.511 -11.307  1.00  0.00     0.017 C 
BRANCH  22  23
HETATM   23  C10 UNL     1     -20.661  -7.370 -12.442  1.00  0.00     0.080 C 
BRANCH  23  24
HETATM   24  C11 UNL     1     -21.507  -6.175 -12.297  1.00  0.00     0.112 A 
HETATM   25  N7  UNL     1     -22.661  -6.125 -11.610  1.00  0.00    -0.272 N 
HETATM   26  N8  UNL     1     -23.168  -4.912 -11.669  1.00  0.00    -0.227 N 
ATOM     27  H7  UNL     1     -23.083  -6.912 -11.116  1.00  0.00     0.190 HD
HETATM   28  N9  UNL     1     -22.351  -4.181 -12.388  1.00  0.00    -0.227 N 
ATOM     29  H8  UNL     1     -24.037  -4.599 -11.236  1.00  0.00     0.210 HD
HETATM   30  N10 UNL     1     -21.340  -4.927 -12.775  1.00  0.00    -0.272 N 
ATOM     31  H9  UNL     1     -22.479  -3.194 -12.610  1.00  0.00     0.210 HD
ATOM     32  H10 UNL     1     -20.556  -4.612 -13.347  1.00  0.00     0.190 HD
ENDBRANCH  23  24
ENDBRANCH  22  23
ENDBRANCH  21  22
ENDBRANCH  18  21
ENDBRANCH   1  17
TORSDOF 8
ENDMDL
MODEL 3
REMARK VINA RESULT: -5.771740394      1.734      1.948
REMARK  8 active torsions:
REMARK  status: ('A' for Active; 'I' for Inactive)
REMARK    1  A    between atoms: C2_2  and  N1_5 
REMARK       I    between atoms: C5_7  and  N3_9 
REMARK    2  A    between atoms: N4_11  and  C6_13 
REMARK    3  A    between atoms: C6_13  and  N5_15 
REMARK    4  A    between atoms: N5_15  and  N6_17 
REMARK       I    between atoms: N6_17  and  C7_19 
REMARK    5  A    between atoms: C7_19  and  C8_21 
REMARK    6  A    between atoms: C8_21  and  C9_22 
REMARK    7  A    between atoms: C9_22  and  C10_23 
REMARK    8  A    between atoms: C10_23  and  C11_24 
ROOT
HETATM    1  N5  UNL     1     -19.584  -5.936 -17.038  1.00  0.00    -0.272 N 
ATOM      2  H5  UNL     1     -19.699  -6.489 -17.887  1.00  0.00     0.189 HD
ENDROOT
BRANCH   1   3
HETATM    3  C6  UNL     1     -18.722  -4.830 -17.038  1.00  0.00     0.205 C 
HETATM    4  S1  UNL     1     -17.470  -4.671 -15.996  1.00  0.00    -0.038 SA
BRANCH   3   5
HETATM    5  N4  UNL     1     -18.917  -3.797 -17.985  1.00  0.00    -0.273 N 
HETATM    6  N3  UNL     1     -19.720  -2.888 -17.799  1.00  0.00    -0.272 N 
HETATM    7  C5  UNL     1     -20.587  -2.614 -16.730  1.00  0.00     0.203 C 
ATOM      8  H3  UNL     1     -19.765  -2.209 -18.559  1.00  0.00     0.189 HD
HETATM    9  N1  UNL     1     -21.378  -1.605 -16.811  1.00  0.00    -0.355 N 
HETATM   10  N2  UNL     1     -20.661  -3.387 -15.525  1.00  0.00    -0.062 NA
ATOM     11  H1  UNL     1     -21.978  -1.467 -15.998  1.00  0.00     0.163 HD
ATOM     12  H4  UNL     1     -18.375  -3.809 -18.848  1.00  0.00     0.189 HD
BRANCH   9  13
HETATM   13  C2  UNL     1     -21.554  -0.656 -17.839  1.00  0.00     0.021 C 
HETATM   14  C1  UNL     1     -22.549   0.391 -17.302  1.00  0.00     0.037 C 
HETATM   15  C3  UNL     1     -22.107  -1.149 -19.139  1.00  0.00     0.037 C 
HETATM   16  C4  UNL     1     -20.278   0.107 -18.173  1.00  0.00     0.037 C 
ENDBRANCH   9  13
ENDBRANCH   3   5
ENDBRANCH   1   3
BRANCH   1  17
HETATM   17  N6  UNL     1     -20.283  -6.281 -15.891  1.00  0.00    -0.268 N 
HETATM   18  C7  UNL     1     -19.975  -7.491 -15.229  1.00  0.00     0.236 C 
HETATM   19  O1  UNL     1     -19.084  -8.230 -15.670  1.00  0.00    -0.272 OA
ATOM     20  H6  UNL     1     -21.013  -5.668 -15.529  1.00  0.00     0.190 HD
BRANCH  18  21
HETATM   21  C8  UNL     1     -20.714  -7.875 -14.006  1.00  0.00     0.105 C 
BRANCH  21  22
HETATM   22  C9  UNL     1     -19.902  -7.564 -12.796  1.00  0.00     0.017 C 
BRANCH  22  23
HETATM   23  C10 UNL     1     -19.886  -6.082 -12.475  1.00  0.00     0.080 C 
BRANCH  23  24
HETATM   24  C11 UNL     1     -21.241  -5.528 -12.332  1.00  0.00     0.112 A 
HETATM   25  N7  UNL     1     -22.106  -5.847 -11.354  1.00  0.00    -0.272 N 
HETATM   26  N8  UNL     1     -23.227  -5.175 -11.508  1.00  0.00    -0.227 N 
ATOM     27  H7  UNL     1     -21.922  -6.512 -10.603  1.00  0.00     0.190 HD
HETATM   28  N9  UNL     1     -23.091  -4.427 -12.576  1.00  0.00    -0.227 N 
ATOM     29  H8  UNL     1     -24.050  -5.227 -10.907  1.00  0.00     0.210 HD
HETATM   30  N10 UNL     1     -21.896  -4.626 -13.087  1.00  0.00    -0.272 N 
ATOM     31  H9  UNL     1     -23.798  -3.794 -12.950  1.00  0.00     0.210 HD
ATOM     32  H10 UNL     1     -21.525  -4.171 -13.922  1.00  0.00     0.190 HD
ENDBRANCH  23  24
ENDBRANCH  22  23
ENDBRANCH  21  22
ENDBRANCH  18  21
ENDBRANCH   1  17
TORSDOF 8
ENDMDL
MODEL 4
REMARK VINA RESULT: -5.731391771      2.913      5.472
REMARK  8 active torsions:
REMARK  status: ('A' for Active; 'I' for Inactive)
REMARK    1  A    between atoms: C2_2  and  N1_5 
REMARK       I    between atoms: C5_7  and  N3_9 
REMARK    2  A    between atoms: N4_11  and  C6_13 
REMARK    3  A    between atoms: C6_13  and  N5_15 
REMARK    4  A    between atoms: N5_15  and  N6_17 
REMARK       I    between atoms: N6_17  and  C7_19 
REMARK    5  A    between atoms: C7_19  and  C8_21 
REMARK    6  A    between atoms: C8_21  and  C9_22 
REMARK    7  A    between atoms: C9_22  and  C10_23 
REMARK    8  A    between atoms: C10_23  and  C11_24 
ROOT
HETATM    1  N5  UNL     1     -20.003  -4.654 -15.787  1.00  0.00    -0.272 N 
ATOM      2  H5  UNL     1     -19.330  -3.928 -15.543  1.00  0.00     0.189 HD
ENDROOT
BRANCH   1   3
HETATM    3  C6  UNL     1     -19.748  -5.505 -16.872  1.00  0.00     0.205 C 
HETATM    4  S1  UNL     1     -20.930  -6.136 -17.813  1.00  0.00    -0.038 SA
BRANCH   3   5
HETATM    5  N4  UNL     1     -18.411  -5.836 -17.195  1.00  0.00    -0.273 N 
HETATM    6  N3  UNL     1     -17.783  -6.684 -16.569  1.00  0.00    -0.272 N 
HETATM    7  C5  UNL     1     -18.138  -7.493 -15.479  1.00  0.00     0.203 C 
ATOM      8  H3  UNL     1     -16.829  -6.828 -16.903  1.00  0.00     0.189 HD
HETATM    9  N1  UNL     1     -17.256  -8.276 -14.969  1.00  0.00    -0.355 N 
HETATM   10  N2  UNL     1     -19.438  -7.516 -14.874  1.00  0.00    -0.062 NA
ATOM     11  H1  UNL     1     -17.586  -8.833 -14.180  1.00  0.00     0.163 HD
ATOM     12  H4  UNL     1     -17.956  -5.356 -17.971  1.00  0.00     0.189 HD
BRANCH   9  13
HETATM   13  C2  UNL     1     -15.908  -8.492 -15.319  1.00  0.00     0.021 C 
HETATM   14  C1  UNL     1     -15.315  -9.408 -14.230  1.00  0.00     0.037 C 
HETATM   15  C3  UNL     1     -15.019  -7.291 -15.402  1.00  0.00     0.037 C 
HETATM   16  C4  UNL     1     -15.746  -9.243 -16.635  1.00  0.00     0.037 C 
ENDBRANCH   9  13
ENDBRANCH   3   5
ENDBRANCH   1   3
BRANCH   1  17
HETATM   17  N6  UNL     1     -21.165  -4.795 -15.042  1.00  0.00    -0.268 N 
HETATM   18  C7  UNL     1     -21.183  -4.361 -13.698  1.00  0.00     0.236 C 
HETATM   19  O1  UNL     1     -20.171  -3.855 -13.195  1.00  0.00    -0.272 OA
ATOM     20  H6  UNL     1     -21.998  -5.208 -15.461  1.00  0.00     0.190 HD
BRANCH  18  21
HETATM   21  C8  UNL     1     -22.414  -4.507 -12.889  1.00  0.00     0.105 C 
BRANCH  21  22
HETATM   22  C9  UNL     1     -22.148  -5.362 -11.699  1.00  0.00     0.017 C 
BRANCH  22  23
HETATM   23  C10 UNL     1     -21.839  -6.798 -12.073  1.00  0.00     0.080 C 
BRANCH  23  24
HETATM   24  C11 UNL     1     -20.463  -7.181 -11.723  1.00  0.00     0.112 A 
HETATM   25  N7  UNL     1     -19.355  -6.544 -12.140  1.00  0.00    -0.272 N 
HETATM   26  N8  UNL     1     -18.285  -7.132 -11.647  1.00  0.00    -0.227 N 
ATOM     27  H7  UNL     1     -19.344  -5.726 -12.749  1.00  0.00     0.190 HD
HETATM   28  N9  UNL     1     -18.696  -8.142 -10.918  1.00  0.00    -0.227 N 
ATOM     29  H8  UNL     1     -17.317  -6.854 -11.804  1.00  0.00     0.210 HD
HETATM   30  N10 UNL     1     -20.009  -8.187 -10.951  1.00  0.00    -0.272 N 
ATOM     31  H9  UNL     1     -18.093  -8.788 -10.408  1.00  0.00     0.210 HD
ATOM     32  H10 UNL     1     -20.591  -8.873 -10.470  1.00  0.00     0.190 HD
ENDBRANCH  23  24
ENDBRANCH  22  23
ENDBRANCH  21  22
ENDBRANCH  18  21
ENDBRANCH   1  17
TORSDOF 8
ENDMDL
MODEL 5
REMARK VINA RESULT: -5.676247774      4.551      7.156
REMARK  8 active torsions:
REMARK  status: ('A' for Active; 'I' for Inactive)
REMARK    1  A    between atoms: C2_2  and  N1_5 
REMARK       I    between atoms: C5_7  and  N3_9 
REMARK    2  A    between atoms: N4_11  and  C6_13 
REMARK    3  A    between atoms: C6_13  and  N5_15 
REMARK    4  A    between atoms: N5_15  and  N6_17 
REMARK       I    between atoms: N6_17  and  C7_19 
REMARK    5  A    between atoms: C7_19  and  C8_21 
REMARK    6  A    between atoms: C8_21  and  C9_22 
REMARK    7  A    between atoms: C9_22  and  C10_23 
REMARK    8  A    between atoms: C10_23  and  C11_24 
ROOT
HETATM    1  N5  UNL     1     -16.481  -8.328 -13.802  1.00  0.00    -0.272 N 
ATOM      2  H5  UNL     1     -16.976  -8.761 -13.023  1.00  0.00     0.189 HD
ENDROOT
BRANCH   1   3
HETATM    3  C6  UNL     1     -15.298  -8.906 -14.284  1.00  0.00     0.205 C 
HETATM    4  S1  UNL     1     -13.959  -8.037 -14.645  1.00  0.00    -0.038 SA
BRANCH   3   5
HETATM    5  N4  UNL     1     -15.232 -10.308 -14.460  1.00  0.00    -0.273 N 
HETATM    6  N3  UNL     1     -15.722 -10.864 -15.438  1.00  0.00    -0.272 N 
HETATM    7  C5  UNL     1     -16.413 -10.358 -16.549  1.00  0.00     0.203 C 
ATOM      8  H3  UNL     1     -15.606 -11.878 -15.443  1.00  0.00     0.189 HD
HETATM    9  N1  UNL     1     -16.877 -11.178 -17.422  1.00  0.00    -0.355 N 
HETATM   10  N2  UNL     1     -16.646  -8.965 -16.796  1.00  0.00    -0.062 NA
ATOM     11  H1  UNL     1     -17.366 -10.739 -18.202  1.00  0.00     0.163 HD
ATOM     12  H4  UNL     1     -14.763 -10.874 -13.752  1.00  0.00     0.189 HD
BRANCH   9  13
HETATM   13  C2  UNL     1     -16.821 -12.586 -17.481  1.00  0.00     0.021 C 
HETATM   14  C1  UNL     1     -17.774 -13.015 -18.613  1.00  0.00     0.037 C 
HETATM   15  C3  UNL     1     -17.239 -13.340 -16.258  1.00  0.00     0.037 C 
HETATM   16  C4  UNL     1     -15.445 -13.114 -17.866  1.00  0.00     0.037 C 
ENDBRANCH   9  13
ENDBRANCH   3   5
ENDBRANCH   1   3
BRANCH   1  17
HETATM   17  N6  UNL     1     -16.983  -7.171 -14.380  1.00  0.00    -0.268 N 
HETATM   18  C7  UNL     1     -17.972  -6.428 -13.697  1.00  0.00     0.236 C 
HETATM   19  O1  UNL     1     -18.379  -6.806 -12.590  1.00  0.00    -0.272 OA
ATOM     20  H6  UNL     1     -16.643  -6.861 -15.289  1.00  0.00     0.190 HD
BRANCH  18  21
HETATM   21  C8  UNL     1     -18.520  -5.194 -14.302  1.00  0.00     0.105 C 
BRANCH  21  22
HETATM   22  C9  UNL     1     -19.879  -5.453 -14.855  1.00  0.00     0.017 C 
BRANCH  22  23
HETATM   23  C10 UNL     1     -20.911  -4.468 -14.342  1.00  0.00     0.080 C 
BRANCH  23  24
HETATM   24  C11 UNL     1     -21.530  -4.916 -13.085  1.00  0.00     0.112 A 
HETATM   25  N7  UNL     1     -22.468  -4.237 -12.401  1.00  0.00    -0.272 N 
HETATM   26  N8  UNL     1     -22.817  -4.910 -11.326  1.00  0.00    -0.227 N 
ATOM     27  H7  UNL     1     -22.852  -3.333 -12.675  1.00  0.00     0.190 HD
HETATM   28  N9  UNL     1     -22.113  -6.016 -11.311  1.00  0.00    -0.227 N 
ATOM     29  H8  UNL     1     -23.508  -4.624 -10.632  1.00  0.00     0.210 HD
HETATM   30  N10 UNL     1     -21.330  -6.038 -12.367  1.00  0.00    -0.272 N 
ATOM     31  H9  UNL     1     -22.164  -6.741 -10.596  1.00  0.00     0.210 HD
ATOM     32  H10 UNL     1     -20.676  -6.784 -12.605  1.00  0.00     0.190 HD
ENDBRANCH  23  24
ENDBRANCH  22  23
ENDBRANCH  21  22
ENDBRANCH  18  21
ENDBRANCH   1  17
TORSDOF 8
ENDMDL
