MODEL 1
REMARK VINA RESULT: -6.143100000      0.000      0.000
REMARK  5 active torsions:
REMARK  status: ('A' for Active; 'I' for Inactive)
REMARK    1  A    between atoms: C2_2  and  C3_3 
REMARK    2  A    between atoms: C3_3  and  C4_4 
REMARK    3  A    between atoms: C4_4  and  N1_5 
REMARK    4  A    between atoms: C9_12  and  N3_13 
REMARK    5  A    between atoms: C14_24  and  C15_25 
ROOT
HETATM    1  N1  UNL     1     -21.468  -6.691 -11.917  1.00  0.00     0.093 N 
HETATM    2  C5  UNL     1     -21.708  -5.308 -11.567  1.00  0.00     0.279 C 
HETATM    3  C6  UNL     1     -22.408  -4.578 -12.696  1.00  0.00     0.088 C 
HETATM    4  C7  UNL     1     -21.418  -4.552 -13.815  1.00  0.00     0.020 A 
HETATM    5  N2  UNL     1     -21.296  -3.454 -14.539  1.00  0.00    -0.355 N 
ATOM      6  H2  UNL     1     -21.890  -2.646 -14.345  1.00  0.00     0.166 HD
HETATM    7  C8  UNL     1     -20.407  -3.402 -15.511  1.00  0.00     0.089 A 
HETATM    8  C9  UNL     1     -20.343  -2.224 -16.207  1.00  0.00     0.128 A 
HETATM    9  N4  UNL     1     -19.449  -2.120 -17.200  1.00  0.00    -0.328 N 
ATOM     10  H4  UNL     1     -19.375  -1.258 -17.739  1.00  0.00     0.168 HD
HETATM   11  C10 UNL     1     -18.659  -3.157 -17.476  1.00  0.00     0.139 A 
HETATM   12  N5  UNL     1     -17.728  -2.998 -18.534  1.00  0.00    -0.081 NA
HETATM   13  C11 UNL     1     -18.701  -4.377 -16.782  1.00  0.00     0.099 A 
HETATM   14  C12 UNL     1     -17.783  -5.397 -17.202  1.00  0.00     0.104 C 
HETATM   15  N6  UNL     1     -17.011  -6.174 -17.604  1.00  0.00    -0.191 NA
HETATM   16  C13 UNL     1     -19.586  -4.527 -15.773  1.00  0.00     0.035 A 
HETATM   17  C14 UNL     1     -19.699  -5.662 -15.041  1.00  0.00     0.053 A 
HETATM   18  C16 UNL     1     -20.662  -5.667 -14.016  1.00  0.00     0.009 A 
HETATM   19  C17 UNL     1     -20.829  -6.852 -13.197  1.00  0.00     0.314 C 
ENDROOT
BRANCH  17  20
HETATM   20  C15 UNL     1     -18.923  -6.863 -15.201  1.00  0.00     0.266 C 
HETATM   21  N7  UNL     1     -19.430  -7.911 -16.041  1.00  0.00    -0.057 NA
HETATM   22  O1  UNL     1     -17.812  -7.107 -14.657  1.00  0.00    -0.271 OA
ENDBRANCH  17  20
BRANCH   8  23
HETATM   23  N3  UNL     1     -21.117  -1.224 -15.937  1.00  0.00    -0.384 N 
ATOM     24  H32 UNL     1     -22.096  -1.255 -16.219  1.00  0.00     0.157 HD
ATOM     25  H31 UNL     1     -20.781  -0.398 -15.441  1.00  0.00     0.157 HD
ENDBRANCH   8  23
BRANCH   1  26
HETATM   26  C4  UNL     1     -20.634  -7.272 -10.867  1.00  0.00     0.272 C 
BRANCH  26  27
HETATM   27  C3  UNL     1     -19.330  -7.692 -11.465  1.00  0.00     0.030 C 
BRANCH  27  28
HETATM   28  C2  UNL     1     -18.357  -6.523 -11.182  1.00  0.00    -0.003 C 
HETATM   29  C1  UNL     1     -17.756  -6.737  -9.822  1.00  0.00     0.005 C 
ENDBRANCH  27  28
ENDBRANCH  26  27
ENDBRANCH   1  26
TORSDOF 5
ENDMDL
MODEL 2
REMARK VINA RESULT: -5.990295865      2.571      4.138
REMARK  5 active torsions:
REMARK  status: ('A' for Active; 'I' for Inactive)
REMARK    1  A    between atoms: C2_2  and  C3_3 
REMARK    2  A    between atoms: C3_3  and  C4_4 
REMARK    3  A    between atoms: C4_4  and  N1_5 
REMARK    4  A    between atoms: C9_12  and  N3_13 
REMARK    5  A    between atoms: C14_24  and  C15_25 
ROOT
HETATM    1  N1  UNL     1     -19.601  -6.806 -13.711  1.00  0.00     0.093 N 
HETATM    2  C5  UNL     1     -20.542  -7.667 -14.395  1.00  0.00     0.279 C 
HETATM    3  C6  UNL     1     -20.133  -7.874 -15.840  1.00  0.00     0.088 C 
HETATM    4  C7  UNL     1     -20.267  -6.530 -16.478  1.00  0.00     0.020 A 
HETATM    5  N2  UNL     1     -20.774  -6.446 -17.695  1.00  0.00    -0.355 N 
ATOM      6  H2  UNL     1     -21.046  -7.293 -18.195  1.00  0.00     0.166 HD
HETATM    7  C8  UNL     1     -20.928  -5.266 -18.263  1.00  0.00     0.089 A 
HETATM    8  C9  UNL     1     -21.465  -5.269 -19.523  1.00  0.00     0.128 A 
HETATM    9  N4  UNL     1     -21.648  -4.093 -20.140  1.00  0.00    -0.328 N 
ATOM     10  H4  UNL     1     -22.046  -4.059 -21.078  1.00  0.00     0.168 HD
HETATM   11  C10 UNL     1     -21.303  -2.969 -19.513  1.00  0.00     0.139 A 
HETATM   12  N5  UNL     1     -21.518  -1.750 -20.204  1.00  0.00    -0.081 NA
HETATM   13  C11 UNL     1     -20.750  -2.933 -18.222  1.00  0.00     0.099 A 
HETATM   14  C12 UNL     1     -20.432  -1.640 -17.687  1.00  0.00     0.104 C 
HETATM   15  N6  UNL     1     -20.198  -0.556 -17.324  1.00  0.00    -0.191 NA
HETATM   16  C13 UNL     1     -20.548  -4.094 -17.563  1.00  0.00     0.035 A 
HETATM   17  C14 UNL     1     -20.025  -4.163 -16.315  1.00  0.00     0.053 A 
HETATM   18  C16 UNL     1     -19.881  -5.444 -15.753  1.00  0.00     0.009 A 
HETATM   19  C17 UNL     1     -19.329  -5.583 -14.419  1.00  0.00     0.314 C 
ENDROOT
BRANCH  17  20
HETATM   20  C15 UNL     1     -19.611  -3.052 -15.500  1.00  0.00     0.266 C 
HETATM   21  N7  UNL     1     -18.234  -2.644 -15.528  1.00  0.00    -0.057 NA
HETATM   22  O1  UNL     1     -20.349  -2.381 -14.728  1.00  0.00    -0.271 OA
ENDBRANCH  17  20
BRANCH   8  23
HETATM   23  N3  UNL     1     -21.792  -6.365 -20.127  1.00  0.00    -0.384 N 
ATOM     24  H32 UNL     1     -21.884  -7.227 -19.591  1.00  0.00     0.157 HD
ATOM     25  H31 UNL     1     -21.967  -6.397 -21.132  1.00  0.00     0.157 HD
ENDBRANCH   8  23
BRANCH   1  26
HETATM   26  C4  UNL     1     -20.157  -6.507 -12.393  1.00  0.00     0.272 C 
BRANCH  26  27
HETATM   27  C3  UNL     1     -21.626  -6.787 -12.416  1.00  0.00     0.030 C 
BRANCH  27  28
HETATM   28  C2  UNL     1     -22.288  -5.546 -11.772  1.00  0.00    -0.003 C 
HETATM   29  C1  UNL     1     -22.367  -4.467 -12.815  1.00  0.00     0.005 C 
ENDBRANCH  27  28
ENDBRANCH  26  27
ENDBRANCH   1  26
TORSDOF 5
ENDMDL
MODEL 3
REMARK VINA RESULT: -5.988676064      1.808      5.610
REMARK  5 active torsions:
REMARK  status: ('A' for Active; 'I' for Inactive)
REMARK    1  A    between atoms: C2_2  and  C3_3 
REMARK    2  A    between atoms: C3_3  and  C4_4 
REMARK    3  A    between atoms: C4_4  and  N1_5 
REMARK    4  A    between atoms: C9_12  and  N3_13 
REMARK    5  A    between atoms: C14_24  and  C15_25 
ROOT
HETATM    1  N1  UNL     1     -19.517  -2.520 -17.368  1.00  0.00     0.093 N 
HETATM    2  C5  UNL     1     -20.941  -2.520 -17.110  1.00  0.00     0.279 C 
HETATM    3  C6  UNL     1     -21.228  -2.166 -15.665  1.00  0.00     0.088 C 
HETATM    4  C7  UNL     1     -20.667  -3.298 -14.867  1.00  0.00     0.020 A 
HETATM    5  N2  UNL     1     -21.348  -3.751 -13.831  1.00  0.00    -0.355 N 
ATOM      6  H2  UNL     1     -22.232  -3.314 -13.570  1.00  0.00     0.166 HD
HETATM    7  C8  UNL     1     -20.883  -4.770 -13.134  1.00  0.00     0.089 A 
HETATM    8  C9  UNL     1     -21.655  -5.180 -12.079  1.00  0.00     0.128 A 
HETATM    9  N4  UNL     1     -21.228  -6.216 -11.344  1.00  0.00    -0.328 N 
ATOM     10  H4  UNL     1     -21.777  -6.547 -10.551  1.00  0.00     0.168 HD
HETATM   11  C10 UNL     1     -20.077  -6.808 -11.660  1.00  0.00     0.139 A 
HETATM   12  N5  UNL     1     -19.668  -7.902 -10.855  1.00  0.00    -0.081 NA
HETATM   13  C11 UNL     1     -19.264  -6.411 -12.735  1.00  0.00     0.099 A 
HETATM   14  C12 UNL     1     -18.053  -7.153 -12.943  1.00  0.00     0.104 C 
HETATM   15  N6  UNL     1     -17.087  -7.800 -13.044  1.00  0.00    -0.191 NA
HETATM   16  C13 UNL     1     -19.654  -5.371 -13.503  1.00  0.00     0.035 A 
HETATM   17  C14 UNL     1     -18.943  -4.917 -14.563  1.00  0.00     0.053 A 
HETATM   18  C16 UNL     1     -19.481  -3.829 -15.273  1.00  0.00     0.009 A 
HETATM   19  C17 UNL     1     -18.766  -3.299 -16.418  1.00  0.00     0.314 C 
ENDROOT
BRANCH  17  20
HETATM   20  C15 UNL     1     -17.693  -5.445 -15.041  1.00  0.00     0.266 C 
HETATM   21  N7  UNL     1     -17.711  -6.499 -16.017  1.00  0.00    -0.057 NA
HETATM   22  O1  UNL     1     -16.544  -5.077 -14.677  1.00  0.00    -0.271 OA
ENDBRANCH  17  20
BRANCH   8  23
HETATM   23  N3  UNL     1     -22.767  -4.596 -11.774  1.00  0.00    -0.384 N 
ATOM     24  H32 UNL     1     -23.105  -4.625 -10.812  1.00  0.00     0.157 HD
ATOM     25  H31 UNL     1     -23.325  -4.098 -12.469  1.00  0.00     0.157 HD
ENDBRANCH   8  23
BRANCH   1  26
HETATM   26  C4  UNL     1     -19.315  -3.047 -18.717  1.00  0.00     0.272 C 
BRANCH  26  27
HETATM   27  C3  UNL     1     -20.504  -3.872 -19.094  1.00  0.00     0.030 C 
BRANCH  27  28
HETATM   28  C2  UNL     1     -20.007  -5.336 -19.075  1.00  0.00    -0.003 C 
HETATM   29  C1  UNL     1     -20.813  -6.088 -18.054  1.00  0.00     0.005 C 
ENDBRANCH  27  28
ENDBRANCH  26  27
ENDBRANCH   1  26
TORSDOF 5
ENDMDL
MODEL 4
REMARK VINA RESULT: -5.937803470      2.850      5.904
REMARK  5 active torsions:
REMARK  status: ('A' for Active; 'I' for Inactive)
REMARK    1  A    between atoms: C2_2  and  C3_3 
REMARK    2  A    between atoms: C3_3  and  C4_4 
REMARK    3  A    between atoms: C4_4  and  N1_5 
REMARK    4  A    between atoms: C9_12  and  N3_13 
REMARK    5  A    between atoms: C14_24  and  C15_25 
ROOT
HETATM    1  N1  UNL     1     -15.016  -6.636 -16.080  1.00  0.00     0.093 N 
HETATM    2  C5  UNL     1     -14.885  -7.300 -14.801  1.00  0.00     0.279 C 
HETATM    3  C6  UNL     1     -16.094  -8.170 -14.517  1.00  0.00     0.088 C 
HETATM    4  C7  UNL     1     -17.234  -7.215 -14.370  1.00  0.00     0.020 A 
HETATM    5  N2  UNL     1     -18.128  -7.427 -13.421  1.00  0.00    -0.355 N 
ATOM      6  H2  UNL     1     -18.048  -8.245 -12.817  1.00  0.00     0.166 HD
HETATM    7  C8  UNL     1     -19.125  -6.579 -13.257  1.00  0.00     0.089 A 
HETATM    8  C9  UNL     1     -20.003  -6.870 -12.247  1.00  0.00     0.128 A 
HETATM    9  N4  UNL     1     -21.029  -6.034 -12.036  1.00  0.00    -0.328 N 
ATOM     10  H4  UNL     1     -21.701  -6.221 -11.292  1.00  0.00     0.168 HD
HETATM   11  C10 UNL     1     -21.160  -4.956 -12.808  1.00  0.00     0.139 A 
HETATM   12  N5  UNL     1     -22.260  -4.100 -12.544  1.00  0.00    -0.081 NA
HETATM   13  C11 UNL     1     -20.277  -4.631 -13.851  1.00  0.00     0.099 A 
HETATM   14  C12 UNL     1     -20.558  -3.434 -14.592  1.00  0.00     0.104 C 
HETATM   15  N6  UNL     1     -20.855  -2.452 -15.147  1.00  0.00    -0.191 NA
HETATM   16  C13 UNL     1     -19.229  -5.444 -14.100  1.00  0.00     0.035 A 
HETATM   17  C14 UNL     1     -18.321  -5.215 -15.079  1.00  0.00     0.053 A 
HETATM   18  C16 UNL     1     -17.278  -6.148 -15.214  1.00  0.00     0.009 A 
HETATM   19  C17 UNL     1     -16.274  -5.955 -16.242  1.00  0.00     0.314 C 
ENDROOT
BRANCH  17  20
HETATM   20  C15 UNL     1     -18.311  -4.101 -15.990  1.00  0.00     0.266 C 
HETATM   21  N7  UNL     1     -18.981  -4.232 -17.254  1.00  0.00    -0.057 NA
HETATM   22  O1  UNL     1     -17.750  -2.988 -15.798  1.00  0.00    -0.271 OA
ENDBRANCH  17  20
BRANCH   8  23
HETATM   23  N3  UNL     1     -19.872  -7.921 -11.505  1.00  0.00    -0.384 N 
ATOM     24  H32 UNL     1     -18.952  -8.346 -11.392  1.00  0.00     0.157 HD
ATOM     25  H31 UNL     1     -20.664  -8.343 -11.019  1.00  0.00     0.157 HD
ENDBRANCH   8  23
BRANCH   1  26
HETATM   26  C4  UNL     1     -13.913  -5.683 -16.195  1.00  0.00     0.272 C 
BRANCH  26  27
HETATM   27  C3  UNL     1     -14.237  -4.472 -15.381  1.00  0.00     0.030 C 
BRANCH  27  28
HETATM   28  C2  UNL     1     -12.929  -4.120 -14.636  1.00  0.00    -0.003 C 
HETATM   29  C1  UNL     1     -12.994  -2.673 -14.239  1.00  0.00     0.005 C 
ENDBRANCH  27  28
ENDBRANCH  26  27
ENDBRANCH   1  26
TORSDOF 5
ENDMDL
MODEL 5
REMARK VINA RESULT: -5.890851126      2.656      3.997
REMARK  5 active torsions:
REMARK  status: ('A' for Active; 'I' for Inactive)
REMARK    1  A    between atoms: C2_2  and  C3_3 
REMARK    2  A    between atoms: C3_3  and  C4_4 
REMARK    3  A    between atoms: C4_4  and  N1_5 
REMARK    4  A    between atoms: C9_12  and  N3_13 
REMARK    5  A    between atoms: C14_24  and  C15_25 
ROOT
HETATM    1  N1  UNL     1     -19.741  -6.504 -13.676  1.00  0.00     0.093 N 
HETATM    2  C5  UNL     1     -20.543  -7.488 -14.370  1.00  0.00     0.279 C 
HETATM    3  C6  UNL     1     -20.022  -7.715 -15.775  1.00  0.00     0.088 C 
HETATM    4  C7  UNL     1     -20.250  -6.422 -16.488  1.00  0.00     0.020 A 
HETATM    5  N2  UNL     1     -20.683  -6.446 -17.736  1.00  0.00    -0.355 N 
ATOM      6  H2  UNL     1     -20.834  -7.338 -18.207  1.00  0.00     0.166 HD
HETATM    7  C8  UNL     1     -20.920  -5.315 -18.372  1.00  0.00     0.089 A 
HETATM    8  C9  UNL     1     -21.371  -5.430 -19.660  1.00  0.00     0.128 A 
HETATM    9  N4  UNL     1     -21.633  -4.309 -20.345  1.00  0.00    -0.328 N 
ATOM     10  H4  UNL     1     -21.970  -4.359 -21.306  1.00  0.00     0.168 HD
HETATM   11  C10 UNL     1     -21.446  -3.128 -19.756  1.00  0.00     0.139 A 
HETATM   12  N5  UNL     1     -21.740  -1.970 -20.521  1.00  0.00    -0.081 NA
HETATM   13  C11 UNL     1     -20.985  -2.976 -18.438  1.00  0.00     0.099 A 
HETATM   14  C12 UNL     1     -20.836  -1.635 -17.951  1.00  0.00     0.104 C 
HETATM   15  N6  UNL     1     -20.739  -0.517 -17.630  1.00  0.00    -0.191 NA
HETATM   16  C13 UNL     1     -20.708  -4.079 -17.710  1.00  0.00     0.035 A 
HETATM   17  C14 UNL     1     -20.264  -4.038 -16.431  1.00  0.00     0.053 A 
HETATM   18  C16 UNL     1     -20.026  -5.270 -15.797  1.00  0.00     0.009 A 
HETATM   19  C17 UNL     1     -19.550  -5.291 -14.428  1.00  0.00     0.314 C 
ENDROOT
BRANCH  17  20
HETATM   20  C15 UNL     1     -20.019  -2.854 -15.650  1.00  0.00     0.266 C 
HETATM   21  N7  UNL     1     -18.696  -2.298 -15.628  1.00  0.00    -0.057 NA
HETATM   22  O1  UNL     1     -20.868  -2.238 -14.951  1.00  0.00    -0.271 OA
ENDBRANCH  17  20
BRANCH   8  23
HETATM   23  N3  UNL     1     -21.544  -6.580 -20.226  1.00  0.00    -0.384 N 
ATOM     24  H32 UNL     1     -22.375  -7.129 -20.008  1.00  0.00     0.157 HD
ATOM     25  H31 UNL     1     -20.873  -6.961 -20.894  1.00  0.00     0.157 HD
ENDBRANCH   8  23
BRANCH   1  26
HETATM   26  C4  UNL     1     -20.410  -6.206 -12.410  1.00  0.00     0.272 C 
BRANCH  26  27
HETATM   27  C3  UNL     1     -19.885  -7.132 -11.360  1.00  0.00     0.030 C 
BRANCH  27  28
HETATM   28  C2  UNL     1     -18.348  -6.959 -11.395  1.00  0.00    -0.003 C 
HETATM   29  C1  UNL     1     -17.878  -6.688  -9.995  1.00  0.00     0.005 C 
ENDBRANCH  27  28
ENDBRANCH  26  27
ENDBRANCH   1  26
TORSDOF 5
ENDMDL
