MODEL 1
REMARK VINA RESULT: -6.323606579      0.000      0.000
REMARK  5 active torsions:
REMARK  status: ('A' for Active; 'I' for Inactive)
REMARK    1  A    between atoms: C1_4  and  C2_5 
REMARK    2  A    between atoms: C1_4  and  N6_24 
REMARK    3  A    between atoms: C2_5  and  C3_6 
REMARK    4  A    between atoms: C3_6  and  N2_7 
REMARK       I    between atoms: N2_7  and  C4_9 
REMARK    5  A    between atoms: C4_9  and  C5_11 
ROOT
HETATM    1  N2  UNL     1     -16.391  -7.457 -14.776  1.00  0.00    -0.355 N 
ATOM      2  H2  UNL     1     -16.192  -6.663 -14.167  1.00  0.00     0.162 HD
HETATM    3  C4  UNL     1     -17.727  -7.838 -15.043  1.00  0.00     0.275 C 
HETATM    4  O1  UNL     1     -17.963  -8.831 -15.805  1.00  0.00    -0.265 OA
ENDROOT
BRANCH   3   5
HETATM    5  C5  UNL     1     -18.829  -7.090 -14.444  1.00  0.00     0.145 A 
HETATM    6  N3  UNL     1     -19.468  -7.416 -13.337  1.00  0.00    -0.339 N 
HETATM    7  C6  UNL     1     -20.436  -6.667 -12.903  1.00  0.00     0.136 A 
ATOM      8  H3  UNL     1     -19.201  -8.255 -12.823  1.00  0.00     0.167 HD
HETATM    9  C7  UNL     1     -21.210  -6.880 -11.743  1.00  0.00     0.276 A 
HETATM   10  C9  UNL     1     -20.757  -5.552 -13.628  1.00  0.00     0.109 A 
HETATM   11  O2  UNL     1     -21.015  -7.869 -10.990  1.00  0.00    -0.266 OA
HETATM   12  N4  UNL     1     -22.165  -6.007 -11.449  1.00  0.00    -0.318 N 
HETATM   13  C8  UNL     1     -22.487  -4.910 -12.154  1.00  0.00     0.184 A 
ATOM     14  H4  UNL     1     -22.708  -6.186 -10.604  1.00  0.00     0.169 HD
HETATM   15  N5  UNL     1     -21.756  -4.690 -13.269  1.00  0.00    -0.345 N 
ATOM     16  H5  UNL     1     -21.951  -3.873 -13.848  1.00  0.00     0.167 HD
HETATM   17  S1  UNL     1     -19.621  -5.655 -14.916  1.00  0.00    -0.046 SA
ENDBRANCH   3   5
BRANCH   1  18
HETATM   18  C3  UNL     1     -15.318  -8.205 -15.374  1.00  0.00     0.130 C 
BRANCH  18  19
HETATM   19  C2  UNL     1     -14.526  -8.990 -14.367  1.00  0.00     0.095 C 
BRANCH  19  20
HETATM   20  C1  UNL     1     -14.654 -10.445 -14.634  1.00  0.00     0.074 C 
HETATM   21  N1  UNL     1     -15.641 -10.870 -15.340  1.00  0.00    -0.389 N 
ATOM     22  H12 UNL     1     -16.308 -10.186 -15.697  1.00  0.00     0.157 HD
ATOM     23  H11 UNL     1     -15.729 -11.869 -15.523  1.00  0.00     0.157 HD
BRANCH  20  24
HETATM   24  N6  UNL     1     -13.728 -11.393 -14.138  1.00  0.00    -0.371 N 
HETATM   25  C10 UNL     1     -14.154 -12.728 -13.796  1.00  0.00     0.124 C 
HETATM   26  C11 UNL     1     -12.901 -13.585 -13.674  1.00  0.00     0.020 C 
HETATM   27  C12 UNL     1     -11.984 -13.084 -12.598  1.00  0.00     0.003 C 
HETATM   28  C13 UNL     1     -11.981 -11.556 -12.528  1.00  0.00     0.020 C 
HETATM   29  C14 UNL     1     -12.314 -11.083 -13.947  1.00  0.00     0.124 C 
ENDBRANCH  20  24
ENDBRANCH  19  20
ENDBRANCH  18  19
ENDBRANCH   1  18
TORSDOF 5
ENDMDL
MODEL 2
REMARK VINA RESULT: -6.249002520      5.341      8.062
REMARK  5 active torsions:
REMARK  status: ('A' for Active; 'I' for Inactive)
REMARK    1  A    between atoms: C1_4  and  C2_5 
REMARK    2  A    between atoms: C1_4  and  N6_24 
REMARK    3  A    between atoms: C2_5  and  C3_6 
REMARK    4  A    between atoms: C3_6  and  N2_7 
REMARK       I    between atoms: N2_7  and  C4_9 
REMARK    5  A    between atoms: C4_9  and  C5_11 
ROOT
HETATM    1  N2  UNL     1     -20.397  -5.452 -17.084  1.00  0.00    -0.355 N 
ATOM      2  H2  UNL     1     -21.385  -5.450 -17.338  1.00  0.00     0.162 HD
HETATM    3  C4  UNL     1     -19.715  -4.235 -16.848  1.00  0.00     0.275 C 
HETATM    4  O1  UNL     1     -18.482  -4.251 -16.531  1.00  0.00    -0.265 OA
ENDROOT
BRANCH   3   5
HETATM    5  C5  UNL     1     -20.430  -2.967 -16.968  1.00  0.00     0.145 A 
HETATM    6  N3  UNL     1     -21.077  -2.548 -18.038  1.00  0.00    -0.339 N 
HETATM    7  C6  UNL     1     -21.676  -1.396 -18.023  1.00  0.00     0.136 A 
ATOM      8  H3  UNL     1     -21.106  -3.128 -18.877  1.00  0.00     0.167 HD
HETATM    9  C7  UNL     1     -22.404  -0.812 -19.081  1.00  0.00     0.276 A 
HETATM   10  C9  UNL     1     -21.609  -0.654 -16.875  1.00  0.00     0.109 A 
HETATM   11  O2  UNL     1     -22.542  -1.391 -20.188  1.00  0.00    -0.266 OA
HETATM   12  N4  UNL     1     -22.955   0.381 -18.889  1.00  0.00    -0.318 N 
HETATM   13  C8  UNL     1     -22.894   1.116 -17.767  1.00  0.00     0.184 A 
ATOM     14  H4  UNL     1     -23.476   0.778 -19.671  1.00  0.00     0.169 HD
HETATM   15  N5  UNL     1     -22.200   0.572 -16.742  1.00  0.00    -0.345 N 
ATOM     16  H5  UNL     1     -22.117   1.081 -15.862  1.00  0.00     0.167 HD
HETATM   17  S1  UNL     1     -20.666  -1.684 -15.870  1.00  0.00    -0.046 SA
ENDBRANCH   3   5
BRANCH   1  18
HETATM   18  C3  UNL     1     -19.678  -6.691 -16.961  1.00  0.00     0.130 C 
BRANCH  18  19
HETATM   19  C2  UNL     1     -20.243  -7.587 -15.894  1.00  0.00     0.095 C 
BRANCH  19  20
HETATM   20  C1  UNL     1     -19.671  -7.232 -14.571  1.00  0.00     0.074 C 
HETATM   21  N1  UNL     1     -18.467  -7.588 -14.290  1.00  0.00    -0.389 N 
ATOM     22  H12 UNL     1     -17.941  -8.105 -14.993  1.00  0.00     0.157 HD
ATOM     23  H11 UNL     1     -18.075  -7.344 -13.381  1.00  0.00     0.157 HD
BRANCH  20  24
HETATM   24  N6  UNL     1     -20.402  -6.514 -13.594  1.00  0.00    -0.371 N 
HETATM   25  C10 UNL     1     -21.365  -7.184 -12.755  1.00  0.00     0.124 C 
HETATM   26  C11 UNL     1     -21.677  -6.252 -11.593  1.00  0.00     0.020 C 
HETATM   27  C12 UNL     1     -22.268  -4.954 -12.060  1.00  0.00     0.003 C 
HETATM   28  C13 UNL     1     -21.642  -4.493 -13.377  1.00  0.00     0.020 C 
HETATM   29  C14 UNL     1     -20.227  -5.080 -13.382  1.00  0.00     0.124 C 
ENDBRANCH  20  24
ENDBRANCH  19  20
ENDBRANCH  18  19
ENDBRANCH   1  18
TORSDOF 5
ENDMDL
MODEL 3
REMARK VINA RESULT: -6.165628794      2.310      3.281
REMARK  5 active torsions:
REMARK  status: ('A' for Active; 'I' for Inactive)
REMARK    1  A    between atoms: C1_4  and  C2_5 
REMARK    2  A    between atoms: C1_4  and  N6_24 
REMARK    3  A    between atoms: C2_5  and  C3_6 
REMARK    4  A    between atoms: C3_6  and  N2_7 
REMARK       I    between atoms: N2_7  and  C4_9 
REMARK    5  A    between atoms: C4_9  and  C5_11 
ROOT
HETATM    1  N2  UNL     1     -16.364  -8.192 -13.584  1.00  0.00    -0.355 N 
ATOM      2  H2  UNL     1     -16.818  -8.582 -12.758  1.00  0.00     0.162 HD
HETATM    3  C4  UNL     1     -16.952  -7.109 -14.280  1.00  0.00     0.275 C 
HETATM    4  O1  UNL     1     -16.376  -6.631 -15.311  1.00  0.00    -0.265 OA
ENDROOT
BRANCH   3   5
HETATM    5  C5  UNL     1     -18.216  -6.546 -13.813  1.00  0.00     0.145 A 
HETATM    6  N3  UNL     1     -19.012  -7.087 -12.911  1.00  0.00    -0.339 N 
HETATM    7  C6  UNL     1     -20.115  -6.488 -12.577  1.00  0.00     0.136 A 
ATOM      8  H3  UNL     1     -18.761  -7.975 -12.477  1.00  0.00     0.167 HD
HETATM    9  C7  UNL     1     -21.064  -6.936 -11.635  1.00  0.00     0.276 A 
HETATM   10  C9  UNL     1     -20.407  -5.298 -13.187  1.00  0.00     0.109 A 
HETATM   11  O2  UNL     1     -20.913  -8.013 -11.005  1.00  0.00    -0.266 OA
HETATM   12  N4  UNL     1     -22.141  -6.190 -11.416  1.00  0.00    -0.318 N 
HETATM   13  C8  UNL     1     -22.436  -5.023 -12.010  1.00  0.00     0.184 A 
ATOM     14  H4  UNL     1     -22.810  -6.539 -10.730  1.00  0.00     0.169 HD
HETATM   15  N5  UNL     1     -21.537  -4.578 -12.916  1.00  0.00    -0.345 N 
ATOM     16  H5  UNL     1     -21.703  -3.696 -13.401  1.00  0.00     0.167 HD
HETATM   17  S1  UNL     1     -19.047  -5.115 -14.225  1.00  0.00    -0.046 SA
ENDBRANCH   3   5
BRANCH   1  18
HETATM   18  C3  UNL     1     -15.120  -8.734 -14.059  1.00  0.00     0.130 C 
BRANCH  18  19
HETATM   19  C2  UNL     1     -15.271 -10.111 -14.641  1.00  0.00     0.095 C 
BRANCH  19  20
HETATM   20  C1  UNL     1     -15.464 -10.028 -16.111  1.00  0.00     0.074 C 
HETATM   21  N1  UNL     1     -15.003  -9.010 -16.749  1.00  0.00    -0.389 N 
ATOM     22  H12 UNL     1     -14.516  -8.289 -16.218  1.00  0.00     0.157 HD
ATOM     23  H11 UNL     1     -15.135  -8.954 -17.758  1.00  0.00     0.157 HD
BRANCH  20  24
HETATM   24  N6  UNL     1     -16.140 -11.030 -16.848  1.00  0.00    -0.371 N 
HETATM   25  C10 UNL     1     -17.208 -10.683 -17.753  1.00  0.00     0.124 C 
HETATM   26  C11 UNL     1     -17.451 -11.890 -18.649  1.00  0.00     0.020 C 
HETATM   27  C12 UNL     1     -17.863 -13.098 -17.860  1.00  0.00     0.003 C 
HETATM   28  C13 UNL     1     -17.136 -13.166 -16.517  1.00  0.00     0.020 C 
HETATM   29  C14 UNL     1     -15.802 -12.446 -16.739  1.00  0.00     0.124 C 
ENDBRANCH  20  24
ENDBRANCH  19  20
ENDBRANCH  18  19
ENDBRANCH   1  18
TORSDOF 5
ENDMDL
MODEL 4
REMARK VINA RESULT: -6.130875380      6.141     11.265
REMARK  5 active torsions:
REMARK  status: ('A' for Active; 'I' for Inactive)
REMARK    1  A    between atoms: C1_4  and  C2_5 
REMARK    2  A    between atoms: C1_4  and  N6_24 
REMARK    3  A    between atoms: C2_5  and  C3_6 
REMARK    4  A    between atoms: C3_6  and  N2_7 
REMARK       I    between atoms: N2_7  and  C4_9 
REMARK    5  A    between atoms: C4_9  and  C5_11 
ROOT
HETATM    1  N2  UNL     1     -20.797  -1.782 -15.848  1.00  0.00    -0.355 N 
ATOM      2  H2  UNL     1     -20.868  -1.538 -14.859  1.00  0.00     0.162 HD
HETATM    3  C4  UNL     1     -20.724  -3.137 -16.248  1.00  0.00     0.275 C 
HETATM    4  O1  UNL     1     -20.636  -3.428 -17.484  1.00  0.00    -0.265 OA
ENDROOT
BRANCH   3   5
HETATM    5  C5  UNL     1     -20.750  -4.194 -15.241  1.00  0.00     0.145 A 
HETATM    6  N3  UNL     1     -21.266  -4.091 -14.031  1.00  0.00    -0.339 N 
HETATM    7  C6  UNL     1     -21.228  -5.106 -13.221  1.00  0.00     0.136 A 
ATOM      8  H3  UNL     1     -21.693  -3.214 -13.732  1.00  0.00     0.167 HD
HETATM    9  C7  UNL     1     -21.733  -5.152 -11.905  1.00  0.00     0.276 A 
HETATM   10  C9  UNL     1     -20.644  -6.259 -13.668  1.00  0.00     0.109 A 
HETATM   11  O2  UNL     1     -22.294  -4.158 -11.377  1.00  0.00    -0.266 OA
HETATM   12  N4  UNL     1     -21.608  -6.280 -11.217  1.00  0.00    -0.318 N 
HETATM   13  C8  UNL     1     -21.037  -7.416 -11.647  1.00  0.00     0.184 A 
ATOM     14  H4  UNL     1     -21.983  -6.284 -10.269  1.00  0.00     0.169 HD
HETATM   15  N5  UNL     1     -20.547  -7.391 -12.906  1.00  0.00    -0.345 N 
ATOM     16  H5  UNL     1     -20.101  -8.223 -13.292  1.00  0.00     0.167 HD
HETATM   17  S1  UNL     1     -20.175  -5.800 -15.259  1.00  0.00    -0.046 SA
ENDBRANCH   3   5
BRANCH   1  18
HETATM   18  C3  UNL     1     -20.770  -0.754 -16.853  1.00  0.00     0.130 C 
BRANCH  18  19
HETATM   19  C2  UNL     1     -22.131  -0.187 -17.140  1.00  0.00     0.095 C 
BRANCH  19  20
HETATM   20  C1  UNL     1     -22.481  -0.390 -18.569  1.00  0.00     0.074 C 
HETATM   21  N1  UNL     1     -22.036  -1.429 -19.184  1.00  0.00    -0.389 N 
ATOM     22  H12 UNL     1     -21.453  -2.084 -18.663  1.00  0.00     0.157 HD
ATOM     23  H11 UNL     1     -22.276  -1.568 -20.165  1.00  0.00     0.157 HD
BRANCH  20  24
HETATM   24  N6  UNL     1     -23.290   0.519 -19.291  1.00  0.00    -0.371 N 
HETATM   25  C10 UNL     1     -24.069   1.519 -18.602  1.00  0.00     0.124 C 
HETATM   26  C11 UNL     1     -24.500   2.548 -19.637  1.00  0.00     0.020 C 
HETATM   27  C12 UNL     1     -25.346   1.938 -20.715  1.00  0.00     0.003 C 
HETATM   28  C13 UNL     1     -24.879   0.524 -21.063  1.00  0.00     0.020 C 
HETATM   29  C14 UNL     1     -23.380   0.502 -20.748  1.00  0.00     0.124 C 
ENDBRANCH  20  24
ENDBRANCH  19  20
ENDBRANCH  18  19
ENDBRANCH   1  18
TORSDOF 5
ENDMDL
MODEL 5
REMARK VINA RESULT: -6.112480960      2.433      3.934
REMARK  5 active torsions:
REMARK  status: ('A' for Active; 'I' for Inactive)
REMARK    1  A    between atoms: C1_4  and  C2_5 
REMARK    2  A    between atoms: C1_4  and  N6_24 
REMARK    3  A    between atoms: C2_5  and  C3_6 
REMARK    4  A    between atoms: C3_6  and  N2_7 
REMARK       I    between atoms: N2_7  and  C4_9 
REMARK    5  A    between atoms: C4_9  and  C5_11 
ROOT
HETATM    1  N2  UNL     1     -16.499  -8.308 -13.817  1.00  0.00    -0.355 N 
ATOM      2  H2  UNL     1     -17.009  -8.770 -13.063  1.00  0.00     0.162 HD
HETATM    3  C4  UNL     1     -16.999  -7.116 -14.393  1.00  0.00     0.275 C 
HETATM    4  O1  UNL     1     -16.354  -6.548 -15.332  1.00  0.00    -0.265 OA
ENDROOT
BRANCH   3   5
HETATM    5  C5  UNL     1     -18.251  -6.543 -13.906  1.00  0.00     0.145 A 
HETATM    6  N3  UNL     1     -19.018  -7.059 -12.965  1.00  0.00    -0.339 N 
HETATM    7  C6  UNL     1     -20.113  -6.454 -12.617  1.00  0.00     0.136 A 
ATOM      8  H3  UNL     1     -18.750  -7.933 -12.512  1.00  0.00     0.167 HD
HETATM    9  C7  UNL     1     -21.032  -6.877 -11.635  1.00  0.00     0.276 A 
HETATM   10  C9  UNL     1     -20.429  -5.286 -13.255  1.00  0.00     0.109 A 
HETATM   11  O2  UNL     1     -20.858  -7.934 -10.977  1.00  0.00    -0.266 OA
HETATM   12  N4  UNL     1     -22.106  -6.129 -11.408  1.00  0.00    -0.318 N 
HETATM   13  C8  UNL     1     -22.424  -4.982 -12.028  1.00  0.00     0.184 A 
ATOM     14  H4  UNL     1     -22.753  -6.459 -10.692  1.00  0.00     0.169 HD
HETATM   15  N5  UNL     1     -21.554  -4.562 -12.973  1.00  0.00    -0.345 N 
ATOM     16  H5  UNL     1     -21.739  -3.696 -13.481  1.00  0.00     0.167 HD
HETATM   17  S1  UNL     1     -19.101  -5.129 -14.338  1.00  0.00    -0.046 SA
ENDBRANCH   3   5
BRANCH   1  18
HETATM   18  C3  UNL     1     -15.265  -8.858 -14.308  1.00  0.00     0.130 C 
BRANCH  18  19
HETATM   19  C2  UNL     1     -15.476 -10.028 -15.227  1.00  0.00     0.095 C 
BRANCH  19  20
HETATM   20  C1  UNL     1     -15.609  -9.562 -16.630  1.00  0.00     0.074 C 
HETATM   21  N1  UNL     1     -14.779  -8.691 -17.085  1.00  0.00    -0.389 N 
ATOM     22  H12 UNL     1     -14.049  -8.348 -16.460  1.00  0.00     0.157 HD
ATOM     23  H11 UNL     1     -14.870  -8.371 -18.049  1.00  0.00     0.157 HD
BRANCH  20  24
HETATM   24  N6  UNL     1     -16.622 -10.038 -17.497  1.00  0.00    -0.371 N 
HETATM   25  C10 UNL     1     -17.863  -9.318 -17.644  1.00  0.00     0.124 C 
HETATM   26  C11 UNL     1     -18.550  -9.853 -18.892  1.00  0.00     0.020 C 
HETATM   27  C12 UNL     1     -18.855 -11.317 -18.780  1.00  0.00     0.003 C 
HETATM   28  C13 UNL     1     -17.752 -12.064 -18.029  1.00  0.00     0.020 C 
HETATM   29  C14 UNL     1     -16.472 -11.261 -18.280  1.00  0.00     0.124 C 
ENDBRANCH  20  24
ENDBRANCH  19  20
ENDBRANCH  18  19
ENDBRANCH   1  18
TORSDOF 5
ENDMDL
