MODEL 1
REMARK VINA RESULT: -6.275329422      0.000      0.000
REMARK  6 active torsions:
REMARK  status: ('A' for Active; 'I' for Inactive)
REMARK    1  A    between atoms: C2_2  and  O1_3 
REMARK    2  A    between atoms: O1_3  and  C3_4 
REMARK    3  A    between atoms: C4_5  and  N1_6 
REMARK    4  A    between atoms: N2_9  and  C7_10 
REMARK    5  A    between atoms: C11_17  and  N4_18 
REMARK    6  A    between atoms: C12_23  and  N6_24 
ROOT
HETATM    1  C3  UNL     1     -19.029  -5.845 -15.598  1.00  0.00     0.120 A 
HETATM    2  C4  UNL     1     -18.356  -6.821 -14.904  1.00  0.00     0.138 A 
HETATM    3  N3  UNL     1     -18.759  -7.248 -13.690  1.00  0.00    -0.335 N 
ATOM      4  H3  UNL     1     -18.229  -7.975 -13.210  1.00  0.00     0.168 HD
HETATM    5  C10 UNL     1     -19.858  -6.723 -13.103  1.00  0.00     0.106 A 
HETATM    6  C11 UNL     1     -20.308  -7.121 -11.875  1.00  0.00     0.144 A 
HETATM    7  N5  UNL     1     -21.426  -6.545 -11.344  1.00  0.00    -0.175 N 
ATOM      8  H5  UNL     1     -21.758  -6.844 -10.427  1.00  0.00     0.186 HD
HETATM    9  C12 UNL     1     -22.096  -5.590 -12.011  1.00  0.00     0.678 A 
HETATM   10  N7  UNL     1     -21.656  -5.198 -13.217  1.00  0.00    -0.189 N 
ATOM     11  H7  UNL     1     -22.165  -4.473 -13.722  1.00  0.00     0.184 HD
HETATM   12  C13 UNL     1     -20.555  -5.742 -13.775  1.00  0.00     0.088 A 
HETATM   13  C14 UNL     1     -20.150  -5.298 -15.020  1.00  0.00     0.005 A 
HETATM   14  C15 UNL     1     -20.904  -4.252 -15.722  1.00  0.00     0.054 C 
ENDROOT
BRANCH   2  15
HETATM   15  N1  UNL     1     -17.192  -7.415 -15.463  1.00  0.00    -0.362 N 
HETATM   16  C5  UNL     1     -15.895  -6.786 -15.404  1.00  0.00     0.144 C 
HETATM   17  C6  UNL     1     -14.882  -7.703 -14.769  1.00  0.00     0.145 C 
HETATM   18  N2  UNL     1     -15.182  -9.106 -15.095  1.00  0.00    -0.356 N 
HETATM   19  C8  UNL     1     -16.041  -9.426 -16.201  1.00  0.00     0.145 C 
HETATM   20  C9  UNL     1     -17.363  -8.710 -16.111  1.00  0.00     0.144 C 
BRANCH  18  21
HETATM   21  C7  UNL     1     -14.580 -10.091 -14.266  1.00  0.00     0.350 C 
HETATM   22  O2  UNL     1     -14.230 -11.217 -14.680  1.00  0.00    -0.284 OA
ENDBRANCH  18  21
ENDBRANCH   2  15
BRANCH   1  23
HETATM   23  O1  UNL     1     -18.574  -5.448 -16.832  1.00  0.00    -0.347 OA
BRANCH  23  24
HETATM   24  C2  UNL     1     -19.014  -6.020 -18.050  1.00  0.00     0.171 C 
HETATM   25  C1  UNL     1     -17.870  -6.350 -18.966  1.00  0.00     0.034 C 
ENDBRANCH  23  24
ENDBRANCH   1  23
BRANCH   6  26
HETATM   26  N4  UNL     1     -19.691  -8.031 -11.214  1.00  0.00    -0.383 N 
ATOM     27  H42 UNL     1     -18.674  -7.995 -11.140  1.00  0.00     0.157 HD
ATOM     28  H41 UNL     1     -20.206  -8.787 -10.763  1.00  0.00     0.157 HD
ENDBRANCH   6  26
BRANCH   9  29
HETATM   29  N6  UNL     1     -23.161  -5.033 -11.522  1.00  0.00    -0.234 N 
ATOM     30  H62 UNL     1     -23.935  -5.628 -11.226  1.00  0.00     0.174 HD
ATOM     31  H61 UNL     1     -23.242  -4.020 -11.426  1.00  0.00     0.174 HD
ENDBRANCH   9  29
TORSDOF 6
ENDMDL
MODEL 2
REMARK VINA RESULT: -6.151596973      1.275      1.400
REMARK  6 active torsions:
REMARK  status: ('A' for Active; 'I' for Inactive)
REMARK    1  A    between atoms: C2_2  and  O1_3 
REMARK    2  A    between atoms: O1_3  and  C3_4 
REMARK    3  A    between atoms: C4_5  and  N1_6 
REMARK    4  A    between atoms: N2_9  and  C7_10 
REMARK    5  A    between atoms: C11_17  and  N4_18 
REMARK    6  A    between atoms: C12_23  and  N6_24 
ROOT
HETATM    1  C3  UNL     1     -19.242  -5.963 -15.745  1.00  0.00     0.120 A 
HETATM    2  C4  UNL     1     -18.613  -7.021 -15.134  1.00  0.00     0.138 A 
HETATM    3  N3  UNL     1     -18.955  -7.446 -13.901  1.00  0.00    -0.335 N 
ATOM      4  H3  UNL     1     -18.462  -8.235 -13.485  1.00  0.00     0.168 HD
HETATM    5  C10 UNL     1     -19.944  -6.837 -13.209  1.00  0.00     0.106 A 
HETATM    6  C11 UNL     1     -20.328  -7.228 -11.958  1.00  0.00     0.144 A 
HETATM    7  N5  UNL     1     -21.336  -6.564 -11.319  1.00  0.00    -0.175 N 
ATOM      8  H5  UNL     1     -21.619  -6.860 -10.384  1.00  0.00     0.186 HD
HETATM    9  C12 UNL     1     -21.961  -5.528 -11.904  1.00  0.00     0.678 A 
HETATM   10  N7  UNL     1     -21.586  -5.142 -13.133  1.00  0.00    -0.189 N 
ATOM     11  H7  UNL     1     -22.061  -4.355 -13.575  1.00  0.00     0.184 HD
HETATM   12  C13 UNL     1     -20.594  -5.771 -13.797  1.00  0.00     0.088 A 
HETATM   13  C14 UNL     1     -20.251  -5.329 -15.060  1.00  0.00     0.005 A 
HETATM   14  C15 UNL     1     -20.954  -4.193 -15.670  1.00  0.00     0.054 C 
ENDROOT
BRANCH   2  15
HETATM   15  N1  UNL     1     -17.564  -7.707 -15.805  1.00  0.00    -0.362 N 
HETATM   16  C5  UNL     1     -16.227  -7.793 -15.270  1.00  0.00     0.144 C 
HETATM   17  C6  UNL     1     -15.788  -9.230 -15.154  1.00  0.00     0.145 C 
HETATM   18  N2  UNL     1     -16.371 -10.035 -16.238  1.00  0.00    -0.356 N 
HETATM   19  C8  UNL     1     -16.891  -9.398 -17.416  1.00  0.00     0.145 C 
HETATM   20  C9  UNL     1     -17.898  -8.331 -17.079  1.00  0.00     0.144 C 
BRANCH  18  21
HETATM   21  C7  UNL     1     -16.383 -11.444 -16.043  1.00  0.00     0.350 C 
HETATM   22  O2  UNL     1     -17.256 -12.196 -16.527  1.00  0.00    -0.284 OA
ENDBRANCH  18  21
ENDBRANCH   2  15
BRANCH   1  23
HETATM   23  O1  UNL     1     -18.854  -5.572 -17.004  1.00  0.00    -0.347 OA
BRANCH  23  24
HETATM   24  C2  UNL     1     -17.835  -4.621 -17.249  1.00  0.00     0.171 C 
HETATM   25  C1  UNL     1     -18.276  -3.552 -18.208  1.00  0.00     0.034 C 
ENDBRANCH  23  24
ENDBRANCH   1  23
BRANCH   6  26
HETATM   26  N4  UNL     1     -19.751  -8.214 -11.374  1.00  0.00    -0.383 N 
ATOM     27  H42 UNL     1     -19.451  -9.018 -11.925  1.00  0.00     0.157 HD
ATOM     28  H41 UNL     1     -19.591  -8.201 -10.366  1.00  0.00     0.157 HD
ENDBRANCH   6  26
BRANCH   9  29
HETATM   29  N6  UNL     1     -22.921  -4.887 -11.312  1.00  0.00    -0.234 N 
ATOM     30  H62 UNL     1     -23.242  -5.214 -10.401  1.00  0.00     0.174 HD
ATOM     31  H61 UNL     1     -23.360  -4.068 -11.734  1.00  0.00     0.174 HD
ENDBRANCH   9  29
TORSDOF 6
ENDMDL
MODEL 3
REMARK VINA RESULT: -6.065180359      1.799      2.265
REMARK  6 active torsions:
REMARK  status: ('A' for Active; 'I' for Inactive)
REMARK    1  A    between atoms: C2_2  and  O1_3 
REMARK    2  A    between atoms: O1_3  and  C3_4 
REMARK    3  A    between atoms: C4_5  and  N1_6 
REMARK    4  A    between atoms: N2_9  and  C7_10 
REMARK    5  A    between atoms: C11_17  and  N4_18 
REMARK    6  A    between atoms: C12_23  and  N6_24 
ROOT
HETATM    1  C3  UNL     1     -19.104  -6.008 -15.673  1.00  0.00     0.120 A 
HETATM    2  C4  UNL     1     -18.433  -6.981 -14.973  1.00  0.00     0.138 A 
HETATM    3  N3  UNL     1     -18.812  -7.368 -13.738  1.00  0.00    -0.335 N 
ATOM      4  H3  UNL     1     -18.285  -8.094 -13.253  1.00  0.00     0.168 HD
HETATM    5  C10 UNL     1     -19.882  -6.804 -13.134  1.00  0.00     0.106 A 
HETATM    6  C11 UNL     1     -20.306  -7.160 -11.885  1.00  0.00     0.144 A 
HETATM    7  N5  UNL     1     -21.396  -6.546 -11.338  1.00  0.00    -0.175 N 
ATOM      8  H5  UNL     1     -21.709  -6.815 -10.405  1.00  0.00     0.186 HD
HETATM    9  C12 UNL     1     -22.063  -5.593 -12.012  1.00  0.00     0.678 A 
HETATM   10  N7  UNL     1     -21.649  -5.242 -13.238  1.00  0.00    -0.189 N 
ATOM     11  H7  UNL     1     -22.156  -4.518 -13.748  1.00  0.00     0.184 HD
HETATM   12  C13 UNL     1     -20.576  -5.824 -13.813  1.00  0.00     0.088 A 
HETATM   13  C14 UNL     1     -20.196  -5.421 -15.079  1.00  0.00     0.005 A 
HETATM   14  C15 UNL     1     -20.946  -4.376 -15.787  1.00  0.00     0.054 C 
ENDROOT
BRANCH   2  15
HETATM   15  N1  UNL     1     -17.298  -7.615 -15.548  1.00  0.00    -0.362 N 
HETATM   16  C5  UNL     1     -17.411  -8.693 -16.500  1.00  0.00     0.144 C 
HETATM   17  C6  UNL     1     -16.667  -8.368 -17.769  1.00  0.00     0.145 C 
HETATM   18  N2  UNL     1     -15.476  -7.557 -17.474  1.00  0.00    -0.356 N 
HETATM   19  C8  UNL     1     -14.943  -7.510 -16.141  1.00  0.00     0.145 C 
HETATM   20  C9  UNL     1     -15.991  -7.125 -15.130  1.00  0.00     0.144 C 
BRANCH  18  21
HETATM   21  C7  UNL     1     -14.908  -6.846 -18.566  1.00  0.00     0.350 C 
HETATM   22  O2  UNL     1     -14.589  -5.639 -18.508  1.00  0.00    -0.284 OA
ENDBRANCH  18  21
ENDBRANCH   2  15
BRANCH   1  23
HETATM   23  O1  UNL     1     -18.675  -5.652 -16.929  1.00  0.00    -0.347 OA
BRANCH  23  24
HETATM   24  C2  UNL     1     -17.746  -4.613 -17.174  1.00  0.00     0.171 C 
HETATM   25  C1  UNL     1     -17.855  -4.073 -18.572  1.00  0.00     0.034 C 
ENDBRANCH  23  24
ENDBRANCH   1  23
BRANCH   6  26
HETATM   26  N4  UNL     1     -19.691  -8.067 -11.218  1.00  0.00    -0.383 N 
ATOM     27  H42 UNL     1     -20.178  -8.930 -10.975  1.00  0.00     0.157 HD
ATOM     28  H41 UNL     1     -18.722  -7.933 -10.929  1.00  0.00     0.157 HD
ENDBRANCH   6  26
BRANCH   9  29
HETATM   29  N6  UNL     1     -23.101  -5.000 -11.508  1.00  0.00    -0.234 N 
ATOM     30  H62 UNL     1     -23.780  -5.555 -10.987  1.00  0.00     0.174 HD
ATOM     31  H61 UNL     1     -23.254  -3.997 -11.619  1.00  0.00     0.174 HD
ENDBRANCH   9  29
TORSDOF 6
ENDMDL
MODEL 4
REMARK VINA RESULT: -5.703777136      2.453      6.376
REMARK  6 active torsions:
REMARK  status: ('A' for Active; 'I' for Inactive)
REMARK    1  A    between atoms: C2_2  and  O1_3 
REMARK    2  A    between atoms: O1_3  and  C3_4 
REMARK    3  A    between atoms: C4_5  and  N1_6 
REMARK    4  A    between atoms: N2_9  and  C7_10 
REMARK    5  A    between atoms: C11_17  and  N4_18 
REMARK    6  A    between atoms: C12_23  and  N6_24 
ROOT
HETATM    1  C3  UNL     1     -18.115  -5.647 -14.316  1.00  0.00     0.120 A 
HETATM    2  C4  UNL     1     -18.290  -6.894 -13.766  1.00  0.00     0.138 A 
HETATM    3  N3  UNL     1     -17.383  -7.880 -13.917  1.00  0.00    -0.335 N 
ATOM      4  H3  UNL     1     -17.553  -8.791 -13.492  1.00  0.00     0.168 HD
HETATM    5  C10 UNL     1     -16.250  -7.674 -14.626  1.00  0.00     0.106 A 
HETATM    6  C11 UNL     1     -15.300  -8.640 -14.808  1.00  0.00     0.144 A 
HETATM    7  N5  UNL     1     -14.180  -8.359 -15.536  1.00  0.00    -0.175 N 
ATOM      8  H5  UNL     1     -13.474  -9.083 -15.671  1.00  0.00     0.186 HD
HETATM    9  C12 UNL     1     -13.994  -7.144 -16.080  1.00  0.00     0.678 A 
HETATM   10  N7  UNL     1     -14.925  -6.194 -15.902  1.00  0.00    -0.189 N 
ATOM     11  H7  UNL     1     -14.783  -5.273 -16.315  1.00  0.00     0.184 HD
HETATM   12  C13 UNL     1     -16.046  -6.432 -15.189  1.00  0.00     0.088 A 
HETATM   13  C14 UNL     1     -16.970  -5.415 -15.040  1.00  0.00     0.005 A 
HETATM   14  C15 UNL     1     -16.737  -4.099 -15.647  1.00  0.00     0.054 C 
ENDROOT
BRANCH   2  15
HETATM   15  N1  UNL     1     -19.459  -7.178 -13.010  1.00  0.00    -0.362 N 
HETATM   16  C5  UNL     1     -19.521  -6.999 -11.580  1.00  0.00     0.144 C 
HETATM   17  C6  UNL     1     -20.667  -6.096 -11.201  1.00  0.00     0.145 C 
HETATM   18  N2  UNL     1     -21.793  -6.277 -12.129  1.00  0.00    -0.356 N 
HETATM   19  C8  UNL     1     -21.875  -7.453 -12.950  1.00  0.00     0.145 C 
HETATM   20  C9  UNL     1     -20.616  -7.669 -13.749  1.00  0.00     0.144 C 
BRANCH  18  21
HETATM   21  C7  UNL     1     -22.765  -5.240 -12.155  1.00  0.00     0.350 C 
HETATM   22  O2  UNL     1     -22.473  -4.025 -12.169  1.00  0.00    -0.284 OA
ENDBRANCH  18  21
ENDBRANCH   2  15
BRANCH   1  23
HETATM   23  O1  UNL     1     -19.072  -4.678 -14.131  1.00  0.00    -0.347 OA
BRANCH  23  24
HETATM   24  C2  UNL     1     -20.135  -4.445 -15.035  1.00  0.00     0.171 C 
HETATM   25  C1  UNL     1     -20.532  -2.997 -15.082  1.00  0.00     0.034 C 
ENDBRANCH  23  24
ENDBRANCH   1  23
BRANCH   6  26
HETATM   26  N4  UNL     1     -15.448  -9.809 -14.301  1.00  0.00    -0.383 N 
ATOM     27  H42 UNL     1     -14.807 -10.556 -14.568  1.00  0.00     0.157 HD
ATOM     28  H41 UNL     1     -16.199  -9.997 -13.637  1.00  0.00     0.157 HD
ENDBRANCH   6  26
BRANCH   9  29
HETATM   29  N6  UNL     1     -12.935  -6.860 -16.774  1.00  0.00    -0.234 N 
ATOM     30  H62 UNL     1     -12.193  -7.556 -16.845  1.00  0.00     0.174 HD
ATOM     31  H61 UNL     1     -12.828  -5.963 -17.248  1.00  0.00     0.174 HD
ENDBRANCH   9  29
TORSDOF 6
ENDMDL
MODEL 5
REMARK VINA RESULT: -5.585476533      1.810      2.165
REMARK  6 active torsions:
REMARK  status: ('A' for Active; 'I' for Inactive)
REMARK    1  A    between atoms: C2_2  and  O1_3 
REMARK    2  A    between atoms: O1_3  and  C3_4 
REMARK    3  A    between atoms: C4_5  and  N1_6 
REMARK    4  A    between atoms: N2_9  and  C7_10 
REMARK    5  A    between atoms: C11_17  and  N4_18 
REMARK    6  A    between atoms: C12_23  and  N6_24 
ROOT
HETATM    1  C3  UNL     1     -19.771  -4.895 -16.179  1.00  0.00     0.120 A 
HETATM    2  C4  UNL     1     -19.355  -6.192 -15.998  1.00  0.00     0.138 A 
HETATM    3  N3  UNL     1     -19.697  -6.911 -14.910  1.00  0.00    -0.335 N 
ATOM      4  H3  UNL     1     -19.367  -7.872 -14.817  1.00  0.00     0.168 HD
HETATM    5  C10 UNL     1     -20.473  -6.375 -13.942  1.00  0.00     0.106 A 
HETATM    6  C11 UNL     1     -20.847  -7.061 -12.821  1.00  0.00     0.144 A 
HETATM    7  N5  UNL     1     -21.633  -6.453 -11.885  1.00  0.00    -0.175 N 
ATOM      8  H5  UNL     1     -21.910  -6.970 -11.049  1.00  0.00     0.186 HD
HETATM    9  C12 UNL     1     -22.048  -5.186 -12.048  1.00  0.00     0.678 A 
HETATM   10  N7  UNL     1     -21.683  -4.509 -13.147  1.00  0.00    -0.189 N 
ATOM     11  H7  UNL     1     -21.998  -3.547 -13.269  1.00  0.00     0.184 HD
HETATM   12  C13 UNL     1     -20.907  -5.074 -14.095  1.00  0.00     0.088 A 
HETATM   13  C14 UNL     1     -20.562  -4.329 -15.207  1.00  0.00     0.005 A 
HETATM   14  C15 UNL     1     -21.031  -2.945 -15.354  1.00  0.00     0.054 C 
ENDROOT
BRANCH   2  15
HETATM   15  N1  UNL     1     -18.537  -6.818 -16.977  1.00  0.00    -0.362 N 
HETATM   16  C5  UNL     1     -17.112  -6.602 -17.051  1.00  0.00     0.144 C 
HETATM   17  C6  UNL     1     -16.367  -7.910 -16.989  1.00  0.00     0.145 C 
HETATM   18  N2  UNL     1     -17.144  -8.976 -17.639  1.00  0.00    -0.356 N 
HETATM   19  C8  UNL     1     -18.210  -8.648 -18.545  1.00  0.00     0.145 C 
HETATM   20  C9  UNL     1     -19.205  -7.704 -17.922  1.00  0.00     0.144 C 
BRANCH  18  21
HETATM   21  C7  UNL     1     -16.778 -10.311 -17.318  1.00  0.00     0.350 C 
HETATM   22  O2  UNL     1     -16.965 -10.824 -16.194  1.00  0.00    -0.284 OA
ENDBRANCH  18  21
ENDBRANCH   2  15
BRANCH   1  23
HETATM   23  O1  UNL     1     -19.394  -4.207 -17.307  1.00  0.00    -0.347 OA
BRANCH  23  24
HETATM   24  C2  UNL     1     -20.082  -4.290 -18.540  1.00  0.00     0.171 C 
HETATM   25  C1  UNL     1     -20.820  -3.021 -18.863  1.00  0.00     0.034 C 
ENDBRANCH  23  24
ENDBRANCH   1  23
BRANCH   6  26
HETATM   26  N4  UNL     1     -20.468  -8.273 -12.638  1.00  0.00    -0.383 N 
ATOM     27  H42 UNL     1     -20.104  -8.810 -13.425  1.00  0.00     0.157 HD
ATOM     28  H41 UNL     1     -20.528  -8.703 -11.715  1.00  0.00     0.157 HD
ENDBRANCH   6  26
BRANCH   9  29
HETATM   29  N6  UNL     1     -22.796  -4.593 -11.168  1.00  0.00    -0.234 N 
ATOM     30  H62 UNL     1     -22.454  -4.503 -10.212  1.00  0.00     0.174 HD
ATOM     31  H61 UNL     1     -23.713  -4.216 -11.409  1.00  0.00     0.174 HD
ENDBRANCH   9  29
TORSDOF 6
ENDMDL
