MODEL 1
REMARK VINA RESULT: -5.710014041      0.000      0.000
REMARK  9 active torsions:
REMARK  status: ('A' for Active; 'I' for Inactive)
REMARK    1  A    between atoms: N2_5  and  C3_6 
REMARK    2  A    between atoms: C3_6  and  C4_7 
REMARK    3  A    between atoms: C4_7  and  O1_8 
REMARK    4  A    between atoms: C6_11  and  C7_12 
REMARK    5  A    between atoms: C11_17  and  C12_18 
REMARK    6  A    between atoms: C12_18  and  C13_19 
REMARK    7  A    between atoms: C16_24  and  N4_25 
REMARK    8  A    between atoms: C17_30  and  N6_31 
REMARK    9  A    between atoms: C18_34  and  N7_35 
ROOT
HETATM    1  C7  UNL     1      -6.133  47.333 -11.904  1.00  0.00     0.005 A 
HETATM    2  C8  UNL     1      -6.286  48.719 -11.610  1.00  0.00     0.018 A 
HETATM    3  C9  UNL     1      -5.489  49.287 -10.681  1.00  0.00     0.044 A 
HETATM    4  C10 UNL     1      -4.530  48.529 -10.017  1.00  0.00     0.125 A 
HETATM    5  F1  UNL     1      -3.753  49.223  -9.129  1.00  0.00    -0.205 F 
HETATM    6  C11 UNL     1      -4.391  47.209 -10.301  1.00  0.00     0.013 A 
HETATM    7  C18 UNL     1      -5.216  46.569 -11.283  1.00  0.00     0.058 A 
ENDROOT
BRANCH   6   8
HETATM    8  C12 UNL     1      -3.464  46.334  -9.590  1.00  0.00     0.088 C 
BRANCH   8   9
HETATM    9  C13 UNL     1      -2.133  46.853  -9.275  1.00  0.00     0.013 A 
HETATM   10  C14 UNL     1      -1.738  47.318  -8.035  1.00  0.00     0.033 A 
HETATM   11  C15 UNL     1      -2.654  47.303  -6.857  1.00  0.00     0.069 C 
HETATM   12  N3  UNL     1      -0.469  47.774  -7.883  1.00  0.00    -0.196 N 
HETATM   13  C16 UNL     1       0.417  47.788  -8.891  1.00  0.00     0.677 A 
ATOM     14  H3  UNL     1      -0.178  48.120  -6.969  1.00  0.00     0.184 HD
HETATM   15  N5  UNL     1       0.065  47.339 -10.112  1.00  0.00    -0.177 N 
HETATM   16  C17 UNL     1      -1.185  46.880 -10.298  1.00  0.00     0.123 A 
ATOM     17  H5  UNL     1       0.735  47.346 -10.880  1.00  0.00     0.185 HD
BRANCH  13  18
HETATM   18  N4  UNL     1       1.630  48.222  -8.785  1.00  0.00    -0.234 N 
ATOM     19  H42 UNL     1       1.761  49.012  -8.153  1.00  0.00     0.174 HD
ATOM     20  H41 UNL     1       2.427  47.821  -9.279  1.00  0.00     0.174 HD
ENDBRANCH  13  18
BRANCH  16  21
HETATM   21  N6  UNL     1      -1.510  46.434 -11.487  1.00  0.00    -0.385 N 
ATOM     22  H62 UNL     1      -1.614  45.428 -11.612  1.00  0.00     0.157 HD
ATOM     23  H61 UNL     1      -1.657  47.099 -12.247  1.00  0.00     0.157 HD
ENDBRANCH  16  21
ENDBRANCH   8   9
ENDBRANCH   6   8
BRANCH   7  24
HETATM   24  N7  UNL     1      -4.992  45.216 -11.612  1.00  0.00    -0.314 N 
HETATM   25  C19 UNL     1      -5.499  44.144 -10.729  1.00  0.00     0.160 C 
HETATM   26  C20 UNL     1      -6.013  42.994 -11.583  1.00  0.00     0.253 C 
HETATM   27  N8  UNL     1      -4.931  42.512 -12.397  1.00  0.00    -0.065 N 
HETATM   28  C21 UNL     1      -4.659  43.465 -13.424  1.00  0.00     0.335 C 
ATOM     29  H82 UNL     1      -4.103  42.287 -11.847  1.00  0.00     0.277 HD
ATOM     30  H81 UNL     1      -5.113  41.581 -12.771  1.00  0.00     0.277 HD
HETATM   31  C22 UNL     1      -4.345  44.775 -12.771  1.00  0.00     0.250 C 
HETATM   32  O2  UNL     1      -3.469  45.465 -13.317  1.00  0.00    -0.271 OA
ENDBRANCH   7  24
BRANCH   1  33
HETATM   33  C6  UNL     1      -7.012  46.854 -12.958  1.00  0.00     0.017 A 
HETATM   34  C2  UNL     1      -8.182  46.165 -12.811  1.00  0.00     0.034 A 
HETATM   35  C1  UNL     1      -8.819  45.608 -11.558  1.00  0.00     0.070 C 
HETATM   36  N1  UNL     1      -8.732  46.020 -14.043  1.00  0.00    -0.302 N 
HETATM   37  N2  UNL     1      -7.981  46.577 -14.973  1.00  0.00    -0.300 N 
ATOM     38  H1  UNL     1      -9.614  45.543 -14.227  1.00  0.00     0.186 HD
HETATM   39  C5  UNL     1      -6.920  47.095 -14.327  1.00  0.00     0.124 A 
BRANCH  37  40
HETATM   40  C3  UNL     1      -8.255  46.643 -16.408  1.00  0.00     0.174 C 
BRANCH  40  41
HETATM   41  C4  UNL     1      -9.733  47.042 -16.617  1.00  0.00     0.185 C 
BRANCH  41  42
HETATM   42  O1  UNL     1     -10.024  48.092 -15.765  1.00  0.00    -0.399 OA
ATOM     43  H1  UNL     1     -10.200  47.736 -14.901  1.00  0.00     0.209 HD
ENDBRANCH  41  42
ENDBRANCH  40  41
ENDBRANCH  37  40
ENDBRANCH   1  33
TORSDOF 9
ENDMDL
MODEL 2
REMARK VINA RESULT: -5.704501625      1.157      1.661
REMARK  9 active torsions:
REMARK  status: ('A' for Active; 'I' for Inactive)
REMARK    1  A    between atoms: N2_5  and  C3_6 
REMARK    2  A    between atoms: C3_6  and  C4_7 
REMARK    3  A    between atoms: C4_7  and  O1_8 
REMARK    4  A    between atoms: C6_11  and  C7_12 
REMARK    5  A    between atoms: C11_17  and  C12_18 
REMARK    6  A    between atoms: C12_18  and  C13_19 
REMARK    7  A    between atoms: C16_24  and  N4_25 
REMARK    8  A    between atoms: C17_30  and  N6_31 
REMARK    9  A    between atoms: C18_34  and  N7_35 
ROOT
HETATM    1  C7  UNL     1      -6.322  47.738 -11.912  1.00  0.00     0.005 A 
HETATM    2  C8  UNL     1      -6.304  49.141 -11.660  1.00  0.00     0.018 A 
HETATM    3  C9  UNL     1      -5.389  49.645 -10.806  1.00  0.00     0.044 A 
HETATM    4  C10 UNL     1      -4.474  48.807 -10.178  1.00  0.00     0.125 A 
HETATM    5  F1  UNL     1      -3.568  49.438  -9.369  1.00  0.00    -0.205 F 
HETATM    6  C11 UNL     1      -4.497  47.472 -10.421  1.00  0.00     0.013 A 
HETATM    7  C18 UNL     1      -5.451  46.897 -11.324  1.00  0.00     0.058 A 
ENDROOT
BRANCH   6   8
HETATM    8  C12 UNL     1      -3.623  46.522  -9.741  1.00  0.00     0.088 C 
BRANCH   8   9
HETATM    9  C13 UNL     1      -2.278  46.967  -9.372  1.00  0.00     0.013 A 
HETATM   10  C14 UNL     1      -1.891  47.352  -8.103  1.00  0.00     0.033 A 
HETATM   11  C15 UNL     1      -2.832  47.317  -6.945  1.00  0.00     0.069 C 
HETATM   12  N3  UNL     1      -0.608  47.745  -7.903  1.00  0.00    -0.196 N 
HETATM   13  C16 UNL     1       0.300  47.771  -8.891  1.00  0.00     0.677 A 
ATOM     14  H3  UNL     1      -0.323  48.032  -6.967  1.00  0.00     0.184 HD
HETATM   15  N5  UNL     1      -0.043  47.399 -10.140  1.00  0.00    -0.177 N 
HETATM   16  C17 UNL     1      -1.307  47.005 -10.374  1.00  0.00     0.123 A 
ATOM     17  H5  UNL     1       0.643  47.417 -10.894  1.00  0.00     0.185 HD
BRANCH  13  18
HETATM   18  N4  UNL     1       1.527  48.147  -8.739  1.00  0.00    -0.234 N 
ATOM     19  H42 UNL     1       1.693  49.151  -8.808  1.00  0.00     0.174 HD
ATOM     20  H41 UNL     1       2.302  47.509  -8.553  1.00  0.00     0.174 HD
ENDBRANCH  13  18
BRANCH  16  21
HETATM   21  N6  UNL     1      -1.624  46.634 -11.591  1.00  0.00    -0.385 N 
ATOM     22  H62 UNL     1      -2.572  46.300 -11.760  1.00  0.00     0.157 HD
ATOM     23  H61 UNL     1      -0.924  46.696 -12.331  1.00  0.00     0.157 HD
ENDBRANCH  16  21
ENDBRANCH   8   9
ENDBRANCH   6   8
BRANCH   7  24
HETATM   24  N7  UNL     1      -5.396  45.518 -11.616  1.00  0.00    -0.314 N 
HETATM   25  C19 UNL     1      -6.147  44.554 -10.786  1.00  0.00     0.160 C 
HETATM   26  C20 UNL     1      -6.732  43.472 -11.680  1.00  0.00     0.253 C 
HETATM   27  N8  UNL     1      -5.653  42.818 -12.370  1.00  0.00    -0.065 N 
HETATM   28  C21 UNL     1      -5.136  43.696 -13.369  1.00  0.00     0.335 C 
ATOM     29  H82 UNL     1      -4.930  42.487 -11.732  1.00  0.00     0.277 HD
ATOM     30  H81 UNL     1      -5.930  41.914 -12.754  1.00  0.00     0.277 HD
HETATM   31  C22 UNL     1      -4.703  44.960 -12.695  1.00  0.00     0.250 C 
HETATM   32  O2  UNL     1      -3.681  45.502 -13.148  1.00  0.00    -0.271 OA
ENDBRANCH   7  24
BRANCH   1  33
HETATM   33  C6  UNL     1      -7.317  47.327 -12.888  1.00  0.00     0.017 A 
HETATM   34  C2  UNL     1      -7.156  47.218 -14.240  1.00  0.00     0.034 A 
HETATM   35  C1  UNL     1      -5.974  47.599 -15.101  1.00  0.00     0.070 C 
HETATM   36  N1  UNL     1      -8.299  46.693 -14.749  1.00  0.00    -0.302 N 
HETATM   37  N2  UNL     1      -9.186  46.461 -13.800  1.00  0.00    -0.300 N 
ATOM     38  H1  UNL     1      -8.454  46.502 -15.739  1.00  0.00     0.186 HD
HETATM   39  C5  UNL     1      -8.602  46.843 -12.650  1.00  0.00     0.124 A 
BRANCH  37  40
HETATM   40  C3  UNL     1     -10.519  45.882 -13.960  1.00  0.00     0.174 C 
BRANCH  40  41
HETATM   41  C4  UNL     1     -10.436  44.359 -13.711  1.00  0.00     0.185 C 
BRANCH  41  42
HETATM   42  O1  UNL     1      -9.308  43.876 -14.347  1.00  0.00    -0.399 OA
ATOM     43  H1  UNL     1      -9.043  43.072 -13.916  1.00  0.00     0.209 HD
ENDBRANCH  41  42
ENDBRANCH  40  41
ENDBRANCH  37  40
ENDBRANCH   1  33
TORSDOF 9
ENDMDL
MODEL 3
REMARK VINA RESULT: -5.532664369      3.422      7.116
REMARK  9 active torsions:
REMARK  status: ('A' for Active; 'I' for Inactive)
REMARK    1  A    between atoms: N2_5  and  C3_6 
REMARK    2  A    between atoms: C3_6  and  C4_7 
REMARK    3  A    between atoms: C4_7  and  O1_8 
REMARK    4  A    between atoms: C6_11  and  C7_12 
REMARK    5  A    between atoms: C11_17  and  C12_18 
REMARK    6  A    between atoms: C12_18  and  C13_19 
REMARK    7  A    between atoms: C16_24  and  N4_25 
REMARK    8  A    between atoms: C17_30  and  N6_31 
REMARK    9  A    between atoms: C18_34  and  N7_35 
ROOT
HETATM    1  C7  UNL     1      -2.663  44.937 -12.811  1.00  0.00     0.005 A 
HETATM    2  C8  UNL     1      -3.019  44.913 -14.190  1.00  0.00     0.018 A 
HETATM    3  C9  UNL     1      -3.551  46.018 -14.753  1.00  0.00     0.044 A 
HETATM    4  C10 UNL     1      -3.750  47.168 -13.997  1.00  0.00     0.125 A 
HETATM    5  F1  UNL     1      -4.254  48.238 -14.687  1.00  0.00    -0.205 F 
HETATM    6  C11 UNL     1      -3.410  47.184 -12.683  1.00  0.00     0.013 A 
HETATM    7  C18 UNL     1      -2.840  46.032 -12.048  1.00  0.00     0.058 A 
ENDROOT
BRANCH   6   8
HETATM    8  C12 UNL     1      -3.662  48.325 -11.808  1.00  0.00     0.088 C 
BRANCH   8   9
HETATM    9  C13 UNL     1      -4.949  49.010 -11.925  1.00  0.00     0.013 A 
HETATM   10  C14 UNL     1      -6.165  48.486 -11.530  1.00  0.00     0.033 A 
HETATM   11  C15 UNL     1      -6.276  47.139 -10.896  1.00  0.00     0.069 C 
HETATM   12  N3  UNL     1      -7.285  49.233 -11.699  1.00  0.00    -0.196 N 
HETATM   13  C16 UNL     1      -7.255  50.464 -12.233  1.00  0.00     0.677 A 
ATOM     14  H3  UNL     1      -8.182  48.845 -11.410  1.00  0.00     0.184 HD
HETATM   15  N5  UNL     1      -6.086  51.007 -12.626  1.00  0.00    -0.177 N 
HETATM   16  C17 UNL     1      -4.957  50.293 -12.474  1.00  0.00     0.123 A 
ATOM     17  H5  UNL     1      -6.059  51.942 -13.032  1.00  0.00     0.185 HD
BRANCH  13  18
HETATM   18  N4  UNL     1      -8.302  51.201 -12.416  1.00  0.00    -0.234 N 
ATOM     19  H42 UNL     1      -9.071  50.756 -12.916  1.00  0.00     0.174 HD
ATOM     20  H41 UNL     1      -8.388  52.163 -12.090  1.00  0.00     0.174 HD
ENDBRANCH  13  18
BRANCH  16  21
HETATM   21  N6  UNL     1      -3.825  50.839 -12.849  1.00  0.00    -0.385 N 
ATOM     22  H62 UNL     1      -3.847  51.515 -13.611  1.00  0.00     0.157 HD
ATOM     23  H61 UNL     1      -2.963  50.582 -12.368  1.00  0.00     0.157 HD
ENDBRANCH  16  21
ENDBRANCH   8   9
ENDBRANCH   6   8
BRANCH   7  24
HETATM   24  N7  UNL     1      -2.424  46.108 -10.702  1.00  0.00    -0.314 N 
HETATM   25  C19 UNL     1      -1.101  46.676 -10.367  1.00  0.00     0.160 C 
HETATM   26  C20 UNL     1      -1.221  47.504  -9.096  1.00  0.00     0.253 C 
HETATM   27  N8  UNL     1      -1.691  46.651  -8.039  1.00  0.00    -0.065 N 
HETATM   28  C21 UNL     1      -3.069  46.352  -8.257  1.00  0.00     0.335 C 
ATOM     29  H82 UNL     1      -1.123  45.810  -7.938  1.00  0.00     0.277 HD
ATOM     30  H81 UNL     1      -1.522  47.050  -7.115  1.00  0.00     0.277 HD
HETATM   31  C22 UNL     1      -3.199  45.718  -9.606  1.00  0.00     0.250 C 
HETATM   32  O2  UNL     1      -4.044  44.813  -9.708  1.00  0.00    -0.271 OA
ENDBRANCH   7  24
BRANCH   1  33
HETATM   33  C6  UNL     1      -2.054  43.706 -12.337  1.00  0.00     0.017 A 
HETATM   34  C2  UNL     1      -0.726  43.465 -12.130  1.00  0.00     0.034 A 
HETATM   35  C1  UNL     1       0.469  44.338 -12.440  1.00  0.00     0.070 C 
HETATM   36  N1  UNL     1      -0.613  42.231 -11.578  1.00  0.00    -0.302 N 
HETATM   37  N2  UNL     1      -1.793  41.665 -11.420  1.00  0.00    -0.300 N 
ATOM     38  H1  UNL     1       0.273  41.796 -11.318  1.00  0.00     0.186 HD
HETATM   39  C5  UNL     1      -2.692  42.554 -11.880  1.00  0.00     0.124 A 
BRANCH  37  40
HETATM   40  C3  UNL     1      -2.073  40.352 -10.841  1.00  0.00     0.174 C 
BRANCH  40  41
HETATM   41  C4  UNL     1      -1.065  39.328 -11.410  1.00  0.00     0.185 C 
BRANCH  41  42
HETATM   42  O1  UNL     1       0.147  39.511 -10.769  1.00  0.00    -0.399 OA
ATOM     43  H1  UNL     1       0.557  40.293 -11.121  1.00  0.00     0.209 HD
ENDBRANCH  41  42
ENDBRANCH  40  41
ENDBRANCH  37  40
ENDBRANCH   1  33
TORSDOF 9
ENDMDL
MODEL 4
REMARK VINA RESULT: -5.423581720      3.546      5.002
REMARK  9 active torsions:
REMARK  status: ('A' for Active; 'I' for Inactive)
REMARK    1  A    between atoms: N2_5  and  C3_6 
REMARK    2  A    between atoms: C3_6  and  C4_7 
REMARK    3  A    between atoms: C4_7  and  O1_8 
REMARK    4  A    between atoms: C6_11  and  C7_12 
REMARK    5  A    between atoms: C11_17  and  C12_18 
REMARK    6  A    between atoms: C12_18  and  C13_19 
REMARK    7  A    between atoms: C16_24  and  N4_25 
REMARK    8  A    between atoms: C17_30  and  N6_31 
REMARK    9  A    between atoms: C18_34  and  N7_35 
ROOT
HETATM    1  C7  UNL     1      -5.497  43.757 -12.004  1.00  0.00     0.005 A 
HETATM    2  C8  UNL     1      -6.823  43.991 -11.536  1.00  0.00     0.018 A 
HETATM    3  C9  UNL     1      -7.115  45.169 -10.948  1.00  0.00     0.044 A 
HETATM    4  C10 UNL     1      -6.135  46.145 -10.800  1.00  0.00     0.125 A 
HETATM    5  F1  UNL     1      -6.561  47.315 -10.229  1.00  0.00    -0.205 F 
HETATM    6  C11 UNL     1      -4.875  45.915 -11.246  1.00  0.00     0.013 A 
HETATM    7  C18 UNL     1      -4.524  44.678 -11.879  1.00  0.00     0.058 A 
ENDROOT
BRANCH   6   8
HETATM    8  C12 UNL     1      -3.776  46.857 -11.055  1.00  0.00     0.088 C 
BRANCH   8   9
HETATM    9  C13 UNL     1      -3.784  47.686  -9.849  1.00  0.00     0.013 A 
HETATM   10  C14 UNL     1      -4.259  48.982  -9.781  1.00  0.00     0.033 A 
HETATM   11  C15 UNL     1      -4.859  49.666 -10.964  1.00  0.00     0.069 C 
HETATM   12  N3  UNL     1      -4.204  49.636  -8.594  1.00  0.00    -0.196 N 
HETATM   13  C16 UNL     1      -3.706  49.071  -7.482  1.00  0.00     0.677 A 
ATOM     14  H3  UNL     1      -4.552  50.593  -8.544  1.00  0.00     0.184 HD
HETATM   15  N5  UNL     1      -3.238  47.808  -7.513  1.00  0.00    -0.177 N 
HETATM   16  C17 UNL     1      -3.277  47.131  -8.674  1.00  0.00     0.123 A 
ATOM     17  H5  UNL     1      -2.860  47.374  -6.671  1.00  0.00     0.185 HD
BRANCH  13  18
HETATM   18  N4  UNL     1      -3.630  49.666  -6.337  1.00  0.00    -0.234 N 
ATOM     19  H42 UNL     1      -4.487  49.668  -5.784  1.00  0.00     0.174 HD
ATOM     20  H41 UNL     1      -2.785  50.109  -5.978  1.00  0.00     0.174 HD
ENDBRANCH  13  18
BRANCH  16  21
HETATM   21  N6  UNL     1      -2.829  45.899  -8.686  1.00  0.00    -0.385 N 
ATOM     22  H62 UNL     1      -1.843  45.747  -8.898  1.00  0.00     0.157 HD
ATOM     23  H61 UNL     1      -3.469  45.132  -8.477  1.00  0.00     0.157 HD
ENDBRANCH  16  21
ENDBRANCH   8   9
ENDBRANCH   6   8
BRANCH   7  24
HETATM   24  N7  UNL     1      -3.227  44.502 -12.404  1.00  0.00    -0.314 N 
HETATM   25  C19 UNL     1      -2.905  44.986 -13.763  1.00  0.00     0.160 C 
HETATM   26  C20 UNL     1      -1.500  45.569 -13.766  1.00  0.00     0.253 C 
HETATM   27  N8  UNL     1      -0.579  44.542 -13.362  1.00  0.00    -0.065 N 
HETATM   28  C21 UNL     1      -0.732  44.301 -11.963  1.00  0.00     0.335 C 
ATOM     29  H82 UNL     1      -0.681  43.691 -13.915  1.00  0.00     0.277 HD
ATOM     30  H81 UNL     1       0.384  44.763 -13.614  1.00  0.00     0.277 HD
HETATM   31  C22 UNL     1      -2.158  43.925 -11.710  1.00  0.00     0.250 C 
HETATM   32  O2  UNL     1      -2.352  43.062 -10.838  1.00  0.00    -0.271 OA
ENDBRANCH   7  24
BRANCH   1  33
HETATM   33  C6  UNL     1      -5.323  42.474 -12.664  1.00  0.00     0.017 A 
HETATM   34  C2  UNL     1      -5.218  41.246 -12.074  1.00  0.00     0.034 A 
HETATM   35  C1  UNL     1      -5.131  40.889 -10.608  1.00  0.00     0.070 C 
HETATM   36  N1  UNL     1      -5.184  40.316 -13.062  1.00  0.00    -0.302 N 
HETATM   37  N2  UNL     1      -5.260  40.878 -14.253  1.00  0.00    -0.300 N 
ATOM     38  H1  UNL     1      -5.110  39.311 -12.904  1.00  0.00     0.186 HD
HETATM   39  C5  UNL     1      -5.347  42.202 -14.030  1.00  0.00     0.124 A 
BRANCH  37  40
HETATM   40  C3  UNL     1      -5.275  40.201 -15.549  1.00  0.00     0.174 C 
BRANCH  40  41
HETATM   41  C4  UNL     1      -4.166  39.125 -15.565  1.00  0.00     0.185 C 
BRANCH  41  42
HETATM   42  O1  UNL     1      -3.016  39.679 -15.032  1.00  0.00    -0.399 OA
ATOM     43  H1  UNL     1      -2.349  39.689 -15.708  1.00  0.00     0.209 HD
ENDBRANCH  41  42
ENDBRANCH  40  41
ENDBRANCH  37  40
ENDBRANCH   1  33
TORSDOF 9
ENDMDL
MODEL 5
REMARK VINA RESULT: -5.415818720      3.355      7.189
REMARK  9 active torsions:
REMARK  status: ('A' for Active; 'I' for Inactive)
REMARK    1  A    between atoms: N2_5  and  C3_6 
REMARK    2  A    between atoms: C3_6  and  C4_7 
REMARK    3  A    between atoms: C4_7  and  O1_8 
REMARK    4  A    between atoms: C6_11  and  C7_12 
REMARK    5  A    between atoms: C11_17  and  C12_18 
REMARK    6  A    between atoms: C12_18  and  C13_19 
REMARK    7  A    between atoms: C16_24  and  N4_25 
REMARK    8  A    between atoms: C17_30  and  N6_31 
REMARK    9  A    between atoms: C18_34  and  N7_35 
ROOT
HETATM    1  C7  UNL     1      -2.527  45.007 -12.853  1.00  0.00     0.005 A 
HETATM    2  C8  UNL     1      -2.815  45.011 -14.248  1.00  0.00     0.018 A 
HETATM    3  C9  UNL     1      -3.319  46.127 -14.814  1.00  0.00     0.044 A 
HETATM    4  C10 UNL     1      -3.556  47.262 -14.045  1.00  0.00     0.125 A 
HETATM    5  F1  UNL     1      -4.026  48.346 -14.737  1.00  0.00    -0.205 F 
HETATM    6  C11 UNL     1      -3.281  47.251 -12.716  1.00  0.00     0.013 A 
HETATM    7  C18 UNL     1      -2.742  46.087 -12.077  1.00  0.00     0.058 A 
ENDROOT
BRANCH   6   8
HETATM    8  C12 UNL     1      -3.576  48.374 -11.832  1.00  0.00     0.088 C 
BRANCH   8   9
HETATM    9  C13 UNL     1      -4.865  49.049 -11.984  1.00  0.00     0.013 A 
HETATM   10  C14 UNL     1      -5.047  50.292 -12.559  1.00  0.00     0.033 A 
HETATM   11  C15 UNL     1      -3.908  51.073 -13.126  1.00  0.00     0.069 C 
HETATM   12  N3  UNL     1      -6.302  50.801 -12.634  1.00  0.00    -0.196 N 
HETATM   13  C16 UNL     1      -7.376  50.139 -12.173  1.00  0.00     0.677 A 
ATOM     14  H3  UNL     1      -6.435  51.719 -13.056  1.00  0.00     0.184 HD
HETATM   15  N5  UNL     1      -7.235  48.924 -11.610  1.00  0.00    -0.177 N 
HETATM   16  C17 UNL     1      -6.004  48.390 -11.518  1.00  0.00     0.123 A 
ATOM     17  H5  UNL     1      -8.048  48.417 -11.259  1.00  0.00     0.185 HD
BRANCH  13  18
HETATM   18  N4  UNL     1      -8.584  50.596 -12.221  1.00  0.00    -0.234 N 
ATOM     19  H42 UNL     1      -9.273  50.077 -11.676  1.00  0.00     0.174 HD
ATOM     20  H41 UNL     1      -8.863  51.421 -12.751  1.00  0.00     0.174 HD
ENDBRANCH  13  18
BRANCH  16  21
HETATM   21  N6  UNL     1      -5.884  47.201 -10.979  1.00  0.00    -0.385 N 
ATOM     22  H62 UNL     1      -6.436  46.992 -10.148  1.00  0.00     0.157 HD
ATOM     23  H61 UNL     1      -5.254  46.520 -11.405  1.00  0.00     0.157 HD
ENDBRANCH  16  21
ENDBRANCH   8   9
ENDBRANCH   6   8
BRANCH   7  24
HETATM   24  N7  UNL     1      -2.392  46.135 -10.712  1.00  0.00    -0.314 N 
HETATM   25  C19 UNL     1      -1.076  46.669 -10.303  1.00  0.00     0.160 C 
HETATM   26  C20 UNL     1      -1.241  47.483  -9.028  1.00  0.00     0.253 C 
HETATM   27  N8  UNL     1      -1.782  46.626  -8.008  1.00  0.00    -0.065 N 
HETATM   28  C21 UNL     1      -3.154  46.361  -8.298  1.00  0.00     0.335 C 
ATOM     29  H82 UNL     1      -1.238  45.772  -7.891  1.00  0.00     0.277 HD
ATOM     30  H81 UNL     1      -1.651  47.009  -7.071  1.00  0.00     0.277 HD
HETATM   31  C22 UNL     1      -3.229  45.747  -9.661  1.00  0.00     0.250 C 
HETATM   32  O2  UNL     1      -4.087  44.863  -9.819  1.00  0.00    -0.271 OA
ENDBRANCH   7  24
BRANCH   1  33
HETATM   33  C6  UNL     1      -1.941  43.767 -12.375  1.00  0.00     0.017 A 
HETATM   34  C2  UNL     1      -0.620  43.511 -12.139  1.00  0.00     0.034 A 
HETATM   35  C1  UNL     1       0.590  44.374 -12.416  1.00  0.00     0.070 C 
HETATM   36  N1  UNL     1      -0.531  42.272 -11.594  1.00  0.00    -0.302 N 
HETATM   37  N2  UNL     1      -1.721  41.716 -11.468  1.00  0.00    -0.300 N 
ATOM     38  H1  UNL     1       0.343  41.826 -11.317  1.00  0.00     0.186 HD
HETATM   39  C5  UNL     1      -2.600  42.618 -11.941  1.00  0.00     0.124 A 
BRANCH  37  40
HETATM   40  C3  UNL     1      -2.027  40.402 -10.905  1.00  0.00     0.174 C 
BRANCH  40  41
HETATM   41  C4  UNL     1      -0.995  39.379 -11.432  1.00  0.00     0.185 C 
BRANCH  41  42
HETATM   42  O1  UNL     1       0.174  39.528 -10.708  1.00  0.00    -0.399 OA
ATOM     43  H1  UNL     1       0.603  38.682 -10.657  1.00  0.00     0.209 HD
ENDBRANCH  41  42
ENDBRANCH  40  41
ENDBRANCH  37  40
ENDBRANCH   1  33
TORSDOF 9
ENDMDL
