MODEL 1
REMARK VINA RESULT: -5.470145409      0.000      0.000
REMARK  10 active torsions:
REMARK  status: ('A' for Active; 'I' for Inactive)
REMARK    1  A    between atoms: C2_2  and  C3_3 
REMARK    2  A    between atoms: C3_3  and  N1_4 
REMARK    3  A    between atoms: N1_4  and  C4_6 
REMARK    4  A    between atoms: C5_9  and  N3_10 
REMARK    5  A    between atoms: C8_16  and  N5_17 
REMARK    6  A    between atoms: N5_17  and  C9_19 
REMARK    7  A    between atoms: C9_19  and  C10_20 
REMARK    8  A    between atoms: C10_20  and  C11_21 
REMARK    9  A    between atoms: C11_21  and  C12_22 
REMARK   10  A    between atoms: C18_37  and  N11_38 
ROOT
HETATM    1  C4  UNL     1      -1.387  42.412 -11.981  1.00  0.00     0.680 A 
HETATM    2  N2  UNL     1      -2.372  42.319 -12.881  1.00  0.00    -0.175 N 
ATOM      3  H2  UNL     1      -2.641  41.407 -13.248  1.00  0.00     0.186 HD
HETATM    4  C5  UNL     1      -3.016  43.439 -13.310  1.00  0.00     0.146 A 
HETATM    5  C7  UNL     1      -2.599  44.639 -12.772  1.00  0.00     0.124 A 
HETATM    6  N4  UNL     1      -3.182  45.793 -13.141  1.00  0.00    -0.186 N 
ATOM      7  H4  UNL     1      -3.937  45.756 -13.826  1.00  0.00     0.184 HD
HETATM    8  C8  UNL     1      -2.824  46.990 -12.656  1.00  0.00     0.680 A 
HETATM    9  N10 UNL     1      -1.832  47.043 -11.756  1.00  0.00    -0.175 N 
ATOM     10  H10 UNL     1      -1.558  47.953 -11.385  1.00  0.00     0.186 HD
HETATM   11  C18 UNL     1      -1.175  45.938 -11.313  1.00  0.00     0.144 A 
HETATM   12  C19 UNL     1      -1.568  44.726 -11.831  1.00  0.00     0.124 A 
HETATM   13  N12 UNL     1      -0.983  43.602 -11.457  1.00  0.00    -0.186 N 
ATOM     14  H12 UNL     1      -0.226  43.626 -10.773  1.00  0.00     0.184 HD
ENDROOT
BRANCH   8  15
HETATM   15  N5  UNL     1      -3.408  48.079 -13.035  1.00  0.00    -0.226 N 
ATOM     16  H5  UNL     1      -3.678  48.214 -14.009  1.00  0.00     0.177 HD
BRANCH  15  17
HETATM   17  C9  UNL     1      -3.669  49.093 -12.057  1.00  0.00     0.138 C 
BRANCH  17  18
HETATM   18  C10 UNL     1      -5.168  49.220 -11.768  1.00  0.00     0.026 C 
BRANCH  18  19
HETATM   19  C11 UNL     1      -5.426  48.886 -10.291  1.00  0.00     0.060 C 
BRANCH  19  20
HETATM   20  C12 UNL     1      -5.210  47.423 -10.144  1.00  0.00     0.037 A 
HETATM   21  C13 UNL     1      -5.971  46.485 -10.838  1.00  0.00     0.044 A 
HETATM   22  C14 UNL     1      -5.724  45.148 -10.659  1.00  0.00     0.108 A 
HETATM   23  N6  UNL     1      -4.751  44.781  -9.815  1.00  0.00    -0.201 N 
HETATM   24  C15 UNL     1      -4.007  45.673  -9.138  1.00  0.00     0.691 A 
ATOM     25  H6  UNL     1      -4.568  43.787  -9.681  1.00  0.00     0.183 HD
HETATM   26  N7  UNL     1      -2.988  45.547  -8.249  1.00  0.00    -0.175 N 
HETATM   27  N9  UNL     1      -4.223  46.997  -9.291  1.00  0.00    -0.137 N 
HETATM   28  C16 UNL     1      -2.564  46.759  -7.846  1.00  0.00     0.171 A 
ATOM     29  H7  UNL     1      -2.599  44.658  -7.932  1.00  0.00     0.185 HD
HETATM   30  N8  UNL     1      -1.515  47.041  -6.922  1.00  0.00    -0.079 NA
HETATM   31  C17 UNL     1      -3.361  47.673  -8.519  1.00  0.00     0.168 A 
HETATM   32 CL1  UNL     1      -3.255  49.413  -8.385  1.00  0.00    -0.060 Cl
ENDBRANCH  19  20
ENDBRANCH  18  19
ENDBRANCH  17  18
ENDBRANCH  15  17
ENDBRANCH   8  15
BRANCH  11  33
HETATM   33  N11 UNL     1      -0.250  46.064 -10.463  1.00  0.00    -0.383 N 
ATOM     34 2H11 UNL     1      -0.414  46.301  -9.485  1.00  0.00     0.157 HD
ATOM     35 1H11 UNL     1       0.718  45.925 -10.751  1.00  0.00     0.157 HD
ENDBRANCH  11  33
BRANCH   4  36
HETATM   36  N3  UNL     1      -3.961  43.429 -14.162  1.00  0.00    -0.378 N 
HETATM   37  C6  UNL     1      -5.276  42.903 -13.895  1.00  0.00     0.147 C 
ATOM     38  H3  UNL     1      -3.777  43.814 -15.088  1.00  0.00     0.160 HD
ENDBRANCH   4  36
BRANCH   1  39
HETATM   39  N1  UNL     1      -0.789  41.350 -11.587  1.00  0.00    -0.226 N 
ATOM     40  H1  UNL     1      -1.025  40.957 -10.675  1.00  0.00     0.177 HD
BRANCH  39  41
HETATM   41  C3  UNL     1       0.202  40.697 -12.390  1.00  0.00     0.137 C 
BRANCH  41  42
HETATM   42  C2  UNL     1       1.613  41.052 -11.962  1.00  0.00     0.016 C 
HETATM   43  C1  UNL     1       2.246  42.022 -12.923  1.00  0.00     0.006 C 
ENDBRANCH  41  42
ENDBRANCH  39  41
ENDBRANCH   1  39
TORSDOF 10
ENDMDL
MODEL 2
REMARK VINA RESULT: -5.447773504      4.824      8.362
REMARK  10 active torsions:
REMARK  status: ('A' for Active; 'I' for Inactive)
REMARK    1  A    between atoms: C2_2  and  C3_3 
REMARK    2  A    between atoms: C3_3  and  N1_4 
REMARK    3  A    between atoms: N1_4  and  C4_6 
REMARK    4  A    between atoms: C5_9  and  N3_10 
REMARK    5  A    between atoms: C8_16  and  N5_17 
REMARK    6  A    between atoms: N5_17  and  C9_19 
REMARK    7  A    between atoms: C9_19  and  C10_20 
REMARK    8  A    between atoms: C10_20  and  C11_21 
REMARK    9  A    between atoms: C11_21  and  C12_22 
REMARK   10  A    between atoms: C18_37  and  N11_38 
ROOT
HETATM    1  C4  UNL     1     -11.411  48.149 -12.691  1.00  0.00     0.680 A 
HETATM    2  N2  UNL     1     -10.575  47.107 -12.630  1.00  0.00    -0.175 N 
ATOM      3  H2  UNL     1     -10.938  46.158 -12.721  1.00  0.00     0.186 HD
HETATM    4  C5  UNL     1      -9.241  47.308 -12.446  1.00  0.00     0.146 A 
HETATM    5  C7  UNL     1      -8.822  48.617 -12.330  1.00  0.00     0.124 A 
HETATM    6  N4  UNL     1      -7.521  48.904 -12.146  1.00  0.00    -0.186 N 
ATOM      7  H4  UNL     1      -6.857  48.131 -12.095  1.00  0.00     0.184 HD
HETATM    8  C8  UNL     1      -7.049  50.153 -12.027  1.00  0.00     0.680 A 
HETATM    9  N10 UNL     1      -7.918  51.172 -12.093  1.00  0.00    -0.175 N 
ATOM     10  H10 UNL     1      -7.561  52.123 -12.002  1.00  0.00     0.186 HD
HETATM   11  C18 UNL     1      -9.254  50.995 -12.276  1.00  0.00     0.144 A 
HETATM   12  C19 UNL     1      -9.704  49.701 -12.395  1.00  0.00     0.124 A 
HETATM   13  N12 UNL     1     -10.986  49.437 -12.575  1.00  0.00    -0.186 N 
ATOM     14  H12 UNL     1     -11.659  50.201 -12.626  1.00  0.00     0.184 HD
ENDROOT
BRANCH   8  15
HETATM   15  N5  UNL     1      -5.791  50.390 -11.851  1.00  0.00    -0.226 N 
ATOM     16  H5  UNL     1      -5.484  51.164 -11.262  1.00  0.00     0.177 HD
BRANCH  15  17
HETATM   17  C9  UNL     1      -4.836  49.543 -12.502  1.00  0.00     0.138 C 
BRANCH  17  18
HETATM   18  C10 UNL     1      -3.632  49.260 -11.599  1.00  0.00     0.026 C 
BRANCH  18  19
HETATM   19  C11 UNL     1      -3.930  48.027 -10.734  1.00  0.00     0.060 C 
BRANCH  19  20
HETATM   20  C12 UNL     1      -3.770  48.453  -9.319  1.00  0.00     0.037 A 
HETATM   21  C13 UNL     1      -4.742  49.195  -8.651  1.00  0.00     0.044 A 
HETATM   22  C14 UNL     1      -4.535  49.558  -7.346  1.00  0.00     0.108 A 
HETATM   23  N6  UNL     1      -3.398  49.188  -6.746  1.00  0.00    -0.201 N 
HETATM   24  C15 UNL     1      -2.449  48.471  -7.376  1.00  0.00     0.691 A 
ATOM     25  H6  UNL     1      -3.243  49.458  -5.775  1.00  0.00     0.183 HD
HETATM   26  N7  UNL     1      -1.242  47.986  -6.987  1.00  0.00    -0.175 N 
HETATM   27  N9  UNL     1      -2.620  48.095  -8.662  1.00  0.00    -0.137 N 
HETATM   28  C16 UNL     1      -0.657  47.317  -7.999  1.00  0.00     0.171 A 
ATOM     29  H7  UNL     1      -0.836  48.111  -6.060  1.00  0.00     0.185 HD
HETATM   30  N8  UNL     1       0.611  46.666  -7.982  1.00  0.00    -0.079 NA
HETATM   31  C17 UNL     1      -1.549  47.396  -9.059  1.00  0.00     0.168 A 
HETATM   32 CL1  UNL     1      -1.313  46.697 -10.644  1.00  0.00    -0.060 Cl
ENDBRANCH  19  20
ENDBRANCH  18  19
ENDBRANCH  17  18
ENDBRANCH  15  17
ENDBRANCH   8  15
BRANCH  11  33
HETATM   33  N11 UNL     1     -10.013  52.002 -12.328  1.00  0.00    -0.383 N 
ATOM     34 2H11 UNL     1     -10.206  52.516 -13.187  1.00  0.00     0.157 HD
ATOM     35 1H11 UNL     1     -10.465  52.334 -11.477  1.00  0.00     0.157 HD
ENDBRANCH  11  33
BRANCH   4  36
HETATM   36  N3  UNL     1      -8.387  46.368 -12.379  1.00  0.00    -0.378 N 
HETATM   37  C6  UNL     1      -8.217  45.520 -11.225  1.00  0.00     0.147 C 
ATOM     38  H3  UNL     1      -7.788  46.204 -13.187  1.00  0.00     0.160 HD
ENDBRANCH   4  36
BRANCH   1  39
HETATM   39  N1  UNL     1     -12.664  47.945 -12.864  1.00  0.00    -0.226 N 
ATOM     40  H1  UNL     1     -13.004  46.986 -12.941  1.00  0.00     0.177 HD
BRANCH  39  41
HETATM   41  C3  UNL     1     -13.601  49.025 -12.953  1.00  0.00     0.137 C 
BRANCH  41  42
HETATM   42  C2  UNL     1     -14.608  49.007 -11.818  1.00  0.00     0.016 C 
HETATM   43  C1  UNL     1     -14.587  50.300 -11.049  1.00  0.00     0.006 C 
ENDBRANCH  41  42
ENDBRANCH  39  41
ENDBRANCH   1  39
TORSDOF 10
ENDMDL
MODEL 3
REMARK VINA RESULT: -5.434540312      1.160      2.671
REMARK  10 active torsions:
REMARK  status: ('A' for Active; 'I' for Inactive)
REMARK    1  A    between atoms: C2_2  and  C3_3 
REMARK    2  A    between atoms: C3_3  and  N1_4 
REMARK    3  A    between atoms: N1_4  and  C4_6 
REMARK    4  A    between atoms: C5_9  and  N3_10 
REMARK    5  A    between atoms: C8_16  and  N5_17 
REMARK    6  A    between atoms: N5_17  and  C9_19 
REMARK    7  A    between atoms: C9_19  and  C10_20 
REMARK    8  A    between atoms: C10_20  and  C11_21 
REMARK    9  A    between atoms: C11_21  and  C12_22 
REMARK   10  A    between atoms: C18_37  and  N11_38 
ROOT
HETATM    1  C4  UNL     1      -0.812  44.120 -11.770  1.00  0.00     0.680 A 
HETATM    2  N2  UNL     1      -0.453  45.151 -10.998  1.00  0.00    -0.175 N 
ATOM      3  H2  UNL     1       0.244  45.019 -10.265  1.00  0.00     0.186 HD
HETATM    4  C5  UNL     1      -1.014  46.378 -11.187  1.00  0.00     0.146 A 
HETATM    5  C7  UNL     1      -1.948  46.483 -12.195  1.00  0.00     0.124 A 
HETATM    6  N4  UNL     1      -2.551  47.658 -12.449  1.00  0.00    -0.186 N 
ATOM      7  H4  UNL     1      -2.298  48.464 -11.878  1.00  0.00     0.184 HD
HETATM    8  C8  UNL     1      -3.466  47.826 -13.414  1.00  0.00     0.680 A 
HETATM    9  N10 UNL     1      -3.801  46.769 -14.167  1.00  0.00    -0.175 N 
ATOM     10  H10 UNL     1      -4.497  46.895 -14.902  1.00  0.00     0.186 HD
HETATM   11  C18 UNL     1      -3.254  45.535 -13.996  1.00  0.00     0.144 A 
HETATM   12  C19 UNL     1      -2.318  45.398 -12.998  1.00  0.00     0.124 A 
HETATM   13  N12 UNL     1      -1.737  44.235 -12.763  1.00  0.00    -0.186 N 
ATOM     14  H12 UNL     1      -1.981  43.421 -13.326  1.00  0.00     0.184 HD
ENDROOT
BRANCH   8  15
HETATM   15  N5  UNL     1      -4.024  48.972 -13.629  1.00  0.00    -0.226 N 
ATOM     16  H5  UNL     1      -4.175  49.307 -14.580  1.00  0.00     0.177 HD
BRANCH  15  17
HETATM   17  C9  UNL     1      -4.426  49.761 -12.502  1.00  0.00     0.138 C 
BRANCH  17  18
HETATM   18  C10 UNL     1      -5.738  49.250 -11.900  1.00  0.00     0.026 C 
BRANCH  18  19
HETATM   19  C11 UNL     1      -5.522  48.940 -10.411  1.00  0.00     0.060 C 
BRANCH  19  20
HETATM   20  C12 UNL     1      -5.211  47.489 -10.321  1.00  0.00     0.037 A 
HETATM   21  C13 UNL     1      -5.819  46.546 -11.146  1.00  0.00     0.044 A 
HETATM   22  C14 UNL     1      -5.491  45.221 -11.013  1.00  0.00     0.108 A 
HETATM   23  N6  UNL     1      -4.589  44.871 -10.088  1.00  0.00    -0.201 N 
HETATM   24  C15 UNL     1      -3.993  45.770  -9.284  1.00  0.00     0.691 A 
ATOM     25  H6  UNL     1      -4.345  43.886  -9.988  1.00  0.00     0.183 HD
HETATM   26  N7  UNL     1      -3.068  45.659  -8.295  1.00  0.00    -0.175 N 
HETATM   27  N9  UNL     1      -4.292  47.082  -9.388  1.00  0.00    -0.137 N 
HETATM   28  C16 UNL     1      -2.784  46.871  -7.782  1.00  0.00     0.171 A 
ATOM     29  H7  UNL     1      -2.648  44.782  -7.986  1.00  0.00     0.185 HD
HETATM   30  N8  UNL     1      -1.865  47.168  -6.732  1.00  0.00    -0.079 NA
HETATM   31  C17 UNL     1      -3.573  47.766  -8.489  1.00  0.00     0.168 A 
HETATM   32 CL1  UNL     1      -3.615  49.498  -8.249  1.00  0.00    -0.060 Cl
ENDBRANCH  19  20
ENDBRANCH  18  19
ENDBRANCH  17  18
ENDBRANCH  15  17
ENDBRANCH   8  15
BRANCH  11  33
HETATM   33  N11 UNL     1      -3.618  44.585 -14.744  1.00  0.00    -0.383 N 
ATOM     34 2H11 UNL     1      -3.185  44.381 -15.644  1.00  0.00     0.157 HD
ATOM     35 1H11 UNL     1      -4.384  43.980 -14.449  1.00  0.00     0.157 HD
ENDBRANCH  11  33
BRANCH   4  36
HETATM   36  N3  UNL     1      -0.721  47.403 -10.493  1.00  0.00    -0.378 N 
HETATM   37  C6  UNL     1       0.317  47.426  -9.494  1.00  0.00     0.147 C 
ATOM     38  H3  UNL     1      -1.253  48.259 -10.653  1.00  0.00     0.160 HD
ENDBRANCH   4  36
BRANCH   1  39
HETATM   39  N1  UNL     1      -0.276  42.972 -11.580  1.00  0.00    -0.226 N 
ATOM     40  H1  UNL     1      -0.191  42.615 -10.629  1.00  0.00     0.177 HD
BRANCH  39  41
HETATM   41  C3  UNL     1       0.207  42.174 -12.668  1.00  0.00     0.137 C 
BRANCH  41  42
HETATM   42  C2  UNL     1       1.723  42.121 -12.713  1.00  0.00     0.016 C 
HETATM   43  C1  UNL     1       2.251  40.960 -11.914  1.00  0.00     0.006 C 
ENDBRANCH  41  42
ENDBRANCH  39  41
ENDBRANCH   1  39
TORSDOF 10
ENDMDL
MODEL 4
REMARK VINA RESULT: -5.413623360      3.883      7.439
REMARK  10 active torsions:
REMARK  status: ('A' for Active; 'I' for Inactive)
REMARK    1  A    between atoms: C2_2  and  C3_3 
REMARK    2  A    between atoms: C3_3  and  N1_4 
REMARK    3  A    between atoms: N1_4  and  C4_6 
REMARK    4  A    between atoms: C5_9  and  N3_10 
REMARK    5  A    between atoms: C8_16  and  N5_17 
REMARK    6  A    between atoms: N5_17  and  C9_19 
REMARK    7  A    between atoms: C9_19  and  C10_20 
REMARK    8  A    between atoms: C10_20  and  C11_21 
REMARK    9  A    between atoms: C11_21  and  C12_22 
REMARK   10  A    between atoms: C18_37  and  N11_38 
ROOT
HETATM    1  C4  UNL     1      -2.720  53.576 -14.567  1.00  0.00     0.680 A 
HETATM    2  N2  UNL     1      -3.655  54.196 -13.840  1.00  0.00    -0.175 N 
ATOM      3  H2  UNL     1      -3.541  55.180 -13.597  1.00  0.00     0.186 HD
HETATM    4  C5  UNL     1      -4.759  53.518 -13.422  1.00  0.00     0.146 A 
HETATM    5  C7  UNL     1      -4.846  52.191 -13.786  1.00  0.00     0.124 A 
HETATM    6  N4  UNL     1      -5.904  51.448 -13.414  1.00  0.00    -0.186 N 
ATOM      7  H4  UNL     1      -6.635  51.892 -12.859  1.00  0.00     0.184 HD
HETATM    8  C8  UNL     1      -6.049  50.154 -13.735  1.00  0.00     0.680 A 
HETATM    9  N10 UNL     1      -5.089  49.567 -14.466  1.00  0.00    -0.175 N 
ATOM     10  H10 UNL     1      -5.197  48.583 -14.711  1.00  0.00     0.186 HD
HETATM   11  C18 UNL     1      -3.978  50.225 -14.894  1.00  0.00     0.144 A 
HETATM   12  C19 UNL     1      -3.862  51.551 -14.547  1.00  0.00     0.124 A 
HETATM   13  N12 UNL     1      -2.816  52.265 -14.921  1.00  0.00    -0.186 N 
ATOM     14  H12 UNL     1      -2.077  51.832 -15.476  1.00  0.00     0.184 HD
ENDROOT
BRANCH   8  15
HETATM   15  N5  UNL     1      -7.080  49.472 -13.360  1.00  0.00    -0.226 N 
ATOM     16  H5  UNL     1      -7.756  49.132 -14.044  1.00  0.00     0.177 HD
BRANCH  15  17
HETATM   17  C9  UNL     1      -7.254  49.204 -11.963  1.00  0.00     0.138 C 
BRANCH  17  18
HETATM   18  C10 UNL     1      -6.585  47.886 -11.559  1.00  0.00     0.026 C 
BRANCH  18  19
HETATM   19  C11 UNL     1      -5.575  48.159 -10.434  1.00  0.00     0.060 C 
BRANCH  19  20
HETATM   20  C12 UNL     1      -4.610  47.029 -10.448  1.00  0.00     0.037 A 
HETATM   21  C13 UNL     1      -4.760  45.933 -11.295  1.00  0.00     0.044 A 
HETATM   22  C14 UNL     1      -3.836  44.921 -11.259  1.00  0.00     0.108 A 
HETATM   23  N6  UNL     1      -2.810  45.016 -10.406  1.00  0.00    -0.201 N 
HETATM   24  C15 UNL     1      -2.650  46.067  -9.581  1.00  0.00     0.691 A 
ATOM     25  H6  UNL     1      -2.122  44.263 -10.379  1.00  0.00     0.183 HD
HETATM   26  N7  UNL     1      -1.712  46.382  -8.651  1.00  0.00    -0.175 N 
HETATM   27  N9  UNL     1      -3.541  47.081  -9.591  1.00  0.00    -0.137 N 
HETATM   28  C16 UNL     1      -1.997  47.568  -8.081  1.00  0.00     0.171 A 
ATOM     29  H7  UNL     1      -0.906  45.802  -8.418  1.00  0.00     0.185 HD
HETATM   30  N8  UNL     1      -1.252  48.236  -7.066  1.00  0.00    -0.079 NA
HETATM   31  C17 UNL     1      -3.165  48.000  -8.691  1.00  0.00     0.168 A 
HETATM   32 CL1  UNL     1      -4.003  49.496  -8.346  1.00  0.00    -0.060 Cl
ENDBRANCH  19  20
ENDBRANCH  18  19
ENDBRANCH  17  18
ENDBRANCH  15  17
ENDBRANCH   8  15
BRANCH  11  33
HETATM   33  N11 UNL     1      -3.116  49.607 -15.579  1.00  0.00    -0.383 N 
ATOM     34 2H11 UNL     1      -3.061  48.590 -15.628  1.00  0.00     0.157 HD
ATOM     35 1H11 UNL     1      -2.430  50.136 -16.116  1.00  0.00     0.157 HD
ENDBRANCH  11  33
BRANCH   4  36
HETATM   36  N3  UNL     1      -5.689  54.040 -12.729  1.00  0.00    -0.378 N 
HETATM   37  C6  UNL     1      -6.401  55.234 -13.111  1.00  0.00     0.147 C 
ATOM     38  H3  UNL     1      -5.946  53.589 -11.851  1.00  0.00     0.160 HD
ENDBRANCH   4  36
BRANCH   1  39
HETATM   39  N1  UNL     1      -1.686  54.227 -14.954  1.00  0.00    -0.226 N 
ATOM     40  H1  UNL     1      -1.505  54.323 -15.953  1.00  0.00     0.177 HD
BRANCH  39  41
HETATM   41  C3  UNL     1      -0.775  54.823 -14.022  1.00  0.00     0.137 C 
BRANCH  41  42
HETATM   42  C2  UNL     1       0.196  53.813 -13.441  1.00  0.00     0.016 C 
HETATM   43  C1  UNL     1       1.256  53.438 -14.442  1.00  0.00     0.006 C 
ENDBRANCH  41  42
ENDBRANCH  39  41
ENDBRANCH   1  39
TORSDOF 10
ENDMDL
MODEL 5
REMARK VINA RESULT: -5.402157094      4.089      7.446
REMARK  10 active torsions:
REMARK  status: ('A' for Active; 'I' for Inactive)
REMARK    1  A    between atoms: C2_2  and  C3_3 
REMARK    2  A    between atoms: C3_3  and  N1_4 
REMARK    3  A    between atoms: N1_4  and  C4_6 
REMARK    4  A    between atoms: C5_9  and  N3_10 
REMARK    5  A    between atoms: C8_16  and  N5_17 
REMARK    6  A    between atoms: N5_17  and  C9_19 
REMARK    7  A    between atoms: C9_19  and  C10_20 
REMARK    8  A    between atoms: C10_20  and  C11_21 
REMARK    9  A    between atoms: C11_21  and  C12_22 
REMARK   10  A    between atoms: C18_37  and  N11_38 
ROOT
HETATM    1  C4  UNL     1      -2.056  53.706 -14.938  1.00  0.00     0.680 A 
HETATM    2  N2  UNL     1      -1.935  52.513 -15.530  1.00  0.00    -0.175 N 
ATOM      3  H2  UNL     1      -1.132  52.322 -16.129  1.00  0.00     0.186 HD
HETATM    4  C5  UNL     1      -2.880  51.552 -15.337  1.00  0.00     0.146 A 
HETATM    5  C7  UNL     1      -3.938  51.880 -14.516  1.00  0.00     0.124 A 
HETATM    6  N4  UNL     1      -4.916  50.989 -14.272  1.00  0.00    -0.186 N 
ATOM      7  H4  UNL     1      -4.852  50.070 -14.709  1.00  0.00     0.184 HD
HETATM    8  C8  UNL     1      -5.970  51.246 -13.485  1.00  0.00     0.680 A 
HETATM    9  N10 UNL     1      -6.057  52.453 -12.908  1.00  0.00    -0.175 N 
ATOM     10  H10 UNL     1      -6.858  52.650 -12.309  1.00  0.00     0.186 HD
HETATM   11  C18 UNL     1      -5.125  53.428 -13.088  1.00  0.00     0.144 A 
HETATM   12  C19 UNL     1      -4.057  53.131 -13.901  1.00  0.00     0.124 A 
HETATM   13  N12 UNL     1      -3.106  54.019 -14.130  1.00  0.00    -0.186 N 
ATOM     14  H12 UNL     1      -3.159  54.942 -13.700  1.00  0.00     0.184 HD
ENDROOT
BRANCH   8  15
HETATM   15  N5  UNL     1      -6.890  50.364 -13.273  1.00  0.00    -0.226 N 
ATOM     16  H5  UNL     1      -7.446  49.995 -14.045  1.00  0.00     0.177 HD
BRANCH  15  17
HETATM   17  C9  UNL     1      -7.115  49.915 -11.931  1.00  0.00     0.138 C 
BRANCH  17  18
HETATM   18  C10 UNL     1      -6.230  48.713 -11.587  1.00  0.00     0.026 C 
BRANCH  18  19
HETATM   19  C11 UNL     1      -5.044  49.188 -10.734  1.00  0.00     0.060 C 
BRANCH  19  20
HETATM   20  C12 UNL     1      -3.904  48.289 -11.055  1.00  0.00     0.037 A 
HETATM   21  C13 UNL     1      -3.629  47.872 -12.355  1.00  0.00     0.044 A 
HETATM   22  C14 UNL     1      -2.563  47.041 -12.585  1.00  0.00     0.108 A 
HETATM   23  N6  UNL     1      -1.813  46.652 -11.547  1.00  0.00    -0.201 N 
HETATM   24  C15 UNL     1      -2.065  47.046 -10.286  1.00  0.00     0.691 A 
ATOM     25  H6  UNL     1      -1.020  46.034 -11.718  1.00  0.00     0.183 HD
HETATM   26  N7  UNL     1      -1.460  46.793  -9.096  1.00  0.00    -0.175 N 
HETATM   27  N9  UNL     1      -3.106  47.865 -10.023  1.00  0.00    -0.137 N 
HETATM   28  C16 UNL     1      -2.100  47.433  -8.100  1.00  0.00     0.171 A 
ATOM     29  H7  UNL     1      -0.638  46.200  -8.976  1.00  0.00     0.185 HD
HETATM   30  N8  UNL     1      -1.768  47.416  -6.713  1.00  0.00    -0.079 NA
HETATM   31  C17 UNL     1      -3.146  48.112  -8.707  1.00  0.00     0.168 A 
HETATM   32 CL1  UNL     1      -4.316  49.123  -7.891  1.00  0.00    -0.060 Cl
ENDBRANCH  19  20
ENDBRANCH  18  19
ENDBRANCH  17  18
ENDBRANCH  15  17
ENDBRANCH   8  15
BRANCH  11  33
HETATM   33  N11 UNL     1      -5.273  54.542 -12.512  1.00  0.00    -0.383 N 
ATOM     34 2H11 UNL     1      -4.517  55.214 -12.385  1.00  0.00     0.157 HD
ATOM     35 1H11 UNL     1      -6.190  54.801 -12.149  1.00  0.00     0.157 HD
ENDBRANCH  11  33
BRANCH   4  36
HETATM   36  N3  UNL     1      -2.831  50.397 -15.866  1.00  0.00    -0.378 N 
HETATM   37  C6  UNL     1      -1.814  49.984 -16.801  1.00  0.00     0.147 C 
ATOM     38  H3  UNL     1      -3.554  49.722 -15.614  1.00  0.00     0.160 HD
ENDBRANCH   4  36
BRANCH   1  39
HETATM   39  N1  UNL     1      -1.159  54.601 -15.129  1.00  0.00    -0.226 N 
ATOM     40  H1  UNL     1      -1.077  55.032 -16.050  1.00  0.00     0.177 HD
BRANCH  39  41
HETATM   41  C3  UNL     1      -0.269  55.014 -14.086  1.00  0.00     0.137 C 
BRANCH  41  42
HETATM   42  C2  UNL     1       0.469  53.844 -13.463  1.00  0.00     0.016 C 
HETATM   43  C1  UNL     1       1.635  53.419 -14.314  1.00  0.00     0.006 C 
ENDBRANCH  41  42
ENDBRANCH  39  41
ENDBRANCH   1  39
TORSDOF 10
ENDMDL
