MODEL 1
REMARK VINA RESULT: -6.769523260      0.000      0.000
REMARK  8 active torsions:
REMARK  status: ('A' for Active; 'I' for Inactive)
REMARK    1  A    between atoms: N1_1  and  C1_4 
REMARK    2  A    between atoms: C2_7  and  N3_8 
REMARK    3  A    between atoms: C4_14  and  C5_15 
REMARK    4  A    between atoms: C5_15  and  C6_16 
REMARK    5  A    between atoms: C6_16  and  C7_17 
REMARK    6  A    between atoms: C7_17  and  S1_18 
REMARK    7  A    between atoms: S1_18  and  C8_21 
REMARK    8  A    between atoms: C10_23  and  C11_24 
ROOT
HETATM    1  C1  UNL     1      -3.265  49.129  -7.315  1.00  0.00     0.679 A 
HETATM    2  N2  UNL     1      -2.392  48.154  -7.008  1.00  0.00    -0.175 N 
ATOM      3  H2  UNL     1      -2.119  48.035  -6.033  1.00  0.00     0.186 HD
HETATM    4  C2  UNL     1      -1.859  47.323  -7.937  1.00  0.00     0.145 A 
HETATM    5  C3  UNL     1      -2.211  47.462  -9.264  1.00  0.00     0.122 A 
HETATM    6  N4  UNL     1      -1.724  46.675 -10.237  1.00  0.00    -0.352 N 
ATOM      7  H4  UNL     1      -1.063  45.944  -9.976  1.00  0.00     0.166 HD
HETATM    8  C4  UNL     1      -2.050  46.792 -11.520  1.00  0.00     0.025 A 
HETATM    9  C15 UNL     1      -2.963  47.816 -11.813  1.00  0.00     0.114 A 
HETATM   10  N7  UNL     1      -3.458  48.609 -10.851  1.00  0.00    -0.348 N 
ATOM     11  H7  UNL     1      -4.119  49.342 -11.106  1.00  0.00     0.167 HD
HETATM   12  C16 UNL     1      -3.109  48.467  -9.562  1.00  0.00     0.151 A 
HETATM   13  N8  UNL     1      -3.614  49.271  -8.608  1.00  0.00    -0.174 N 
ATOM     14  H8  UNL     1      -4.275  50.003  -8.869  1.00  0.00     0.186 HD
ENDROOT
BRANCH   8  15
HETATM   15  C5  UNL     1      -1.550  45.959 -12.641  1.00  0.00     0.059 C 
BRANCH  15  16
HETATM   16  C6  UNL     1      -2.060  44.553 -12.561  1.00  0.00     0.021 C 
BRANCH  16  17
HETATM   17  C7  UNL     1      -3.491  44.435 -12.916  1.00  0.00     0.147 C 
BRANCH  17  18
HETATM   18  S1  UNL     1      -4.567  44.106 -11.593  1.00  0.00     0.182 S 
HETATM   19  O1  UNL     1      -4.932  42.636 -11.642  1.00  0.00    -0.222 OA
HETATM   20  O2  UNL     1      -4.023  44.389 -10.244  1.00  0.00    -0.222 OA
BRANCH  18  21
HETATM   21  C8  UNL     1      -6.064  45.061 -11.715  1.00  0.00     0.103 A 
HETATM   22  C9  UNL     1      -6.162  46.419 -11.821  1.00  0.00     0.048 A 
HETATM   23  C10 UNL     1      -7.406  46.949 -11.903  1.00  0.00     0.040 A 
HETATM   24  C14 UNL     1      -8.449  46.063 -11.871  1.00  0.00     0.171 A 
HETATM   25  F1  UNL     1      -9.808  46.308 -11.936  1.00  0.00    -0.197 F 
HETATM   26  S2  UNL     1      -7.674  44.541 -11.730  1.00  0.00    -0.047 SA
BRANCH  23  27
HETATM   27  C11 UNL     1      -7.665  48.421 -12.023  1.00  0.00     0.065 A 
HETATM   28  C12 UNL     1      -6.770  49.453 -11.899  1.00  0.00     0.123 A 
HETATM   29  N5  UNL     1      -7.422  50.627 -12.080  1.00  0.00    -0.317 N 
HETATM   30  C13 UNL     1      -8.707  50.304 -12.313  1.00  0.00     0.324 A 
ATOM     31  H5  UNL     1      -7.020  51.565 -12.047  1.00  0.00     0.170 HD
HETATM   32  O3  UNL     1      -9.642  51.108 -12.532  1.00  0.00    -0.247 OA
HETATM   33  N6  UNL     1      -8.862  48.978 -12.280  1.00  0.00    -0.306 N 
ATOM     34  H6  UNL     1      -9.737  48.474 -12.425  1.00  0.00     0.170 HD
ENDBRANCH  23  27
ENDBRANCH  18  21
ENDBRANCH  17  18
ENDBRANCH  16  17
ENDBRANCH  15  16
ENDBRANCH   8  15
BRANCH   4  35
HETATM   35  N3  UNL     1      -1.023  46.395  -7.625  1.00  0.00    -0.383 N 
ATOM     36  H32 UNL     1      -0.454  46.522  -6.788  1.00  0.00     0.157 HD
ATOM     37  H31 UNL     1      -0.919  45.549  -8.185  1.00  0.00     0.157 HD
ENDBRANCH   4  35
BRANCH   1  38
HETATM   38  N1  UNL     1      -3.763  49.913  -6.411  1.00  0.00    -0.234 N 
ATOM     39  H12 UNL     1      -3.149  50.442  -5.791  1.00  0.00     0.174 HD
ATOM     40  H11 UNL     1      -4.769  50.026  -6.290  1.00  0.00     0.174 HD
ENDBRANCH   1  38
TORSDOF 8
ENDMDL
MODEL 2
REMARK VINA RESULT: -6.698701487      1.475      1.668
REMARK  8 active torsions:
REMARK  status: ('A' for Active; 'I' for Inactive)
REMARK    1  A    between atoms: N1_1  and  C1_4 
REMARK    2  A    between atoms: C2_7  and  N3_8 
REMARK    3  A    between atoms: C4_14  and  C5_15 
REMARK    4  A    between atoms: C5_15  and  C6_16 
REMARK    5  A    between atoms: C6_16  and  C7_17 
REMARK    6  A    between atoms: C7_17  and  S1_18 
REMARK    7  A    between atoms: S1_18  and  C8_21 
REMARK    8  A    between atoms: C10_23  and  C11_24 
ROOT
HETATM    1  C1  UNL     1      -3.660  49.035  -7.377  1.00  0.00     0.679 A 
HETATM    2  N2  UNL     1      -3.058  47.837  -7.298  1.00  0.00    -0.175 N 
ATOM      3  H2  UNL     1      -2.741  47.510  -6.385  1.00  0.00     0.186 HD
HETATM    4  C2  UNL     1      -2.853  47.042  -8.378  1.00  0.00     0.145 A 
HETATM    5  C3  UNL     1      -3.272  47.460  -9.624  1.00  0.00     0.122 A 
HETATM    6  N4  UNL     1      -3.103  46.726 -10.737  1.00  0.00    -0.352 N 
ATOM      7  H4  UNL     1      -2.643  45.820 -10.648  1.00  0.00     0.166 HD
HETATM    8  C4  UNL     1      -3.499  47.107 -11.946  1.00  0.00     0.025 A 
HETATM    9  C15 UNL     1      -4.126  48.363 -12.001  1.00  0.00     0.114 A 
HETATM   10  N7  UNL     1      -4.301  49.106 -10.898  1.00  0.00    -0.348 N 
ATOM     11  H7  UNL     1      -4.760  50.012 -10.980  1.00  0.00     0.167 HD
HETATM   12  C16 UNL     1      -3.889  48.692  -9.688  1.00  0.00     0.151 A 
HETATM   13  N8  UNL     1      -4.072  49.450  -8.590  1.00  0.00    -0.174 N 
ATOM     14  H8  UNL     1      -4.532  50.356  -8.679  1.00  0.00     0.186 HD
ENDROOT
BRANCH   8  15
HETATM   15  C5  UNL     1      -3.344  46.348 -13.211  1.00  0.00     0.059 C 
BRANCH  15  16
HETATM   16  C6  UNL     1      -4.619  45.675 -13.615  1.00  0.00     0.021 C 
BRANCH  16  17
HETATM   17  C7  UNL     1      -4.967  44.525 -12.751  1.00  0.00     0.147 C 
BRANCH  17  18
HETATM   18  S1  UNL     1      -6.314  44.772 -11.684  1.00  0.00     0.182 S 
HETATM   19  O1  UNL     1      -7.038  43.450 -11.531  1.00  0.00    -0.222 OA
HETATM   20  O2  UNL     1      -5.971  45.257 -10.326  1.00  0.00    -0.222 OA
BRANCH  18  21
HETATM   21  C8  UNL     1      -7.459  45.967 -12.342  1.00  0.00     0.103 A 
HETATM   22  C9  UNL     1      -7.544  47.288 -12.009  1.00  0.00     0.048 A 
HETATM   23  C10 UNL     1      -8.493  48.026 -12.634  1.00  0.00     0.040 A 
HETATM   24  C14 UNL     1      -9.277  47.370 -13.543  1.00  0.00     0.171 A 
HETATM   25  F1  UNL     1     -10.310  47.856 -14.322  1.00  0.00    -0.197 F 
HETATM   26  S2  UNL     1      -8.676  45.765 -13.500  1.00  0.00    -0.047 SA
BRANCH  23  27
HETATM   27  C11 UNL     1      -8.702  49.488 -12.369  1.00  0.00     0.065 A 
HETATM   28  C12 UNL     1      -7.759  50.483 -12.313  1.00  0.00     0.123 A 
HETATM   29  N5  UNL     1      -8.376  51.661 -12.047  1.00  0.00    -0.317 N 
HETATM   30  C13 UNL     1      -9.687  51.376 -11.944  1.00  0.00     0.324 A 
ATOM     31  H5  UNL     1      -7.937  52.576 -11.946  1.00  0.00     0.170 HD
HETATM   32  O3  UNL     1     -10.604  52.195 -11.704  1.00  0.00    -0.247 OA
HETATM   33  N6  UNL     1      -9.892  50.070 -12.136  1.00  0.00    -0.306 N 
ATOM     34  H6  UNL     1     -10.795  49.596 -12.111  1.00  0.00     0.170 HD
ENDBRANCH  23  27
ENDBRANCH  18  21
ENDBRANCH  17  18
ENDBRANCH  16  17
ENDBRANCH  15  16
ENDBRANCH   8  15
BRANCH   4  35
HETATM   35  N3  UNL     1      -2.274  45.897  -8.284  1.00  0.00    -0.383 N 
ATOM     36  H32 UNL     1      -2.161  45.489  -7.356  1.00  0.00     0.157 HD
ATOM     37  H31 UNL     1      -1.931  45.395  -9.103  1.00  0.00     0.157 HD
ENDBRANCH   4  35
BRANCH   1  38
HETATM   38  N1  UNL     1      -3.846  49.780  -6.331  1.00  0.00    -0.234 N 
ATOM     39  H12 UNL     1      -3.275  49.649  -5.496  1.00  0.00     0.174 HD
ATOM     40  H11 UNL     1      -4.558  50.509  -6.309  1.00  0.00     0.174 HD
ENDBRANCH   1  38
TORSDOF 8
ENDMDL
MODEL 3
REMARK VINA RESULT: -6.616976582      2.913      4.117
REMARK  8 active torsions:
REMARK  status: ('A' for Active; 'I' for Inactive)
REMARK    1  A    between atoms: N1_1  and  C1_4 
REMARK    2  A    between atoms: C2_7  and  N3_8 
REMARK    3  A    between atoms: C4_14  and  C5_15 
REMARK    4  A    between atoms: C5_15  and  C6_16 
REMARK    5  A    between atoms: C6_16  and  C7_17 
REMARK    6  A    between atoms: C7_17  and  S1_18 
REMARK    7  A    between atoms: S1_18  and  C8_21 
REMARK    8  A    between atoms: C10_23  and  C11_24 
ROOT
HETATM    1  C1  UNL     1       0.403  47.703  -8.686  1.00  0.00     0.679 A 
HETATM    2  N2  UNL     1      -0.528  47.976  -7.757  1.00  0.00    -0.175 N 
ATOM      3  H2  UNL     1      -0.269  48.568  -6.967  1.00  0.00     0.186 HD
HETATM    4  C2  UNL     1      -1.796  47.501  -7.823  1.00  0.00     0.145 A 
HETATM    5  C3  UNL     1      -2.173  46.699  -8.880  1.00  0.00     0.122 A 
HETATM    6  N4  UNL     1      -3.411  46.193  -9.010  1.00  0.00    -0.352 N 
ATOM      7  H4  UNL     1      -4.098  46.417  -8.290  1.00  0.00     0.166 HD
HETATM    8  C4  UNL     1      -3.795  45.420 -10.020  1.00  0.00     0.025 A 
HETATM    9  C15 UNL     1      -2.803  45.150 -10.977  1.00  0.00     0.114 A 
HETATM   10  N7  UNL     1      -1.564  45.649 -10.859  1.00  0.00    -0.348 N 
ATOM     11  H7  UNL     1      -0.872  45.429 -11.575  1.00  0.00     0.167 HD
HETATM   12  C16 UNL     1      -1.205  46.428  -9.825  1.00  0.00     0.151 A 
HETATM   13  N8  UNL     1       0.044  46.921  -9.721  1.00  0.00    -0.174 N 
ATOM     14  H8  UNL     1       0.731  46.697 -10.441  1.00  0.00     0.186 HD
ENDROOT
BRANCH   8  15
HETATM   15  C5  UNL     1      -5.141  44.831 -10.223  1.00  0.00     0.059 C 
BRANCH  15  16
HETATM   16  C6  UNL     1      -6.178  45.883 -10.465  1.00  0.00     0.021 C 
BRANCH  16  17
HETATM   17  C7  UNL     1      -5.975  46.617 -11.734  1.00  0.00     0.147 C 
BRANCH  17  18
HETATM   18  S1  UNL     1      -5.366  48.236 -11.573  1.00  0.00     0.182 S 
HETATM   19  O1  UNL     1      -5.113  48.497 -10.103  1.00  0.00    -0.222 OA
HETATM   20  O2  UNL     1      -4.107  48.518 -12.303  1.00  0.00    -0.222 OA
BRANCH  18  21
HETATM   21  C8  UNL     1      -6.540  49.436 -12.164  1.00  0.00     0.103 A 
HETATM   22  C9  UNL     1      -7.890  49.430 -11.957  1.00  0.00     0.048 A 
HETATM   23  C10 UNL     1      -8.606  50.445 -12.499  1.00  0.00     0.040 A 
HETATM   24  C14 UNL     1      -7.900  51.383 -13.202  1.00  0.00     0.171 A 
HETATM   25  F1  UNL     1      -8.354  52.514 -13.855  1.00  0.00    -0.197 F 
HETATM   26  S2  UNL     1      -6.282  50.828 -13.090  1.00  0.00    -0.047 SA
BRANCH  23  27
HETATM   27  C11 UNL     1     -10.094  50.568 -12.354  1.00  0.00     0.065 A 
HETATM   28  C12 UNL     1     -11.050  49.610 -12.576  1.00  0.00     0.123 A 
HETATM   29  N5  UNL     1     -12.272  50.139 -12.328  1.00  0.00    -0.317 N 
HETATM   30  C13 UNL     1     -12.054  51.414 -11.956  1.00  0.00     0.324 A 
ATOM     31  H5  UNL     1     -13.174  49.669 -12.406  1.00  0.00     0.170 HD
HETATM   32  O3  UNL     1     -12.931  52.251 -11.639  1.00  0.00    -0.247 OA
HETATM   33  N6  UNL     1     -10.745  51.680 -11.970  1.00  0.00    -0.306 N 
ATOM     34  H6  UNL     1     -10.314  52.573 -11.730  1.00  0.00     0.170 HD
ENDBRANCH  23  27
ENDBRANCH  18  21
ENDBRANCH  17  18
ENDBRANCH  16  17
ENDBRANCH  15  16
ENDBRANCH   8  15
BRANCH   4  35
HETATM   35  N3  UNL     1      -2.676  47.772  -6.923  1.00  0.00    -0.383 N 
ATOM     36  H32 UNL     1      -2.886  48.753  -6.736  1.00  0.00     0.157 HD
ATOM     37  H31 UNL     1      -3.161  47.042  -6.402  1.00  0.00     0.157 HD
ENDBRANCH   4  35
BRANCH   1  38
HETATM   38  N1  UNL     1       1.611  48.168  -8.604  1.00  0.00    -0.234 N 
ATOM     39  H12 UNL     1       1.799  49.030  -8.092  1.00  0.00     0.174 HD
ATOM     40  H11 UNL     1       2.402  47.696  -9.041  1.00  0.00     0.174 HD
ENDBRANCH   1  38
TORSDOF 8
ENDMDL
MODEL 4
REMARK VINA RESULT: -6.581845791      3.283      6.372
REMARK  8 active torsions:
REMARK  status: ('A' for Active; 'I' for Inactive)
REMARK    1  A    between atoms: N1_1  and  C1_4 
REMARK    2  A    between atoms: C2_7  and  N3_8 
REMARK    3  A    between atoms: C4_14  and  C5_15 
REMARK    4  A    between atoms: C5_15  and  C6_16 
REMARK    5  A    between atoms: C6_16  and  C7_17 
REMARK    6  A    between atoms: C7_17  and  S1_18 
REMARK    7  A    between atoms: S1_18  and  C8_21 
REMARK    8  A    between atoms: C10_23  and  C11_24 
ROOT
HETATM    1  C1  UNL     1      -1.256  43.835 -11.903  1.00  0.00     0.679 A 
HETATM    2  N2  UNL     1      -1.690  43.798 -13.174  1.00  0.00    -0.175 N 
ATOM      3  H2  UNL     1      -1.030  43.536 -13.907  1.00  0.00     0.186 HD
HETATM    4  C2  UNL     1      -2.966  44.092 -13.527  1.00  0.00     0.145 A 
HETATM    5  C3  UNL     1      -3.879  44.449 -12.556  1.00  0.00     0.122 A 
HETATM    6  N4  UNL     1      -5.158  44.753 -12.832  1.00  0.00    -0.352 N 
ATOM      7  H4  UNL     1      -5.460  44.716 -13.805  1.00  0.00     0.166 HD
HETATM    8  C4  UNL     1      -6.054  45.098 -11.913  1.00  0.00     0.025 A 
HETATM    9  C15 UNL     1      -5.575  45.128 -10.594  1.00  0.00     0.114 A 
HETATM   10  N7  UNL     1      -4.301  44.827 -10.305  1.00  0.00    -0.348 N 
ATOM     11  H7  UNL     1      -3.993  44.861  -9.333  1.00  0.00     0.167 HD
HETATM   12  C16 UNL     1      -3.417  44.481 -11.256  1.00  0.00     0.151 A 
HETATM   13  N8  UNL     1      -2.141  44.182 -10.950  1.00  0.00    -0.174 N 
ATOM     14  H8  UNL     1      -1.839  44.218  -9.977  1.00  0.00     0.186 HD
ENDROOT
BRANCH   8  15
HETATM   15  C5  UNL     1      -7.477  45.445 -12.149  1.00  0.00     0.059 C 
BRANCH  15  16
HETATM   16  C6  UNL     1      -7.829  46.777 -11.563  1.00  0.00     0.021 C 
BRANCH  16  17
HETATM   17  C7  UNL     1      -8.145  47.796 -12.588  1.00  0.00     0.147 C 
BRANCH  17  18
HETATM   18  S1  UNL     1      -7.057  49.148 -12.661  1.00  0.00     0.182 S 
HETATM   19  O1  UNL     1      -6.850  49.504 -14.119  1.00  0.00    -0.222 OA
HETATM   20  O2  UNL     1      -7.512  50.371 -11.959  1.00  0.00    -0.222 OA
BRANCH  18  21
HETATM   21  C8  UNL     1      -5.474  48.751 -11.950  1.00  0.00     0.103 A 
HETATM   22  C9  UNL     1      -5.148  48.756 -10.624  1.00  0.00     0.048 A 
HETATM   23  C10 UNL     1      -3.877  48.420 -10.295  1.00  0.00     0.040 A 
HETATM   24  C14 UNL     1      -3.041  48.104 -11.332  1.00  0.00     0.171 A 
HETATM   25  F1  UNL     1      -1.711  47.728 -11.302  1.00  0.00    -0.197 F 
HETATM   26  S2  UNL     1      -4.038  48.285 -12.714  1.00  0.00    -0.047 SA
BRANCH  23  27
HETATM   27  C11 UNL     1      -3.378  48.382  -8.881  1.00  0.00     0.065 A 
HETATM   28  C12 UNL     1      -3.642  49.266  -7.865  1.00  0.00     0.123 A 
HETATM   29  N5  UNL     1      -2.990  48.860  -6.748  1.00  0.00    -0.317 N 
HETATM   30  C13 UNL     1      -2.336  47.735  -7.089  1.00  0.00     0.324 A 
ATOM     31  H5  UNL     1      -2.994  49.315  -5.834  1.00  0.00     0.170 HD
HETATM   32  O3  UNL     1      -1.612  47.044  -6.335  1.00  0.00    -0.247 OA
HETATM   33  N6  UNL     1      -2.564  47.441  -8.372  1.00  0.00    -0.306 N 
ATOM     34  H6  UNL     1      -2.186  46.640  -8.878  1.00  0.00     0.170 HD
ENDBRANCH  23  27
ENDBRANCH  18  21
ENDBRANCH  17  18
ENDBRANCH  16  17
ENDBRANCH  15  16
ENDBRANCH   8  15
BRANCH   4  35
HETATM   35  N3  UNL     1      -3.364  44.052 -14.750  1.00  0.00    -0.383 N 
ATOM     36  H32 UNL     1      -3.554  44.936 -15.223  1.00  0.00     0.157 HD
ATOM     37  H31 UNL     1      -3.490  43.172 -15.250  1.00  0.00     0.157 HD
ENDBRANCH   4  35
BRANCH   1  38
HETATM   38  N1  UNL     1      -0.031  43.549 -11.588  1.00  0.00    -0.234 N 
ATOM     39  H12 UNL     1       0.529  42.944 -12.188  1.00  0.00     0.174 HD
ATOM     40  H11 UNL     1       0.408  43.914 -10.743  1.00  0.00     0.174 HD
ENDBRANCH   1  38
TORSDOF 8
ENDMDL
MODEL 5
REMARK VINA RESULT: -6.565466201      2.980      4.174
REMARK  8 active torsions:
REMARK  status: ('A' for Active; 'I' for Inactive)
REMARK    1  A    between atoms: N1_1  and  C1_4 
REMARK    2  A    between atoms: C2_7  and  N3_8 
REMARK    3  A    between atoms: C4_14  and  C5_15 
REMARK    4  A    between atoms: C5_15  and  C6_16 
REMARK    5  A    between atoms: C6_16  and  C7_17 
REMARK    6  A    between atoms: C7_17  and  S1_18 
REMARK    7  A    between atoms: S1_18  and  C8_21 
REMARK    8  A    between atoms: C10_23  and  C11_24 
ROOT
HETATM    1  C1  UNL     1       0.371  47.696  -8.790  1.00  0.00     0.679 A 
HETATM    2  N2  UNL     1      -0.534  47.975  -7.836  1.00  0.00    -0.175 N 
ATOM      3  H2  UNL     1      -0.259  48.587  -7.067  1.00  0.00     0.186 HD
HETATM    4  C2  UNL     1      -1.796  47.481  -7.851  1.00  0.00     0.145 A 
HETATM    5  C3  UNL     1      -2.195  46.652  -8.879  1.00  0.00     0.122 A 
HETATM    6  N4  UNL     1      -3.429  46.126  -8.958  1.00  0.00    -0.352 N 
ATOM      7  H4  UNL     1      -4.095  46.354  -8.221  1.00  0.00     0.166 HD
HETATM    8  C4  UNL     1      -3.834  45.327  -9.939  1.00  0.00     0.025 A 
HETATM    9  C15 UNL     1      -2.870  45.052 -10.923  1.00  0.00     0.114 A 
HETATM   10  N7  UNL     1      -1.635  45.570 -10.855  1.00  0.00    -0.348 N 
ATOM     11  H7  UNL     1      -0.964  45.346 -11.590  1.00  0.00     0.167 HD
HETATM   12  C16 UNL     1      -1.254  46.376  -9.850  1.00  0.00     0.151 A 
HETATM   13  N8  UNL     1      -0.011  46.889  -9.797  1.00  0.00    -0.174 N 
ATOM     14  H8  UNL     1       0.656  46.660 -10.534  1.00  0.00     0.186 HD
ENDROOT
BRANCH   8  15
HETATM   15  C5  UNL     1      -5.176  44.714 -10.087  1.00  0.00     0.059 C 
BRANCH  15  16
HETATM   16  C6  UNL     1      -5.935  45.305 -11.235  1.00  0.00     0.021 C 
BRANCH  16  17
HETATM   17  C7  UNL     1      -6.614  46.573 -10.890  1.00  0.00     0.147 C 
BRANCH  17  18
HETATM   18  S1  UNL     1      -5.756  48.022 -11.314  1.00  0.00     0.182 S 
HETATM   19  O1  UNL     1      -5.201  48.627 -10.041  1.00  0.00    -0.222 OA
HETATM   20  O2  UNL     1      -4.625  47.841 -12.255  1.00  0.00    -0.222 OA
BRANCH  18  21
HETATM   21  C8  UNL     1      -6.830  49.216 -12.082  1.00  0.00     0.103 A 
HETATM   22  C9  UNL     1      -6.505  50.489 -12.456  1.00  0.00     0.048 A 
HETATM   23  C10 UNL     1      -7.479  51.236 -13.028  1.00  0.00     0.040 A 
HETATM   24  C14 UNL     1      -8.701  50.637 -13.178  1.00  0.00     0.171 A 
HETATM   25  F1  UNL     1      -9.866  51.145 -13.720  1.00  0.00    -0.197 F 
HETATM   26  S2  UNL     1      -8.457  49.071 -12.524  1.00  0.00    -0.047 SA
BRANCH  23  27
HETATM   27  C11 UNL     1      -7.267  52.649 -13.487  1.00  0.00     0.065 A 
HETATM   28  C12 UNL     1      -6.869  53.088 -14.724  1.00  0.00     0.123 A 
HETATM   29  N5  UNL     1      -6.803  54.442 -14.711  1.00  0.00    -0.317 N 
HETATM   30  C13 UNL     1      -7.161  54.817 -13.469  1.00  0.00     0.324 A 
ATOM     31  H5  UNL     1      -6.535  55.052 -15.484  1.00  0.00     0.170 HD
HETATM   32  O3  UNL     1      -7.229  55.994 -13.045  1.00  0.00    -0.247 OA
HETATM   33  N6  UNL     1      -7.442  53.744 -12.726  1.00  0.00    -0.306 N 
ATOM     34  H6  UNL     1      -7.737  53.753 -11.750  1.00  0.00     0.170 HD
ENDBRANCH  23  27
ENDBRANCH  18  21
ENDBRANCH  17  18
ENDBRANCH  16  17
ENDBRANCH  15  16
ENDBRANCH   8  15
BRANCH   4  35
HETATM   35  N3  UNL     1      -2.650  47.757  -6.928  1.00  0.00    -0.383 N 
ATOM     36  H32 UNL     1      -2.716  48.723  -6.608  1.00  0.00     0.157 HD
ATOM     37  H31 UNL     1      -3.253  47.045  -6.517  1.00  0.00     0.157 HD
ENDBRANCH   4  35
BRANCH   1  38
HETATM   38  N1  UNL     1       1.574  48.181  -8.756  1.00  0.00    -0.234 N 
ATOM     39  H12 UNL     1       1.825  48.979  -9.339  1.00  0.00     0.174 HD
ATOM     40  H11 UNL     1       2.297  47.786  -8.157  1.00  0.00     0.174 HD
ENDBRANCH   1  38
TORSDOF 8
ENDMDL
