MODEL 1
REMARK VINA RESULT: -5.772728660      0.000      0.000
REMARK  10 active torsions:
REMARK  status: ('A' for Active; 'I' for Inactive)
REMARK    1  A    between atoms: C2_2  and  C3_3 
REMARK    2  A    between atoms: C3_3  and  C4_4 
REMARK    3  A    between atoms: C3_3  and  N1_7 
REMARK    4  A    between atoms: C4_4  and  O1_5 
REMARK    5  A    between atoms: N1_7  and  C5_9 
REMARK    6  A    between atoms: C6_12  and  N3_13 
REMARK    7  A    between atoms: C8_18  and  N5_19 
REMARK    8  A    between atoms: C9_20  and  N6_21 
REMARK    9  A    between atoms: C12_31  and  C13_32 
REMARK   10  A    between atoms: C13_32  and  C14_33 
ROOT
HETATM    1  N5  UNL     1      -3.658  48.142  -9.562  1.00  0.00    -0.113 N 
HETATM    2  C9  UNL     1      -3.469  48.642  -8.328  1.00  0.00     0.686 A 
HETATM    3  N7  UNL     1      -2.257  48.256  -7.942  1.00  0.00    -0.182 N 
ATOM      4  H7  UNL     1      -1.827  48.482  -7.045  1.00  0.00     0.184 HD
HETATM    5  C10 UNL     1      -1.680  47.517  -8.917  1.00  0.00     0.162 A 
HETATM    6  C11 UNL     1      -0.471  46.890  -9.038  1.00  0.00     0.278 A 
HETATM    7  O2  UNL     1       0.339  46.970  -8.071  1.00  0.00    -0.265 OA
HETATM    8  N8  UNL     1      -0.200  46.223 -10.169  1.00  0.00    -0.311 N 
ATOM      9  H8  UNL     1       0.704  45.758 -10.250  1.00  0.00     0.170 HD
HETATM   10  C12 UNL     1      -1.054  46.133 -11.201  1.00  0.00     0.086 A 
HETATM   11  N9  UNL     1      -2.240  46.752 -11.076  1.00  0.00    -0.329 N 
ATOM     12  H9  UNL     1      -2.909  46.701 -11.844  1.00  0.00     0.168 HD
HETATM   13  C18 UNL     1      -2.571  47.441  -9.960  1.00  0.00     0.165 A 
ENDROOT
BRANCH   1  14
HETATM   14  C8  UNL     1      -4.854  48.332 -10.348  1.00  0.00     0.171 A 
HETATM   15  N4  UNL     1      -5.148  49.505 -10.928  1.00  0.00    -0.174 N 
HETATM   16  C6  UNL     1      -6.270  49.683 -11.665  1.00  0.00     0.680 A 
ATOM     17  H4  UNL     1      -4.505  50.289 -10.811  1.00  0.00     0.186 HD
HETATM   18  N2  UNL     1      -7.108  48.648 -11.814  1.00  0.00    -0.175 N 
HETATM   19  C5  UNL     1      -6.909  47.424 -11.273  1.00  0.00     0.143 A 
ATOM     20  H2  UNL     1      -7.950  48.793 -12.371  1.00  0.00     0.186 HD
HETATM   21  C19 UNL     1      -5.727  47.290 -10.516  1.00  0.00     0.123 A 
HETATM   22 CL1  UNL     1      -5.424  45.705  -9.788  1.00  0.00    -0.076 Cl
BRANCH  16  23
HETATM   23  N3  UNL     1      -6.552  50.800 -12.220  1.00  0.00    -0.230 N 
HETATM   24  C7  UNL     1      -5.614  51.405 -13.132  1.00  0.00     0.165 C 
ATOM     25  H3  UNL     1      -7.439  51.262 -12.017  1.00  0.00     0.177 HD
ENDBRANCH  16  23
BRANCH  19  26
HETATM   26  N1  UNL     1      -7.672  46.431 -11.391  1.00  0.00    -0.368 N 
ATOM     27  H1  UNL     1      -7.774  45.913 -10.519  1.00  0.00     0.161 HD
BRANCH  26  28
HETATM   28  C3  UNL     1      -8.414  45.871 -12.435  1.00  0.00     0.106 C 
BRANCH  28  29
HETATM   29  C2  UNL     1      -9.909  46.065 -12.390  1.00  0.00     0.023 C 
HETATM   30  C1  UNL     1     -10.306  47.470 -12.785  1.00  0.00     0.007 C 
ENDBRANCH  28  29
BRANCH  28  31
HETATM   31  C4  UNL     1      -8.109  44.413 -12.742  1.00  0.00     0.189 C 
BRANCH  31  32
HETATM   32  O1  UNL     1      -8.179  43.621 -11.622  1.00  0.00    -0.399 OA
ATOM     33  H1  UNL     1      -7.889  42.733 -11.792  1.00  0.00     0.209 HD
ENDBRANCH  31  32
ENDBRANCH  28  31
ENDBRANCH  26  28
ENDBRANCH  19  26
ENDBRANCH   1  14
BRANCH   2  34
HETATM   34  N6  UNL     1      -4.351  49.357  -7.702  1.00  0.00    -0.234 N 
ATOM     35  H62 UNL     1      -5.361  49.230  -7.626  1.00  0.00     0.174 HD
ATOM     36  H61 UNL     1      -4.121  50.196  -7.170  1.00  0.00     0.174 HD
ENDBRANCH   2  34
BRANCH  10  37
HETATM   37  C13 UNL     1      -0.672  45.384 -12.394  1.00  0.00     0.085 C 
BRANCH  37  38
HETATM   38  C14 UNL     1      -0.942  43.919 -12.336  1.00  0.00    -0.045 C 
HETATM   39  C15 UNL     1      -2.108  43.577 -11.433  1.00  0.00     0.015 C 
HETATM   40  C16 UNL     1       0.240  43.097 -11.936  1.00  0.00     0.015 C 
HETATM   41  C17 UNL     1      -1.346  43.476 -13.744  1.00  0.00     0.015 C 
ENDBRANCH  37  38
ENDBRANCH  10  37
TORSDOF 10
ENDMDL
MODEL 2
REMARK VINA RESULT: -5.720410404      2.590      7.710
REMARK  10 active torsions:
REMARK  status: ('A' for Active; 'I' for Inactive)
REMARK    1  A    between atoms: C2_2  and  C3_3 
REMARK    2  A    between atoms: C3_3  and  C4_4 
REMARK    3  A    between atoms: C3_3  and  N1_7 
REMARK    4  A    between atoms: C4_4  and  O1_5 
REMARK    5  A    between atoms: N1_7  and  C5_9 
REMARK    6  A    between atoms: C6_12  and  N3_13 
REMARK    7  A    between atoms: C8_18  and  N5_19 
REMARK    8  A    between atoms: C9_20  and  N6_21 
REMARK    9  A    between atoms: C12_31  and  C13_32 
REMARK   10  A    between atoms: C13_32  and  C14_33 
ROOT
HETATM    1  N5  UNL     1      -5.792  48.685 -12.171  1.00  0.00    -0.113 N 
HETATM    2  C9  UNL     1      -6.993  48.123 -11.947  1.00  0.00     0.686 A 
HETATM    3  N7  UNL     1      -7.904  49.064 -12.178  1.00  0.00    -0.182 N 
ATOM      4  H7  UNL     1      -8.912  48.938 -12.092  1.00  0.00     0.184 HD
HETATM    5  C10 UNL     1      -7.291  50.213 -12.545  1.00  0.00     0.162 A 
HETATM    6  C11 UNL     1      -7.744  51.457 -12.887  1.00  0.00     0.278 A 
HETATM    7  O2  UNL     1      -8.991  51.657 -12.884  1.00  0.00    -0.265 OA
HETATM    8  N8  UNL     1      -6.849  52.403 -13.208  1.00  0.00    -0.311 N 
ATOM      9  H8  UNL     1      -7.195  53.328 -13.463  1.00  0.00     0.170 HD
HETATM   10  C12 UNL     1      -5.522  52.199 -13.214  1.00  0.00     0.086 A 
HETATM   11  N9  UNL     1      -5.085  50.974 -12.877  1.00  0.00    -0.329 N 
ATOM     12  H9  UNL     1      -4.082  50.790 -12.873  1.00  0.00     0.168 HD
HETATM   13  C18 UNL     1      -5.938  49.979 -12.543  1.00  0.00     0.165 A 
ENDROOT
BRANCH   1  14
HETATM   14  C8  UNL     1      -4.529  48.001 -12.033  1.00  0.00     0.171 A 
HETATM   15  N4  UNL     1      -3.862  47.515 -13.092  1.00  0.00    -0.174 N 
HETATM   16  C6  UNL     1      -2.677  46.873 -12.962  1.00  0.00     0.680 A 
ATOM     17  H4  UNL     1      -4.261  47.633 -14.024  1.00  0.00     0.186 HD
HETATM   18  N2  UNL     1      -2.162  46.722 -11.735  1.00  0.00    -0.175 N 
HETATM   19  C5  UNL     1      -2.749  47.172 -10.602  1.00  0.00     0.143 A 
ATOM     20  H2  UNL     1      -1.268  46.237 -11.648  1.00  0.00     0.186 HD
HETATM   21  C19 UNL     1      -3.980  47.834 -10.790  1.00  0.00     0.123 A 
HETATM   22 CL1  UNL     1      -4.787  48.441  -9.335  1.00  0.00    -0.076 Cl
BRANCH  16  23
HETATM   23  N3  UNL     1      -2.039  46.409 -13.969  1.00  0.00    -0.230 N 
HETATM   24  C7  UNL     1      -1.106  45.324 -13.790  1.00  0.00     0.165 C 
ATOM     25  H3  UNL     1      -2.192  46.805 -14.897  1.00  0.00     0.177 HD
ENDBRANCH  16  23
BRANCH  19  26
HETATM   26  N1  UNL     1      -2.296  47.049  -9.435  1.00  0.00    -0.368 N 
ATOM     27  H1  UNL     1      -2.733  46.280  -8.927  1.00  0.00     0.161 HD
BRANCH  26  28
HETATM   28  C3  UNL     1      -1.335  47.717  -8.671  1.00  0.00     0.106 C 
BRANCH  28  29
HETATM   29  C2  UNL     1       0.033  47.088  -8.593  1.00  0.00     0.023 C 
HETATM   30  C1  UNL     1       1.118  48.045  -9.034  1.00  0.00     0.007 C 
ENDBRANCH  28  29
BRANCH  28  31
HETATM   31  C4  UNL     1      -1.779  48.120  -7.272  1.00  0.00     0.189 C 
BRANCH  31  32
HETATM   32  O1  UNL     1      -1.521  47.142  -6.344  1.00  0.00    -0.399 OA
ATOM     33  H1  UNL     1      -0.590  47.001  -6.221  1.00  0.00     0.209 HD
ENDBRANCH  31  32
ENDBRANCH  28  31
ENDBRANCH  26  28
ENDBRANCH  19  26
ENDBRANCH   1  14
BRANCH   2  34
HETATM   34  N6  UNL     1      -7.148  46.890 -11.578  1.00  0.00    -0.234 N 
ATOM     35  H62 UNL     1      -6.496  46.261 -11.109  1.00  0.00     0.174 HD
ATOM     36  H61 UNL     1      -8.009  46.362 -11.724  1.00  0.00     0.174 HD
ENDBRANCH   2  34
BRANCH  10  37
HETATM   37  C13 UNL     1      -4.623  53.289 -13.578  1.00  0.00     0.085 C 
BRANCH  37  38
HETATM   38  C14 UNL     1      -3.945  53.138 -14.896  1.00  0.00    -0.045 C 
HETATM   39  C15 UNL     1      -3.972  54.412 -15.715  1.00  0.00     0.015 C 
HETATM   40  C16 UNL     1      -4.472  52.014 -15.728  1.00  0.00     0.015 C 
HETATM   41  C17 UNL     1      -2.469  52.840 -14.617  1.00  0.00     0.015 C 
ENDBRANCH  37  38
ENDBRANCH  10  37
TORSDOF 10
ENDMDL
MODEL 3
REMARK VINA RESULT: -5.702671407      2.517      7.715
REMARK  10 active torsions:
REMARK  status: ('A' for Active; 'I' for Inactive)
REMARK    1  A    between atoms: C2_2  and  C3_3 
REMARK    2  A    between atoms: C3_3  and  C4_4 
REMARK    3  A    between atoms: C3_3  and  N1_7 
REMARK    4  A    between atoms: C4_4  and  O1_5 
REMARK    5  A    between atoms: N1_7  and  C5_9 
REMARK    6  A    between atoms: C6_12  and  N3_13 
REMARK    7  A    between atoms: C8_18  and  N5_19 
REMARK    8  A    between atoms: C9_20  and  N6_21 
REMARK    9  A    between atoms: C12_31  and  C13_32 
REMARK   10  A    between atoms: C13_32  and  C14_33 
ROOT
HETATM    1  N5  UNL     1      -5.705  48.606 -12.042  1.00  0.00    -0.113 N 
HETATM    2  C9  UNL     1      -6.823  47.899 -11.798  1.00  0.00     0.686 A 
HETATM    3  N7  UNL     1      -7.848  48.718 -12.017  1.00  0.00    -0.182 N 
ATOM      4  H7  UNL     1      -8.831  48.467 -11.915  1.00  0.00     0.184 HD
HETATM    5  C10 UNL     1      -7.389  49.933 -12.396  1.00  0.00     0.162 A 
HETATM    6  C11 UNL     1      -7.999  51.109 -12.734  1.00  0.00     0.278 A 
HETATM    7  O2  UNL     1      -9.262  51.152 -12.712  1.00  0.00    -0.265 OA
HETATM    8  N8  UNL     1      -7.234  52.158 -13.072  1.00  0.00    -0.311 N 
ATOM      9  H8  UNL     1      -7.697  53.031 -13.323  1.00  0.00     0.170 HD
HETATM   10  C12 UNL     1      -5.893  52.121 -13.098  1.00  0.00     0.086 A 
HETATM   11  N9  UNL     1      -5.300  50.963 -12.764  1.00  0.00    -0.329 N 
ATOM     12  H9  UNL     1      -4.283  50.905 -12.775  1.00  0.00     0.168 HD
HETATM   13  C18 UNL     1      -6.017  49.870 -12.415  1.00  0.00     0.165 A 
ENDROOT
BRANCH   1  14
HETATM   14  C8  UNL     1      -4.364  48.086 -11.922  1.00  0.00     0.171 A 
HETATM   15  N4  UNL     1      -3.792  47.358 -12.894  1.00  0.00    -0.174 N 
HETATM   16  C6  UNL     1      -2.534  46.870 -12.781  1.00  0.00     0.680 A 
ATOM     17  H4  UNL     1      -4.322  47.167 -13.745  1.00  0.00     0.186 HD
HETATM   18  N2  UNL     1      -1.846  47.126 -11.661  1.00  0.00    -0.175 N 
HETATM   19  C5  UNL     1      -2.326  47.847 -10.621  1.00  0.00     0.143 A 
ATOM     20  H2  UNL     1      -0.899  46.753 -11.586  1.00  0.00     0.186 HD
HETATM   21  C19 UNL     1      -3.639  48.333 -10.787  1.00  0.00     0.123 A 
HETATM   22 CL1  UNL     1      -4.310  49.283  -9.452  1.00  0.00    -0.076 Cl
BRANCH  16  23
HETATM   23  N3  UNL     1      -1.987  46.177 -13.706  1.00  0.00    -0.230 N 
HETATM   24  C7  UNL     1      -0.980  45.201 -13.371  1.00  0.00     0.165 C 
ATOM     25  H3  UNL     1      -2.262  46.315 -14.679  1.00  0.00     0.177 HD
ENDBRANCH  16  23
BRANCH  19  26
HETATM   26  N1  UNL     1      -1.711  48.106  -9.555  1.00  0.00    -0.368 N 
ATOM     27  H1  UNL     1      -1.695  49.105  -9.348  1.00  0.00     0.161 HD
BRANCH  26  28
HETATM   28  C3  UNL     1      -1.045  47.349  -8.588  1.00  0.00     0.106 C 
BRANCH  28  29
HETATM   29  C2  UNL     1      -1.484  47.530  -7.156  1.00  0.00     0.023 C 
HETATM   30  C1  UNL     1      -2.968  47.290  -6.989  1.00  0.00     0.007 C 
ENDBRANCH  28  29
BRANCH  28  31
HETATM   31  C4  UNL     1       0.475  47.399  -8.653  1.00  0.00     0.189 C 
BRANCH  31  32
HETATM   32  O1  UNL     1       0.932  48.568  -9.211  1.00  0.00    -0.399 OA
ATOM     33  H1  UNL     1       0.390  48.854  -9.937  1.00  0.00     0.209 HD
ENDBRANCH  31  32
ENDBRANCH  28  31
ENDBRANCH  26  28
ENDBRANCH  19  26
ENDBRANCH   1  14
BRANCH   2  34
HETATM   34  N6  UNL     1      -6.817  46.658 -11.424  1.00  0.00    -0.234 N 
ATOM     35  H62 UNL     1      -6.529  45.822 -11.934  1.00  0.00     0.174 HD
ATOM     36  H61 UNL     1      -7.121  46.346 -10.501  1.00  0.00     0.174 HD
ENDBRANCH   2  34
BRANCH  10  37
HETATM   37  C13 UNL     1      -5.143  53.314 -13.478  1.00  0.00     0.085 C 
BRANCH  37  38
HETATM   38  C14 UNL     1      -4.300  53.170 -14.698  1.00  0.00    -0.045 C 
HETATM   39  C15 UNL     1      -4.935  52.278 -15.744  1.00  0.00     0.015 C 
HETATM   40  C16 UNL     1      -2.912  52.688 -14.427  1.00  0.00     0.015 C 
HETATM   41  C17 UNL     1      -4.180  54.557 -15.334  1.00  0.00     0.015 C 
ENDBRANCH  37  38
ENDBRANCH  10  37
TORSDOF 10
ENDMDL
MODEL 4
REMARK VINA RESULT: -5.698603837      2.623      7.533
REMARK  10 active torsions:
REMARK  status: ('A' for Active; 'I' for Inactive)
REMARK    1  A    between atoms: C2_2  and  C3_3 
REMARK    2  A    between atoms: C3_3  and  C4_4 
REMARK    3  A    between atoms: C3_3  and  N1_7 
REMARK    4  A    between atoms: C4_4  and  O1_5 
REMARK    5  A    between atoms: N1_7  and  C5_9 
REMARK    6  A    between atoms: C6_12  and  N3_13 
REMARK    7  A    between atoms: C8_18  and  N5_19 
REMARK    8  A    between atoms: C9_20  and  N6_21 
REMARK    9  A    between atoms: C12_31  and  C13_32 
REMARK   10  A    between atoms: C13_32  and  C14_33 
ROOT
HETATM    1  N5  UNL     1      -5.531  46.286 -12.715  1.00  0.00    -0.113 N 
HETATM    2  C9  UNL     1      -6.644  45.549 -12.882  1.00  0.00     0.686 A 
HETATM    3  N7  UNL     1      -7.342  46.128 -13.854  1.00  0.00    -0.182 N 
ATOM      4  H7  UNL     1      -8.239  45.797 -14.209  1.00  0.00     0.184 HD
HETATM    5  C10 UNL     1      -6.684  47.222 -14.301  1.00  0.00     0.162 A 
HETATM    6  C11 UNL     1      -6.949  48.156 -15.263  1.00  0.00     0.278 A 
HETATM    7  O2  UNL     1      -8.021  48.043 -15.922  1.00  0.00    -0.265 OA
HETATM    8  N8  UNL     1      -6.064  49.144 -15.464  1.00  0.00    -0.311 N 
ATOM      9  H8  UNL     1      -6.270  49.836 -16.185  1.00  0.00     0.170 HD
HETATM   10  C12 UNL     1      -4.923  49.271 -14.770  1.00  0.00     0.086 A 
HETATM   11  N9  UNL     1      -4.669  48.350 -13.826  1.00  0.00    -0.329 N 
ATOM     12  H9  UNL     1      -3.809  48.421 -13.283  1.00  0.00     0.168 HD
HETATM   13  C18 UNL     1      -5.522  47.330 -13.577  1.00  0.00     0.165 A 
ENDROOT
BRANCH   1  14
HETATM   14  C8  UNL     1      -4.496  45.999 -11.751  1.00  0.00     0.171 A 
HETATM   15  N4  UNL     1      -3.538  45.088 -11.983  1.00  0.00    -0.174 N 
HETATM   16  C6  UNL     1      -2.567  44.819 -11.078  1.00  0.00     0.680 A 
ATOM     17  H4  UNL     1      -3.542  44.582 -12.869  1.00  0.00     0.186 HD
HETATM   18  N2  UNL     1      -2.570  45.488  -9.918  1.00  0.00    -0.175 N 
HETATM   19  C5  UNL     1      -3.487  46.425  -9.582  1.00  0.00     0.143 A 
ATOM     20  H2  UNL     1      -1.834  45.277  -9.243  1.00  0.00     0.186 HD
HETATM   21  C19 UNL     1      -4.476  46.669 -10.557  1.00  0.00     0.123 A 
HETATM   22 CL1  UNL     1      -5.698  47.888 -10.162  1.00  0.00    -0.076 Cl
BRANCH  16  23
HETATM   23  N3  UNL     1      -1.653  43.951 -11.297  1.00  0.00    -0.230 N 
HETATM   24  C7  UNL     1      -2.015  42.590 -11.606  1.00  0.00     0.165 C 
ATOM     25  H3  UNL     1      -0.670  44.222 -11.253  1.00  0.00     0.177 HD
ENDBRANCH  16  23
BRANCH  19  26
HETATM   26  N1  UNL     1      -3.522  47.072  -8.504  1.00  0.00    -0.368 N 
ATOM     27  H1  UNL     1      -4.242  46.730  -7.868  1.00  0.00     0.161 HD
BRANCH  26  28
HETATM   28  C3  UNL     1      -2.807  48.148  -7.972  1.00  0.00     0.106 C 
BRANCH  28  29
HETATM   29  C2  UNL     1      -1.523  47.825  -7.249  1.00  0.00     0.023 C 
HETATM   30  C1  UNL     1      -0.363  47.668  -8.206  1.00  0.00     0.007 C 
ENDBRANCH  28  29
BRANCH  28  31
HETATM   31  C4  UNL     1      -3.621  49.121  -7.132  1.00  0.00     0.189 C 
BRANCH  31  32
HETATM   32  O1  UNL     1      -3.066  50.377  -7.110  1.00  0.00    -0.399 OA
ATOM     33  H1  UNL     1      -2.375  50.476  -7.754  1.00  0.00     0.209 HD
ENDBRANCH  31  32
ENDBRANCH  28  31
ENDBRANCH  26  28
ENDBRANCH  19  26
ENDBRANCH   1  14
BRANCH   2  34
HETATM   34  N6  UNL     1      -6.910  44.487 -12.187  1.00  0.00    -0.234 N 
ATOM     35  H62 UNL     1      -7.762  44.230 -11.687  1.00  0.00     0.174 HD
ATOM     36  H61 UNL     1      -6.247  43.724 -12.048  1.00  0.00     0.174 HD
ENDBRANCH   2  34
BRANCH  10  37
HETATM   37  C13 UNL     1      -4.019  50.380 -15.059  1.00  0.00     0.085 C 
BRANCH  37  38
HETATM   38  C14 UNL     1      -4.431  51.696 -14.495  1.00  0.00    -0.045 C 
HETATM   39  C15 UNL     1      -5.223  51.558 -13.212  1.00  0.00     0.015 C 
HETATM   40  C16 UNL     1      -5.194  52.556 -15.448  1.00  0.00     0.015 C 
HETATM   41  C17 UNL     1      -3.151  52.454 -14.128  1.00  0.00     0.015 C 
ENDBRANCH  37  38
ENDBRANCH  10  37
TORSDOF 10
ENDMDL
MODEL 5
REMARK VINA RESULT: -5.656447337      2.345      7.552
REMARK  10 active torsions:
REMARK  status: ('A' for Active; 'I' for Inactive)
REMARK    1  A    between atoms: C2_2  and  C3_3 
REMARK    2  A    between atoms: C3_3  and  C4_4 
REMARK    3  A    between atoms: C3_3  and  N1_7 
REMARK    4  A    between atoms: C4_4  and  O1_5 
REMARK    5  A    between atoms: N1_7  and  C5_9 
REMARK    6  A    between atoms: C6_12  and  N3_13 
REMARK    7  A    between atoms: C8_18  and  N5_19 
REMARK    8  A    between atoms: C9_20  and  N6_21 
REMARK    9  A    between atoms: C12_31  and  C13_32 
REMARK   10  A    between atoms: C13_32  and  C14_33 
ROOT
HETATM    1  N5  UNL     1      -5.136  44.783 -12.702  1.00  0.00    -0.113 N 
HETATM    2  C9  UNL     1      -5.664  43.570 -12.945  1.00  0.00     0.686 A 
HETATM    3  N7  UNL     1      -6.756  43.769 -13.676  1.00  0.00    -0.182 N 
ATOM      4  H7  UNL     1      -7.374  43.034 -14.020  1.00  0.00     0.184 HD
HETATM    5  C10 UNL     1      -6.925  45.093 -13.896  1.00  0.00     0.162 A 
HETATM    6  C11 UNL     1      -7.861  45.828 -14.570  1.00  0.00     0.278 A 
HETATM    7  O2  UNL     1      -8.806  45.209 -15.136  1.00  0.00    -0.265 OA
HETATM    8  N8  UNL     1      -7.735  47.162 -14.599  1.00  0.00    -0.311 N 
ATOM      9  H8  UNL     1      -8.438  47.702 -15.104  1.00  0.00     0.170 HD
HETATM   10  C12 UNL     1      -6.734  47.827 -14.000  1.00  0.00     0.086 A 
HETATM   11  N9  UNL     1      -5.818  47.099 -13.341  1.00  0.00    -0.329 N 
ATOM     12  H9  UNL     1      -5.046  47.577 -12.876  1.00  0.00     0.168 HD
HETATM   13  C18 UNL     1      -5.890  45.750 -13.276  1.00  0.00     0.165 A 
ENDROOT
BRANCH   1  14
HETATM   14  C8  UNL     1      -3.935  45.015 -11.936  1.00  0.00     0.171 A 
HETATM   15  N4  UNL     1      -2.711  44.879 -12.470  1.00  0.00    -0.174 N 
HETATM   16  C6  UNL     1      -1.585  45.097 -11.752  1.00  0.00     0.680 A 
ATOM     17  H4  UNL     1      -2.628  44.603 -13.449  1.00  0.00     0.186 HD
HETATM   18  N2  UNL     1      -1.705  45.459 -10.467  1.00  0.00    -0.175 N 
HETATM   19  C5  UNL     1      -2.887  45.624  -9.830  1.00  0.00     0.143 A 
ATOM     20  H2  UNL     1      -0.849  45.620  -9.935  1.00  0.00     0.186 HD
HETATM   21  C19 UNL     1      -4.030  45.386 -10.621  1.00  0.00     0.123 A 
HETATM   22 CL1  UNL     1      -5.601  45.590  -9.830  1.00  0.00    -0.076 Cl
BRANCH  16  23
HETATM   23  N3  UNL     1      -0.418  44.968 -12.259  1.00  0.00    -0.230 N 
HETATM   24  C7  UNL     1       0.377  43.808 -11.944  1.00  0.00     0.165 C 
ATOM     25  H3  UNL     1      -0.050  45.685 -12.885  1.00  0.00     0.177 HD
ENDBRANCH  16  23
BRANCH  19  26
HETATM   26  N1  UNL     1      -3.038  45.962  -8.628  1.00  0.00    -0.368 N 
ATOM     27  H1  UNL     1      -3.369  45.193  -8.046  1.00  0.00     0.161 HD
BRANCH  26  28
HETATM   28  C3  UNL     1      -2.858  47.142  -7.902  1.00  0.00     0.106 C 
BRANCH  28  29
HETATM   29  C2  UNL     1      -3.507  48.388  -8.452  1.00  0.00     0.023 C 
HETATM   30  C1  UNL     1      -3.920  49.339  -7.351  1.00  0.00     0.007 C 
ENDBRANCH  28  29
BRANCH  28  31
HETATM   31  C4  UNL     1      -1.420  47.458  -7.516  1.00  0.00     0.189 C 
BRANCH  31  32
HETATM   32  O1  UNL     1      -0.665  46.323  -7.353  1.00  0.00    -0.399 OA
ATOM     33  H1  UNL     1       0.221  46.432  -7.675  1.00  0.00     0.209 HD
ENDBRANCH  31  32
ENDBRANCH  28  31
ENDBRANCH  26  28
ENDBRANCH  19  26
ENDBRANCH   1  14
BRANCH   2  34
HETATM   34  N6  UNL     1      -5.144  42.464 -12.513  1.00  0.00    -0.234 N 
ATOM     35  H62 UNL     1      -5.583  41.560 -12.336  1.00  0.00     0.174 HD
ATOM     36  H61 UNL     1      -4.156  42.359 -12.282  1.00  0.00     0.174 HD
ENDBRANCH   2  34
BRANCH  10  37
HETATM   37  C13 UNL     1      -6.679  49.283 -14.086  1.00  0.00     0.085 C 
BRANCH  37  38
HETATM   38  C14 UNL     1      -7.069  50.006 -12.843  1.00  0.00    -0.045 C 
HETATM   39  C15 UNL     1      -5.981  49.982 -11.789  1.00  0.00     0.015 C 
HETATM   40  C16 UNL     1      -8.346  49.528 -12.234  1.00  0.00     0.015 C 
HETATM   41  C17 UNL     1      -7.270  51.477 -13.217  1.00  0.00     0.015 C 
ENDBRANCH  37  38
ENDBRANCH  10  37
TORSDOF 10
ENDMDL
