MODEL 1
REMARK VINA RESULT: -6.608084261      0.000      0.000
REMARK  7 active torsions:
REMARK  status: ('A' for Active; 'I' for Inactive)
REMARK    1  A    between atoms: N2_5  and  C3_6 
REMARK    2  A    between atoms: C4_10  and  C5_11 
REMARK    3  A    between atoms: C5_11  and  N4_12 
REMARK    4  A    between atoms: N4_12  and  C6_13 
REMARK    5  A    between atoms: C11_26  and  C12_27 
REMARK    6  A    between atoms: C12_27  and  N9_28 
REMARK    7  A    between atoms: C16_32  and  N10_33 
ROOT
HETATM    1  C1  UNL     1     -35.526 -10.356  -9.538  1.00  0.00     0.071 C 
HETATM    2  C2  UNL     1     -34.468 -10.122 -10.585  1.00  0.00     0.047 A 
HETATM    3  N1  UNL     1     -33.165 -10.501 -10.449  1.00  0.00    -0.294 N 
ATOM      4  H1  UNL     1     -32.769 -10.974  -9.637  1.00  0.00     0.187 HD
HETATM    5  N2  UNL     1     -32.475 -10.147 -11.571  1.00  0.00    -0.230 N 
HETATM    6  C16 UNL     1     -33.289  -9.566 -12.387  1.00  0.00     0.144 A 
HETATM    7  C17 UNL     1     -34.590  -9.531 -11.791  1.00  0.00     0.113 A 
HETATM    8  C18 UNL     1     -35.766  -8.990 -12.375  1.00  0.00     0.105 C 
HETATM    9  N11 UNL     1     -36.726  -8.582 -12.867  1.00  0.00    -0.191 NA
ENDROOT
BRANCH   6  10
HETATM   10  N10 UNL     1     -32.998  -9.069 -13.537  1.00  0.00    -0.383 N 
ATOM     11 2H10 UNL     1     -32.152  -9.286 -14.065  1.00  0.00     0.157 HD
ATOM     12 1H10 UNL     1     -33.567  -8.421 -14.082  1.00  0.00     0.157 HD
ENDBRANCH   6  10
BRANCH   5  13
HETATM   13  C3  UNL     1     -31.046 -10.448 -11.535  1.00  0.00     0.128 A 
HETATM   14  S1  UNL     1     -30.300 -11.950 -11.835  1.00  0.00     0.007 SA
HETATM   15  N3  UNL     1     -28.735 -11.408 -11.978  1.00  0.00    -0.325 N 
HETATM   16  C4  UNL     1     -28.772 -10.074 -11.788  1.00  0.00     0.060 A 
ATOM     17  H3  UNL     1     -27.909 -11.973 -12.171  1.00  0.00     0.174 HD
HETATM   18  C11 UNL     1     -29.995  -9.527 -11.544  1.00  0.00     0.037 A 
BRANCH  16  19
HETATM   19  C5  UNL     1     -27.454  -9.276 -11.881  1.00  0.00     0.279 C 
BRANCH  19  20
HETATM   20  N4  UNL     1     -26.982  -9.061 -10.610  1.00  0.00    -0.422 NA
BRANCH  20  21
HETATM   21  C6  UNL     1     -26.561  -8.779  -9.553  1.00  0.00     0.204 A 
HETATM   22  N5  UNL     1     -25.418  -9.321  -9.020  1.00  0.00    -0.326 N 
HETATM   23  C7  UNL     1     -24.948  -9.024  -7.821  1.00  0.00     0.184 A 
ATOM     24  H5  UNL     1     -24.900  -9.994  -9.584  1.00  0.00     0.169 HD
HETATM   25  N6  UNL     1     -25.558  -8.131  -6.967  1.00  0.00    -0.337 N 
HETATM   26  C8  UNL     1     -26.702  -7.552  -7.451  1.00  0.00     0.139 A 
ATOM     27  H6  UNL     1     -25.186  -7.917  -6.042  1.00  0.00     0.168 HD
HETATM   28  N7  UNL     1     -27.519  -6.619  -6.858  1.00  0.00    -0.337 N 
HETATM   29  C10 UNL     1     -27.193  -7.858  -8.696  1.00  0.00     0.136 A 
HETATM   30  C9  UNL     1     -28.504  -6.370  -7.759  1.00  0.00     0.182 A 
ATOM     31  H7  UNL     1     -27.408  -6.201  -5.935  1.00  0.00     0.168 HD
HETATM   32  N8  UNL     1     -28.299  -7.132  -8.860  1.00  0.00    -0.345 N 
ATOM     33  H8  UNL     1     -28.897  -7.148  -9.685  1.00  0.00     0.167 HD
ENDBRANCH  20  21
ENDBRANCH  19  20
ENDBRANCH  16  19
BRANCH  18  34
HETATM   34  C12 UNL     1     -30.389  -8.088 -11.369  1.00  0.00     0.076 C 
BRANCH  34  35
HETATM   35  N9  UNL     1     -30.318  -7.248 -12.473  1.00  0.00    -0.292 NA
HETATM   36  C13 UNL     1     -31.279  -6.131 -12.513  1.00  0.00     0.096 C 
HETATM   37  C14 UNL     1     -30.185  -5.366 -13.268  1.00  0.00     0.030 C 
HETATM   38  C15 UNL     1     -29.308  -6.120 -12.258  1.00  0.00     0.096 C 
ENDBRANCH  34  35
ENDBRANCH  18  34
ENDBRANCH   5  13
TORSDOF 7
ENDMDL
MODEL 2
REMARK VINA RESULT: -6.454523513      1.962      3.827
REMARK  7 active torsions:
REMARK  status: ('A' for Active; 'I' for Inactive)
REMARK    1  A    between atoms: N2_5  and  C3_6 
REMARK    2  A    between atoms: C4_10  and  C5_11 
REMARK    3  A    between atoms: C5_11  and  N4_12 
REMARK    4  A    between atoms: N4_12  and  C6_13 
REMARK    5  A    between atoms: C11_26  and  C12_27 
REMARK    6  A    between atoms: C12_27  and  N9_28 
REMARK    7  A    between atoms: C16_32  and  N10_33 
ROOT
HETATM    1  C1  UNL     1     -34.175  -6.064 -14.686  1.00  0.00     0.071 C 
HETATM    2  C2  UNL     1     -32.791  -6.058 -14.092  1.00  0.00     0.047 A 
HETATM    3  N1  UNL     1     -32.003  -7.165 -13.984  1.00  0.00    -0.294 N 
ATOM      4  H1  UNL     1     -32.261  -8.105 -14.285  1.00  0.00     0.187 HD
HETATM    5  N2  UNL     1     -30.816  -6.818 -13.409  1.00  0.00    -0.230 N 
HETATM    6  C16 UNL     1     -30.838  -5.553 -13.155  1.00  0.00     0.144 A 
HETATM    7  C17 UNL     1     -32.096  -5.020 -13.583  1.00  0.00     0.113 A 
HETATM    8  C18 UNL     1     -32.505  -3.663 -13.495  1.00  0.00     0.105 C 
HETATM    9  N11 UNL     1     -32.821  -2.554 -13.455  1.00  0.00    -0.191 NA
ENDROOT
BRANCH   6  10
HETATM   10  N10 UNL     1     -29.909  -4.868 -12.587  1.00  0.00    -0.383 N 
ATOM     11 2H10 UNL     1     -29.211  -5.254 -11.951  1.00  0.00     0.157 HD
ATOM     12 1H10 UNL     1     -29.728  -3.871 -12.706  1.00  0.00     0.157 HD
ENDBRANCH   6  10
BRANCH   5  13
HETATM   13  C3  UNL     1     -29.894  -7.928 -13.183  1.00  0.00     0.128 A 
HETATM   14  S1  UNL     1     -28.472  -8.282 -14.052  1.00  0.00     0.007 SA
HETATM   15  N3  UNL     1     -27.826  -9.393 -12.998  1.00  0.00    -0.325 N 
HETATM   16  C4  UNL     1     -28.698  -9.507 -11.977  1.00  0.00     0.060 A 
ATOM     17  H3  UNL     1     -26.942  -9.891 -13.103  1.00  0.00     0.174 HD
HETATM   18  C11 UNL     1     -29.821  -8.739 -12.046  1.00  0.00     0.037 A 
BRANCH  16  19
HETATM   19  C5  UNL     1     -28.359 -10.466 -10.816  1.00  0.00     0.279 C 
BRANCH  19  20
HETATM   20  N4  UNL     1     -27.567  -9.799  -9.915  1.00  0.00    -0.422 NA
BRANCH  20  21
HETATM   21  C6  UNL     1     -26.952  -9.265  -9.071  1.00  0.00     0.204 A 
HETATM   22  N5  UNL     1     -25.729  -9.702  -8.628  1.00  0.00    -0.326 N 
HETATM   23  C7  UNL     1     -25.040  -9.118  -7.663  1.00  0.00     0.184 A 
ATOM     24  H5  UNL     1     -25.328 -10.529  -9.070  1.00  0.00     0.169 HD
HETATM   25  N6  UNL     1     -25.476  -7.998  -6.992  1.00  0.00    -0.337 N 
HETATM   26  C8  UNL     1     -26.690  -7.511  -7.399  1.00  0.00     0.139 A 
ATOM     27  H6  UNL     1     -24.935  -7.562  -6.245  1.00  0.00     0.168 HD
HETATM   28  N7  UNL     1     -27.379  -6.411  -6.947  1.00  0.00    -0.337 N 
HETATM   29  C10 UNL     1     -27.409  -8.115  -8.401  1.00  0.00     0.136 A 
HETATM   30  C9  UNL     1     -28.517  -6.362  -7.686  1.00  0.00     0.182 A 
ATOM     31  H7  UNL     1     -27.095  -5.766  -6.210  1.00  0.00     0.168 HD
HETATM   32  N8  UNL     1     -28.526  -7.402  -8.553  1.00  0.00    -0.345 N 
ATOM     33  H8  UNL     1     -29.270  -7.609  -9.218  1.00  0.00     0.167 HD
ENDBRANCH  20  21
ENDBRANCH  19  20
ENDBRANCH  16  19
BRANCH  18  34
HETATM   34  C12 UNL     1     -30.937  -8.573 -11.055  1.00  0.00     0.076 C 
BRANCH  34  35
HETATM   35  N9  UNL     1     -32.195  -9.057 -11.393  1.00  0.00    -0.292 NA
HETATM   36  C13 UNL     1     -32.243 -10.411 -11.975  1.00  0.00     0.096 C 
HETATM   37  C14 UNL     1     -33.616 -10.527 -11.300  1.00  0.00     0.030 C 
HETATM   38  C15 UNL     1     -32.867  -9.750 -10.207  1.00  0.00     0.096 C 
ENDBRANCH  34  35
ENDBRANCH  18  34
ENDBRANCH   5  13
TORSDOF 7
ENDMDL
MODEL 3
REMARK VINA RESULT: -6.341417215      0.867      1.482
REMARK  7 active torsions:
REMARK  status: ('A' for Active; 'I' for Inactive)
REMARK    1  A    between atoms: N2_5  and  C3_6 
REMARK    2  A    between atoms: C4_10  and  C5_11 
REMARK    3  A    between atoms: C5_11  and  N4_12 
REMARK    4  A    between atoms: N4_12  and  C6_13 
REMARK    5  A    between atoms: C11_26  and  C12_27 
REMARK    6  A    between atoms: C12_27  and  N9_28 
REMARK    7  A    between atoms: C16_32  and  N10_33 
ROOT
HETATM    1  C1  UNL     1     -35.402  -9.971 -14.063  1.00  0.00     0.071 C 
HETATM    2  C2  UNL     1     -34.515 -10.060 -12.849  1.00  0.00     0.047 A 
HETATM    3  N1  UNL     1     -33.167 -10.257 -12.903  1.00  0.00    -0.294 N 
ATOM      4  H1  UNL     1     -32.620 -10.367 -13.757  1.00  0.00     0.187 HD
HETATM    5  N2  UNL     1     -32.666 -10.284 -11.635  1.00  0.00    -0.230 N 
HETATM    6  C16 UNL     1     -33.640 -10.119 -10.805  1.00  0.00     0.144 A 
HETATM    7  C17 UNL     1     -34.855  -9.966 -11.547  1.00  0.00     0.113 A 
HETATM    8  C18 UNL     1     -36.148  -9.746 -11.003  1.00  0.00     0.105 C 
HETATM    9  N11 UNL     1     -37.191  -9.531 -10.559  1.00  0.00    -0.191 NA
ENDROOT
BRANCH   6  10
HETATM   10  N10 UNL     1     -33.562 -10.115  -9.521  1.00  0.00    -0.383 N 
ATOM     11 2H10 UNL     1     -33.925 -10.851  -8.916  1.00  0.00     0.157 HD
ATOM     12 1H10 UNL     1     -33.117  -9.403  -8.940  1.00  0.00     0.157 HD
ENDBRANCH   6  10
BRANCH   5  13
HETATM   13  C3  UNL     1     -31.231 -10.545 -11.546  1.00  0.00     0.128 A 
HETATM   14  S1  UNL     1     -30.437 -12.034 -11.776  1.00  0.00     0.007 SA
HETATM   15  N3  UNL     1     -28.883 -11.454 -11.888  1.00  0.00    -0.325 N 
HETATM   16  C4  UNL     1     -28.961 -10.117 -11.741  1.00  0.00     0.060 A 
ATOM     17  H3  UNL     1     -28.037 -12.003 -12.039  1.00  0.00     0.174 HD
HETATM   18  C11 UNL     1     -30.205  -9.596 -11.551  1.00  0.00     0.037 A 
BRANCH  16  19
HETATM   19  C5  UNL     1     -27.662  -9.287 -11.819  1.00  0.00     0.279 C 
BRANCH  19  20
HETATM   20  N4  UNL     1     -27.189  -9.093 -10.545  1.00  0.00    -0.422 NA
BRANCH  20  21
HETATM   21  C6  UNL     1     -26.750  -8.836  -9.489  1.00  0.00     0.204 A 
HETATM   22  N5  UNL     1     -25.645  -9.452  -8.955  1.00  0.00    -0.326 N 
HETATM   23  C7  UNL     1     -25.155  -9.182  -7.757  1.00  0.00     0.184 A 
ATOM     24  H5  UNL     1     -25.173 -10.160  -9.516  1.00  0.00     0.169 HD
HETATM   25  N6  UNL     1     -25.704  -8.249  -6.906  1.00  0.00    -0.337 N 
HETATM   26  C8  UNL     1     -26.806  -7.595  -7.391  1.00  0.00     0.139 A 
ATOM     27  H6  UNL     1     -25.318  -8.057  -5.982  1.00  0.00     0.168 HD
HETATM   28  N7  UNL     1     -27.559  -6.608  -6.801  1.00  0.00    -0.337 N 
HETATM   29  C10 UNL     1     -27.317  -7.872  -8.635  1.00  0.00     0.136 A 
HETATM   30  C9  UNL     1     -28.526  -6.297  -7.702  1.00  0.00     0.182 A 
ATOM     31  H7  UNL     1     -27.420  -6.196  -5.879  1.00  0.00     0.168 HD
HETATM   32  N8  UNL     1     -28.373  -7.074  -8.800  1.00  0.00    -0.345 N 
ATOM     33  H8  UNL     1     -28.972  -7.054  -9.626  1.00  0.00     0.167 HD
ENDBRANCH  20  21
ENDBRANCH  19  20
ENDBRANCH  16  19
BRANCH  18  34
HETATM   34  C12 UNL     1     -30.642  -8.164 -11.433  1.00  0.00     0.076 C 
BRANCH  34  35
HETATM   35  N9  UNL     1     -30.654  -7.383 -12.583  1.00  0.00    -0.292 NA
HETATM   36  C13 UNL     1     -31.956  -6.820 -12.981  1.00  0.00     0.096 C 
HETATM   37  C14 UNL     1     -31.147  -5.645 -13.544  1.00  0.00     0.030 C 
HETATM   38  C15 UNL     1     -30.331  -5.921 -12.273  1.00  0.00     0.096 C 
ENDBRANCH  34  35
ENDBRANCH  18  34
ENDBRANCH   5  13
TORSDOF 7
ENDMDL
MODEL 4
REMARK VINA RESULT: -6.225163170      1.624      2.859
REMARK  7 active torsions:
REMARK  status: ('A' for Active; 'I' for Inactive)
REMARK    1  A    between atoms: N2_5  and  C3_6 
REMARK    2  A    between atoms: C4_10  and  C5_11 
REMARK    3  A    between atoms: C5_11  and  N4_12 
REMARK    4  A    between atoms: N4_12  and  C6_13 
REMARK    5  A    between atoms: C11_26  and  C12_27 
REMARK    6  A    between atoms: C12_27  and  N9_28 
REMARK    7  A    between atoms: C16_32  and  N10_33 
ROOT
HETATM    1  C1  UNL     1     -34.562 -10.135 -10.375  1.00  0.00     0.071 C 
HETATM    2  C2  UNL     1     -33.924  -9.229 -11.395  1.00  0.00     0.047 A 
HETATM    3  N1  UNL     1     -32.607  -8.878 -11.385  1.00  0.00    -0.294 N 
ATOM      4  H1  UNL     1     -31.920  -9.182 -10.695  1.00  0.00     0.187 HD
HETATM    5  N2  UNL     1     -32.353  -8.055 -12.442  1.00  0.00    -0.230 N 
HETATM    6  C16 UNL     1     -33.450  -7.880 -13.099  1.00  0.00     0.144 A 
HETATM    7  C17 UNL     1     -34.492  -8.624 -12.459  1.00  0.00     0.113 A 
HETATM    8  C18 UNL     1     -35.845  -8.708 -12.883  1.00  0.00     0.105 C 
HETATM    9  N11 UNL     1     -36.934  -8.802 -13.251  1.00  0.00    -0.191 NA
ENDROOT
BRANCH   6  10
HETATM   10  N10 UNL     1     -33.611  -7.143 -14.141  1.00  0.00    -0.383 N 
ATOM     11 2H10 UNL     1     -34.513  -6.927 -14.564  1.00  0.00     0.157 HD
ATOM     12 1H10 UNL     1     -32.879  -6.663 -14.666  1.00  0.00     0.157 HD
ENDBRANCH   6  10
BRANCH   5  13
HETATM   13  C3  UNL     1     -30.981  -7.557 -12.518  1.00  0.00     0.128 A 
HETATM   14  S1  UNL     1     -30.440  -5.973 -12.200  1.00  0.00     0.007 SA
HETATM   15  N3  UNL     1     -28.810  -6.295 -12.127  1.00  0.00    -0.325 N 
HETATM   16  C4  UNL     1     -28.669  -7.616 -12.354  1.00  0.00     0.060 A 
ATOM     17  H3  UNL     1     -28.064  -5.625 -11.945  1.00  0.00     0.174 HD
HETATM   18  C11 UNL     1     -29.813  -8.323 -12.572  1.00  0.00     0.037 A 
BRANCH  16  19
HETATM   19  C5  UNL     1     -27.251  -8.224 -12.329  1.00  0.00     0.279 C 
BRANCH  19  20
HETATM   20  N4  UNL     1     -26.827  -8.294 -11.026  1.00  0.00    -0.422 NA
BRANCH  20  21
HETATM   21  C6  UNL     1     -26.423  -8.260  -9.925  1.00  0.00     0.204 A 
HETATM   22  N5  UNL     1     -25.252  -8.857  -9.527  1.00  0.00    -0.326 N 
HETATM   23  C7  UNL     1     -24.800  -8.841  -8.285  1.00  0.00     0.184 A 
ATOM     24  H5  UNL     1     -24.699  -9.342 -10.232  1.00  0.00     0.169 HD
HETATM   25  N6  UNL     1     -25.457  -8.220  -7.247  1.00  0.00    -0.337 N 
HETATM   26  C8  UNL     1     -26.630  -7.599  -7.588  1.00  0.00     0.139 A 
ATOM     27  H6  UNL     1     -25.098  -8.222  -6.292  1.00  0.00     0.168 HD
HETATM   28  N7  UNL     1     -27.496  -6.885  -6.796  1.00  0.00    -0.337 N 
HETATM   29  C10 UNL     1     -27.103  -7.613  -8.877  1.00  0.00     0.136 A 
HETATM   30  C9  UNL     1     -28.492  -6.472  -7.621  1.00  0.00     0.182 A 
ATOM     31  H7  UNL     1     -27.409  -6.703  -5.796  1.00  0.00     0.168 HD
HETATM   32  N8  UNL     1     -28.247  -6.927  -8.872  1.00  0.00    -0.345 N 
ATOM     33  H8  UNL     1     -28.843  -6.771  -9.684  1.00  0.00     0.167 HD
ENDBRANCH  20  21
ENDBRANCH  19  20
ENDBRANCH  16  19
BRANCH  18  34
HETATM   34  C12 UNL     1     -30.010  -9.797 -12.775  1.00  0.00     0.076 C 
BRANCH  34  35
HETATM   35  N9  UNL     1     -29.815 -10.643 -11.689  1.00  0.00    -0.292 NA
HETATM   36  C13 UNL     1     -30.563 -11.913 -11.702  1.00  0.00     0.096 C 
HETATM   37  C14 UNL     1     -29.367 -12.492 -10.936  1.00  0.00     0.030 C 
HETATM   38  C15 UNL     1     -28.616 -11.567 -11.904  1.00  0.00     0.096 C 
ENDBRANCH  34  35
ENDBRANCH  18  34
ENDBRANCH   5  13
TORSDOF 7
ENDMDL
MODEL 5
REMARK VINA RESULT: -6.136736790      2.456      4.369
REMARK  7 active torsions:
REMARK  status: ('A' for Active; 'I' for Inactive)
REMARK    1  A    between atoms: N2_5  and  C3_6 
REMARK    2  A    between atoms: C4_10  and  C5_11 
REMARK    3  A    between atoms: C5_11  and  N4_12 
REMARK    4  A    between atoms: N4_12  and  C6_13 
REMARK    5  A    between atoms: C11_26  and  C12_27 
REMARK    6  A    between atoms: C12_27  and  N9_28 
REMARK    7  A    between atoms: C16_32  and  N10_33 
ROOT
HETATM    1  C1  UNL     1     -34.877  -5.661 -15.173  1.00  0.00     0.071 C 
HETATM    2  C2  UNL     1     -33.509  -5.513 -14.560  1.00  0.00     0.047 A 
HETATM    3  N1  UNL     1     -32.574  -6.505 -14.534  1.00  0.00    -0.294 N 
ATOM      4  H1  UNL     1     -32.696  -7.441 -14.919  1.00  0.00     0.187 HD
HETATM    5  N2  UNL     1     -31.449  -6.046 -13.914  1.00  0.00    -0.230 N 
HETATM    6  C16 UNL     1     -31.649  -4.824 -13.553  1.00  0.00     0.144 A 
HETATM    7  C17 UNL     1     -32.968  -4.436 -13.953  1.00  0.00     0.113 A 
HETATM    8  C18 UNL     1     -33.564  -3.162 -13.755  1.00  0.00     0.105 C 
HETATM    9  N11 UNL     1     -34.032  -2.116 -13.625  1.00  0.00    -0.191 NA
ENDROOT
BRANCH   6  10
HETATM   10  N10 UNL     1     -30.827  -4.068 -12.914  1.00  0.00    -0.383 N 
ATOM     11 2H10 UNL     1     -30.857  -3.897 -11.909  1.00  0.00     0.157 HD
ATOM     12 1H10 UNL     1     -30.033  -3.563 -13.308  1.00  0.00     0.157 HD
ENDBRANCH   6  10
BRANCH   5  13
HETATM   13  C3  UNL     1     -30.381  -7.033 -13.769  1.00  0.00     0.128 A 
HETATM   14  S1  UNL     1     -28.951  -7.147 -14.688  1.00  0.00     0.007 SA
HETATM   15  N3  UNL     1     -28.132  -8.213 -13.712  1.00  0.00    -0.325 N 
HETATM   16  C4  UNL     1     -28.950  -8.496 -12.679  1.00  0.00     0.060 A 
ATOM     17  H3  UNL     1     -27.193  -8.581 -13.864  1.00  0.00     0.174 HD
HETATM   18  C11 UNL     1     -30.167  -7.883 -12.681  1.00  0.00     0.037 A 
BRANCH  16  19
HETATM   19  C5  UNL     1     -28.452  -9.458 -11.580  1.00  0.00     0.279 C 
BRANCH  19  20
HETATM   20  N4  UNL     1     -28.105  -8.720 -10.477  1.00  0.00    -0.422 NA
BRANCH  20  21
HETATM   21  C6  UNL     1     -27.892  -8.128  -9.487  1.00  0.00     0.204 A 
HETATM   22  N5  UNL     1     -28.652  -7.069  -9.056  1.00  0.00    -0.326 N 
HETATM   23  C7  UNL     1     -28.407  -6.383  -7.953  1.00  0.00     0.184 A 
ATOM     24  H5  UNL     1     -29.455  -6.795  -9.622  1.00  0.00     0.169 HD
HETATM   25  N6  UNL     1     -27.355  -6.657  -7.109  1.00  0.00    -0.337 N 
HETATM   26  C8  UNL     1     -26.565  -7.711  -7.485  1.00  0.00     0.139 A 
ATOM     27  H6  UNL     1     -27.175  -6.115  -6.263  1.00  0.00     0.168 HD
HETATM   28  N7  UNL     1     -25.465  -8.240  -6.854  1.00  0.00    -0.337 N 
HETATM   29  C10 UNL     1     -26.817  -8.426  -8.630  1.00  0.00     0.136 A 
HETATM   30  C9  UNL     1     -25.059  -9.277  -7.631  1.00  0.00     0.182 A 
ATOM     31  H7  UNL     1     -25.042  -7.921  -5.983  1.00  0.00     0.168 HD
HETATM   32  N8  UNL     1     -25.879  -9.371  -8.704  1.00  0.00    -0.345 N 
ATOM     33  H8  UNL     1     -25.793 -10.058  -9.453  1.00  0.00     0.167 HD
ENDBRANCH  20  21
ENDBRANCH  19  20
ENDBRANCH  16  19
BRANCH  18  34
HETATM   34  C12 UNL     1     -31.265  -7.919 -11.657  1.00  0.00     0.076 C 
BRANCH  34  35
HETATM   35  N9  UNL     1     -32.099  -9.031 -11.626  1.00  0.00    -0.292 NA
HETATM   36  C13 UNL     1     -32.549  -9.478 -10.296  1.00  0.00     0.096 C 
HETATM   37  C14 UNL     1     -33.827  -9.938 -11.009  1.00  0.00     0.030 C 
HETATM   38  C15 UNL     1     -33.568  -8.635 -11.779  1.00  0.00     0.096 C 
ENDBRANCH  34  35
ENDBRANCH  18  34
ENDBRANCH   5  13
TORSDOF 7
ENDMDL
