MODEL 1
REMARK VINA RESULT: -6.199048975      0.000      0.000
REMARK  11 active torsions:
REMARK  status: ('A' for Active; 'I' for Inactive)
REMARK    1  A    between atoms: C4_6  and  C5_7 
REMARK       I    between atoms: C5_7  and  N2_9 
REMARK    2  A    between atoms: N2_9  and  N3_11 
REMARK       I    between atoms: N3_11  and  C6_13 
REMARK    3  A    between atoms: C6_13  and  C7_15 
REMARK    4  A    between atoms: C7_15  and  C11_32 
REMARK    5  A    between atoms: N4_16  and  N5_18 
REMARK    6  A    between atoms: N5_18  and  C8_20 
REMARK    7  A    between atoms: C8_20  and  N6_22 
REMARK    8  A    between atoms: N6_22  and  N7_24 
REMARK       I    between atoms: N7_24  and  C9_25 
REMARK    9  A    between atoms: C9_25  and  C10_27 
REMARK   10  A    between atoms: C10_27  and  O5_28 
REMARK   11  A    between atoms: O5_28  and  N8_29 
ROOT
HETATM    1  C7  UNL     1       8.128  14.005 -16.297  1.00  0.00     0.134 C 
HETATM    2  N4  UNL     1       8.703  13.478 -15.363  1.00  0.00    -0.294 N 
ATOM      3  H4  UNL     1       9.672  13.798 -15.326  1.00  0.00     0.187 HD
ENDROOT
BRANCH   1   4
HETATM    4  C6  UNL     1       8.847  14.937 -17.196  1.00  0.00     0.287 C 
HETATM    5  N3  UNL     1       9.074  16.207 -16.744  1.00  0.00    -0.262 N 
ATOM      6  H3  UNL     1       8.595  16.440 -15.874  1.00  0.00     0.190 HD
HETATM    7  O3  UNL     1       9.225  14.473 -18.312  1.00  0.00    -0.264 OA
BRANCH   5   8
HETATM    8  N2  UNL     1       9.843  17.230 -17.268  1.00  0.00    -0.262 N 
HETATM    9  C5  UNL     1      11.227  17.178 -17.545  1.00  0.00     0.286 C 
HETATM   10  O2  UNL     1      11.894  16.176 -17.400  1.00  0.00    -0.264 OA
ATOM     11  H2  UNL     1       9.365  18.107 -17.475  1.00  0.00     0.190 HD
BRANCH   9  12
HETATM   12  C4  UNL     1      11.876  18.425 -18.020  1.00  0.00     0.111 A 
HETATM   13  C3  UNL     1      11.086  19.592 -18.020  1.00  0.00     0.110 A 
HETATM   14  C2  UNL     1      11.644  20.733 -18.535  1.00  0.00     0.253 A 
HETATM   15  N1  UNL     1      12.891  20.762 -19.019  1.00  0.00    -0.271 N 
HETATM   16  O1  UNL     1      10.997  21.851 -18.579  1.00  0.00    -0.268 OA
HETATM   17  C1  UNL     1      13.434  22.034 -19.545  1.00  0.00     0.164 C 
HETATM   18  C14 UNL     1      13.635  19.643 -19.003  1.00  0.00     0.329 A 
HETATM   19  N9  UNL     1      13.100  18.488 -18.502  1.00  0.00    -0.303 N 
HETATM   20  O8  UNL     1      14.786  19.672 -19.428  1.00  0.00    -0.246 OA
ATOM     21  H9  UNL     1      13.672  17.643 -18.502  1.00  0.00     0.171 HD
ENDBRANCH   9  12
ENDBRANCH   5   8
ENDBRANCH   1   4
BRANCH   1  22
HETATM   22  C11 UNL     1       6.641  14.061 -16.497  1.00  0.00     0.145 C 
HETATM   23  C12 UNL     1       6.044  14.641 -15.204  1.00  0.00     0.058 C 
HETATM   24  C13 UNL     1       6.086  12.600 -16.481  1.00  0.00     0.058 C 
HETATM   25  F1  UNL     1       6.274  14.668 -17.582  1.00  0.00    -0.237 F 
ENDBRANCH   1  22
BRANCH   2  26
HETATM   26  N5  UNL     1       8.469  12.613 -14.368  1.00  0.00    -0.274 N 
ATOM     27  H5  UNL     1       7.534  12.413 -14.011  1.00  0.00     0.189 HD
BRANCH  26  28
HETATM   28  C8  UNL     1       9.673  11.982 -13.843  1.00  0.00     0.216 C 
HETATM   29  S1  UNL     1      10.061  10.492 -14.423  1.00  0.00    -0.037 SA
BRANCH  28  30
HETATM   30  N6  UNL     1      10.539  12.640 -12.961  1.00  0.00    -0.204 N 
ATOM     31  H6  UNL     1      10.533  12.387 -11.973  1.00  0.00     0.204 HD
BRANCH  30  32
HETATM   32  N7  UNL     1      11.387  13.609 -13.399  1.00  0.00    -0.282 NA
HETATM   33  C9  UNL     1      12.233  14.541 -13.826  1.00  0.00     0.338 C 
HETATM   34  O4  UNL     1      13.410  14.646 -14.077  1.00  0.00    -0.253 OA
BRANCH  33  35
HETATM   35  C10 UNL     1      11.479  15.935 -14.133  1.00  0.00     0.329 C 
BRANCH  35  36
HETATM   36  O5  UNL     1      10.143  15.550 -14.062  1.00  0.00    -0.211 OA
BRANCH  36  37
HETATM   37  N8  UNL     1       9.018  15.954 -13.479  1.00  0.00     0.005 N 
HETATM   38  O6  UNL     1       8.363  16.949 -13.882  1.00  0.00    -0.511 OA
HETATM   39  O7  UNL     1       8.536  15.174 -12.433  1.00  0.00    -0.511 OA
ENDBRANCH  36  37
ENDBRANCH  35  36
ENDBRANCH  33  35
ENDBRANCH  30  32
ENDBRANCH  28  30
ENDBRANCH  26  28
ENDBRANCH   2  26
TORSDOF 11
ENDMDL
MODEL 2
REMARK VINA RESULT: -5.856122937      2.504      3.413
REMARK  11 active torsions:
REMARK  status: ('A' for Active; 'I' for Inactive)
REMARK    1  A    between atoms: C4_6  and  C5_7 
REMARK       I    between atoms: C5_7  and  N2_9 
REMARK    2  A    between atoms: N2_9  and  N3_11 
REMARK       I    between atoms: N3_11  and  C6_13 
REMARK    3  A    between atoms: C6_13  and  C7_15 
REMARK    4  A    between atoms: C7_15  and  C11_32 
REMARK    5  A    between atoms: N4_16  and  N5_18 
REMARK    6  A    between atoms: N5_18  and  C8_20 
REMARK    7  A    between atoms: C8_20  and  N6_22 
REMARK    8  A    between atoms: N6_22  and  N7_24 
REMARK       I    between atoms: N7_24  and  C9_25 
REMARK    9  A    between atoms: C9_25  and  C10_27 
REMARK   10  A    between atoms: C10_27  and  O5_28 
REMARK   11  A    between atoms: O5_28  and  N8_29 
ROOT
HETATM    1  C7  UNL     1       8.179  16.541 -15.625  1.00  0.00     0.134 C 
HETATM    2  N4  UNL     1       7.995  15.351 -15.454  1.00  0.00    -0.294 N 
ATOM      3  H4  UNL     1       8.534  14.814 -16.133  1.00  0.00     0.187 HD
ENDROOT
BRANCH   1   4
HETATM    4  C6  UNL     1       9.061  17.018 -16.715  1.00  0.00     0.287 C 
HETATM    5  N3  UNL     1      10.400  17.106 -16.455  1.00  0.00    -0.262 N 
ATOM      6  H3  UNL     1      10.653  16.968 -15.477  1.00  0.00     0.190 HD
HETATM    7  O3  UNL     1       8.505  17.283 -17.822  1.00  0.00    -0.264 OA
BRANCH   5   8
HETATM    8  N2  UNL     1      11.471  17.350 -17.296  1.00  0.00    -0.262 N 
HETATM    9  C5  UNL     1      11.733  18.553 -17.988  1.00  0.00     0.286 C 
HETATM   10  O2  UNL     1      11.054  19.550 -17.865  1.00  0.00    -0.264 OA
ATOM     11  H2  UNL     1      12.135  16.588 -17.430  1.00  0.00     0.190 HD
BRANCH   9  12
HETATM   12  C4  UNL     1      12.892  18.570 -18.915  1.00  0.00     0.111 A 
HETATM   13  C3  UNL     1      13.609  19.779 -19.015  1.00  0.00     0.110 A 
HETATM   14  C2  UNL     1      14.629  19.836 -19.929  1.00  0.00     0.253 A 
HETATM   15  N1  UNL     1      14.952  18.794 -20.704  1.00  0.00    -0.271 N 
HETATM   16  O1  UNL     1      15.340  20.902 -20.093  1.00  0.00    -0.268 OA
HETATM   17  C1  UNL     1      16.075  18.922 -21.657  1.00  0.00     0.164 C 
HETATM   18  C14 UNL     1      14.264  17.645 -20.589  1.00  0.00     0.329 A 
HETATM   19  N9  UNL     1      13.237  17.563 -19.690  1.00  0.00    -0.303 N 
HETATM   20  O8  UNL     1      14.572  16.681 -21.285  1.00  0.00    -0.246 OA
ATOM     21  H9  UNL     1      12.717  16.688 -19.618  1.00  0.00     0.171 HD
ENDBRANCH   9  12
ENDBRANCH   5   8
ENDBRANCH   1   4
BRANCH   1  22
HETATM   22  C11 UNL     1       7.842  17.634 -14.652  1.00  0.00     0.145 C 
HETATM   23  C12 UNL     1       6.387  18.043 -14.937  1.00  0.00     0.058 C 
HETATM   24  C13 UNL     1       8.625  18.922 -15.066  1.00  0.00     0.058 C 
HETATM   25  F1  UNL     1       8.088  17.337 -13.414  1.00  0.00    -0.237 F 
ENDBRANCH   1  22
BRANCH   2  26
HETATM   26  N5  UNL     1       7.308  14.521 -14.657  1.00  0.00    -0.274 N 
ATOM     27  H5  UNL     1       6.822  14.832 -13.815  1.00  0.00     0.189 HD
BRANCH  26  28
HETATM   28  C8  UNL     1       7.321  13.134 -15.103  1.00  0.00     0.216 C 
HETATM   29  S1  UNL     1       6.096  12.646 -16.088  1.00  0.00    -0.037 SA
BRANCH  28  30
HETATM   30  N6  UNL     1       8.375  12.262 -14.807  1.00  0.00    -0.204 N 
ATOM     31  H6  UNL     1       8.385  11.330 -15.221  1.00  0.00     0.204 HD
BRANCH  30  32
HETATM   32  N7  UNL     1       9.386  12.636 -13.977  1.00  0.00    -0.282 NA
HETATM   33  C9  UNL     1      10.381  12.981 -13.166  1.00  0.00     0.338 C 
HETATM   34  O4  UNL     1      11.308  12.453 -12.599  1.00  0.00    -0.253 OA
BRANCH  33  35
HETATM   35  C10 UNL     1      10.385  14.566 -12.866  1.00  0.00     0.329 C 
BRANCH  35  36
HETATM   36  O5  UNL     1      10.978  15.066 -14.022  1.00  0.00    -0.211 OA
BRANCH  36  37
HETATM   37  N8  UNL     1      12.020  14.800 -14.804  1.00  0.00     0.005 N 
HETATM   38  O6  UNL     1      13.208  14.860 -14.397  1.00  0.00    -0.511 OA
HETATM   39  O7  UNL     1      11.744  14.364 -16.095  1.00  0.00    -0.511 OA
ENDBRANCH  36  37
ENDBRANCH  35  36
ENDBRANCH  33  35
ENDBRANCH  30  32
ENDBRANCH  28  30
ENDBRANCH  26  28
ENDBRANCH   2  26
TORSDOF 11
ENDMDL
MODEL 3
REMARK VINA RESULT: -5.825761863      3.246      4.519
REMARK  11 active torsions:
REMARK  status: ('A' for Active; 'I' for Inactive)
REMARK    1  A    between atoms: C4_6  and  C5_7 
REMARK       I    between atoms: C5_7  and  N2_9 
REMARK    2  A    between atoms: N2_9  and  N3_11 
REMARK       I    between atoms: N3_11  and  C6_13 
REMARK    3  A    between atoms: C6_13  and  C7_15 
REMARK    4  A    between atoms: C7_15  and  C11_32 
REMARK    5  A    between atoms: N4_16  and  N5_18 
REMARK    6  A    between atoms: N5_18  and  C8_20 
REMARK    7  A    between atoms: C8_20  and  N6_22 
REMARK    8  A    between atoms: N6_22  and  N7_24 
REMARK       I    between atoms: N7_24  and  C9_25 
REMARK    9  A    between atoms: C9_25  and  C10_27 
REMARK   10  A    between atoms: C10_27  and  O5_28 
REMARK   11  A    between atoms: O5_28  and  N8_29 
ROOT
HETATM    1  C7  UNL     1       9.146  17.626 -16.282  1.00  0.00     0.134 C 
HETATM    2  N4  UNL     1       9.137  16.585 -15.652  1.00  0.00    -0.294 N 
ATOM      3  H4  UNL     1       9.785  15.919 -16.073  1.00  0.00     0.187 HD
ENDROOT
BRANCH   1   4
HETATM    4  C6  UNL     1       9.997  17.772 -17.485  1.00  0.00     0.287 C 
HETATM    5  N3  UNL     1      11.352  17.711 -17.315  1.00  0.00    -0.262 N 
ATOM      6  H3  UNL     1      11.658  17.712 -16.342  1.00  0.00     0.190 HD
HETATM    7  O3  UNL     1       9.398  17.915 -18.592  1.00  0.00    -0.264 OA
BRANCH   5   8
HETATM    8  N2  UNL     1      12.378  17.647 -18.241  1.00  0.00    -0.262 N 
HETATM    9  C5  UNL     1      12.576  16.631 -19.201  1.00  0.00     0.286 C 
HETATM   10  O2  UNL     1      11.807  15.707 -19.356  1.00  0.00    -0.264 OA
ATOM     11  H2  UNL     1      13.057  18.408 -18.229  1.00  0.00     0.190 HD
BRANCH   9  12
HETATM   12  C4  UNL     1      13.799  16.711 -20.038  1.00  0.00     0.111 A 
HETATM   13  C3  UNL     1      14.126  15.568 -20.796  1.00  0.00     0.110 A 
HETATM   14  C2  UNL     1      15.296  15.596 -21.509  1.00  0.00     0.253 A 
HETATM   15  N1  UNL     1      16.111  16.658 -21.503  1.00  0.00    -0.271 N 
HETATM   16  O1  UNL     1      15.681  14.596 -22.231  1.00  0.00    -0.268 OA
HETATM   17  C1  UNL     1      17.351  16.623 -22.308  1.00  0.00     0.164 C 
HETATM   18  C14 UNL     1      15.780  17.743 -20.782  1.00  0.00     0.329 A 
HETATM   19  N9  UNL     1      14.621  17.739 -20.056  1.00  0.00    -0.303 N 
HETATM   20  O8  UNL     1      16.515  18.726 -20.791  1.00  0.00    -0.246 OA
ATOM     21  H9  UNL     1      14.384  18.566 -19.507  1.00  0.00     0.171 HD
ENDBRANCH   9  12
ENDBRANCH   5   8
ENDBRANCH   1   4
BRANCH   1  22
HETATM   22  C11 UNL     1       8.599  18.943 -15.814  1.00  0.00     0.145 C 
HETATM   23  C12 UNL     1       7.082  18.904 -16.067  1.00  0.00     0.058 C 
HETATM   24  C13 UNL     1       9.062  20.053 -16.812  1.00  0.00     0.058 C 
HETATM   25  F1  UNL     1       8.937  19.258 -14.603  1.00  0.00    -0.237 F 
ENDBRANCH   1  22
BRANCH   2  26
HETATM   26  N5  UNL     1       8.547  16.036 -14.582  1.00  0.00    -0.274 N 
ATOM     27  H5  UNL     1       8.673  16.390 -13.634  1.00  0.00     0.189 HD
BRANCH  26  28
HETATM   28  C8  UNL     1       7.710  14.886 -14.899  1.00  0.00     0.216 C 
HETATM   29  S1  UNL     1       6.203  15.188 -15.487  1.00  0.00    -0.037 SA
BRANCH  28  30
HETATM   30  N6  UNL     1       8.181  13.571 -14.815  1.00  0.00    -0.204 N 
ATOM     31  H6  UNL     1       7.715  12.837 -15.347  1.00  0.00     0.204 HD
BRANCH  30  32
HETATM   32  N7  UNL     1       9.252  13.255 -14.037  1.00  0.00    -0.282 NA
HETATM   33  C9  UNL     1      10.296  12.926 -13.283  1.00  0.00     0.338 C 
HETATM   34  O4  UNL     1      10.940  11.940 -13.014  1.00  0.00    -0.253 OA
BRANCH  33  35
HETATM   35  C10 UNL     1      10.914  14.209 -12.526  1.00  0.00     0.329 C 
BRANCH  35  36
HETATM   36  O5  UNL     1      11.283  15.015 -13.599  1.00  0.00    -0.211 OA
BRANCH  36  37
HETATM   37  N8  UNL     1      12.275  15.110 -14.481  1.00  0.00     0.005 N 
HETATM   38  O6  UNL     1      12.131  15.640 -15.611  1.00  0.00    -0.511 OA
HETATM   39  O7  UNL     1      13.527  14.665 -14.069  1.00  0.00    -0.511 OA
ENDBRANCH  36  37
ENDBRANCH  35  36
ENDBRANCH  33  35
ENDBRANCH  30  32
ENDBRANCH  28  30
ENDBRANCH  26  28
ENDBRANCH   2  26
TORSDOF 11
ENDMDL
MODEL 4
REMARK VINA RESULT: -5.720528691      3.159      4.380
REMARK  11 active torsions:
REMARK  status: ('A' for Active; 'I' for Inactive)
REMARK    1  A    between atoms: C4_6  and  C5_7 
REMARK       I    between atoms: C5_7  and  N2_9 
REMARK    2  A    between atoms: N2_9  and  N3_11 
REMARK       I    between atoms: N3_11  and  C6_13 
REMARK    3  A    between atoms: C6_13  and  C7_15 
REMARK    4  A    between atoms: C7_15  and  C11_32 
REMARK    5  A    between atoms: N4_16  and  N5_18 
REMARK    6  A    between atoms: N5_18  and  C8_20 
REMARK    7  A    between atoms: C8_20  and  N6_22 
REMARK    8  A    between atoms: N6_22  and  N7_24 
REMARK       I    between atoms: N7_24  and  C9_25 
REMARK    9  A    between atoms: C9_25  and  C10_27 
REMARK   10  A    between atoms: C10_27  and  O5_28 
REMARK   11  A    between atoms: O5_28  and  N8_29 
ROOT
HETATM    1  C7  UNL     1       9.181  17.240 -16.643  1.00  0.00     0.134 C 
HETATM    2  N4  UNL     1       9.118  16.366 -15.799  1.00  0.00    -0.294 N 
ATOM      3  H4  UNL     1       9.812  15.644 -15.993  1.00  0.00     0.187 HD
ENDROOT
BRANCH   1   4
HETATM    4  C6  UNL     1      10.150  17.141 -17.759  1.00  0.00     0.287 C 
HETATM    5  N3  UNL     1      11.435  17.546 -17.521  1.00  0.00    -0.262 N 
ATOM      6  H3  UNL     1      11.573  18.017 -16.627  1.00  0.00     0.190 HD
HETATM    7  O3  UNL     1       9.718  16.659 -18.847  1.00  0.00    -0.264 OA
BRANCH   5   8
HETATM    8  N2  UNL     1      12.578  17.423 -18.289  1.00  0.00    -0.262 N 
HETATM    9  C5  UNL     1      12.808  18.021 -19.548  1.00  0.00     0.286 C 
HETATM   10  O2  UNL     1      12.021  18.776 -20.076  1.00  0.00    -0.264 OA
ATOM     11  H2  UNL     1      13.328  16.845 -17.910  1.00  0.00     0.190 HD
BRANCH   9  12
HETATM   12  C4  UNL     1      14.074  17.680 -20.245  1.00  0.00     0.111 A 
HETATM   13  C3  UNL     1      14.215  16.351 -20.692  1.00  0.00     0.110 A 
HETATM   14  C2  UNL     1      15.411  16.000 -21.262  1.00  0.00     0.253 A 
HETATM   15  N1  UNL     1      16.418  16.870 -21.402  1.00  0.00    -0.271 N 
HETATM   16  O1  UNL     1      15.634  14.805 -21.700  1.00  0.00    -0.268 OA
HETATM   17  C1  UNL     1      17.676  16.424 -22.040  1.00  0.00     0.164 C 
HETATM   18  C14 UNL     1      16.264  18.136 -20.978  1.00  0.00     0.329 A 
HETATM   19  N9  UNL     1      15.083  18.512 -20.399  1.00  0.00    -0.303 N 
HETATM   20  O8  UNL     1      17.179  18.942 -21.124  1.00  0.00    -0.246 OA
ATOM     21  H9  UNL     1      14.981  19.474 -20.075  1.00  0.00     0.171 HD
ENDBRANCH   9  12
ENDBRANCH   5   8
ENDBRANCH   1   4
BRANCH   1  22
HETATM   22  C11 UNL     1       8.576  18.610 -16.541  1.00  0.00     0.145 C 
HETATM   23  C12 UNL     1       8.821  19.092 -15.101  1.00  0.00     0.058 C 
HETATM   24  C13 UNL     1       7.020  18.466 -16.571  1.00  0.00     0.058 C 
HETATM   25  F1  UNL     1       8.968  19.434 -17.461  1.00  0.00    -0.237 F 
ENDBRANCH   1  22
BRANCH   2  26
HETATM   26  N5  UNL     1       8.426  16.051 -14.696  1.00  0.00    -0.274 N 
ATOM     27  H5  UNL     1       8.457  16.607 -13.841  1.00  0.00     0.189 HD
BRANCH  26  28
HETATM   28  C8  UNL     1       7.624  14.842 -14.832  1.00  0.00     0.216 C 
HETATM   29  S1  UNL     1       6.034  15.027 -15.211  1.00  0.00    -0.037 SA
BRANCH  28  30
HETATM   30  N6  UNL     1       8.183  13.561 -14.752  1.00  0.00    -0.204 N 
ATOM     31  H6  UNL     1       7.765  12.798 -15.285  1.00  0.00     0.204 HD
BRANCH  30  32
HETATM   32  N7  UNL     1       9.273  13.316 -13.975  1.00  0.00    -0.282 NA
HETATM   33  C9  UNL     1      10.338  13.055 -13.223  1.00  0.00     0.338 C 
HETATM   34  O4  UNL     1      11.030  12.108 -12.936  1.00  0.00    -0.253 OA
BRANCH  33  35
HETATM   35  C10 UNL     1      10.900  14.385 -12.504  1.00  0.00     0.329 C 
BRANCH  35  36
HETATM   36  O5  UNL     1      11.325  15.135 -13.598  1.00  0.00    -0.211 OA
BRANCH  36  37
HETATM   37  N8  UNL     1      12.312  15.126 -14.490  1.00  0.00     0.005 N 
HETATM   38  O6  UNL     1      12.185  15.599 -15.648  1.00  0.00    -0.511 OA
HETATM   39  O7  UNL     1      13.542  14.640 -14.062  1.00  0.00    -0.511 OA
ENDBRANCH  36  37
ENDBRANCH  35  36
ENDBRANCH  33  35
ENDBRANCH  30  32
ENDBRANCH  28  30
ENDBRANCH  26  28
ENDBRANCH   2  26
TORSDOF 11
ENDMDL
MODEL 5
REMARK VINA RESULT: -5.661006259      2.929      4.119
REMARK  11 active torsions:
REMARK  status: ('A' for Active; 'I' for Inactive)
REMARK    1  A    between atoms: C4_6  and  C5_7 
REMARK       I    between atoms: C5_7  and  N2_9 
REMARK    2  A    between atoms: N2_9  and  N3_11 
REMARK       I    between atoms: N3_11  and  C6_13 
REMARK    3  A    between atoms: C6_13  and  C7_15 
REMARK    4  A    between atoms: C7_15  and  C11_32 
REMARK    5  A    between atoms: N4_16  and  N5_18 
REMARK    6  A    between atoms: N5_18  and  C8_20 
REMARK    7  A    between atoms: C8_20  and  N6_22 
REMARK    8  A    between atoms: N6_22  and  N7_24 
REMARK       I    between atoms: N7_24  and  C9_25 
REMARK    9  A    between atoms: C9_25  and  C10_27 
REMARK   10  A    between atoms: C10_27  and  O5_28 
REMARK   11  A    between atoms: O5_28  and  N8_29 
ROOT
HETATM    1  C7  UNL     1       9.039  17.692 -16.182  1.00  0.00     0.134 C 
HETATM    2  N4  UNL     1       9.114  16.610 -15.632  1.00  0.00    -0.294 N 
ATOM      3  H4  UNL     1       9.753  16.002 -16.145  1.00  0.00     0.187 HD
ENDROOT
BRANCH   1   4
HETATM    4  C6  UNL     1       9.794  17.958 -17.428  1.00  0.00     0.287 C 
HETATM    5  N3  UNL     1      11.147  18.126 -17.327  1.00  0.00    -0.262 N 
ATOM      6  H3  UNL     1      11.496  18.195 -16.371  1.00  0.00     0.190 HD
HETATM    7  O3  UNL     1       9.126  17.981 -18.504  1.00  0.00    -0.264 OA
BRANCH   5   8
HETATM    8  N2  UNL     1      12.123  18.219 -18.303  1.00  0.00    -0.262 N 
HETATM    9  C5  UNL     1      12.642  19.411 -18.856  1.00  0.00     0.286 C 
HETATM   10  O2  UNL     1      12.315  20.515 -18.476  1.00  0.00    -0.264 OA
ATOM     11  H2  UNL     1      12.504  17.343 -18.659  1.00  0.00     0.190 HD
BRANCH   9  12
HETATM   12  C4  UNL     1      13.621  19.280 -19.964  1.00  0.00     0.111 A 
HETATM   13  C3  UNL     1      13.176  19.642 -21.252  1.00  0.00     0.110 A 
HETATM   14  C2  UNL     1      14.040  19.447 -22.297  1.00  0.00     0.253 A 
HETATM   15  N1  UNL     1      15.266  18.938 -22.125  1.00  0.00    -0.271 N 
HETATM   16  O1  UNL     1      13.721  19.747 -23.513  1.00  0.00    -0.268 OA
HETATM   17  C1  UNL     1      16.151  18.770 -23.298  1.00  0.00     0.164 C 
HETATM   18  C14 UNL     1      15.678  18.607 -20.889  1.00  0.00     0.329 A 
HETATM   19  N9  UNL     1      14.833  18.784 -19.829  1.00  0.00    -0.303 N 
HETATM   20  O8  UNL     1      16.810  18.158 -20.726  1.00  0.00    -0.246 OA
ATOM     21  H9  UNL     1      15.155  18.521 -18.897  1.00  0.00     0.171 HD
ENDBRANCH   9  12
ENDBRANCH   5   8
ENDBRANCH   1   4
BRANCH   1  22
HETATM   22  C11 UNL     1       8.482  18.949 -15.581  1.00  0.00     0.145 C 
HETATM   23  C12 UNL     1       6.951  18.854 -15.703  1.00  0.00     0.058 C 
HETATM   24  C13 UNL     1       8.807  20.141 -16.538  1.00  0.00     0.058 C 
HETATM   25  F1  UNL     1       8.913  19.203 -14.385  1.00  0.00    -0.237 F 
ENDBRANCH   1  22
BRANCH   2  26
HETATM   26  N5  UNL     1       8.625  15.963 -14.566  1.00  0.00    -0.274 N 
ATOM     27  H5  UNL     1       8.844  16.226 -13.605  1.00  0.00     0.189 HD
BRANCH  26  28
HETATM   28  C8  UNL     1       7.751  14.848 -14.908  1.00  0.00     0.216 C 
HETATM   29  S1  UNL     1       6.188  15.199 -15.284  1.00  0.00    -0.037 SA
BRANCH  28  30
HETATM   30  N6  UNL     1       8.222  13.534 -15.020  1.00  0.00    -0.204 N 
ATOM     31  H6  UNL     1       7.802  12.909 -15.708  1.00  0.00     0.204 HD
BRANCH  30  32
HETATM   32  N7  UNL     1       9.230  13.078 -14.228  1.00  0.00    -0.282 NA
HETATM   33  C9  UNL     1      10.211  12.612 -13.462  1.00  0.00     0.338 C 
HETATM   34  O4  UNL     1      10.712  11.548 -13.185  1.00  0.00    -0.253 OA
BRANCH  33  35
HETATM   35  C10 UNL     1      10.989  13.801 -12.699  1.00  0.00     0.329 C 
BRANCH  35  36
HETATM   36  O5  UNL     1      11.140  14.735 -13.721  1.00  0.00    -0.211 OA
BRANCH  36  37
HETATM   37  N8  UNL     1      12.086  15.154 -14.557  1.00  0.00     0.005 N 
HETATM   38  O6  UNL     1      11.827  15.644 -15.685  1.00  0.00    -0.511 OA
HETATM   39  O7  UNL     1      13.398  15.105 -14.099  1.00  0.00    -0.511 OA
ENDBRANCH  36  37
ENDBRANCH  35  36
ENDBRANCH  33  35
ENDBRANCH  30  32
ENDBRANCH  28  30
ENDBRANCH  26  28
ENDBRANCH   2  26
TORSDOF 11
ENDMDL
