MODEL 1
REMARK VINA RESULT: -6.562594940      0.000      0.000
REMARK  11 active torsions:
REMARK  status: ('A' for Active; 'I' for Inactive)
REMARK    1  A    between atoms: C2_3  and  C3_4 
REMARK    2  A    between atoms: C3_4  and  C4_5 
REMARK       I    between atoms: C4_5  and  N2_7 
REMARK    3  A    between atoms: N2_7  and  N3_8 
REMARK       I    between atoms: N3_8  and  C5_10 
REMARK    4  A    between atoms: C5_10  and  C6_12 
REMARK       I    between atoms: C6_12  and  N4_14 
REMARK    5  A    between atoms: N4_14  and  C7_16 
REMARK    6  A    between atoms: C7_16  and  C8_17 
REMARK    7  A    between atoms: C12_21  and  O4_22 
REMARK    8  A    between atoms: C13_26  and  N6_27 
REMARK    9  A    between atoms: N6_27  and  C14_29 
REMARK   10  A    between atoms: N8_32  and  C15_33 
REMARK   11  A    between atoms: C15_33  and  C16_34 
ROOT
HETATM    1  C1  UNL     1       8.816  16.082 -14.510  1.00  0.00     0.175 C 
HETATM    2  N1  UNL     1       9.024  14.663 -14.363  1.00  0.00    -0.186 N 
HETATM    3  C2  UNL     1      10.027  14.073 -13.711  1.00  0.00     0.089 A 
HETATM    4  C12 UNL     1       9.900  12.704 -13.788  1.00  0.00     0.179 A 
HETATM    5  N5  UNL     1       8.799  12.478 -14.505  1.00  0.00    -0.168 N 
ATOM      6  H5  UNL     1       8.431  11.557 -14.743  1.00  0.00     0.186 HD
HETATM    7  C13 UNL     1       8.230  13.681 -14.877  1.00  0.00     0.688 A 
ENDROOT
BRANCH   3   8
HETATM    8  C3  UNL     1      11.128  14.714 -12.971  1.00  0.00     0.183 C 
BRANCH   8   9
HETATM    9  C4  UNL     1      12.332  14.730 -13.924  1.00  0.00     0.318 C 
HETATM   10  O1  UNL     1      13.276  13.995 -13.535  1.00  0.00    -0.255 OA
HETATM   11  N2  UNL     1      12.224  15.523 -15.021  1.00  0.00    -0.283 NA
BRANCH  11  12
HETATM   12  N3  UNL     1      12.125  16.289 -16.083  1.00  0.00    -0.191 N 
HETATM   13  C5  UNL     1      11.365  15.758 -17.229  1.00  0.00     0.338 C 
HETATM   14  O2  UNL     1      10.841  14.651 -17.215  1.00  0.00    -0.260 OA
ATOM     15  H3  UNL     1      12.556  17.213 -16.113  1.00  0.00     0.205 HD
BRANCH  13  16
HETATM   16  C6  UNL     1      11.300  16.687 -18.385  1.00  0.00     0.311 C 
HETATM   17  O3  UNL     1      10.224  16.766 -18.986  1.00  0.00    -0.262 OA
HETATM   18  N4  UNL     1      12.460  17.397 -18.711  1.00  0.00    -0.352 N 
ATOM     19  H4  UNL     1      13.277  17.221 -18.125  1.00  0.00     0.162 HD
BRANCH  18  20
HETATM   20  C7  UNL     1      12.630  18.332 -19.762  1.00  0.00     0.131 C 
BRANCH  20  21
HETATM   21  C8  UNL     1      12.647  19.757 -19.423  1.00  0.00    -0.035 C 
HETATM   22  C9  UNL     1      14.065  20.272 -19.126  1.00  0.00     0.016 C 
HETATM   23  C10 UNL     1      11.752  20.317 -18.379  1.00  0.00     0.016 C 
HETATM   24  C11 UNL     1      12.221  20.489 -20.739  1.00  0.00     0.016 C 
ENDBRANCH  20  21
ENDBRANCH  18  20
ENDBRANCH  13  16
ENDBRANCH  11  12
ENDBRANCH   8   9
ENDBRANCH   3   8
BRANCH   4  25
HETATM   25  O4  UNL     1      10.720  11.699 -13.249  1.00  0.00    -0.344 OA
ATOM     26  H4  UNL     1      10.874  11.466 -12.342  1.00  0.00     0.219 HD
ENDBRANCH   4  25
BRANCH   7  27
HETATM   27  N6  UNL     1       7.158  13.724 -15.515  1.00  0.00    -0.169 N 
ATOM     28  H6  UNL     1       7.311  14.199 -16.404  1.00  0.00     0.186 HD
BRANCH  27  29
HETATM   29  C14 UNL     1       5.869  13.353 -15.419  1.00  0.00     0.204 A 
HETATM   30  N7  UNL     1       5.477  12.137 -15.918  1.00  0.00    -0.274 N 
HETATM   31  N8  UNL     1       4.243  11.710 -15.813  1.00  0.00    -0.238 N 
ATOM     32  H7  UNL     1       6.167  11.548 -16.385  1.00  0.00     0.189 HD
HETATM   33  C17 UNL     1       3.315  12.462 -15.204  1.00  0.00     0.344 A 
HETATM   34  O5  UNL     1       2.146  12.014 -15.120  1.00  0.00    -0.245 OA
HETATM   35  N9  UNL     1       3.639  13.671 -14.691  1.00  0.00    -0.271 N 
HETATM   36  C18 UNL     1       4.890  14.122 -14.790  1.00  0.00     0.295 A 
ATOM     37  H9  UNL     1       2.927  14.237 -14.229  1.00  0.00     0.174 HD
HETATM   38  O6  UNL     1       5.278  15.240 -14.342  1.00  0.00    -0.264 OA
BRANCH  31  39
HETATM   39  C15 UNL     1       3.889  10.403 -16.351  1.00  0.00     0.185 C 
BRANCH  39  40
HETATM   40  C16 UNL     1       4.789  10.181 -17.542  1.00  0.00     0.244 C 
HETATM   41  F1  UNL     1       5.607   9.086 -17.292  1.00  0.00    -0.254 F 
ENDBRANCH  39  40
ENDBRANCH  31  39
ENDBRANCH  27  29
ENDBRANCH   7  27
TORSDOF 11
ENDMDL
MODEL 2
REMARK VINA RESULT: -6.309099276      4.844      7.352
REMARK  11 active torsions:
REMARK  status: ('A' for Active; 'I' for Inactive)
REMARK    1  A    between atoms: C2_3  and  C3_4 
REMARK    2  A    between atoms: C3_4  and  C4_5 
REMARK       I    between atoms: C4_5  and  N2_7 
REMARK    3  A    between atoms: N2_7  and  N3_8 
REMARK       I    between atoms: N3_8  and  C5_10 
REMARK    4  A    between atoms: C5_10  and  C6_12 
REMARK       I    between atoms: C6_12  and  N4_14 
REMARK    5  A    between atoms: N4_14  and  C7_16 
REMARK    6  A    between atoms: C7_16  and  C8_17 
REMARK    7  A    between atoms: C12_21  and  O4_22 
REMARK    8  A    between atoms: C13_26  and  N6_27 
REMARK    9  A    between atoms: N6_27  and  C14_29 
REMARK   10  A    between atoms: N8_32  and  C15_33 
REMARK   11  A    between atoms: C15_33  and  C16_34 
ROOT
HETATM    1  C1  UNL     1       9.046  14.697 -19.554  1.00  0.00     0.175 C 
HETATM    2  N1  UNL     1      10.202  15.374 -19.021  1.00  0.00    -0.186 N 
HETATM    3  C2  UNL     1      11.221  15.872 -19.722  1.00  0.00     0.089 A 
HETATM    4  C12 UNL     1      12.144  16.442 -18.875  1.00  0.00     0.179 A 
HETATM    5  N5  UNL     1      11.662  16.275 -17.642  1.00  0.00    -0.168 N 
ATOM      6  H5  UNL     1      12.118  16.589 -16.785  1.00  0.00     0.186 HD
HETATM    7  C13 UNL     1      10.450  15.613 -17.702  1.00  0.00     0.688 A 
ENDROOT
BRANCH   3   8
HETATM    8  C3  UNL     1      11.398  15.877 -21.185  1.00  0.00     0.183 C 
BRANCH   8   9
HETATM    9  C4  UNL     1      12.177  14.599 -21.527  1.00  0.00     0.318 C 
HETATM   10  O1  UNL     1      11.449  13.693 -22.006  1.00  0.00    -0.255 OA
HETATM   11  N2  UNL     1      13.509  14.613 -21.262  1.00  0.00    -0.283 NA
BRANCH  11  12
HETATM   12  N3  UNL     1      14.797  14.622 -21.006  1.00  0.00    -0.191 N 
HETATM   13  C5  UNL     1      15.514  15.896 -21.193  1.00  0.00     0.338 C 
HETATM   14  O2  UNL     1      14.953  16.917 -21.571  1.00  0.00    -0.260 OA
ATOM     15  H3  UNL     1      15.282  13.781 -20.692  1.00  0.00     0.205 HD
BRANCH  13  16
HETATM   16  C6  UNL     1      16.963  15.819 -20.880  1.00  0.00     0.311 C 
HETATM   17  O3  UNL     1      17.651  16.807 -21.148  1.00  0.00    -0.262 OA
HETATM   18  N4  UNL     1      17.440  14.633 -20.314  1.00  0.00    -0.352 N 
ATOM     19  H4  UNL     1      16.751  13.897 -20.156  1.00  0.00     0.162 HD
BRANCH  18  20
HETATM   20  C7  UNL     1      18.772  14.336 -19.933  1.00  0.00     0.131 C 
BRANCH  20  21
HETATM   21  C8  UNL     1      19.533  13.394 -20.759  1.00  0.00    -0.035 C 
HETATM   22  C9  UNL     1      18.624  12.473 -21.588  1.00  0.00     0.016 C 
HETATM   23  C10 UNL     1      20.603  12.543 -20.178  1.00  0.00     0.016 C 
HETATM   24  C11 UNL     1      20.270  14.287 -21.812  1.00  0.00     0.016 C 
ENDBRANCH  20  21
ENDBRANCH  18  20
ENDBRANCH  13  16
ENDBRANCH  11  12
ENDBRANCH   8   9
ENDBRANCH   3   8
BRANCH   4  25
HETATM   25  O4  UNL     1      13.359  17.080 -19.174  1.00  0.00    -0.344 OA
ATOM     26  H4  UNL     1      14.106  17.252 -18.614  1.00  0.00     0.219 HD
ENDBRANCH   4  25
BRANCH   7  27
HETATM   27  N6  UNL     1       9.781  15.387 -16.673  1.00  0.00    -0.169 N 
ATOM     28  H6  UNL     1       8.915  15.925 -16.706  1.00  0.00     0.186 HD
BRANCH  27  29
HETATM   29  C14 UNL     1       9.822  14.671 -15.535  1.00  0.00     0.204 A 
HETATM   30  N7  UNL     1      10.747  14.986 -14.572  1.00  0.00    -0.274 N 
HETATM   31  N8  UNL     1      10.801  14.347 -13.429  1.00  0.00    -0.238 N 
ATOM     32  H7  UNL     1      11.412  15.738 -14.751  1.00  0.00     0.189 HD
HETATM   33  C17 UNL     1       9.939  13.354 -13.165  1.00  0.00     0.344 A 
HETATM   34  O5  UNL     1      10.022  12.773 -12.057  1.00  0.00    -0.245 OA
HETATM   35  N9  UNL     1       9.004  12.998 -14.075  1.00  0.00    -0.271 N 
HETATM   36  C18 UNL     1       8.935  13.636 -15.244  1.00  0.00     0.295 A 
ATOM     37  H9  UNL     1       8.352  12.241 -13.866  1.00  0.00     0.174 HD
HETATM   38  O6  UNL     1       8.094  13.365 -16.151  1.00  0.00    -0.264 OA
BRANCH  31  39
HETATM   39  C15 UNL     1      11.798  14.735 -12.438  1.00  0.00     0.185 C 
BRANCH  39  40
HETATM   40  C16 UNL     1      12.970  15.283 -13.215  1.00  0.00     0.244 C 
HETATM   41  F1  UNL     1      13.761  14.226 -13.645  1.00  0.00    -0.254 F 
ENDBRANCH  39  40
ENDBRANCH  31  39
ENDBRANCH  27  29
ENDBRANCH   7  27
TORSDOF 11
ENDMDL
MODEL 3
REMARK VINA RESULT: -6.270622994      2.306      2.983
REMARK  11 active torsions:
REMARK  status: ('A' for Active; 'I' for Inactive)
REMARK    1  A    between atoms: C2_3  and  C3_4 
REMARK    2  A    between atoms: C3_4  and  C4_5 
REMARK       I    between atoms: C4_5  and  N2_7 
REMARK    3  A    between atoms: N2_7  and  N3_8 
REMARK       I    between atoms: N3_8  and  C5_10 
REMARK    4  A    between atoms: C5_10  and  C6_12 
REMARK       I    between atoms: C6_12  and  N4_14 
REMARK    5  A    between atoms: N4_14  and  C7_16 
REMARK    6  A    between atoms: C7_16  and  C8_17 
REMARK    7  A    between atoms: C12_21  and  O4_22 
REMARK    8  A    between atoms: C13_26  and  N6_27 
REMARK    9  A    between atoms: N6_27  and  C14_29 
REMARK   10  A    between atoms: N8_32  and  C15_33 
REMARK   11  A    between atoms: C15_33  and  C16_34 
ROOT
HETATM    1  C1  UNL     1       8.945  16.234 -14.389  1.00  0.00     0.175 C 
HETATM    2  N1  UNL     1       9.100  14.805 -14.270  1.00  0.00    -0.186 N 
HETATM    3  C2  UNL     1      10.091  14.165 -13.648  1.00  0.00     0.089 A 
HETATM    4  C12 UNL     1       9.909  12.804 -13.745  1.00  0.00     0.179 A 
HETATM    5  N5  UNL     1       8.786  12.633 -14.444  1.00  0.00    -0.168 N 
ATOM      6  H5  UNL     1       8.378  11.731 -14.690  1.00  0.00     0.186 HD
HETATM    7  C13 UNL     1       8.257  13.864 -14.784  1.00  0.00     0.688 A 
ENDROOT
BRANCH   3   8
HETATM    8  C3  UNL     1      11.231  14.749 -12.920  1.00  0.00     0.183 C 
BRANCH   8   9
HETATM    9  C4  UNL     1      12.411  14.752 -13.903  1.00  0.00     0.318 C 
HETATM   10  O1  UNL     1      13.359  14.012 -13.535  1.00  0.00    -0.255 OA
HETATM   11  N2  UNL     1      12.281  15.541 -15.001  1.00  0.00    -0.283 NA
BRANCH  11  12
HETATM   12  N3  UNL     1      12.160  16.303 -16.064  1.00  0.00    -0.191 N 
HETATM   13  C5  UNL     1      11.378  15.768 -17.192  1.00  0.00     0.338 C 
HETATM   14  O2  UNL     1      10.854  14.661 -17.164  1.00  0.00    -0.260 OA
ATOM     15  H3  UNL     1      12.591  17.226 -16.106  1.00  0.00     0.205 HD
BRANCH  13  16
HETATM   16  C6  UNL     1      11.289  16.693 -18.350  1.00  0.00     0.311 C 
HETATM   17  O3  UNL     1      10.208  16.754 -18.942  1.00  0.00    -0.262 OA
HETATM   18  N4  UNL     1      12.436  17.419 -18.687  1.00  0.00    -0.352 N 
ATOM     19  H4  UNL     1      13.260  17.257 -18.108  1.00  0.00     0.162 HD
BRANCH  18  20
HETATM   20  C7  UNL     1      12.584  18.353 -19.742  1.00  0.00     0.131 C 
BRANCH  20  21
HETATM   21  C8  UNL     1      12.597  19.779 -19.405  1.00  0.00    -0.035 C 
HETATM   22  C9  UNL     1      14.008  20.290 -19.074  1.00  0.00     0.016 C 
HETATM   23  C10 UNL     1      11.677  20.344 -18.385  1.00  0.00     0.016 C 
HETATM   24  C11 UNL     1      12.206  20.509 -20.734  1.00  0.00     0.016 C 
ENDBRANCH  20  21
ENDBRANCH  18  20
ENDBRANCH  13  16
ENDBRANCH  11  12
ENDBRANCH   8   9
ENDBRANCH   3   8
BRANCH   4  25
HETATM   25  O4  UNL     1      10.699  11.758 -13.241  1.00  0.00    -0.344 OA
ATOM     26  H4  UNL     1      10.435  10.918 -12.884  1.00  0.00     0.219 HD
ENDBRANCH   4  25
BRANCH   7  27
HETATM   27  N6  UNL     1       7.176  13.960 -15.399  1.00  0.00    -0.169 N 
ATOM     28  H6  UNL     1       7.316  13.702 -16.376  1.00  0.00     0.186 HD
BRANCH  27  29
HETATM   29  C14 UNL     1       5.887  14.291 -15.203  1.00  0.00     0.204 A 
HETATM   30  N7  UNL     1       5.540  15.613 -15.083  1.00  0.00    -0.274 N 
HETATM   31  N8  UNL     1       4.294  15.991 -14.933  1.00  0.00    -0.238 N 
ATOM     32  H7  UNL     1       6.273  16.322 -15.110  1.00  0.00     0.189 HD
HETATM   33  C17 UNL     1       3.309  15.081 -14.894  1.00  0.00     0.344 A 
HETATM   34  O5  UNL     1       2.131  15.486 -14.754  1.00  0.00    -0.245 OA
HETATM   35  N9  UNL     1       3.588  13.763 -15.007  1.00  0.00    -0.271 N 
HETATM   36  C18 UNL     1       4.851  13.360 -15.159  1.00  0.00     0.295 A 
ATOM     37  H9  UNL     1       2.833  13.077 -14.976  1.00  0.00     0.174 HD
HETATM   38  O6  UNL     1       5.199  12.148 -15.269  1.00  0.00    -0.264 OA
BRANCH  31  39
HETATM   39  C15 UNL     1       3.985  17.411 -14.824  1.00  0.00     0.185 C 
BRANCH  39  40
HETATM   40  C16 UNL     1       5.303  18.113 -14.612  1.00  0.00     0.244 C 
HETATM   41  F1  UNL     1       5.084  19.484 -14.566  1.00  0.00    -0.254 F 
ENDBRANCH  39  40
ENDBRANCH  31  39
ENDBRANCH  27  29
ENDBRANCH   7  27
TORSDOF 11
ENDMDL
MODEL 4
REMARK VINA RESULT: -6.233902709      2.811      6.219
REMARK  11 active torsions:
REMARK  status: ('A' for Active; 'I' for Inactive)
REMARK    1  A    between atoms: C2_3  and  C3_4 
REMARK    2  A    between atoms: C3_4  and  C4_5 
REMARK       I    between atoms: C4_5  and  N2_7 
REMARK    3  A    between atoms: N2_7  and  N3_8 
REMARK       I    between atoms: N3_8  and  C5_10 
REMARK    4  A    between atoms: C5_10  and  C6_12 
REMARK       I    between atoms: C6_12  and  N4_14 
REMARK    5  A    between atoms: N4_14  and  C7_16 
REMARK    6  A    between atoms: C7_16  and  C8_17 
REMARK    7  A    between atoms: C12_21  and  O4_22 
REMARK    8  A    between atoms: C13_26  and  N6_27 
REMARK    9  A    between atoms: N6_27  and  C14_29 
REMARK   10  A    between atoms: N8_32  and  C15_33 
REMARK   11  A    between atoms: C15_33  and  C16_34 
ROOT
HETATM    1  C1  UNL     1       8.491  14.121 -17.590  1.00  0.00     0.175 C 
HETATM    2  N1  UNL     1       7.471  13.644 -16.690  1.00  0.00    -0.186 N 
HETATM    3  C2  UNL     1       6.152  13.722 -16.875  1.00  0.00     0.089 A 
HETATM    4  C12 UNL     1       5.490  13.167 -15.803  1.00  0.00     0.179 A 
HETATM    5  N5  UNL     1       6.439  12.754 -14.962  1.00  0.00    -0.168 N 
ATOM      6  H5  UNL     1       6.271  12.298 -14.064  1.00  0.00     0.186 HD
HETATM    7  C13 UNL     1       7.685  13.036 -15.488  1.00  0.00     0.688 A 
ENDROOT
BRANCH   3   8
HETATM    8  C3  UNL     1       5.431  14.277 -18.034  1.00  0.00     0.183 C 
BRANCH   8   9
HETATM    9  C4  UNL     1       4.877  15.636 -17.583  1.00  0.00     0.318 C 
HETATM   10  O1  UNL     1       3.637  15.616 -17.373  1.00  0.00    -0.255 OA
HETATM   11  N2  UNL     1       5.773  16.652 -17.485  1.00  0.00    -0.283 NA
BRANCH  11  12
HETATM   12  N3  UNL     1       6.635  17.638 -17.390  1.00  0.00    -0.191 N 
HETATM   13  C5  UNL     1       7.549  17.626 -16.234  1.00  0.00     0.338 C 
HETATM   14  O2  UNL     1       7.522  16.745 -15.383  1.00  0.00    -0.260 OA
ATOM     15  H3  UNL     1       6.671  18.381 -18.087  1.00  0.00     0.205 HD
BRANCH  13  16
HETATM   16  C6  UNL     1       8.491  18.772 -16.204  1.00  0.00     0.311 C 
HETATM   17  O3  UNL     1       8.722  19.285 -15.105  1.00  0.00    -0.262 OA
HETATM   18  N4  UNL     1       9.042  19.189 -17.420  1.00  0.00    -0.352 N 
ATOM     19  H4  UNL     1       8.751  18.670 -18.249  1.00  0.00     0.162 HD
BRANCH  18  20
HETATM   20  C7  UNL     1       9.957  20.249 -17.632  1.00  0.00     0.131 C 
BRANCH  20  21
HETATM   21  C8  UNL     1      11.019  20.058 -18.624  1.00  0.00    -0.035 C 
HETATM   22  C9  UNL     1      10.465  19.749 -20.024  1.00  0.00     0.016 C 
HETATM   23  C10 UNL     1      12.145  19.121 -18.384  1.00  0.00     0.016 C 
HETATM   24  C11 UNL     1      11.698  21.462 -18.760  1.00  0.00     0.016 C 
ENDBRANCH  20  21
ENDBRANCH  18  20
ENDBRANCH  13  16
ENDBRANCH  11  12
ENDBRANCH   8   9
ENDBRANCH   3   8
BRANCH   4  25
HETATM   25  O4  UNL     1       4.111  13.033 -15.576  1.00  0.00    -0.344 OA
ATOM     26  H4  UNL     1       3.493  12.419 -15.955  1.00  0.00     0.219 HD
ENDBRANCH   4  25
BRANCH   7  27
HETATM   27  N6  UNL     1       8.731  12.696 -14.901  1.00  0.00    -0.169 N 
ATOM     28  H6  UNL     1       8.771  11.678 -14.838  1.00  0.00     0.186 HD
BRANCH  27  29
HETATM   29  C14 UNL     1       9.826  13.224 -14.324  1.00  0.00     0.204 A 
HETATM   30  N7  UNL     1      10.486  14.255 -14.944  1.00  0.00    -0.274 N 
HETATM   31  N8  UNL     1      11.531  14.832 -14.405  1.00  0.00    -0.238 N 
ATOM     32  H7  UNL     1      10.153  14.581 -15.852  1.00  0.00     0.189 HD
HETATM   33  C17 UNL     1      11.990  14.425 -13.212  1.00  0.00     0.344 A 
HETATM   34  O5  UNL     1      12.990  15.008 -12.729  1.00  0.00    -0.245 OA
HETATM   35  N9  UNL     1      11.383  13.414 -12.551  1.00  0.00    -0.271 N 
HETATM   36  C18 UNL     1      10.318  12.813 -13.086  1.00  0.00     0.295 A 
ATOM     37  H9  UNL     1      11.739  13.110 -11.645  1.00  0.00     0.174 HD
HETATM   38  O6  UNL     1       9.693  11.859 -12.538  1.00  0.00    -0.264 OA
BRANCH  31  39
HETATM   39  C15 UNL     1      12.183  15.932 -15.105  1.00  0.00     0.185 C 
BRANCH  39  40
HETATM   40  C16 UNL     1      11.247  16.334 -16.218  1.00  0.00     0.244 C 
HETATM   41  F1  UNL     1      11.760  15.877 -17.426  1.00  0.00    -0.254 F 
ENDBRANCH  39  40
ENDBRANCH  31  39
ENDBRANCH  27  29
ENDBRANCH   7  27
TORSDOF 11
ENDMDL
MODEL 5
REMARK VINA RESULT: -6.194363430      2.005      2.360
REMARK  11 active torsions:
REMARK  status: ('A' for Active; 'I' for Inactive)
REMARK    1  A    between atoms: C2_3  and  C3_4 
REMARK    2  A    between atoms: C3_4  and  C4_5 
REMARK       I    between atoms: C4_5  and  N2_7 
REMARK    3  A    between atoms: N2_7  and  N3_8 
REMARK       I    between atoms: N3_8  and  C5_10 
REMARK    4  A    between atoms: C5_10  and  C6_12 
REMARK       I    between atoms: C6_12  and  N4_14 
REMARK    5  A    between atoms: N4_14  and  C7_16 
REMARK    6  A    between atoms: C7_16  and  C8_17 
REMARK    7  A    between atoms: C12_21  and  O4_22 
REMARK    8  A    between atoms: C13_26  and  N6_27 
REMARK    9  A    between atoms: N6_27  and  C14_29 
REMARK   10  A    between atoms: N8_32  and  C15_33 
REMARK   11  A    between atoms: C15_33  and  C16_34 
ROOT
HETATM    1  C1  UNL     1       8.884  16.194 -14.297  1.00  0.00     0.175 C 
HETATM    2  N1  UNL     1       9.080  14.770 -14.186  1.00  0.00    -0.186 N 
HETATM    3  C2  UNL     1      10.107  14.155 -13.600  1.00  0.00     0.089 A 
HETATM    4  C12 UNL     1       9.957  12.790 -13.693  1.00  0.00     0.179 A 
HETATM    5  N5  UNL     1       8.815  12.591 -14.352  1.00  0.00    -0.168 N 
ATOM      6  H5  UNL     1       8.421  11.679 -14.585  1.00  0.00     0.186 HD
HETATM    7  C13 UNL     1       8.244  13.808 -14.672  1.00  0.00     0.688 A 
ENDROOT
BRANCH   3   8
HETATM    8  C3  UNL     1      11.257  14.767 -12.910  1.00  0.00     0.183 C 
BRANCH   8   9
HETATM    9  C4  UNL     1      12.419  14.747 -13.914  1.00  0.00     0.318 C 
HETATM   10  O1  UNL     1      13.371  14.011 -13.548  1.00  0.00    -0.255 OA
HETATM   11  N2  UNL     1      12.272  15.514 -15.024  1.00  0.00    -0.283 NA
BRANCH  11  12
HETATM   12  N3  UNL     1      12.134  16.256 -16.100  1.00  0.00    -0.191 N 
HETATM   13  C5  UNL     1      11.293  15.721 -17.185  1.00  0.00     0.338 C 
HETATM   14  O2  UNL     1      10.737  14.632 -17.111  1.00  0.00    -0.260 OA
ATOM     15  H3  UNL     1      12.592  17.164 -16.180  1.00  0.00     0.205 HD
BRANCH  13  16
HETATM   16  C6  UNL     1      11.190  16.622 -18.361  1.00  0.00     0.311 C 
HETATM   17  O3  UNL     1      10.124  16.617 -18.983  1.00  0.00    -0.262 OA
HETATM   18  N4  UNL     1      12.307  17.401 -18.679  1.00  0.00    -0.352 N 
ATOM     19  H4  UNL     1      13.121  17.291 -18.075  1.00  0.00     0.162 HD
BRANCH  18  20
HETATM   20  C7  UNL     1      12.435  18.325 -19.745  1.00  0.00     0.131 C 
BRANCH  20  21
HETATM   21  C8  UNL     1      12.610  19.742 -19.415  1.00  0.00    -0.035 C 
HETATM   22  C9  UNL     1      14.066  20.085 -19.060  1.00  0.00     0.016 C 
HETATM   23  C10 UNL     1      11.746  20.418 -18.414  1.00  0.00     0.016 C 
HETATM   24  C11 UNL     1      12.331  20.504 -20.753  1.00  0.00     0.016 C 
ENDBRANCH  20  21
ENDBRANCH  18  20
ENDBRANCH  13  16
ENDBRANCH  11  12
ENDBRANCH   8   9
ENDBRANCH   3   8
BRANCH   4  25
HETATM   25  O4  UNL     1      10.790  11.764 -13.217  1.00  0.00    -0.344 OA
ATOM     26  H4  UNL     1      11.621  11.454 -13.557  1.00  0.00     0.219 HD
ENDBRANCH   4  25
BRANCH   7  27
HETATM   27  N6  UNL     1       7.140  13.877 -15.249  1.00  0.00    -0.169 N 
ATOM     28  H6  UNL     1       6.506  14.460 -14.702  1.00  0.00     0.186 HD
BRANCH  27  29
HETATM   29  C14 UNL     1       6.507  13.439 -16.352  1.00  0.00     0.204 A 
HETATM   30  N7  UNL     1       6.881  13.921 -17.581  1.00  0.00    -0.274 N 
HETATM   31  N8  UNL     1       6.326  13.495 -18.689  1.00  0.00    -0.238 N 
ATOM     32  H7  UNL     1       7.611  14.631 -17.634  1.00  0.00     0.189 HD
HETATM   33  C17 UNL     1       5.364  12.561 -18.652  1.00  0.00     0.344 A 
HETATM   34  O5  UNL     1       4.863  12.178 -19.736  1.00  0.00    -0.245 OA
HETATM   35  N9  UNL     1       4.953  12.047 -17.470  1.00  0.00    -0.271 N 
HETATM   36  C18 UNL     1       5.505  12.469 -16.332  1.00  0.00     0.295 A 
ATOM     37  H9  UNL     1       4.221  11.337 -17.450  1.00  0.00     0.174 HD
HETATM   38  O6  UNL     1       5.179  12.044 -15.185  1.00  0.00    -0.264 OA
BRANCH  31  39
HETATM   39  C15 UNL     1       6.773  14.035 -19.968  1.00  0.00     0.185 C 
BRANCH  39  40
HETATM   40  C16 UNL     1       8.194  13.561 -20.149  1.00  0.00     0.244 C 
HETATM   41  F1  UNL     1       8.186  12.196 -20.408  1.00  0.00    -0.254 F 
ENDBRANCH  39  40
ENDBRANCH  31  39
ENDBRANCH  27  29
ENDBRANCH   7  27
TORSDOF 11
ENDMDL
