MODEL 1
REMARK VINA RESULT: -6.129742164      0.000      0.000
REMARK  11 active torsions:
REMARK  status: ('A' for Active; 'I' for Inactive)
REMARK    1  A    between atoms: N1_2  and  N2_4 
REMARK    2  A    between atoms: N2_4  and  S1_6 
REMARK    3  A    between atoms: S1_6  and  C3_9 
REMARK    4  A    between atoms: C5_11  and  N3_12 
REMARK       I    between atoms: N3_12  and  C6_14 
REMARK    5  A    between atoms: C6_14  and  C7_16 
REMARK    6  A    between atoms: C7_16  and  O4_17 
REMARK    7  A    between atoms: N4_19  and  N5_21 
REMARK    8  A    between atoms: C8_24  and  O5_25 
REMARK    9  A    between atoms: N6_27  and  C9_28 
REMARK   10  A    between atoms: C9_28  and  C10_29 
REMARK   11  A    between atoms: C10_29  and  N7_31 
ROOT
HETATM    1  C3  UNL     1      10.410  16.588 -17.121  1.00  0.00     0.099 A 
HETATM    2  C4  UNL     1      10.346  15.276 -16.626  1.00  0.00     0.060 A 
HETATM    3  C5  UNL     1       9.573  14.938 -15.542  1.00  0.00     0.088 A 
HETATM    4  C8  UNL     1       8.831  15.948 -14.922  1.00  0.00     0.170 A 
HETATM    5  N6  UNL     1       8.888  17.197 -15.387  1.00  0.00    -0.328 N 
HETATM    6  C15 UNL     1       9.653  17.524 -16.458  1.00  0.00     0.119 A 
ENDROOT
BRANCH   5   7
HETATM    7  C9  UNL     1       8.115  18.236 -14.738  1.00  0.00     0.200 C 
BRANCH   7   8
HETATM    8  C10 UNL     1       6.878  18.556 -15.470  1.00  0.00     0.097 C 
HETATM    9  S2  UNL     1       6.667  20.055 -16.069  1.00  0.00    -0.064 SA
BRANCH   8  10
HETATM   10  N7  UNL     1       5.908  17.532 -15.627  1.00  0.00    -0.335 N 
HETATM   11  C11 UNL     1       4.853  17.482 -14.892  1.00  0.00     0.111 A 
HETATM   12  C12 UNL     1       4.679  18.454 -13.934  1.00  0.00     0.110 A 
HETATM   13  N9  UNL     1       3.917  16.544 -15.000  1.00  0.00    -0.338 N 
HETATM   14  C13 UNL     1       3.564  18.468 -13.100  1.00  0.00     0.192 A 
HETATM   15  F1  UNL     1       3.404  19.422 -12.168  1.00  0.00    -0.186 F 
HETATM   16  N8  UNL     1       2.657  17.492 -13.261  1.00  0.00    -0.329 N 
HETATM   17  C14 UNL     1       2.825  16.543 -14.194  1.00  0.00     0.184 A 
ATOM     18  H8  UNL     1       1.829  17.472 -12.666  1.00  0.00     0.169 HD
ATOM     19  H9  UNL     1       4.021  15.811 -15.702  1.00  0.00     0.168 HD
ATOM     20  H7  UNL     1       6.051  16.816 -16.340  1.00  0.00     0.168 HD
ENDBRANCH   8  10
ENDBRANCH   7   8
ENDBRANCH   5   7
BRANCH   4  21
HETATM   21  O5  UNL     1       8.049  15.645 -13.837  1.00  0.00    -0.344 OA
ATOM     22  H5  UNL     1       8.330  14.970 -13.231  1.00  0.00     0.219 HD
ENDBRANCH   4  21
BRANCH   3  23
HETATM   23  N3  UNL     1       9.486  13.643 -15.023  1.00  0.00    -0.316 N 
HETATM   24  C6  UNL     1      10.356  13.016 -14.118  1.00  0.00     0.298 C 
HETATM   25  O3  UNL     1      11.380  13.505 -13.601  1.00  0.00    -0.263 OA
ATOM     26  H3  UNL     1       8.693  13.086 -15.341  1.00  0.00     0.169 HD
BRANCH  24  27
HETATM   27  C7  UNL     1      10.059  11.635 -13.712  1.00  0.00     0.224 C 
HETATM   28  N4  UNL     1      10.434  10.630 -14.440  1.00  0.00    -0.282 N 
ATOM     29  H4  UNL     1      10.942  10.810 -15.306  1.00  0.00     0.188 HD
BRANCH  27  30
HETATM   30  O4  UNL     1       9.379  11.380 -12.553  1.00  0.00    -0.341 OA
ATOM     31  H4  UNL     1       8.848  10.596 -12.465  1.00  0.00     0.219 HD
ENDBRANCH  27  30
BRANCH  28  32
HETATM   32  N5  UNL     1      10.169   9.329 -14.082  1.00  0.00    -0.343 N 
ATOM     33  H52 UNL     1      10.082   9.116 -13.089  1.00  0.00     0.176 HD
ATOM     34  H51 UNL     1      10.059   8.588 -14.774  1.00  0.00     0.176 HD
ENDBRANCH  28  32
ENDBRANCH  24  27
ENDBRANCH   3  23
BRANCH   1  35
HETATM   35  S1  UNL     1      11.408  16.982 -18.506  1.00  0.00     0.277 S 
HETATM   36  O1  UNL     1      12.048  15.710 -18.967  1.00  0.00    -0.199 OA
HETATM   37  O2  UNL     1      10.487  17.480 -19.592  1.00  0.00    -0.199 OA
BRANCH  35  38
HETATM   38  N2  UNL     1      12.558  18.181 -18.077  1.00  0.00    -0.226 N 
ATOM     39  H2  UNL     1      13.190  18.079 -17.282  1.00  0.00     0.200 HD
BRANCH  38  40
HETATM   40  N1  UNL     1      12.561  19.280 -18.881  1.00  0.00    -0.327 N 
HETATM   41  C1  UNL     1      13.792  19.604 -19.513  1.00  0.00     0.171 C 
HETATM   42  C2  UNL     1      11.810  20.401 -18.416  1.00  0.00     0.171 C 
ENDBRANCH  38  40
ENDBRANCH  35  38
ENDBRANCH   1  35
TORSDOF 11
ENDMDL
MODEL 2
REMARK VINA RESULT: -6.040665461      2.943      6.959
REMARK  11 active torsions:
REMARK  status: ('A' for Active; 'I' for Inactive)
REMARK    1  A    between atoms: N1_2  and  N2_4 
REMARK    2  A    between atoms: N2_4  and  S1_6 
REMARK    3  A    between atoms: S1_6  and  C3_9 
REMARK    4  A    between atoms: C5_11  and  N3_12 
REMARK       I    between atoms: N3_12  and  C6_14 
REMARK    5  A    between atoms: C6_14  and  C7_16 
REMARK    6  A    between atoms: C7_16  and  O4_17 
REMARK    7  A    between atoms: N4_19  and  N5_21 
REMARK    8  A    between atoms: C8_24  and  O5_25 
REMARK    9  A    between atoms: N6_27  and  C9_28 
REMARK   10  A    between atoms: C9_28  and  C10_29 
REMARK   11  A    between atoms: C10_29  and  N7_31 
ROOT
HETATM    1  C3  UNL     1       6.488  17.138 -15.016  1.00  0.00     0.099 A 
HETATM    2  C4  UNL     1       7.079  15.907 -14.690  1.00  0.00     0.060 A 
HETATM    3  C5  UNL     1       8.418  15.662 -14.883  1.00  0.00     0.088 A 
HETATM    4  C8  UNL     1       9.202  16.685 -15.424  1.00  0.00     0.170 A 
HETATM    5  N6  UNL     1       8.647  17.857 -15.736  1.00  0.00    -0.328 N 
HETATM    6  C15 UNL     1       7.325  18.092 -15.543  1.00  0.00     0.119 A 
ENDROOT
BRANCH   5   7
HETATM    7  C9  UNL     1       9.468  18.911 -16.296  1.00  0.00     0.200 C 
BRANCH   7   8
HETATM    8  C10 UNL     1       9.811  18.665 -17.707  1.00  0.00     0.097 C 
HETATM    9  S2  UNL     1       8.658  18.814 -18.848  1.00  0.00    -0.064 SA
BRANCH   8  10
HETATM   10  N7  UNL     1      11.147  18.304 -18.020  1.00  0.00    -0.335 N 
HETATM   11  C11 UNL     1      12.012  19.178 -18.400  1.00  0.00     0.111 A 
HETATM   12  C12 UNL     1      11.612  20.491 -18.501  1.00  0.00     0.110 A 
HETATM   13  N9  UNL     1      13.274  18.890 -18.703  1.00  0.00    -0.338 N 
HETATM   14  C13 UNL     1      12.489  21.494 -18.905  1.00  0.00     0.192 A 
HETATM   15  F1  UNL     1      12.088  22.772 -19.001  1.00  0.00    -0.186 F 
HETATM   16  N8  UNL     1      13.749  21.136 -19.197  1.00  0.00    -0.329 N 
HETATM   17  C14 UNL     1      14.142  19.856 -19.099  1.00  0.00     0.184 A 
ATOM     18  H8  UNL     1      14.417  21.845 -19.497  1.00  0.00     0.169 HD
ATOM     19  H9  UNL     1      13.597  17.924 -18.636  1.00  0.00     0.168 HD
ATOM     20  H7  UNL     1      11.430  17.327 -17.941  1.00  0.00     0.168 HD
ENDBRANCH   8  10
ENDBRANCH   7   8
ENDBRANCH   5   7
BRANCH   4  21
HETATM   21  O5  UNL     1      10.541  16.475 -15.631  1.00  0.00    -0.344 OA
ATOM     22  H5  UNL     1      11.171  16.814 -15.005  1.00  0.00     0.219 HD
ENDBRANCH   4  21
BRANCH   3  23
HETATM   23  N3  UNL     1       9.039  14.450 -14.571  1.00  0.00    -0.316 N 
HETATM   24  C6  UNL     1       9.703  14.101 -13.385  1.00  0.00     0.298 C 
HETATM   25  O3  UNL     1       9.861  14.816 -12.375  1.00  0.00    -0.263 OA
ATOM     26  H3  UNL     1       9.006  13.731 -15.294  1.00  0.00     0.169 HD
BRANCH  24  27
HETATM   27  C7  UNL     1      10.284  12.755 -13.284  1.00  0.00     0.224 C 
HETATM   28  N4  UNL     1       9.725  11.741 -13.865  1.00  0.00    -0.282 N 
ATOM     29  H4  UNL     1       8.869  11.888 -14.399  1.00  0.00     0.188 HD
BRANCH  27  30
HETATM   30  O4  UNL     1      11.433  12.542 -12.571  1.00  0.00    -0.341 OA
ATOM     31  H4  UNL     1      11.806  11.671 -12.502  1.00  0.00     0.219 HD
ENDBRANCH  27  30
BRANCH  28  32
HETATM   32  N5  UNL     1      10.249  10.472 -13.787  1.00  0.00    -0.343 N 
ATOM     33  H52 UNL     1       9.621   9.712 -13.525  1.00  0.00     0.176 HD
ATOM     34  H51 UNL     1      11.231  10.277 -13.980  1.00  0.00     0.176 HD
ENDBRANCH  28  32
ENDBRANCH  24  27
ENDBRANCH   3  23
BRANCH   1  35
HETATM   35  S1  UNL     1       4.778  17.413 -14.755  1.00  0.00     0.277 S 
HETATM   36  O1  UNL     1       4.151  16.082 -14.482  1.00  0.00    -0.199 OA
HETATM   37  O2  UNL     1       4.646  18.270 -13.521  1.00  0.00    -0.199 OA
BRANCH  35  38
HETATM   38  N2  UNL     1       4.096  18.195 -16.123  1.00  0.00    -0.226 N 
ATOM     39  H2  UNL     1       3.950  17.719 -17.013  1.00  0.00     0.200 HD
BRANCH  38  40
HETATM   40  N1  UNL     1       3.766  19.501 -15.925  1.00  0.00    -0.327 N 
HETATM   41  C1  UNL     1       2.380  19.812 -15.901  1.00  0.00     0.171 C 
HETATM   42  C2  UNL     1       4.588  20.464 -16.585  1.00  0.00     0.171 C 
ENDBRANCH  38  40
ENDBRANCH  35  38
ENDBRANCH   1  35
TORSDOF 11
ENDMDL
MODEL 3
REMARK VINA RESULT: -6.034913125      2.939      6.875
REMARK  11 active torsions:
REMARK  status: ('A' for Active; 'I' for Inactive)
REMARK    1  A    between atoms: N1_2  and  N2_4 
REMARK    2  A    between atoms: N2_4  and  S1_6 
REMARK    3  A    between atoms: S1_6  and  C3_9 
REMARK    4  A    between atoms: C5_11  and  N3_12 
REMARK       I    between atoms: N3_12  and  C6_14 
REMARK    5  A    between atoms: C6_14  and  C7_16 
REMARK    6  A    between atoms: C7_16  and  O4_17 
REMARK    7  A    between atoms: N4_19  and  N5_21 
REMARK    8  A    between atoms: C8_24  and  O5_25 
REMARK    9  A    between atoms: N6_27  and  C9_28 
REMARK   10  A    between atoms: C9_28  and  C10_29 
REMARK   11  A    between atoms: C10_29  and  N7_31 
ROOT
HETATM    1  C3  UNL     1       6.514  16.976 -15.056  1.00  0.00     0.099 A 
HETATM    2  C4  UNL     1       7.109  15.745 -14.738  1.00  0.00     0.060 A 
HETATM    3  C5  UNL     1       8.451  15.511 -14.917  1.00  0.00     0.088 A 
HETATM    4  C8  UNL     1       9.236  16.546 -15.437  1.00  0.00     0.170 A 
HETATM    5  N6  UNL     1       8.676  17.717 -15.741  1.00  0.00    -0.328 N 
HETATM    6  C15 UNL     1       7.350  17.941 -15.561  1.00  0.00     0.119 A 
ENDROOT
BRANCH   5   7
HETATM    7  C9  UNL     1       9.498  18.783 -16.278  1.00  0.00     0.200 C 
BRANCH   7   8
HETATM    8  C10 UNL     1       9.846  18.565 -17.692  1.00  0.00     0.097 C 
HETATM    9  S2  UNL     1       8.692  18.706 -18.832  1.00  0.00    -0.064 SA
BRANCH   8  10
HETATM   10  N7  UNL     1      11.190  18.236 -18.008  1.00  0.00    -0.335 N 
HETATM   11  C11 UNL     1      12.033  19.130 -18.389  1.00  0.00     0.111 A 
HETATM   12  C12 UNL     1      11.602  20.433 -18.488  1.00  0.00     0.110 A 
HETATM   13  N9  UNL     1      13.301  18.873 -18.695  1.00  0.00    -0.338 N 
HETATM   14  C13 UNL     1      12.453  21.458 -18.893  1.00  0.00     0.192 A 
HETATM   15  F1  UNL     1      12.021  22.725 -18.986  1.00  0.00    -0.186 F 
HETATM   16  N8  UNL     1      13.721  21.130 -19.188  1.00  0.00    -0.329 N 
HETATM   17  C14 UNL     1      14.144  19.860 -19.093  1.00  0.00     0.184 A 
ATOM     18  H8  UNL     1      14.371  21.855 -19.489  1.00  0.00     0.169 HD
ATOM     19  H9  UNL     1      13.647  17.915 -18.631  1.00  0.00     0.168 HD
ATOM     20  H7  UNL     1      11.496  17.265 -17.932  1.00  0.00     0.168 HD
ENDBRANCH   8  10
ENDBRANCH   7   8
ENDBRANCH   5   7
BRANCH   4  21
HETATM   21  O5  UNL     1      10.578  16.346 -15.629  1.00  0.00    -0.344 OA
ATOM     22  H5  UNL     1      11.189  17.047 -15.432  1.00  0.00     0.219 HD
ENDBRANCH   4  21
BRANCH   3  23
HETATM   23  N3  UNL     1       9.076  14.299 -14.612  1.00  0.00    -0.316 N 
HETATM   24  C6  UNL     1       9.742  13.946 -13.429  1.00  0.00     0.298 C 
HETATM   25  O3  UNL     1       9.899  14.656 -12.415  1.00  0.00    -0.263 OA
ATOM     26  H3  UNL     1       9.045  13.584 -15.339  1.00  0.00     0.169 HD
BRANCH  24  27
HETATM   27  C7  UNL     1      10.328  12.601 -13.336  1.00  0.00     0.224 C 
HETATM   28  N4  UNL     1       9.812  11.602 -13.980  1.00  0.00    -0.282 N 
ATOM     29  H4  UNL     1       8.987  11.761 -14.558  1.00  0.00     0.188 HD
BRANCH  27  30
HETATM   30  O4  UNL     1      11.435  12.374 -12.564  1.00  0.00    -0.341 OA
ATOM     31  H4  UNL     1      12.107  11.764 -12.847  1.00  0.00     0.219 HD
ENDBRANCH  27  30
BRANCH  28  32
HETATM   32  N5  UNL     1      10.341  10.335 -13.910  1.00  0.00    -0.343 N 
ATOM     33  H52 UNL     1      11.347  10.245 -13.769  1.00  0.00     0.176 HD
ATOM     34  H51 UNL     1       9.762   9.499 -13.993  1.00  0.00     0.176 HD
ENDBRANCH  28  32
ENDBRANCH  24  27
ENDBRANCH   3  23
BRANCH   1  35
HETATM   35  S1  UNL     1       4.798  17.236 -14.813  1.00  0.00     0.277 S 
HETATM   36  O1  UNL     1       4.201  15.922 -14.421  1.00  0.00    -0.199 OA
HETATM   37  O2  UNL     1       4.652  18.197 -13.659  1.00  0.00    -0.199 OA
BRANCH  35  38
HETATM   38  N2  UNL     1       4.097  17.880 -16.241  1.00  0.00    -0.226 N 
ATOM     39  H2  UNL     1       3.688  18.814 -16.281  1.00  0.00     0.200 HD
BRANCH  38  40
HETATM   40  N1  UNL     1       4.130  17.046 -17.317  1.00  0.00    -0.327 N 
HETATM   41  C1  UNL     1       4.932  17.455 -18.416  1.00  0.00     0.171 C 
HETATM   42  C2  UNL     1       2.893  16.427 -17.670  1.00  0.00     0.171 C 
ENDBRANCH  38  40
ENDBRANCH  35  38
ENDBRANCH   1  35
TORSDOF 11
ENDMDL
MODEL 4
REMARK VINA RESULT: -6.005253228      2.720      3.819
REMARK  11 active torsions:
REMARK  status: ('A' for Active; 'I' for Inactive)
REMARK    1  A    between atoms: N1_2  and  N2_4 
REMARK    2  A    between atoms: N2_4  and  S1_6 
REMARK    3  A    between atoms: S1_6  and  C3_9 
REMARK    4  A    between atoms: C5_11  and  N3_12 
REMARK       I    between atoms: N3_12  and  C6_14 
REMARK    5  A    between atoms: C6_14  and  C7_16 
REMARK    6  A    between atoms: C7_16  and  O4_17 
REMARK    7  A    between atoms: N4_19  and  N5_21 
REMARK    8  A    between atoms: C8_24  and  O5_25 
REMARK    9  A    between atoms: N6_27  and  C9_28 
REMARK   10  A    between atoms: C9_28  and  C10_29 
REMARK   11  A    between atoms: C10_29  and  N7_31 
ROOT
HETATM    1  C3  UNL     1      10.298  16.570 -17.222  1.00  0.00     0.099 A 
HETATM    2  C4  UNL     1      10.240  15.260 -16.720  1.00  0.00     0.060 A 
HETATM    3  C5  UNL     1       9.554  14.943 -15.573  1.00  0.00     0.088 A 
HETATM    4  C8  UNL     1       8.896  15.975 -14.894  1.00  0.00     0.170 A 
HETATM    5  N6  UNL     1       8.947  17.221 -15.365  1.00  0.00    -0.328 N 
HETATM    6  C15 UNL     1       9.627  17.526 -16.499  1.00  0.00     0.119 A 
ENDROOT
BRANCH   5   7
HETATM    7  C9  UNL     1       8.263  18.282 -14.655  1.00  0.00     0.200 C 
BRANCH   7   8
HETATM    8  C10 UNL     1       7.303  19.001 -15.510  1.00  0.00     0.097 C 
HETATM    9  S2  UNL     1       6.472  18.182 -16.645  1.00  0.00    -0.064 SA
BRANCH   8  10
HETATM   10  N7  UNL     1       7.140  20.397 -15.307  1.00  0.00    -0.335 N 
HETATM   11  C11 UNL     1       7.844  21.260 -15.951  1.00  0.00     0.111 A 
HETATM   12  C12 UNL     1       8.774  20.801 -16.854  1.00  0.00     0.110 A 
HETATM   13  N9  UNL     1       7.727  22.576 -15.796  1.00  0.00    -0.338 N 
HETATM   14  C13 UNL     1       9.574  21.672 -17.589  1.00  0.00     0.192 A 
HETATM   15  F1  UNL     1      10.479  21.213 -18.467  1.00  0.00    -0.186 F 
HETATM   16  N8  UNL     1       9.406  22.988 -17.384  1.00  0.00    -0.329 N 
HETATM   17  C14 UNL     1       8.500  23.439 -16.504  1.00  0.00     0.184 A 
ATOM     18  H8  UNL     1       9.976  23.654 -17.905  1.00  0.00     0.169 HD
ATOM     19  H9  UNL     1       7.045  22.944 -15.132  1.00  0.00     0.168 HD
ATOM     20  H7  UNL     1       6.447  20.723 -14.633  1.00  0.00     0.168 HD
ENDBRANCH   8  10
ENDBRANCH   7   8
ENDBRANCH   5   7
BRANCH   4  21
HETATM   21  O5  UNL     1       8.203  15.694 -13.745  1.00  0.00    -0.344 OA
ATOM     22  H5  UNL     1       7.348  15.283 -13.803  1.00  0.00     0.219 HD
ENDBRANCH   4  21
BRANCH   3  23
HETATM   23  N3  UNL     1       9.476  13.652 -15.045  1.00  0.00    -0.316 N 
HETATM   24  C6  UNL     1      10.349  13.039 -14.133  1.00  0.00     0.298 C 
HETATM   25  O3  UNL     1      11.368  13.540 -13.617  1.00  0.00    -0.263 OA
ATOM     26  H3  UNL     1       8.688  13.086 -15.361  1.00  0.00     0.169 HD
BRANCH  24  27
HETATM   27  C7  UNL     1      10.062  11.658 -13.718  1.00  0.00     0.224 C 
HETATM   28  N4  UNL     1      10.432  10.652 -14.446  1.00  0.00    -0.282 N 
ATOM     29  H4  UNL     1      10.929  10.830 -15.319  1.00  0.00     0.188 HD
BRANCH  27  30
HETATM   30  O4  UNL     1       9.397  11.405 -12.550  1.00  0.00    -0.341 OA
ATOM     31  H4  UNL     1       9.300  10.516 -12.230  1.00  0.00     0.219 HD
ENDBRANCH  27  30
BRANCH  28  32
HETATM   32  N5  UNL     1      10.176   9.352 -14.080  1.00  0.00    -0.343 N 
ATOM     33  H52 UNL     1      10.158   8.644 -14.814  1.00  0.00     0.176 HD
ATOM     34  H51 UNL     1      10.008   9.084 -13.110  1.00  0.00     0.176 HD
ENDBRANCH  28  32
ENDBRANCH  24  27
ENDBRANCH   3  23
BRANCH   1  35
HETATM   35  S1  UNL     1      11.183  16.935 -18.689  1.00  0.00     0.277 S 
HETATM   36  O1  UNL     1      11.485  15.632 -19.360  1.00  0.00    -0.199 OA
HETATM   37  O2  UNL     1      10.263  17.734 -19.579  1.00  0.00    -0.199 OA
BRANCH  35  38
HETATM   38  N2  UNL     1      12.600  17.826 -18.311  1.00  0.00    -0.226 N 
ATOM     39  H2  UNL     1      13.074  17.751 -17.411  1.00  0.00     0.200 HD
BRANCH  38  40
HETATM   40  N1  UNL     1      13.041  18.643 -19.308  1.00  0.00    -0.327 N 
HETATM   41  C1  UNL     1      13.731  18.020 -20.383  1.00  0.00     0.171 C 
HETATM   42  C2  UNL     1      13.574  19.902 -18.899  1.00  0.00     0.171 C 
ENDBRANCH  38  40
ENDBRANCH  35  38
ENDBRANCH   1  35
TORSDOF 11
ENDMDL
MODEL 5
REMARK VINA RESULT: -5.979418521      3.514      6.917
REMARK  11 active torsions:
REMARK  status: ('A' for Active; 'I' for Inactive)
REMARK    1  A    between atoms: N1_2  and  N2_4 
REMARK    2  A    between atoms: N2_4  and  S1_6 
REMARK    3  A    between atoms: S1_6  and  C3_9 
REMARK    4  A    between atoms: C5_11  and  N3_12 
REMARK       I    between atoms: N3_12  and  C6_14 
REMARK    5  A    between atoms: C6_14  and  C7_16 
REMARK    6  A    between atoms: C7_16  and  O4_17 
REMARK    7  A    between atoms: N4_19  and  N5_21 
REMARK    8  A    between atoms: C8_24  and  O5_25 
REMARK    9  A    between atoms: N6_27  and  C9_28 
REMARK   10  A    between atoms: C9_28  and  C10_29 
REMARK   11  A    between atoms: C10_29  and  N7_31 
ROOT
HETATM    1  C3  UNL     1       6.098  15.709 -15.191  1.00  0.00     0.099 A 
HETATM    2  C4  UNL     1       7.311  15.120 -14.799  1.00  0.00     0.060 A 
HETATM    3  C5  UNL     1       8.507  15.795 -14.857  1.00  0.00     0.088 A 
HETATM    4  C8  UNL     1       8.496  17.113 -15.325  1.00  0.00     0.170 A 
HETATM    5  N6  UNL     1       7.347  17.678 -15.699  1.00  0.00    -0.328 N 
HETATM    6  C15 UNL     1       6.171  17.006 -15.639  1.00  0.00     0.119 A 
ENDROOT
BRANCH   5   7
HETATM    7  C9  UNL     1       7.347  19.044 -16.181  1.00  0.00     0.200 C 
BRANCH   7   8
HETATM    8  C10 UNL     1       7.387  19.119 -17.652  1.00  0.00     0.097 C 
HETATM    9  S2  UNL     1       6.472  20.224 -18.421  1.00  0.00    -0.064 SA
BRANCH   8  10
HETATM   10  N7  UNL     1       8.231  18.214 -18.347  1.00  0.00    -0.335 N 
HETATM   11  C11 UNL     1       9.449  18.511 -18.635  1.00  0.00     0.111 A 
HETATM   12  C12 UNL     1       9.928  19.744 -18.254  1.00  0.00     0.110 A 
HETATM   13  N9  UNL     1      10.278  17.698 -19.283  1.00  0.00    -0.338 N 
HETATM   14  C13 UNL     1      11.234  20.139 -18.529  1.00  0.00     0.192 A 
HETATM   15  F1  UNL     1      11.690  21.344 -18.153  1.00  0.00    -0.186 F 
HETATM   16  N8  UNL     1      12.019  19.271 -19.187  1.00  0.00    -0.329 N 
HETATM   17  C14 UNL     1      11.554  18.069 -19.560  1.00  0.00     0.184 A 
ATOM     18  H8  UNL     1      12.980  19.529 -19.407  1.00  0.00     0.169 HD
ATOM     19  H9  UNL     1       9.949  16.778 -19.578  1.00  0.00     0.168 HD
ATOM     20  H7  UNL     1       7.862  17.304 -18.625  1.00  0.00     0.168 HD
ENDBRANCH   8  10
ENDBRANCH   7   8
ENDBRANCH   5   7
BRANCH   4  21
HETATM   21  O5  UNL     1       9.671  17.815 -15.396  1.00  0.00    -0.344 OA
ATOM     22  H5  UNL     1       9.671  18.693 -15.758  1.00  0.00     0.219 HD
ENDBRANCH   4  21
BRANCH   3  23
HETATM   23  N3  UNL     1       9.731  15.240 -14.477  1.00  0.00    -0.316 N 
HETATM   24  C6  UNL     1      10.125  14.813 -13.200  1.00  0.00     0.298 C 
HETATM   25  O3  UNL     1       9.447  14.849 -12.154  1.00  0.00    -0.263 OA
ATOM     26  H3  UNL     1      10.423  15.132 -15.219  1.00  0.00     0.169 HD
BRANCH  24  27
HETATM   27  C7  UNL     1      11.476  14.257 -13.039  1.00  0.00     0.224 C 
HETATM   28  N4  UNL     1      12.527  14.977 -13.277  1.00  0.00    -0.282 N 
ATOM     29  H4  UNL     1      12.405  15.943 -13.581  1.00  0.00     0.188 HD
BRANCH  27  30
HETATM   30  O4  UNL     1      11.655  12.963 -12.632  1.00  0.00    -0.341 OA
ATOM     31  H4  UNL     1      12.499  12.667 -12.313  1.00  0.00     0.219 HD
ENDBRANCH  27  30
BRANCH  28  32
HETATM   32  N5  UNL     1      13.802  14.481 -13.135  1.00  0.00    -0.343 N 
ATOM     33  H52 UNL     1      13.911  13.562 -12.706  1.00  0.00     0.176 HD
ATOM     34  H51 UNL     1      14.624  15.000 -13.443  1.00  0.00     0.176 HD
ENDBRANCH  28  32
ENDBRANCH  24  27
ENDBRANCH   3  23
BRANCH   1  35
HETATM   35  S1  UNL     1       4.593  14.817 -15.102  1.00  0.00     0.277 S 
HETATM   36  O1  UNL     1       3.738  15.490 -14.075  1.00  0.00    -0.199 OA
HETATM   37  O2  UNL     1       3.920  14.941 -16.447  1.00  0.00    -0.199 OA
BRANCH  35  38
HETATM   38  N2  UNL     1       4.910  13.173 -14.723  1.00  0.00    -0.226 N 
ATOM     39  H2  UNL     1       5.502  12.893 -13.941  1.00  0.00     0.200 HD
BRANCH  38  40
HETATM   40  N1  UNL     1       4.306  12.273 -15.548  1.00  0.00    -0.327 N 
HETATM   41  C1  UNL     1       3.123  11.654 -15.060  1.00  0.00     0.171 C 
HETATM   42  C2  UNL     1       5.177  11.412 -16.282  1.00  0.00     0.171 C 
ENDBRANCH  38  40
ENDBRANCH  35  38
ENDBRANCH   1  35
TORSDOF 11
ENDMDL
