MODEL 1
REMARK VINA RESULT: -7.449853185      0.000      0.000
REMARK  9 active torsions:
REMARK  status: ('A' for Active; 'I' for Inactive)
REMARK    1  A    between atoms: C2_2  and  O1_4 
REMARK    2  A    between atoms: O1_4  and  C4_5 
REMARK    3  A    between atoms: C5_8  and  N2_9 
REMARK    4  A    between atoms: N2_9  and  C6_11 
REMARK    5  A    between atoms: N3_14  and  C9_15 
REMARK    6  A    between atoms: C9_15  and  N4_17 
REMARK    7  A    between atoms: N4_17  and  C10_19 
REMARK    8  A    between atoms: C13_22  and  S2_23 
REMARK    9  A    between atoms: C17_29  and  C18_30 
ROOT
HETATM    1  C6  UNL     1      19.934  11.498   8.815  1.00  0.00     0.118 C 
HETATM    2  C7  UNL     1      19.049  12.661   8.572  1.00  0.00     0.047 C 
HETATM    3  C8  UNL     1      18.919  12.568   7.029  1.00  0.00     0.128 C 
HETATM    4  N3  UNL     1      18.805  11.140   6.814  1.00  0.00    -0.341 N 
HETATM    5  C17 UNL     1      19.449  10.421   7.881  1.00  0.00     0.210 C 
ENDROOT
BRANCH   1   6
HETATM    6  N2  UNL     1      20.052  11.098  10.185  1.00  0.00    -0.368 N 
ATOM      7  H2  UNL     1      20.872  11.408  10.706  1.00  0.00     0.161 HD
BRANCH   6   8
HETATM    8  C5  UNL     1      19.110  10.307  10.850  1.00  0.00     0.125 A 
HETATM    9  N1  UNL     1      17.862  10.716  11.126  1.00  0.00    -0.321 N 
HETATM   10  C4  UNL     1      16.941   9.978  11.761  1.00  0.00     0.166 A 
ATOM     11  H1  UNL     1      17.596  11.656  10.832  1.00  0.00     0.169 HD
HETATM   12  C21 UNL     1      17.339   8.711  12.142  1.00  0.00     0.086 A 
HETATM   13  C20 UNL     1      18.613   8.239  11.883  1.00  0.00     0.056 A 
HETATM   14 CL2  UNL     1      16.197   7.689  12.974  1.00  0.00    -0.080 Cl
HETATM   15  C19 UNL     1      19.527   9.025  11.231  1.00  0.00     0.079 A 
HETATM   16 CL1  UNL     1      21.162   8.456  10.883  1.00  0.00    -0.080 Cl
BRANCH  10  17
HETATM   17  O1  UNL     1      15.655  10.412  12.040  1.00  0.00    -0.330 OA
BRANCH  17  18
HETATM   18  C2  UNL     1      15.044  11.527  11.477  1.00  0.00     0.122 C 
HETATM   19  C1  UNL     1      13.958  11.990  12.454  1.00  0.00     0.040 C 
HETATM   20  C3  UNL     1      14.315  11.092  10.217  1.00  0.00     0.040 C 
ENDBRANCH  17  18
ENDBRANCH  10  17
ENDBRANCH   6   8
ENDBRANCH   1   6
BRANCH   5  21
HETATM   21  C18 UNL     1      20.603   9.609   7.381  1.00  0.00     0.199 C 
HETATM   22  O4  UNL     1      20.424   8.383   7.225  1.00  0.00    -0.646 OA
HETATM   23  O5  UNL     1      21.817  10.182   7.105  1.00  0.00    -0.646 OA
ENDBRANCH   5  21
BRANCH   4  24
HETATM   24  C9  UNL     1      18.133  10.571   5.676  1.00  0.00     0.175 C 
HETATM   25  S1  UNL     1      18.143  11.451   4.307  1.00  0.00    -0.041 SA
BRANCH  24  26
HETATM   26  N4  UNL     1      17.539   9.292   5.748  1.00  0.00    -0.333 N 
ATOM     27  H4  UNL     1      18.006   8.561   5.213  1.00  0.00     0.168 HD
BRANCH  26  28
HETATM   28  C10 UNL     1      16.397   8.888   6.454  1.00  0.00     0.034 A 
HETATM   29  C11 UNL     1      15.132   8.796   5.912  1.00  0.00     0.031 A 
HETATM   30  C12 UNL     1      14.087   8.346   6.719  1.00  0.00     0.025 A 
HETATM   31  C13 UNL     1      14.289   7.998   8.030  1.00  0.00     0.059 A 
HETATM   32  C15 UNL     1      15.555   8.096   8.560  1.00  0.00     0.025 A 
HETATM   33  C16 UNL     1      16.602   8.534   7.794  1.00  0.00     0.031 A 
BRANCH  31  34
HETATM   34  S2  UNL     1      12.980   7.441   9.016  1.00  0.00     0.171 S 
HETATM   35  C14 UNL     1      13.387   7.459  10.752  1.00  0.00     0.167 C 
HETATM   36  O2  UNL     1      11.716   8.247   8.782  1.00  0.00    -0.223 OA
HETATM   37  O3  UNL     1      12.642   6.023   8.601  1.00  0.00    -0.223 OA
ENDBRANCH  31  34
ENDBRANCH  26  28
ENDBRANCH  24  26
ENDBRANCH   4  24
TORSDOF 9
ENDMDL
MODEL 2
REMARK VINA RESULT: -7.383007830      4.093      7.590
REMARK  9 active torsions:
REMARK  status: ('A' for Active; 'I' for Inactive)
REMARK    1  A    between atoms: C2_2  and  O1_4 
REMARK    2  A    between atoms: O1_4  and  C4_5 
REMARK    3  A    between atoms: C5_8  and  N2_9 
REMARK    4  A    between atoms: N2_9  and  C6_11 
REMARK    5  A    between atoms: N3_14  and  C9_15 
REMARK    6  A    between atoms: C9_15  and  N4_17 
REMARK    7  A    between atoms: N4_17  and  C10_19 
REMARK    8  A    between atoms: C13_22  and  S2_23 
REMARK    9  A    between atoms: C17_29  and  C18_30 
ROOT
HETATM    1  C6  UNL     1      13.243   7.665   9.498  1.00  0.00     0.118 C 
HETATM    2  C7  UNL     1      12.304   7.488  10.631  1.00  0.00     0.047 C 
HETATM    3  C8  UNL     1      13.208   7.976  11.792  1.00  0.00     0.128 C 
HETATM    4  N3  UNL     1      13.888   9.110  11.201  1.00  0.00    -0.341 N 
HETATM    5  C17 UNL     1      13.968   8.956   9.773  1.00  0.00     0.210 C 
ENDROOT
BRANCH   1   6
HETATM    6  N2  UNL     1      12.652   7.572   8.197  1.00  0.00    -0.368 N 
ATOM      7  H2  UNL     1      12.522   6.644   7.794  1.00  0.00     0.161 HD
BRANCH   6   8
HETATM    8  C5  UNL     1      12.244   8.679   7.446  1.00  0.00     0.125 A 
HETATM    9  N1  UNL     1      11.123   9.372   7.697  1.00  0.00    -0.321 N 
HETATM   10  C4  UNL     1      10.710  10.436   6.994  1.00  0.00     0.166 A 
ATOM     11  H1  UNL     1      10.544   9.068   8.480  1.00  0.00     0.169 HD
HETATM   12  C21 UNL     1      11.522  10.817   5.943  1.00  0.00     0.086 A 
HETATM   13  C20 UNL     1      12.688  10.139   5.639  1.00  0.00     0.056 A 
HETATM   14 CL2  UNL     1      11.052  12.193   4.979  1.00  0.00    -0.080 Cl
HETATM   15  C19 UNL     1      13.076   9.054   6.382  1.00  0.00     0.079 A 
HETATM   16 CL1  UNL     1      14.557   8.164   6.025  1.00  0.00    -0.080 Cl
BRANCH  10  17
HETATM   17  O1  UNL     1       9.550  11.144   7.264  1.00  0.00    -0.330 OA
BRANCH  17  18
HETATM   18  C2  UNL     1       9.254  11.768   8.471  1.00  0.00     0.122 C 
HETATM   19  C1  UNL     1       7.967  12.574   8.259  1.00  0.00     0.040 C 
HETATM   20  C3  UNL     1      10.342  12.788   8.763  1.00  0.00     0.040 C 
ENDBRANCH  17  18
ENDBRANCH  10  17
ENDBRANCH   6   8
ENDBRANCH   1   6
BRANCH   5  21
HETATM   21  C18 UNL     1      15.387   8.864   9.307  1.00  0.00     0.199 C 
HETATM   22  O4  UNL     1      15.900   9.887   8.808  1.00  0.00    -0.646 OA
HETATM   23  O5  UNL     1      16.105   7.701   9.417  1.00  0.00    -0.646 OA
ENDBRANCH   5  21
BRANCH   4  24
HETATM   24  C9  UNL     1      14.393  10.212  11.978  1.00  0.00     0.175 C 
HETATM   25  S1  UNL     1      13.502  11.573  11.979  1.00  0.00    -0.041 SA
BRANCH  24  26
HETATM   26  N4  UNL     1      15.581  10.084  12.730  1.00  0.00    -0.333 N 
ATOM     27  H4  UNL     1      15.493  10.286  13.726  1.00  0.00     0.168 HD
BRANCH  26  28
HETATM   28  C10 UNL     1      16.864   9.719  12.299  1.00  0.00     0.034 A 
HETATM   29  C11 UNL     1      17.407   8.459  12.435  1.00  0.00     0.031 A 
HETATM   30  C12 UNL     1      18.685   8.221  11.930  1.00  0.00     0.025 A 
HETATM   31  C13 UNL     1      19.407   9.207  11.307  1.00  0.00     0.059 A 
HETATM   32  C15 UNL     1      18.855  10.460  11.178  1.00  0.00     0.025 A 
HETATM   33  C16 UNL     1      17.603  10.725  11.663  1.00  0.00     0.031 A 
BRANCH  31  34
HETATM   34  S2  UNL     1      20.992   8.893  10.685  1.00  0.00     0.171 S 
HETATM   35  C14 UNL     1      22.094  10.276  10.914  1.00  0.00     0.167 C 
HETATM   36  O2  UNL     1      21.604   7.649  11.303  1.00  0.00    -0.223 OA
HETATM   37  O3  UNL     1      20.871   8.596   9.204  1.00  0.00    -0.223 OA
ENDBRANCH  31  34
ENDBRANCH  26  28
ENDBRANCH  24  26
ENDBRANCH   4  24
TORSDOF 9
ENDMDL
MODEL 3
REMARK VINA RESULT: -7.349130535      3.302      6.868
REMARK  9 active torsions:
REMARK  status: ('A' for Active; 'I' for Inactive)
REMARK    1  A    between atoms: C2_2  and  O1_4 
REMARK    2  A    between atoms: O1_4  and  C4_5 
REMARK    3  A    between atoms: C5_8  and  N2_9 
REMARK    4  A    between atoms: N2_9  and  C6_11 
REMARK    5  A    between atoms: N3_14  and  C9_15 
REMARK    6  A    between atoms: C9_15  and  N4_17 
REMARK    7  A    between atoms: N4_17  and  C10_19 
REMARK    8  A    between atoms: C13_22  and  S2_23 
REMARK    9  A    between atoms: C17_29  and  C18_30 
ROOT
HETATM    1  C6  UNL     1      16.618   9.903  12.302  1.00  0.00     0.118 C 
HETATM    2  C7  UNL     1      16.424  11.229  11.668  1.00  0.00     0.047 C 
HETATM    3  C8  UNL     1      17.634  11.229  10.698  1.00  0.00     0.128 C 
HETATM    4  N3  UNL     1      17.645   9.863  10.216  1.00  0.00    -0.341 N 
HETATM    5  C17 UNL     1      17.052   8.985  11.190  1.00  0.00     0.210 C 
ENDROOT
BRANCH   1   6
HETATM    6  N2  UNL     1      15.509   9.429  13.074  1.00  0.00    -0.368 N 
ATOM      7  H2  UNL     1      15.676   9.174  14.047  1.00  0.00     0.161 HD
BRANCH   6   8
HETATM    8  C5  UNL     1      14.210   9.296  12.573  1.00  0.00     0.125 A 
HETATM    9  N1  UNL     1      13.476  10.329  12.133  1.00  0.00    -0.321 N 
HETATM   10  C4  UNL     1      12.231  10.228  11.647  1.00  0.00     0.166 A 
ATOM     11  H1  UNL     1      13.895  11.258  12.171  1.00  0.00     0.169 HD
HETATM   12  C21 UNL     1      11.698   8.953  11.612  1.00  0.00     0.086 A 
HETATM   13  C20 UNL     1      12.410   7.853  12.052  1.00  0.00     0.056 A 
HETATM   14 CL2  UNL     1      10.081   8.739  10.993  1.00  0.00    -0.080 Cl
HETATM   15  C19 UNL     1      13.682   7.998  12.543  1.00  0.00     0.079 A 
HETATM   16 CL1  UNL     1      14.622   6.617  13.114  1.00  0.00    -0.080 Cl
BRANCH  10  17
HETATM   17  O1  UNL     1      11.482  11.303  11.196  1.00  0.00    -0.330 OA
BRANCH  17  18
HETATM   18  C2  UNL     1      11.835  12.640  11.335  1.00  0.00     0.122 C 
HETATM   19  C1  UNL     1      11.264  13.122  12.673  1.00  0.00     0.040 C 
HETATM   20  C3  UNL     1      11.117  13.442  10.262  1.00  0.00     0.040 C 
ENDBRANCH  17  18
ENDBRANCH  10  17
ENDBRANCH   6   8
ENDBRANCH   1   6
BRANCH   5  21
HETATM   21  C18 UNL     1      18.038   7.981  11.700  1.00  0.00     0.199 C 
HETATM   22  O4  UNL     1      17.614   6.838  11.968  1.00  0.00    -0.646 OA
HETATM   23  O5  UNL     1      19.360   8.299  11.875  1.00  0.00    -0.646 OA
ENDBRANCH   5  21
BRANCH   4  24
HETATM   24  C9  UNL     1      18.185   9.488   8.936  1.00  0.00     0.175 C 
HETATM   25  S1  UNL     1      17.149   9.482   7.681  1.00  0.00    -0.041 SA
BRANCH  24  26
HETATM   26  N4  UNL     1      19.557   9.190   8.786  1.00  0.00    -0.333 N 
ATOM     27  H4  UNL     1      19.824   8.231   9.012  1.00  0.00     0.168 HD
BRANCH  26  28
HETATM   28  C10 UNL     1      20.602  10.026   8.371  1.00  0.00     0.034 A 
HETATM   29  C11 UNL     1      21.375  10.793   9.217  1.00  0.00     0.031 A 
HETATM   30  C12 UNL     1      22.409  11.556   8.675  1.00  0.00     0.025 A 
HETATM   31  C13 UNL     1      22.669  11.562   7.328  1.00  0.00     0.059 A 
HETATM   32  C15 UNL     1      21.889  10.794   6.494  1.00  0.00     0.025 A 
HETATM   33  C16 UNL     1      20.868  10.034   6.996  1.00  0.00     0.031 A 
BRANCH  31  34
HETATM   34  S2  UNL     1      23.956  12.515   6.673  1.00  0.00     0.171 S 
HETATM   35  C14 UNL     1      24.459  13.822   7.777  1.00  0.00     0.167 C 
HETATM   36  O2  UNL     1      25.159  11.665   6.311  1.00  0.00    -0.223 OA
HETATM   37  O3  UNL     1      23.480  13.124   5.368  1.00  0.00    -0.223 OA
ENDBRANCH  31  34
ENDBRANCH  26  28
ENDBRANCH  24  26
ENDBRANCH   4  24
TORSDOF 9
ENDMDL
MODEL 4
REMARK VINA RESULT: -7.340673702      3.733      7.363
REMARK  9 active torsions:
REMARK  status: ('A' for Active; 'I' for Inactive)
REMARK    1  A    between atoms: C2_2  and  O1_4 
REMARK    2  A    between atoms: O1_4  and  C4_5 
REMARK    3  A    between atoms: C5_8  and  N2_9 
REMARK    4  A    between atoms: N2_9  and  C6_11 
REMARK    5  A    between atoms: N3_14  and  C9_15 
REMARK    6  A    between atoms: C9_15  and  N4_17 
REMARK    7  A    between atoms: N4_17  and  C10_19 
REMARK    8  A    between atoms: C13_22  and  S2_23 
REMARK    9  A    between atoms: C17_29  and  C18_30 
ROOT
HETATM    1  C6  UNL     1      16.307   8.324  12.255  1.00  0.00     0.118 C 
HETATM    2  C7  UNL     1      17.072   7.330  13.044  1.00  0.00     0.047 C 
HETATM    3  C8  UNL     1      18.311   7.171  12.126  1.00  0.00     0.128 C 
HETATM    4  N3  UNL     1      18.554   8.532  11.694  1.00  0.00    -0.341 N 
HETATM    5  C17 UNL     1      17.332   9.291  11.724  1.00  0.00     0.210 C 
ENDROOT
BRANCH   1   6
HETATM    6  N2  UNL     1      15.207   8.931  12.941  1.00  0.00    -0.368 N 
ATOM      7  H2  UNL     1      15.370   9.298  13.878  1.00  0.00     0.161 HD
BRANCH   6   8
HETATM    8  C5  UNL     1      13.921   9.048  12.402  1.00  0.00     0.125 A 
HETATM    9  N1  UNL     1      13.452  10.174  11.843  1.00  0.00    -0.321 N 
HETATM   10  C4  UNL     1      12.226  10.313  11.320  1.00  0.00     0.166 A 
ATOM     11  H1  UNL     1      14.073  10.983  11.815  1.00  0.00     0.169 HD
HETATM   12  C21 UNL     1      11.415   9.195  11.377  1.00  0.00     0.086 A 
HETATM   13  C20 UNL     1      11.847   8.009  11.942  1.00  0.00     0.056 A 
HETATM   14 CL2  UNL     1       9.804   9.295  10.717  1.00  0.00    -0.080 Cl
HETATM   15  C19 UNL     1      13.109   7.908  12.468  1.00  0.00     0.079 A 
HETATM   16 CL1  UNL     1      13.696   6.411  13.197  1.00  0.00    -0.080 Cl
BRANCH  10  17
HETATM   17  O1  UNL     1      11.753  11.481  10.745  1.00  0.00    -0.330 OA
BRANCH  17  18
HETATM   18  C2  UNL     1      12.002  12.765  11.217  1.00  0.00     0.122 C 
HETATM   19  C1  UNL     1      11.334  12.879  12.592  1.00  0.00     0.040 C 
HETATM   20  C3  UNL     1      11.281  13.756  10.320  1.00  0.00     0.040 C 
ENDBRANCH  17  18
ENDBRANCH  10  17
ENDBRANCH   6   8
ENDBRANCH   1   6
BRANCH   5  21
HETATM   21  C18 UNL     1      16.942   9.761  10.357  1.00  0.00     0.199 C 
HETATM   22  O4  UNL     1      16.146  10.720  10.280  1.00  0.00    -0.646 OA
HETATM   23  O5  UNL     1      17.434   9.165   9.225  1.00  0.00    -0.646 OA
ENDBRANCH   5  21
BRANCH   4  24
HETATM   24  C9  UNL     1      19.854   9.009  11.301  1.00  0.00     0.175 C 
HETATM   25  S1  UNL     1      21.063   7.920  11.309  1.00  0.00    -0.041 SA
BRANCH  24  26
HETATM   26  N4  UNL     1      20.042  10.346  10.889  1.00  0.00    -0.333 N 
ATOM     27  H4  UNL     1      19.425  11.031  11.326  1.00  0.00     0.168 HD
BRANCH  26  28
HETATM   28  C10 UNL     1      20.960  10.863   9.964  1.00  0.00     0.034 A 
HETATM   29  C11 UNL     1      22.143  11.488  10.299  1.00  0.00     0.031 A 
HETATM   30  C12 UNL     1      22.983  11.926   9.275  1.00  0.00     0.025 A 
HETATM   31  C13 UNL     1      22.659  11.752   7.954  1.00  0.00     0.059 A 
HETATM   32  C15 UNL     1      21.475  11.129   7.633  1.00  0.00     0.025 A 
HETATM   33  C16 UNL     1      20.629  10.687   8.614  1.00  0.00     0.031 A 
BRANCH  31  34
HETATM   34  S2  UNL     1      23.714  12.303   6.697  1.00  0.00     0.171 S 
HETATM   35  C14 UNL     1      24.748  13.655   7.227  1.00  0.00     0.167 C 
HETATM   36  O2  UNL     1      24.582  11.180   6.159  1.00  0.00    -0.223 OA
HETATM   37  O3  UNL     1      22.864  12.758   5.528  1.00  0.00    -0.223 OA
ENDBRANCH  31  34
ENDBRANCH  26  28
ENDBRANCH  24  26
ENDBRANCH   4  24
TORSDOF 9
ENDMDL
MODEL 5
REMARK VINA RESULT: -7.294674808      4.140      7.812
REMARK  9 active torsions:
REMARK  status: ('A' for Active; 'I' for Inactive)
REMARK    1  A    between atoms: C2_2  and  O1_4 
REMARK    2  A    between atoms: O1_4  and  C4_5 
REMARK    3  A    between atoms: C5_8  and  N2_9 
REMARK    4  A    between atoms: N2_9  and  C6_11 
REMARK    5  A    between atoms: N3_14  and  C9_15 
REMARK    6  A    between atoms: C9_15  and  N4_17 
REMARK    7  A    between atoms: N4_17  and  C10_19 
REMARK    8  A    between atoms: C13_22  and  S2_23 
REMARK    9  A    between atoms: C17_29  and  C18_30 
ROOT
HETATM    1  C6  UNL     1      11.275   8.506   9.913  1.00  0.00     0.118 C 
HETATM    2  C7  UNL     1      10.630   8.710  11.232  1.00  0.00     0.047 C 
HETATM    3  C8  UNL     1      11.557   7.832  12.111  1.00  0.00     0.128 C 
HETATM    4  N3  UNL     1      12.867   8.120  11.563  1.00  0.00    -0.341 N 
HETATM    5  C17 UNL     1      12.756   8.516  10.185  1.00  0.00     0.210 C 
ENDROOT
BRANCH   1   6
HETATM    6  N2  UNL     1      10.846   9.401   8.881  1.00  0.00    -0.368 N 
ATOM      7  H2  UNL     1      10.304   9.017   8.108  1.00  0.00     0.161 HD
BRANCH   6   8
HETATM    8  C5  UNL     1      11.128  10.771   8.871  1.00  0.00     0.125 A 
HETATM    9  N1  UNL     1      10.609  11.641   9.751  1.00  0.00    -0.321 N 
HETATM   10  C4  UNL     1      10.863  12.957   9.763  1.00  0.00     0.166 A 
ATOM     11  H1  UNL     1       9.975  11.274  10.462  1.00  0.00     0.169 HD
HETATM   12  C21 UNL     1      11.726  13.415   8.785  1.00  0.00     0.086 A 
HETATM   13  C20 UNL     1      12.289  12.562   7.854  1.00  0.00     0.056 A 
HETATM   14 CL2  UNL     1      12.106  15.116   8.735  1.00  0.00    -0.080 Cl
HETATM   15  C19 UNL     1      12.004  11.222   7.874  1.00  0.00     0.079 A 
HETATM   16 CL1  UNL     1      12.704  10.104   6.701  1.00  0.00    -0.080 Cl
BRANCH  10  17
HETATM   17  O1  UNL     1      10.321  13.845  10.678  1.00  0.00    -0.330 OA
BRANCH  17  18
HETATM   18  C2  UNL     1      10.998  14.393  11.762  1.00  0.00     0.122 C 
HETATM   19  C1  UNL     1      11.171  13.276  12.798  1.00  0.00     0.040 C 
HETATM   20  C3  UNL     1      10.101  15.431  12.414  1.00  0.00     0.040 C 
ENDBRANCH  17  18
ENDBRANCH  10  17
ENDBRANCH   6   8
ENDBRANCH   1   6
BRANCH   5  21
HETATM   21  C18 UNL     1      13.456   7.554   9.277  1.00  0.00     0.199 C 
HETATM   22  O4  UNL     1      12.776   6.640   8.767  1.00  0.00    -0.646 OA
HETATM   23  O5  UNL     1      14.797   7.663   9.012  1.00  0.00    -0.646 OA
ENDBRANCH   5  21
BRANCH   4  24
HETATM   24  C9  UNL     1      14.078   8.011  12.333  1.00  0.00     0.175 C 
HETATM   25  S1  UNL     1      14.299   6.623  13.153  1.00  0.00    -0.041 SA
BRANCH  24  26
HETATM   26  N4  UNL     1      15.037   9.048  12.328  1.00  0.00    -0.333 N 
ATOM     27  H4  UNL     1      14.709   9.950  12.673  1.00  0.00     0.168 HD
BRANCH  26  28
HETATM   28  C10 UNL     1      16.376   9.009  11.914  1.00  0.00     0.034 A 
HETATM   29  C11 UNL     1      17.344   8.198  12.467  1.00  0.00     0.031 A 
HETATM   30  C12 UNL     1      18.633   8.233  11.936  1.00  0.00     0.025 A 
HETATM   31  C13 UNL     1      18.956   9.053  10.886  1.00  0.00     0.059 A 
HETATM   32  C15 UNL     1      17.982   9.860  10.343  1.00  0.00     0.025 A 
HETATM   33  C16 UNL     1      16.707   9.847  10.842  1.00  0.00     0.031 A 
BRANCH  31  34
HETATM   34  S2  UNL     1      20.562   9.084  10.239  1.00  0.00     0.171 S 
HETATM   35  C14 UNL     1      21.377  10.643  10.529  1.00  0.00     0.167 C 
HETATM   36  O2  UNL     1      21.413   7.956  10.791  1.00  0.00    -0.223 OA
HETATM   37  O3  UNL     1      20.477   8.839   8.746  1.00  0.00    -0.223 OA
ENDBRANCH  31  34
ENDBRANCH  26  28
ENDBRANCH  24  26
ENDBRANCH   4  24
TORSDOF 9
ENDMDL
