MODEL 1
REMARK VINA RESULT: -7.734516946      0.000      0.000
REMARK  7 active torsions:
REMARK  status: ('A' for Active; 'I' for Inactive)
REMARK    1  A    between atoms: C2_2  and  C3_3 
REMARK    2  A    between atoms: C3_3  and  C4_4 
REMARK    3  A    between atoms: C4_4  and  C5_5 
REMARK    4  A    between atoms: C9_9  and  C10_10 
REMARK       I    between atoms: C10_10  and  N1_12 
REMARK    5  A    between atoms: N1_12  and  C11_14 
REMARK    6  A    between atoms: C12_21  and  C13_22 
REMARK    7  A    between atoms: C13_22  and  O3_24 
ROOT
HETATM    1  C4  UNL     1      15.567   8.567  10.894  1.00  0.00     0.011 C 
HETATM    2  C8  UNL     1      17.112   8.485  11.033  1.00  0.00     0.002 C 
HETATM    3  C9  UNL     1      18.066   9.170  10.212  1.00  0.00     0.026 C 
HETATM    4  C12 UNL     1      17.687   9.628   8.892  1.00  0.00     0.160 C 
HETATM    5  C15 UNL     1      16.412   8.910   8.511  1.00  0.00     0.010 A 
HETATM    6  C16 UNL     1      16.234   8.805   7.110  1.00  0.00     0.146 A 
HETATM    7  F1  UNL     1      17.248   9.145   6.271  1.00  0.00    -0.204 F 
HETATM    8  C17 UNL     1      15.067   8.369   6.588  1.00  0.00     0.074 A 
HETATM    9 CL1  UNL     1      14.887   8.246   4.839  1.00  0.00    -0.081 Cl
HETATM   10  C18 UNL     1      14.059   8.035   7.433  1.00  0.00     0.051 A 
HETATM   11  C19 UNL     1      14.264   8.149   8.794  1.00  0.00     0.043 A 
HETATM   12 CL2  UNL     1      12.815   7.936   9.728  1.00  0.00    -0.084 Cl
HETATM   13  C20 UNL     1      15.419   8.572   9.435  1.00  0.00    -0.013 A 
ENDROOT
BRANCH   3  14
HETATM   14  C10 UNL     1      19.041  10.035  10.950  1.00  0.00     0.266 C 
HETATM   15  O1  UNL     1      18.640  10.756  11.856  1.00  0.00    -0.267 OA
HETATM   16  N1  UNL     1      20.385  10.022  10.610  1.00  0.00    -0.153 N 
ATOM     17  H1  UNL     1      20.686  10.675   9.885  1.00  0.00     0.187 HD
BRANCH  16  18
HETATM   18  C11 UNL     1      21.292   9.262  11.124  1.00  0.00     0.710 A 
HETATM   19  N2  UNL     1      21.312   7.944  11.312  1.00  0.00    -0.117 N 
HETATM   20  N3  UNL     1      22.468   7.577  11.885  1.00  0.00     0.006 NA
ATOM     21  H2  UNL     1      20.557   7.307  11.059  1.00  0.00     0.202 HD
HETATM   22  N4  UNL     1      23.171   8.682  12.052  1.00  0.00     0.006 NA
HETATM   23  N5  UNL     1      22.471   9.724  11.593  1.00  0.00    -0.117 N 
ATOM     24  H5  UNL     1      22.773  10.698  11.597  1.00  0.00     0.202 HD
ENDBRANCH  16  18
ENDBRANCH   3  14
BRANCH   4  25
HETATM   25  C13 UNL     1      17.499  11.088   8.656  1.00  0.00     0.271 C 
HETATM   26  O2  UNL     1      18.330  11.653   7.895  1.00  0.00    -0.264 OA
BRANCH  25  27
HETATM   27  O3  UNL     1      16.526  11.895   9.175  1.00  0.00    -0.326 OA
HETATM   28  C14 UNL     1      16.840  13.072   9.894  1.00  0.00     0.213 C 
ENDBRANCH  25  27
ENDBRANCH   4  25
BRANCH   1  29
HETATM   29  C3  UNL     1      15.257   9.820  11.608  1.00  0.00     0.018 C 
BRANCH  29  30
HETATM   30  C2  UNL     1      14.071  10.654  11.376  1.00  0.00    -0.003 C 
HETATM   31  C1  UNL     1      14.178  11.891  12.318  1.00  0.00     0.005 C 
ENDBRANCH  29  30
ENDBRANCH   1  29
BRANCH   1  32
HETATM   32  C5  UNL     1      15.293   7.320  11.688  1.00  0.00    -0.006 C 
HETATM   33  C6  UNL     1      16.616   6.907  12.419  1.00  0.00     0.011 C 
HETATM   34  C7  UNL     1      14.249   6.960  12.588  1.00  0.00     0.011 C 
ENDBRANCH   1  32
TORSDOF 7
ENDMDL
MODEL 2
REMARK VINA RESULT: -7.298011849      1.076      1.217
REMARK  7 active torsions:
REMARK  status: ('A' for Active; 'I' for Inactive)
REMARK    1  A    between atoms: C2_2  and  C3_3 
REMARK    2  A    between atoms: C3_3  and  C4_4 
REMARK    3  A    between atoms: C4_4  and  C5_5 
REMARK    4  A    between atoms: C9_9  and  C10_10 
REMARK       I    between atoms: C10_10  and  N1_12 
REMARK    5  A    between atoms: N1_12  and  C11_14 
REMARK    6  A    between atoms: C12_21  and  C13_22 
REMARK    7  A    between atoms: C13_22  and  O3_24 
ROOT
HETATM    1  C4  UNL     1      14.399   8.624  11.003  1.00  0.00     0.011 C 
HETATM    2  C8  UNL     1      15.784   8.156  11.527  1.00  0.00     0.002 C 
HETATM    3  C9  UNL     1      17.057   8.548  10.997  1.00  0.00     0.026 C 
HETATM    4  C12 UNL     1      17.155   9.041   9.640  1.00  0.00     0.160 C 
HETATM    5  C15 UNL     1      15.878   8.659   8.925  1.00  0.00     0.010 A 
HETATM    6  C16 UNL     1      16.040   8.555   7.522  1.00  0.00     0.146 A 
HETATM    7  F1  UNL     1      17.286   8.597   6.979  1.00  0.00    -0.204 F 
HETATM    8  C17 UNL     1      14.973   8.413   6.707  1.00  0.00     0.074 A 
HETATM    9 CL1  UNL     1      15.216   8.280   4.967  1.00  0.00    -0.081 Cl
HETATM   10  C18 UNL     1      13.733   8.375   7.257  1.00  0.00     0.051 A 
HETATM   11  C19 UNL     1      13.608   8.480   8.629  1.00  0.00     0.043 A 
HETATM   12 CL2  UNL     1      11.966   8.675   9.158  1.00  0.00    -0.084 Cl
HETATM   13  C20 UNL     1      14.631   8.617   9.555  1.00  0.00    -0.013 A 
ENDROOT
BRANCH   3  14
HETATM   14  C10 UNL     1      18.001   9.161  11.985  1.00  0.00     0.266 C 
HETATM   15  O1  UNL     1      17.661   9.261  13.159  1.00  0.00    -0.267 OA
HETATM   16  N1  UNL     1      19.247   9.611  11.577  1.00  0.00    -0.153 N 
ATOM     17  H1  UNL     1      19.306  10.576  11.250  1.00  0.00     0.187 HD
BRANCH  16  18
HETATM   18  C11 UNL     1      20.340   8.925  11.572  1.00  0.00     0.710 A 
HETATM   19  N2  UNL     1      20.535   7.608  11.559  1.00  0.00    -0.117 N 
HETATM   20  N3  UNL     1      21.848   7.336  11.558  1.00  0.00     0.006 NA
ATOM     21  H2  UNL     1      19.793   6.909  11.550  1.00  0.00     0.202 HD
HETATM   22  N4  UNL     1      22.472   8.500  11.571  1.00  0.00     0.006 NA
HETATM   23  N5  UNL     1      21.568   9.485  11.580  1.00  0.00    -0.117 N 
ATOM     24  H5  UNL     1      21.771  10.485  11.591  1.00  0.00     0.202 HD
ENDBRANCH  16  18
ENDBRANCH   3  14
BRANCH   4  25
HETATM   25  C13 UNL     1      17.411  10.492   9.412  1.00  0.00     0.271 C 
HETATM   26  O2  UNL     1      18.507  10.798   8.869  1.00  0.00    -0.264 OA
BRANCH  25  27
HETATM   27  O3  UNL     1      16.593  11.540   9.726  1.00  0.00    -0.326 OA
HETATM   28  C14 UNL     1      15.711  12.108   8.776  1.00  0.00     0.213 C 
ENDBRANCH  25  27
ENDBRANCH   4  25
BRANCH   1  29
HETATM   29  C3  UNL     1      14.248   9.938  11.655  1.00  0.00     0.018 C 
BRANCH  29  30
HETATM   30  C2  UNL     1      13.200  10.920  11.348  1.00  0.00    -0.003 C 
HETATM   31  C1  UNL     1      13.423  12.150  12.279  1.00  0.00     0.005 C 
ENDBRANCH  29  30
ENDBRANCH   1  29
BRANCH   1  32
HETATM   32  C5  UNL     1      13.624   7.516  11.661  1.00  0.00    -0.006 C 
HETATM   33  C6  UNL     1      14.582   6.778  12.659  1.00  0.00     0.011 C 
HETATM   34  C7  UNL     1      12.343   7.471  12.282  1.00  0.00     0.011 C 
ENDBRANCH   1  32
TORSDOF 7
ENDMDL
MODEL 3
REMARK VINA RESULT: -7.285554059      2.457      3.401
REMARK  7 active torsions:
REMARK  status: ('A' for Active; 'I' for Inactive)
REMARK    1  A    between atoms: C2_2  and  C3_3 
REMARK    2  A    between atoms: C3_3  and  C4_4 
REMARK    3  A    between atoms: C4_4  and  C5_5 
REMARK    4  A    between atoms: C9_9  and  C10_10 
REMARK       I    between atoms: C10_10  and  N1_12 
REMARK    5  A    between atoms: N1_12  and  C11_14 
REMARK    6  A    between atoms: C12_21  and  C13_22 
REMARK    7  A    between atoms: C13_22  and  O3_24 
ROOT
HETATM    1  C4  UNL     1      15.532   8.443  11.123  1.00  0.00     0.011 C 
HETATM    2  C8  UNL     1      16.998   8.856  11.425  1.00  0.00     0.002 C 
HETATM    3  C9  UNL     1      17.791   9.764  10.650  1.00  0.00     0.026 C 
HETATM    4  C12 UNL     1      17.456  10.014   9.264  1.00  0.00     0.160 C 
HETATM    5  C15 UNL     1      16.517   8.916   8.818  1.00  0.00     0.010 A 
HETATM    6  C16 UNL     1      16.554   8.691   7.420  1.00  0.00     0.146 A 
HETATM    7  F1  UNL     1      17.511   9.290   6.662  1.00  0.00    -0.204 F 
HETATM    8  C17 UNL     1      15.650   7.886   6.821  1.00  0.00     0.074 A 
HETATM    9 CL1  UNL     1      15.733   7.626   5.080  1.00  0.00    -0.081 Cl
HETATM   10  C18 UNL     1      14.696   7.295   7.584  1.00  0.00     0.051 A 
HETATM   11  C19 UNL     1      14.688   7.534   8.945  1.00  0.00     0.043 A 
HETATM   12 CL2  UNL     1      13.270   6.925   9.741  1.00  0.00    -0.084 Cl
HETATM   13  C20 UNL     1      15.569   8.329   9.661  1.00  0.00    -0.013 A 
ENDROOT
BRANCH   3  14
HETATM   14  C10 UNL     1      18.356  10.927  11.406  1.00  0.00     0.266 C 
HETATM   15  O1  UNL     1      19.522  11.255  11.220  1.00  0.00    -0.267 OA
HETATM   16  N1  UNL     1      17.568  11.625  12.308  1.00  0.00    -0.153 N 
ATOM     17  H1  UNL     1      17.554  11.285  13.270  1.00  0.00     0.187 HD
BRANCH  16  18
HETATM   18  C11 UNL     1      16.851  12.666  12.045  1.00  0.00     0.710 A 
HETATM   19  N2  UNL     1      15.653  13.027  12.497  1.00  0.00    -0.117 N 
HETATM   20  N3  UNL     1      15.287  14.197  11.951  1.00  0.00     0.006 NA
ATOM     21  H2  UNL     1      15.094  12.493  13.162  1.00  0.00     0.202 HD
HETATM   22  N4  UNL     1      16.273  14.562  11.152  1.00  0.00     0.006 NA
HETATM   23  N5  UNL     1      17.240  13.639  11.194  1.00  0.00    -0.117 N 
ATOM     24  H5  UNL     1      18.117  13.666  10.675  1.00  0.00     0.202 HD
ENDBRANCH  16  18
ENDBRANCH   3  14
BRANCH   4  25
HETATM   25  C13 UNL     1      16.861  11.329   8.886  1.00  0.00     0.271 C 
HETATM   26  O2  UNL     1      17.626  12.160   8.327  1.00  0.00    -0.264 OA
BRANCH  25  27
HETATM   27  O3  UNL     1      15.574  11.744   9.080  1.00  0.00    -0.326 OA
HETATM   28  C14 UNL     1      14.729  12.079   7.995  1.00  0.00     0.213 C 
ENDBRANCH  25  27
ENDBRANCH   4  25
BRANCH   1  29
HETATM   29  C3  UNL     1      14.768   9.569  11.692  1.00  0.00     0.018 C 
BRANCH  29  30
HETATM   30  C2  UNL     1      13.552  10.147  11.108  1.00  0.00    -0.003 C 
HETATM   31  C1  UNL     1      12.331   9.478  11.810  1.00  0.00     0.005 C 
ENDBRANCH  29  30
ENDBRANCH   1  29
BRANCH   1  32
HETATM   32  C5  UNL     1      15.556   7.213  11.988  1.00  0.00    -0.006 C 
HETATM   33  C6  UNL     1      17.054   6.837  12.258  1.00  0.00     0.011 C 
HETATM   34  C7  UNL     1      14.869   6.864  13.186  1.00  0.00     0.011 C 
ENDBRANCH   1  32
TORSDOF 7
ENDMDL
MODEL 4
REMARK VINA RESULT: -7.203362957      2.546      4.768
REMARK  7 active torsions:
REMARK  status: ('A' for Active; 'I' for Inactive)
REMARK    1  A    between atoms: C2_2  and  C3_3 
REMARK    2  A    between atoms: C3_3  and  C4_4 
REMARK    3  A    between atoms: C4_4  and  C5_5 
REMARK    4  A    between atoms: C9_9  and  C10_10 
REMARK       I    between atoms: C10_10  and  N1_12 
REMARK    5  A    between atoms: N1_12  and  C11_14 
REMARK    6  A    between atoms: C12_21  and  C13_22 
REMARK    7  A    between atoms: C13_22  and  O3_24 
ROOT
HETATM    1  C4  UNL     1      14.797   9.100   8.670  1.00  0.00     0.011 C 
HETATM    2  C8  UNL     1      15.364  10.497   9.039  1.00  0.00     0.002 C 
HETATM    3  C9  UNL     1      16.368  10.761  10.027  1.00  0.00     0.026 C 
HETATM    4  C12 UNL     1      16.605   9.807  11.089  1.00  0.00     0.160 C 
HETATM    5  C15 UNL     1      15.418   8.872  11.134  1.00  0.00     0.010 A 
HETATM    6  C16 UNL     1      15.224   8.284  12.407  1.00  0.00     0.146 A 
HETATM    7  F1  UNL     1      15.939   8.729  13.475  1.00  0.00    -0.204 F 
HETATM    8  C17 UNL     1      14.336   7.282  12.583  1.00  0.00     0.074 A 
HETATM    9 CL1  UNL     1      14.119   6.581  14.185  1.00  0.00    -0.081 Cl
HETATM   10  C18 UNL     1      13.629   6.842  11.511  1.00  0.00     0.051 A 
HETATM   11  C19 UNL     1      13.841   7.436  10.282  1.00  0.00     0.043 A 
HETATM   12 CL2  UNL     1      13.064   6.602   8.972  1.00  0.00    -0.084 Cl
HETATM   13  C20 UNL     1      14.715   8.473   9.993  1.00  0.00    -0.013 A 
ENDROOT
BRANCH   3  14
HETATM   14  C10 UNL     1      17.572  11.504   9.534  1.00  0.00     0.266 C 
HETATM   15  O1  UNL     1      18.053  12.395  10.224  1.00  0.00    -0.267 OA
HETATM   16  N1  UNL     1      18.136  11.186   8.308  1.00  0.00    -0.153 N 
ATOM     17  H1  UNL     1      17.770  11.673   7.490  1.00  0.00     0.187 HD
BRANCH  16  18
HETATM   18  C11 UNL     1      19.083  10.332   8.105  1.00  0.00     0.710 A 
HETATM   19  N2  UNL     1      19.160   9.312   7.253  1.00  0.00    -0.117 N 
HETATM   20  N3  UNL     1      20.340   8.688   7.386  1.00  0.00     0.006 NA
ATOM     21  H2  UNL     1      18.428   9.044   6.596  1.00  0.00     0.202 HD
HETATM   22  N4  UNL     1      21.000   9.332   8.331  1.00  0.00     0.006 NA
HETATM   23  N5  UNL     1      20.249  10.341   8.785  1.00  0.00    -0.117 N 
ATOM     24  H5  UNL     1      20.511  11.002   9.516  1.00  0.00     0.202 HD
ENDBRANCH  16  18
ENDBRANCH   3  14
BRANCH   4  25
HETATM   25  C13 UNL     1      17.853   8.991  11.067  1.00  0.00     0.271 C 
HETATM   26  O2  UNL     1      17.802   7.890  10.455  1.00  0.00    -0.264 OA
BRANCH  25  27
HETATM   27  O3  UNL     1      19.055   9.296  11.639  1.00  0.00    -0.326 OA
HETATM   28  C14 UNL     1      20.135   8.382  11.635  1.00  0.00     0.213 C 
ENDBRANCH  25  27
ENDBRANCH   4  25
BRANCH   1  29
HETATM   29  C3  UNL     1      15.821   8.584   7.742  1.00  0.00     0.018 C 
BRANCH  29  30
HETATM   30  C2  UNL     1      15.772   7.282   7.066  1.00  0.00    -0.003 C 
HETATM   31  C1  UNL     1      16.099   7.522   5.561  1.00  0.00     0.005 C 
ENDBRANCH  29  30
ENDBRANCH   1  29
BRANCH   1  32
HETATM   32  C5  UNL     1      13.562   9.628   7.994  1.00  0.00    -0.006 C 
HETATM   33  C6  UNL     1      12.934  10.728   8.918  1.00  0.00     0.011 C 
HETATM   34  C7  UNL     1      13.305  10.075   6.666  1.00  0.00     0.011 C 
ENDBRANCH   1  32
TORSDOF 7
ENDMDL
MODEL 5
REMARK VINA RESULT: -7.072233083      3.102      4.466
REMARK  7 active torsions:
REMARK  status: ('A' for Active; 'I' for Inactive)
REMARK    1  A    between atoms: C2_2  and  C3_3 
REMARK    2  A    between atoms: C3_3  and  C4_4 
REMARK    3  A    between atoms: C4_4  and  C5_5 
REMARK    4  A    between atoms: C9_9  and  C10_10 
REMARK       I    between atoms: C10_10  and  N1_12 
REMARK    5  A    between atoms: N1_12  and  C11_14 
REMARK    6  A    between atoms: C12_21  and  C13_22 
REMARK    7  A    between atoms: C13_22  and  O3_24 
ROOT
HETATM    1  C4  UNL     1      12.844  10.936  10.959  1.00  0.00     0.011 C 
HETATM    2  C8  UNL     1      12.662   9.523  11.575  1.00  0.00     0.002 C 
HETATM    3  C9  UNL     1      13.372   8.340  11.186  1.00  0.00     0.026 C 
HETATM    4  C12 UNL     1      13.981   8.261   9.875  1.00  0.00     0.160 C 
HETATM    5  C15 UNL     1      13.379   9.358   9.027  1.00  0.00     0.010 A 
HETATM    6  C16 UNL     1      13.426   9.074   7.641  1.00  0.00     0.146 A 
HETATM    7  F1  UNL     1      13.792   7.836   7.215  1.00  0.00    -0.204 F 
HETATM    8  C17 UNL     1      13.111  10.016   6.726  1.00  0.00     0.074 A 
HETATM    9 CL1  UNL     1      13.175   9.622   5.010  1.00  0.00    -0.081 Cl
HETATM   10  C18 UNL     1      12.749  11.251   7.160  1.00  0.00     0.051 A 
HETATM   11  C19 UNL     1      12.714  11.496   8.519  1.00  0.00     0.043 A 
HETATM   12 CL2  UNL     1      12.489  13.173   8.909  1.00  0.00    -0.084 Cl
HETATM   13  C20 UNL     1      13.005  10.604   9.540  1.00  0.00    -0.013 A 
ENDROOT
BRANCH   3  14
HETATM   14  C10 UNL     1      14.103   7.640  12.290  1.00  0.00     0.266 C 
HETATM   15  O1  UNL     1      13.914   6.442  12.471  1.00  0.00    -0.267 OA
HETATM   16  N1  UNL     1      14.985   8.339  13.100  1.00  0.00    -0.153 N 
ATOM     17  H1  UNL     1      14.596   8.783  13.933  1.00  0.00     0.187 HD
BRANCH  16  18
HETATM   18  C11 UNL     1      16.252   8.481  12.900  1.00  0.00     0.710 A 
HETATM   19  N2  UNL     1      16.989   9.581  12.772  1.00  0.00    -0.117 N 
HETATM   20  N3  UNL     1      18.276   9.254  12.575  1.00  0.00     0.006 NA
ATOM     21  H2  UNL     1      16.629  10.534  12.817  1.00  0.00     0.202 HD
HETATM   22  N4  UNL     1      18.332   7.936  12.582  1.00  0.00     0.006 NA
HETATM   23  N5  UNL     1      17.105   7.442  12.780  1.00  0.00    -0.117 N 
ATOM     24  H5  UNL     1      16.858   6.454  12.830  1.00  0.00     0.202 HD
ENDBRANCH  16  18
ENDBRANCH   3  14
BRANCH   4  25
HETATM   25  C13 UNL     1      15.467   8.332   9.759  1.00  0.00     0.271 C 
HETATM   26  O2  UNL     1      16.081   7.239   9.632  1.00  0.00    -0.264 OA
BRANCH  25  27
HETATM   27  O3  UNL     1      16.248   9.453   9.777  1.00  0.00    -0.326 OA
HETATM   28  C14 UNL     1      17.442   9.541   9.023  1.00  0.00     0.213 C 
ENDBRANCH  25  27
ENDBRANCH   4  25
BRANCH   1  29
HETATM   29  C3  UNL     1      14.034  11.436  11.673  1.00  0.00     0.018 C 
BRANCH  29  30
HETATM   30  C2  UNL     1      14.975  12.436  11.154  1.00  0.00    -0.003 C 
HETATM   31  C1  UNL     1      14.672  13.784  11.877  1.00  0.00     0.005 C 
ENDBRANCH  29  30
ENDBRANCH   1  29
BRANCH   1  32
HETATM   32  C5  UNL     1      11.540  11.479  11.476  1.00  0.00    -0.006 C 
HETATM   33  C6  UNL     1      10.544  10.280  11.637  1.00  0.00     0.011 C 
HETATM   34  C7  UNL     1      11.221  12.366  12.543  1.00  0.00     0.011 C 
ENDBRANCH   1  32
TORSDOF 7
ENDMDL
