MODEL 1
REMARK VINA RESULT: -7.725927735      0.000      0.000
REMARK  8 active torsions:
REMARK  status: ('A' for Active; 'I' for Inactive)
REMARK    1  A    between atoms: C2_2  and  C4_4 
REMARK    2  A    between atoms: C11_13  and  O3_14 
REMARK    3  A    between atoms: C12_16  and  O4_17 
REMARK    4  A    between atoms: C16_22  and  O5_23 
REMARK    5  A    between atoms: C18_27  and  C19_28 
REMARK    6  A    between atoms: C19_28  and  C21_30 
REMARK    7  A    between atoms: C21_30  and  C22_31 
REMARK    8  A    between atoms: C22_31  and  C23_32 
ROOT
HETATM    1  C4  UNL     1      16.588   8.281  11.305  1.00  0.00     0.167 C 
HETATM    2  O1  UNL     1      16.622   7.758   9.987  1.00  0.00    -0.311 OA
HETATM    3  C5  UNL     1      16.271   8.602   8.956  1.00  0.00     0.264 C 
HETATM    4  O2  UNL     1      16.763   8.413   7.825  1.00  0.00    -0.265 OA
HETATM    5  C6  UNL     1      15.303   9.711   9.278  1.00  0.00     0.095 C 
HETATM    6  C7  UNL     1      14.535   9.987   8.031  1.00  0.00     0.016 C 
HETATM    7  C8  UNL     1      13.197  10.579   8.219  1.00  0.00     0.013 C 
HETATM    8  C9  UNL     1      12.466  10.127   9.491  1.00  0.00    -0.007 C 
HETATM    9  C10 UNL     1      11.136  10.836   9.463  1.00  0.00     0.018 C 
HETATM   10  C11 UNL     1      12.051   8.679   9.204  1.00  0.00     0.155 C 
HETATM   11  C12 UNL     1      12.562   7.650  10.118  1.00  0.00     0.148 C 
HETATM   12  C13 UNL     1      14.053   7.839  10.166  1.00  0.00     0.046 C 
HETATM   13  C14 UNL     1      14.465   9.246  10.437  1.00  0.00    -0.008 C 
HETATM   14  C15 UNL     1      15.407   9.114  11.628  1.00  0.00     0.065 C 
HETATM   15  C16 UNL     1      15.859  10.406  12.136  1.00  0.00     0.188 C 
HETATM   16  C17 UNL     1      14.934  11.531  11.855  1.00  0.00     0.130 C 
HETATM   17  F1  UNL     1      15.485  12.678  12.404  1.00  0.00    -0.207 F 
HETATM   18  C18 UNL     1      13.760  11.501  11.233  1.00  0.00    -0.013 C 
HETATM   19  C25 UNL     1      13.309  10.216  10.702  1.00  0.00     0.042 C 
ENDROOT
BRANCH  18  20
HETATM   20  C19 UNL     1      13.138  12.840  11.147  1.00  0.00    -0.074 C 
HETATM   21  C20 UNL     1      13.723  13.837  10.199  1.00  0.00     0.044 C 
BRANCH  20  22
HETATM   22  C21 UNL     1      12.706  13.462  12.450  1.00  0.00     0.038 C 
BRANCH  22  23
HETATM   23  C22 UNL     1      11.214  13.269  12.683  1.00  0.00     0.037 C 
BRANCH  23  24
HETATM   24  C23 UNL     1      10.593  14.629  12.566  1.00  0.00     0.048 C 
HETATM   25  C24 UNL     1      10.137  15.049  11.402  1.00  0.00     0.263 C 
HETATM   26  F2  UNL     1       9.581  16.275  11.312  1.00  0.00    -0.173 F 
HETATM   27  F3  UNL     1      10.226  14.267  10.328  1.00  0.00    -0.173 F 
ENDBRANCH  23  24
ENDBRANCH  22  23
ENDBRANCH  20  22
ENDBRANCH  18  20
BRANCH  15  28
HETATM   28  O5  UNL     1      17.137  10.820  11.698  1.00  0.00    -0.388 OA
ATOM     29  H5  UNL     1      17.152  11.305  10.881  1.00  0.00     0.210 HD
ENDBRANCH  15  28
BRANCH  10  30
HETATM   30  O3  UNL     1      12.335   8.295   7.889  1.00  0.00    -0.392 OA
ATOM     31  H3  UNL     1      11.556   8.265   7.344  1.00  0.00     0.210 HD
ENDBRANCH  10  30
BRANCH   1  32
HETATM   32  C2  UNL     1      16.899   7.200  12.280  1.00  0.00    -0.064 C 
HETATM   33  C1  UNL     1      18.039   6.585  12.421  1.00  0.00     0.016 C 
HETATM   34  C3  UNL     1      15.726   6.814  13.166  1.00  0.00     0.045 C 
ENDBRANCH   1  32
BRANCH  11  35
HETATM   35  O4  UNL     1      11.937   7.484  11.324  1.00  0.00    -0.393 OA
ATOM     36  H4  UNL     1      11.556   6.637  11.522  1.00  0.00     0.210 HD
ENDBRANCH  11  35
TORSDOF 8
ENDMDL
MODEL 2
REMARK VINA RESULT: -7.714778809      6.770      9.053
REMARK  8 active torsions:
REMARK  status: ('A' for Active; 'I' for Inactive)
REMARK    1  A    between atoms: C2_2  and  C4_4 
REMARK    2  A    between atoms: C11_13  and  O3_14 
REMARK    3  A    between atoms: C12_16  and  O4_17 
REMARK    4  A    between atoms: C16_22  and  O5_23 
REMARK    5  A    between atoms: C18_27  and  C19_28 
REMARK    6  A    between atoms: C19_28  and  C21_30 
REMARK    7  A    between atoms: C21_30  and  C22_31 
REMARK    8  A    between atoms: C22_31  and  C23_32 
ROOT
HETATM    1  C4  UNL     1      19.958   9.879  10.337  1.00  0.00     0.167 C 
HETATM    2  O1  UNL     1      19.720   9.136   9.152  1.00  0.00    -0.311 OA
HETATM    3  C5  UNL     1      20.522   9.399   8.063  1.00  0.00     0.264 C 
HETATM    4  O2  UNL     1      20.734   8.491   7.234  1.00  0.00    -0.265 OA
HETATM    5  C6  UNL     1      21.092  10.789   7.953  1.00  0.00     0.095 C 
HETATM    6  C7  UNL     1      21.254  11.074   6.499  1.00  0.00     0.016 C 
HETATM    7  C8  UNL     1      21.235  12.499   6.118  1.00  0.00     0.013 C 
HETATM    8  C9  UNL     1      20.326  13.384   6.981  1.00  0.00    -0.007 C 
HETATM    9  C10 UNL     1      20.453  14.772   6.405  1.00  0.00     0.018 C 
HETATM   10  C11 UNL     1      18.902  13.004   6.558  1.00  0.00     0.155 C 
HETATM   11  C12 UNL     1      18.015  12.486   7.608  1.00  0.00     0.148 C 
HETATM   12  C13 UNL     1      18.761  11.355   8.262  1.00  0.00     0.046 C 
HETATM   13  C14 UNL     1      20.149  11.715   8.669  1.00  0.00    -0.008 C 
HETATM   14  C15 UNL     1      20.196  11.327  10.142  1.00  0.00     0.065 C 
HETATM   15  C16 UNL     1      21.455  11.694  10.783  1.00  0.00     0.188 C 
HETATM   16  C17 UNL     1      22.160  12.830  10.139  1.00  0.00     0.130 C 
HETATM   17  F1  UNL     1      23.320  13.069  10.859  1.00  0.00    -0.207 F 
HETATM   18  C18 UNL     1      21.780  13.552   9.091  1.00  0.00    -0.013 C 
HETATM   19  C25 UNL     1      20.531  13.179   8.431  1.00  0.00     0.042 C 
ENDROOT
BRANCH  18  20
HETATM   20  C19 UNL     1      22.764  14.603   8.750  1.00  0.00    -0.074 C 
HETATM   21  C20 UNL     1      22.352  16.033   8.884  1.00  0.00     0.044 C 
BRANCH  20  22
HETATM   22  C21 UNL     1      23.613  14.354   7.530  1.00  0.00     0.038 C 
BRANCH  22  23
HETATM   23  C22 UNL     1      24.910  13.648   7.897  1.00  0.00     0.037 C 
BRANCH  23  24
HETATM   24  C23 UNL     1      24.730  12.212   7.506  1.00  0.00     0.048 C 
HETATM   25  C24 UNL     1      24.782  11.861   6.235  1.00  0.00     0.263 C 
HETATM   26  F2  UNL     1      24.617  10.566   5.898  1.00  0.00    -0.173 F 
HETATM   27  F3  UNL     1      24.994  12.782   5.296  1.00  0.00    -0.173 F 
ENDBRANCH  23  24
ENDBRANCH  22  23
ENDBRANCH  20  22
ENDBRANCH  18  20
BRANCH  15  28
HETATM   28  O5  UNL     1      22.403  10.653  10.905  1.00  0.00    -0.388 OA
ATOM     29  H5  UNL     1      22.936  10.675  11.690  1.00  0.00     0.210 HD
ENDBRANCH  15  28
BRANCH  10  30
HETATM   30  O3  UNL     1      18.887  12.115   5.477  1.00  0.00    -0.392 OA
ATOM     31  H3  UNL     1      18.049  11.678   5.380  1.00  0.00     0.210 HD
ENDBRANCH  10  30
BRANCH   1  32
HETATM   32  C2  UNL     1      18.936   9.527  11.361  1.00  0.00    -0.064 C 
HETATM   33  C1  UNL     1      17.990  10.300  11.812  1.00  0.00     0.016 C 
HETATM   34  C3  UNL     1      19.069   8.114  11.904  1.00  0.00     0.045 C 
ENDBRANCH   1  32
BRANCH  11  35
HETATM   35  O4  UNL     1      17.418  13.381   8.453  1.00  0.00    -0.393 OA
ATOM     36  H4  UNL     1      16.477  13.329   8.572  1.00  0.00     0.210 HD
ENDBRANCH  11  35
TORSDOF 8
ENDMDL
MODEL 3
REMARK VINA RESULT: -7.633651810      2.605      5.854
REMARK  8 active torsions:
REMARK  status: ('A' for Active; 'I' for Inactive)
REMARK    1  A    between atoms: C2_2  and  C4_4 
REMARK    2  A    between atoms: C11_13  and  O3_14 
REMARK    3  A    between atoms: C12_16  and  O4_17 
REMARK    4  A    between atoms: C16_22  and  O5_23 
REMARK    5  A    between atoms: C18_27  and  C19_28 
REMARK    6  A    between atoms: C19_28  and  C21_30 
REMARK    7  A    between atoms: C21_30  and  C22_31 
REMARK    8  A    between atoms: C22_31  and  C23_32 
ROOT
HETATM    1  C4  UNL     1      12.242  11.641  11.721  1.00  0.00     0.167 C 
HETATM    2  O1  UNL     1      11.375  10.522  11.638  1.00  0.00    -0.311 OA
HETATM    3  C5  UNL     1      11.946   9.268  11.694  1.00  0.00     0.264 C 
HETATM    4  O2  UNL     1      11.276   8.319  12.148  1.00  0.00    -0.265 OA
HETATM    5  C6  UNL     1      13.361   9.137  11.194  1.00  0.00     0.095 C 
HETATM    6  C7  UNL     1      13.503   7.751  10.665  1.00  0.00     0.016 C 
HETATM    7  C8  UNL     1      14.545   7.560   9.637  1.00  0.00     0.013 C 
HETATM    8  C9  UNL     1      14.766   8.765   8.713  1.00  0.00    -0.007 C 
HETATM    9  C10 UNL     1      15.845   8.340   7.750  1.00  0.00     0.018 C 
HETATM   10  C11 UNL     1      13.531   8.786   7.804  1.00  0.00     0.155 C 
HETATM   11  C12 UNL     1      12.706  10.001   7.834  1.00  0.00     0.148 C 
HETATM   12  C13 UNL     1      12.379  10.246   9.281  1.00  0.00     0.046 C 
HETATM   13  C14 UNL     1      13.574  10.220  10.173  1.00  0.00    -0.008 C 
HETATM   14  C15 UNL     1      13.484  11.545  10.921  1.00  0.00     0.065 C 
HETATM   15  C16 UNL     1      14.632  11.781  11.792  1.00  0.00     0.188 C 
HETATM   16  C17 UNL     1      15.870  11.076  11.376  1.00  0.00     0.130 C 
HETATM   17  F1  UNL     1      16.867  11.404  12.281  1.00  0.00    -0.207 F 
HETATM   18  C18 UNL     1      16.061  10.296  10.317  1.00  0.00    -0.013 C 
HETATM   19  C25 UNL     1      14.913  10.038   9.451  1.00  0.00     0.042 C 
ENDROOT
BRANCH  18  20
HETATM   20  C19 UNL     1      17.444   9.776  10.250  1.00  0.00    -0.074 C 
HETATM   21  C20 UNL     1      18.296  10.167   9.085  1.00  0.00     0.044 C 
BRANCH  20  22
HETATM   22  C21 UNL     1      17.639   8.338  10.655  1.00  0.00     0.038 C 
BRANCH  22  23
HETATM   23  C22 UNL     1      17.834   8.211  12.159  1.00  0.00     0.037 C 
BRANCH  23  24
HETATM   24  C23 UNL     1      16.954   7.080  12.601  1.00  0.00     0.048 C 
HETATM   25  C24 UNL     1      15.847   7.329  13.274  1.00  0.00     0.263 C 
HETATM   26  F2  UNL     1      15.066   6.301  13.665  1.00  0.00    -0.173 F 
HETATM   27  F3  UNL     1      15.508   8.584  13.563  1.00  0.00    -0.173 F 
ENDBRANCH  23  24
ENDBRANCH  22  23
ENDBRANCH  20  22
ENDBRANCH  18  20
BRANCH  15  28
HETATM   28  O5  UNL     1      14.436  11.471  13.156  1.00  0.00    -0.388 OA
ATOM     29  H5  UNL     1      14.779  12.105  13.774  1.00  0.00     0.210 HD
ENDBRANCH  15  28
BRANCH  10  30
HETATM   30  O3  UNL     1      12.704   7.676   8.004  1.00  0.00    -0.392 OA
ATOM     31  H3  UNL     1      11.986   7.642   7.381  1.00  0.00     0.210 HD
ENDBRANCH  10  30
BRANCH   1  32
HETATM   32  C2  UNL     1      11.458  12.895  11.543  1.00  0.00    -0.064 C 
HETATM   33  C1  UNL     1      11.121  13.446  10.412  1.00  0.00     0.016 C 
HETATM   34  C3  UNL     1      11.047  13.555  12.849  1.00  0.00     0.045 C 
ENDBRANCH   1  32
BRANCH  11  35
HETATM   35  O4  UNL     1      13.127  11.089   7.119  1.00  0.00    -0.393 OA
ATOM     36  H4  UNL     1      12.628  11.894   7.189  1.00  0.00     0.210 HD
ENDBRANCH  11  35
TORSDOF 8
ENDMDL
MODEL 4
REMARK VINA RESULT: -7.608213538      1.320      1.661
REMARK  8 active torsions:
REMARK  status: ('A' for Active; 'I' for Inactive)
REMARK    1  A    between atoms: C2_2  and  C4_4 
REMARK    2  A    between atoms: C11_13  and  O3_14 
REMARK    3  A    between atoms: C12_16  and  O4_17 
REMARK    4  A    between atoms: C16_22  and  O5_23 
REMARK    5  A    between atoms: C18_27  and  C19_28 
REMARK    6  A    between atoms: C19_28  and  C21_30 
REMARK    7  A    between atoms: C21_30  and  C22_31 
REMARK    8  A    between atoms: C22_31  and  C23_32 
ROOT
HETATM    1  C4  UNL     1      14.973   8.418  11.631  1.00  0.00     0.167 C 
HETATM    2  O1  UNL     1      15.078   7.902  10.314  1.00  0.00    -0.311 OA
HETATM    3  C5  UNL     1      15.116   8.807   9.275  1.00  0.00     0.264 C 
HETATM    4  O2  UNL     1      15.713   8.498   8.225  1.00  0.00    -0.265 OA
HETATM    5  C6  UNL     1      14.420  10.125   9.490  1.00  0.00     0.095 C 
HETATM    6  C7  UNL     1      13.949  10.587   8.154  1.00  0.00     0.016 C 
HETATM    7  C8  UNL     1      12.790  11.500   8.161  1.00  0.00     0.013 C 
HETATM    8  C9  UNL     1      11.781  11.251   9.290  1.00  0.00    -0.007 C 
HETATM    9  C10 UNL     1      10.693  12.274   9.089  1.00  0.00     0.018 C 
HETATM   10  C11 UNL     1      11.065   9.956   8.888  1.00  0.00     0.155 C 
HETATM   11  C12 UNL     1      11.152   8.831   9.829  1.00  0.00     0.148 C 
HETATM   12  C13 UNL     1      12.617   8.634  10.108  1.00  0.00     0.046 C 
HETATM   13  C14 UNL     1      13.322   9.891  10.492  1.00  0.00    -0.008 C 
HETATM   14  C15 UNL     1      14.004   9.525  11.804  1.00  0.00     0.065 C 
HETATM   15  C16 UNL     1      14.682  10.659  12.424  1.00  0.00     0.188 C 
HETATM   16  C17 UNL     1      14.125  11.983  12.050  1.00  0.00     0.130 C 
HETATM   17  F1  UNL     1      14.855  12.952  12.719  1.00  0.00    -0.207 F 
HETATM   18  C18 UNL     1      13.093  12.251  11.258  1.00  0.00    -0.013 C 
HETATM   19  C25 UNL     1      12.421  11.123  10.617  1.00  0.00     0.042 C 
ENDROOT
BRANCH  18  20
HETATM   20  C19 UNL     1      12.849  13.705  11.131  1.00  0.00    -0.074 C 
HETATM   21  C20 UNL     1      13.854  14.533  10.397  1.00  0.00     0.044 C 
BRANCH  20  22
HETATM   22  C21 UNL     1      12.301  14.401  12.351  1.00  0.00     0.038 C 
BRANCH  22  23
HETATM   23  C22 UNL     1      10.800  14.186  12.479  1.00  0.00     0.037 C 
BRANCH  23  24
HETATM   24  C23 UNL     1      10.151  15.395  11.874  1.00  0.00     0.048 C 
HETATM   25  C24 UNL     1       9.324  16.130  12.592  1.00  0.00     0.263 C 
HETATM   26  F2  UNL     1       8.748  17.214  12.034  1.00  0.00    -0.173 F 
HETATM   27  F3  UNL     1       9.061  15.800  13.856  1.00  0.00    -0.173 F 
ENDBRANCH  23  24
ENDBRANCH  22  23
ENDBRANCH  20  22
ENDBRANCH  18  20
BRANCH  15  28
HETATM   28  O5  UNL     1      16.075  10.734  12.199  1.00  0.00    -0.388 OA
ATOM     29  H5  UNL     1      16.603  10.117  12.691  1.00  0.00     0.210 HD
ENDBRANCH  15  28
BRANCH  10  30
HETATM   30  O3  UNL     1      11.443   9.510   7.617  1.00  0.00    -0.392 OA
ATOM     31  H3  UNL     1      11.620   8.576   7.599  1.00  0.00     0.210 HD
ENDBRANCH  10  30
BRANCH   1  32
HETATM   32  C2  UNL     1      14.847   7.295  12.600  1.00  0.00    -0.064 C 
HETATM   33  C1  UNL     1      13.745   6.705  12.966  1.00  0.00     0.016 C 
HETATM   34  C3  UNL     1      16.171   6.843  13.194  1.00  0.00     0.045 C 
ENDBRANCH   1  32
BRANCH  11  35
HETATM   35  O4  UNL     1      10.327   8.831  10.920  1.00  0.00    -0.393 OA
ATOM     36  H4  UNL     1       9.921   8.012  11.178  1.00  0.00     0.210 HD
ENDBRANCH  11  35
TORSDOF 8
ENDMDL
MODEL 5
REMARK VINA RESULT: -7.501114414      2.816      5.947
REMARK  8 active torsions:
REMARK  status: ('A' for Active; 'I' for Inactive)
REMARK    1  A    between atoms: C2_2  and  C4_4 
REMARK    2  A    between atoms: C11_13  and  O3_14 
REMARK    3  A    between atoms: C12_16  and  O4_17 
REMARK    4  A    between atoms: C16_22  and  O5_23 
REMARK    5  A    between atoms: C18_27  and  C19_28 
REMARK    6  A    between atoms: C19_28  and  C21_30 
REMARK    7  A    between atoms: C21_30  and  C22_31 
REMARK    8  A    between atoms: C22_31  and  C23_32 
ROOT
HETATM    1  C4  UNL     1      12.284  12.877  11.905  1.00  0.00     0.167 C 
HETATM    2  O1  UNL     1      11.051  12.195  11.740  1.00  0.00    -0.311 OA
HETATM    3  C5  UNL     1      11.092  10.821  11.634  1.00  0.00     0.264 C 
HETATM    4  O2  UNL     1      10.107  10.156  12.012  1.00  0.00    -0.265 OA
HETATM    5  C6  UNL     1      12.346  10.216  11.060  1.00  0.00     0.095 C 
HETATM    6  C7  UNL     1      11.941   8.954  10.377  1.00  0.00     0.016 C 
HETATM    7  C8  UNL     1      12.827   8.500   9.288  1.00  0.00     0.013 C 
HETATM    8  C9  UNL     1      13.498   9.627   8.491  1.00  0.00    -0.007 C 
HETATM    9  C10 UNL     1      14.328   8.936   7.440  1.00  0.00     0.018 C 
HETATM   10  C11 UNL     1      12.367  10.228   7.647  1.00  0.00     0.155 C 
HETATM   11  C12 UNL     1      12.078  11.654   7.846  1.00  0.00     0.148 C 
HETATM   12  C13 UNL     1      11.870  11.834   9.325  1.00  0.00     0.046 C 
HETATM   13  C14 UNL     1      12.962  11.246  10.153  1.00  0.00    -0.008 C 
HETATM   14  C15 UNL     1      13.392  12.405  11.044  1.00  0.00     0.065 C 
HETATM   15  C16 UNL     1      14.541  12.077  11.882  1.00  0.00     0.188 C 
HETATM   16  C17 UNL     1      15.410  11.006  11.336  1.00  0.00     0.130 C 
HETATM   17  F1  UNL     1      16.456  10.816  12.226  1.00  0.00    -0.207 F 
HETATM   18  C18 UNL     1      15.285  10.342  10.191  1.00  0.00    -0.013 C 
HETATM   19  C25 UNL     1      14.126  10.649   9.356  1.00  0.00     0.042 C 
ENDROOT
BRANCH  18  20
HETATM   20  C19 UNL     1      16.358   9.342  10.005  1.00  0.00    -0.074 C 
HETATM   21  C20 UNL     1      17.222   9.443   8.789  1.00  0.00     0.044 C 
BRANCH  20  22
HETATM   22  C21 UNL     1      16.015   7.918  10.357  1.00  0.00     0.038 C 
BRANCH  22  23
HETATM   23  C22 UNL     1      16.516   7.559  11.749  1.00  0.00     0.037 C 
BRANCH  23  24
HETATM   24  C23 UNL     1      15.456   6.693  12.364  1.00  0.00     0.048 C 
HETATM   25  C24 UNL     1      14.433   7.243  12.987  1.00  0.00     0.263 C 
HETATM   26  F2  UNL     1      13.488   6.451  13.535  1.00  0.00    -0.173 F 
HETATM   27  F3  UNL     1      14.336   8.569  13.073  1.00  0.00    -0.173 F 
ENDBRANCH  23  24
ENDBRANCH  22  23
ENDBRANCH  20  22
ENDBRANCH  18  20
BRANCH  15  28
HETATM   28  O5  UNL     1      14.240  11.708  13.212  1.00  0.00    -0.388 OA
ATOM     29  H5  UNL     1      14.983  11.660  13.802  1.00  0.00     0.210 HD
ENDBRANCH  15  28
BRANCH  10  30
HETATM   30  O3  UNL     1      11.175   9.505   7.762  1.00  0.00    -0.392 OA
ATOM     31  H3  UNL     1      10.415  10.020   7.516  1.00  0.00     0.210 HD
ENDBRANCH  10  30
BRANCH   1  32
HETATM   32  C2  UNL     1      12.046  14.347  11.900  1.00  0.00    -0.064 C 
HETATM   33  C1  UNL     1      12.898  15.270  11.557  1.00  0.00     0.016 C 
HETATM   34  C3  UNL     1      10.654  14.747  12.360  1.00  0.00     0.045 C 
ENDBRANCH   1  32
BRANCH  11  35
HETATM   35  O4  UNL     1      12.887  12.572   7.235  1.00  0.00    -0.393 OA
ATOM     36  H4  UNL     1      12.989  13.424   7.642  1.00  0.00     0.210 HD
ENDBRANCH  11  35
TORSDOF 8
ENDMDL
