MODEL 1
REMARK VINA RESULT: -8.521728596      0.000      0.000
REMARK  9 active torsions:
REMARK  status: ('A' for Active; 'I' for Inactive)
REMARK    1  A    between atoms: C2_2  and  C3_3 
REMARK    2  A    between atoms: C3_3  and  N1_4 
REMARK    3  A    between atoms: N1_4  and  C4_5 
REMARK       I    between atoms: N1_4  and  C7_8 
REMARK    4  A    between atoms: C4_5  and  C5_6 
REMARK       I    between atoms: C7_8  and  N2_10 
REMARK    5  A    between atoms: C9_12  and  C10_13 
REMARK    6  A    between atoms: C10_13  and  C11_14 
REMARK    7  A    between atoms: C11_14  and  O2_15 
REMARK    8  A    between atoms: O2_15  and  C12_16 
REMARK    9  A    between atoms: C16_24  and  N4_25 
ROOT
HETATM    1  N1  UNL     1      17.649 -39.086  -5.271  1.00  0.00    -0.306 N 
HETATM    2  C7  UNL     1      19.010 -38.950  -5.507  1.00  0.00     0.333 C 
HETATM    3  O1  UNL     1      19.517 -37.850  -5.038  1.00  0.00    -0.246 OA
HETATM    4  N2  UNL     1      19.900 -39.818  -6.166  1.00  0.00    -0.268 N 
HETATM    5  C8  UNL     1      19.619 -40.988  -6.820  1.00  0.00     0.110 A 
HETATM    6  C9  UNL     1      20.770 -41.564  -7.330  1.00  0.00    -0.022 A 
HETATM    7  C14 UNL     1      21.761 -40.710  -6.966  1.00  0.00     0.073 A 
HETATM    8  C15 UNL     1      23.117 -40.861  -7.289  1.00  0.00     0.273 C 
HETATM    9  O4  UNL     1      23.438 -42.029  -7.510  1.00  0.00    -0.267 OA
HETATM   10  N3  UNL     1      24.072 -39.913  -7.383  1.00  0.00    -0.155 N 
ATOM     11  H3  UNL     1      24.984 -40.206  -7.733  1.00  0.00     0.187 HD
HETATM   12  C16 UNL     1      23.928 -38.613  -7.056  1.00  0.00     0.681 C 
HETATM   13  N5  UNL     1      23.029 -38.049  -6.214  1.00  0.00    -0.154 N 
ATOM     14  H5  UNL     1      23.182 -37.068  -5.976  1.00  0.00     0.187 HD
HETATM   15  C17 UNL     1      21.947 -38.647  -5.652  1.00  0.00     0.288 C 
HETATM   16  O5  UNL     1      21.589 -38.273  -4.523  1.00  0.00    -0.265 OA
HETATM   17  C18 UNL     1      21.226 -39.646  -6.249  1.00  0.00     0.128 A 
ENDROOT
BRANCH   1  18
HETATM   18  C3  UNL     1      17.043 -37.924  -4.536  1.00  0.00     0.159 C 
BRANCH  18  19
HETATM   19  C2  UNL     1      15.819 -38.232  -3.833  1.00  0.00    -0.017 C 
HETATM   20  C1  UNL     1      14.745 -37.442  -3.868  1.00  0.00     0.008 C 
ENDBRANCH  18  19
ENDBRANCH   1  18
BRANCH   1  21
HETATM   21  C4  UNL     1      16.803 -40.134  -5.673  1.00  0.00     0.095 C 
BRANCH  21  22
HETATM   22  C5  UNL     1      16.110 -40.032  -6.964  1.00  0.00     0.007 C 
HETATM   23  C6  UNL     1      14.900 -39.639  -7.225  1.00  0.00     0.012 C 
ENDBRANCH  21  22
ENDBRANCH   1  21
BRANCH   6  24
HETATM   24  C10 UNL     1      20.880 -42.813  -8.107  1.00  0.00     0.068 C 
BRANCH  24  25
HETATM   25  C11 UNL     1      20.267 -42.709  -9.482  1.00  0.00     0.183 C 
BRANCH  25  26
HETATM   26  O2  UNL     1      20.878 -43.488 -10.456  1.00  0.00    -0.321 OA
BRANCH  26  27
HETATM   27  C12 UNL     1      22.003 -44.248 -10.355  1.00  0.00     0.254 C 
HETATM   28  C13 UNL     1      23.311 -43.636 -10.715  1.00  0.00     0.126 C 
HETATM   29  O3  UNL     1      21.900 -45.424  -9.965  1.00  0.00    -0.266 OA
ENDBRANCH  26  27
ENDBRANCH  25  26
ENDBRANCH  24  25
ENDBRANCH   6  24
BRANCH  12  30
HETATM   30  N4  UNL     1      24.772 -37.825  -7.631  1.00  0.00    -0.234 N 
ATOM     31  H42 UNL     1      25.730 -37.835  -7.282  1.00  0.00     0.174 HD
ATOM     32  H41 UNL     1      24.377 -37.269  -8.390  1.00  0.00     0.174 HD
ENDBRANCH  12  30
TORSDOF 9
ENDMDL
MODEL 2
REMARK VINA RESULT: -8.501675421      2.574      6.486
REMARK  9 active torsions:
REMARK  status: ('A' for Active; 'I' for Inactive)
REMARK    1  A    between atoms: C2_2  and  C3_3 
REMARK    2  A    between atoms: C3_3  and  N1_4 
REMARK    3  A    between atoms: N1_4  and  C4_5 
REMARK       I    between atoms: N1_4  and  C7_8 
REMARK    4  A    between atoms: C4_5  and  C5_6 
REMARK       I    between atoms: C7_8  and  N2_10 
REMARK    5  A    between atoms: C9_12  and  C10_13 
REMARK    6  A    between atoms: C10_13  and  C11_14 
REMARK    7  A    between atoms: C11_14  and  O2_15 
REMARK    8  A    between atoms: O2_15  and  C12_16 
REMARK    9  A    between atoms: C16_24  and  N4_25 
ROOT
HETATM    1  N1  UNL     1      21.414 -43.583  -8.235  1.00  0.00    -0.306 N 
HETATM    2  C7  UNL     1      22.377 -42.697  -7.773  1.00  0.00     0.333 C 
HETATM    3  O1  UNL     1      23.596 -43.068  -8.025  1.00  0.00    -0.246 OA
HETATM    4  N2  UNL     1      22.223 -41.478  -7.088  1.00  0.00    -0.268 N 
HETATM    5  C8  UNL     1      21.069 -40.901  -6.626  1.00  0.00     0.110 A 
HETATM    6  C9  UNL     1      21.329 -39.688  -6.012  1.00  0.00    -0.022 A 
HETATM    7  C14 UNL     1      22.675 -39.542  -6.113  1.00  0.00     0.073 A 
HETATM    8  C15 UNL     1      23.413 -38.466  -5.600  1.00  0.00     0.273 C 
HETATM    9  O4  UNL     1      22.747 -37.438  -5.468  1.00  0.00    -0.267 OA
HETATM   10  N3  UNL     1      24.714 -38.428  -5.246  1.00  0.00    -0.155 N 
ATOM     11  H3  UNL     1      25.047 -37.577  -4.793  1.00  0.00     0.187 HD
HETATM   12  C16 UNL     1      25.613 -39.414  -5.438  1.00  0.00     0.681 C 
HETATM   13  N5  UNL     1      25.578 -40.424  -6.340  1.00  0.00    -0.154 N 
ATOM     14  H5  UNL     1      26.430 -40.978  -6.434  1.00  0.00     0.187 HD
HETATM   15  C17 UNL     1      24.533 -40.779  -7.131  1.00  0.00     0.288 C 
HETATM   16  O5  UNL     1      24.779 -41.256  -8.252  1.00  0.00    -0.265 OA
HETATM   17  C18 UNL     1      23.218 -40.637  -6.776  1.00  0.00     0.128 A 
ENDROOT
BRANCH   1  18
HETATM   18  C3  UNL     1      21.983 -44.795  -8.916  1.00  0.00     0.159 C 
BRANCH  18  19
HETATM   19  C2  UNL     1      21.264 -45.212 -10.098  1.00  0.00    -0.017 C 
HETATM   20  C1  UNL     1      20.786 -46.447 -10.258  1.00  0.00     0.008 C 
ENDBRANCH  18  19
ENDBRANCH   1  18
BRANCH   1  21
HETATM   21  C4  UNL     1      20.018 -43.490  -8.096  1.00  0.00     0.095 C 
BRANCH  21  22
HETATM   22  C5  UNL     1      19.381 -44.079  -6.911  1.00  0.00     0.007 C 
HETATM   23  C6  UNL     1      19.289 -45.324  -6.553  1.00  0.00     0.012 C 
ENDBRANCH  21  22
ENDBRANCH   1  21
BRANCH   6  24
HETATM   24  C10 UNL     1      20.357 -38.777  -5.378  1.00  0.00     0.068 C 
BRANCH  24  25
HETATM   25  C11 UNL     1      20.199 -39.019  -3.897  1.00  0.00     0.183 C 
BRANCH  25  26
HETATM   26  O2  UNL     1      18.886 -39.068  -3.449  1.00  0.00    -0.321 OA
BRANCH  26  27
HETATM   27  C12 UNL     1      18.241 -40.086  -2.815  1.00  0.00     0.254 C 
HETATM   28  C13 UNL     1      17.307 -40.937  -3.601  1.00  0.00     0.126 C 
HETATM   29  O3  UNL     1      18.455 -40.269  -1.603  1.00  0.00    -0.266 OA
ENDBRANCH  26  27
ENDBRANCH  25  26
ENDBRANCH  24  25
ENDBRANCH   6  24
BRANCH  12  30
HETATM   30  N4  UNL     1      26.632 -39.363  -4.649  1.00  0.00    -0.234 N 
ATOM     31  H42 UNL     1      27.413 -38.773  -4.936  1.00  0.00     0.174 HD
ATOM     32  H41 UNL     1      26.538 -39.930  -3.806  1.00  0.00     0.174 HD
ENDBRANCH  12  30
TORSDOF 9
ENDMDL
MODEL 3
REMARK VINA RESULT: -8.403605895      0.754      1.082
REMARK  9 active torsions:
REMARK  status: ('A' for Active; 'I' for Inactive)
REMARK    1  A    between atoms: C2_2  and  C3_3 
REMARK    2  A    between atoms: C3_3  and  N1_4 
REMARK    3  A    between atoms: N1_4  and  C4_5 
REMARK       I    between atoms: N1_4  and  C7_8 
REMARK    4  A    between atoms: C4_5  and  C5_6 
REMARK       I    between atoms: C7_8  and  N2_10 
REMARK    5  A    between atoms: C9_12  and  C10_13 
REMARK    6  A    between atoms: C10_13  and  C11_14 
REMARK    7  A    between atoms: C11_14  and  O2_15 
REMARK    8  A    between atoms: O2_15  and  C12_16 
REMARK    9  A    between atoms: C16_24  and  N4_25 
ROOT
HETATM    1  N1  UNL     1      17.605 -39.449  -5.074  1.00  0.00    -0.306 N 
HETATM    2  C7  UNL     1      18.936 -39.143  -5.325  1.00  0.00     0.333 C 
HETATM    3  O1  UNL     1      19.322 -38.017  -4.806  1.00  0.00    -0.246 OA
HETATM    4  N2  UNL     1      19.905 -39.867  -6.043  1.00  0.00    -0.268 N 
HETATM    5  C8  UNL     1      19.748 -41.027  -6.755  1.00  0.00     0.110 A 
HETATM    6  C9  UNL     1      20.946 -41.437  -7.313  1.00  0.00    -0.022 A 
HETATM    7  C14 UNL     1      21.840 -40.493  -6.920  1.00  0.00     0.073 A 
HETATM    8  C15 UNL     1      23.196 -40.468  -7.272  1.00  0.00     0.273 C 
HETATM    9  O4  UNL     1      23.645 -41.578  -7.560  1.00  0.00    -0.267 OA
HETATM   10  N3  UNL     1      24.032 -39.411  -7.331  1.00  0.00    -0.155 N 
ATOM     11  H3  UNL     1      24.964 -39.578  -7.711  1.00  0.00     0.187 HD
HETATM   12  C16 UNL     1      23.746 -38.156  -6.933  1.00  0.00     0.681 C 
HETATM   13  N5  UNL     1      22.807 -37.744  -6.047  1.00  0.00    -0.154 N 
ATOM     14  H5  UNL     1      22.851 -36.766  -5.760  1.00  0.00     0.187 HD
HETATM   15  C17 UNL     1      21.814 -38.492  -5.501  1.00  0.00     0.288 C 
HETATM   16  O5  UNL     1      21.440 -38.221  -4.347  1.00  0.00    -0.265 OA
HETATM   17  C18 UNL     1      21.200 -39.537  -6.139  1.00  0.00     0.128 A 
ENDROOT
BRANCH   1  18
HETATM   18  C3  UNL     1      16.885 -38.406  -4.269  1.00  0.00     0.159 C 
BRANCH  18  19
HETATM   19  C2  UNL     1      15.446 -38.530  -4.276  1.00  0.00    -0.017 C 
HETATM   20  C1  UNL     1      14.633 -37.565  -3.841  1.00  0.00     0.008 C 
ENDBRANCH  18  19
ENDBRANCH   1  18
BRANCH   1  21
HETATM   21  C4  UNL     1      16.878 -40.567  -5.518  1.00  0.00     0.095 C 
BRANCH  21  22
HETATM   22  C5  UNL     1      16.997 -41.831  -4.779  1.00  0.00     0.007 C 
HETATM   23  C6  UNL     1      17.131 -43.043  -5.227  1.00  0.00     0.012 C 
ENDBRANCH  21  22
ENDBRANCH   1  21
BRANCH   6  24
HETATM   24  C10 UNL     1      21.183 -42.624  -8.157  1.00  0.00     0.068 C 
BRANCH  24  25
HETATM   25  C11 UNL     1      20.329 -42.643  -9.401  1.00  0.00     0.183 C 
BRANCH  25  26
HETATM   26  O2  UNL     1      20.842 -43.393 -10.451  1.00  0.00    -0.321 OA
BRANCH  26  27
HETATM   27  C12 UNL     1      21.934 -44.206 -10.462  1.00  0.00     0.254 C 
HETATM   28  C13 UNL     1      23.234 -43.648 -10.922  1.00  0.00     0.126 C 
HETATM   29  O3  UNL     1      21.807 -45.386 -10.086  1.00  0.00    -0.266 OA
ENDBRANCH  26  27
ENDBRANCH  25  26
ENDBRANCH  24  25
ENDBRANCH   6  24
BRANCH  12  30
HETATM   30  N4  UNL     1      24.480 -37.246  -7.478  1.00  0.00    -0.234 N 
ATOM     31  H42 UNL     1      25.487 -37.308  -7.327  1.00  0.00     0.174 HD
ATOM     32  H41 UNL     1      23.959 -36.553  -8.016  1.00  0.00     0.174 HD
ENDBRANCH  12  30
TORSDOF 9
ENDMDL
MODEL 4
REMARK VINA RESULT: -8.348350541      1.346      1.720
REMARK  9 active torsions:
REMARK  status: ('A' for Active; 'I' for Inactive)
REMARK    1  A    between atoms: C2_2  and  C3_3 
REMARK    2  A    between atoms: C3_3  and  N1_4 
REMARK    3  A    between atoms: N1_4  and  C4_5 
REMARK       I    between atoms: N1_4  and  C7_8 
REMARK    4  A    between atoms: C4_5  and  C5_6 
REMARK       I    between atoms: C7_8  and  N2_10 
REMARK    5  A    between atoms: C9_12  and  C10_13 
REMARK    6  A    between atoms: C10_13  and  C11_14 
REMARK    7  A    between atoms: C11_14  and  O2_15 
REMARK    8  A    between atoms: O2_15  and  C12_16 
REMARK    9  A    between atoms: C16_24  and  N4_25 
ROOT
HETATM    1  N1  UNL     1      17.762 -39.208  -5.388  1.00  0.00    -0.306 N 
HETATM    2  C7  UNL     1      19.118 -38.950  -5.534  1.00  0.00     0.333 C 
HETATM    3  O1  UNL     1      19.510 -37.857  -4.951  1.00  0.00    -0.246 OA
HETATM    4  N2  UNL     1      20.107 -39.689  -6.208  1.00  0.00    -0.268 N 
HETATM    5  C8  UNL     1      19.956 -40.819  -6.968  1.00  0.00     0.110 A 
HETATM    6  C9  UNL     1      21.174 -41.260  -7.455  1.00  0.00    -0.022 A 
HETATM    7  C14 UNL     1      22.074 -40.366  -6.969  1.00  0.00     0.073 A 
HETATM    8  C15 UNL     1      23.451 -40.385  -7.224  1.00  0.00     0.273 C 
HETATM    9  O4  UNL     1      23.877 -41.503  -7.518  1.00  0.00    -0.267 OA
HETATM   10  N3  UNL     1      24.330 -39.362  -7.188  1.00  0.00    -0.155 N 
ATOM     11  H3  UNL     1      25.279 -39.555  -7.507  1.00  0.00     0.187 HD
HETATM   12  C16 UNL     1      24.065 -38.109  -6.768  1.00  0.00     0.681 C 
HETATM   13  N5  UNL     1      23.082 -37.688  -5.937  1.00  0.00    -0.154 N 
ATOM     14  H5  UNL     1      23.143 -36.722  -5.614  1.00  0.00     0.187 HD
HETATM   15  C17 UNL     1      22.025 -38.411  -5.487  1.00  0.00     0.288 C 
HETATM   16  O5  UNL     1      21.580 -38.162  -4.353  1.00  0.00    -0.265 OA
HETATM   17  C18 UNL     1      21.418 -39.409  -6.201  1.00  0.00     0.128 A 
ENDROOT
BRANCH   1  18
HETATM   18  C3  UNL     1      17.027 -38.162  -4.599  1.00  0.00     0.159 C 
BRANCH  18  19
HETATM   19  C2  UNL     1      15.860 -38.648  -3.900  1.00  0.00    -0.017 C 
HETATM   20  C1  UNL     1      14.694 -38.000  -3.901  1.00  0.00     0.008 C 
ENDBRANCH  18  19
ENDBRANCH   1  18
BRANCH   1  21
HETATM   21  C4  UNL     1      17.026 -40.281  -5.920  1.00  0.00     0.095 C 
BRANCH  21  22
HETATM   22  C5  UNL     1      16.298 -40.088  -7.181  1.00  0.00     0.007 C 
HETATM   23  C6  UNL     1      15.053 -39.776  -7.379  1.00  0.00     0.012 C 
ENDBRANCH  21  22
ENDBRANCH   1  21
BRANCH   6  24
HETATM   24  C10 UNL     1      21.425 -42.428  -8.321  1.00  0.00     0.068 C 
BRANCH  24  25
HETATM   25  C11 UNL     1      20.157 -43.088  -8.804  1.00  0.00     0.183 C 
BRANCH  25  26
HETATM   26  O2  UNL     1      19.911 -44.345  -8.269  1.00  0.00    -0.321 OA
BRANCH  26  27
HETATM   27  C12 UNL     1      19.722 -44.693  -6.966  1.00  0.00     0.254 C 
HETATM   28  C13 UNL     1      20.731 -45.567  -6.308  1.00  0.00     0.126 C 
HETATM   29  O3  UNL     1      18.715 -44.269  -6.372  1.00  0.00    -0.266 OA
ENDBRANCH  26  27
ENDBRANCH  25  26
ENDBRANCH  24  25
ENDBRANCH   6  24
BRANCH  12  30
HETATM   30  N4  UNL     1      24.870 -37.214  -7.229  1.00  0.00    -0.234 N 
ATOM     31  H42 UNL     1      24.594 -36.238  -7.117  1.00  0.00     0.174 HD
ATOM     32  H41 UNL     1      25.714 -37.590  -7.662  1.00  0.00     0.174 HD
ENDBRANCH  12  30
TORSDOF 9
ENDMDL
MODEL 5
REMARK VINA RESULT: -8.227594590      1.418      1.865
REMARK  9 active torsions:
REMARK  status: ('A' for Active; 'I' for Inactive)
REMARK    1  A    between atoms: C2_2  and  C3_3 
REMARK    2  A    between atoms: C3_3  and  N1_4 
REMARK    3  A    between atoms: N1_4  and  C4_5 
REMARK       I    between atoms: N1_4  and  C7_8 
REMARK    4  A    between atoms: C4_5  and  C5_6 
REMARK       I    between atoms: C7_8  and  N2_10 
REMARK    5  A    between atoms: C9_12  and  C10_13 
REMARK    6  A    between atoms: C10_13  and  C11_14 
REMARK    7  A    between atoms: C11_14  and  O2_15 
REMARK    8  A    between atoms: O2_15  and  C12_16 
REMARK    9  A    between atoms: C16_24  and  N4_25 
ROOT
HETATM    1  N1  UNL     1      18.181 -40.271  -5.685  1.00  0.00    -0.306 N 
HETATM    2  C7  UNL     1      19.443 -39.693  -5.693  1.00  0.00     0.333 C 
HETATM    3  O1  UNL     1      19.469 -38.484  -5.219  1.00  0.00    -0.246 OA
HETATM    4  N2  UNL     1      20.672 -40.220  -6.131  1.00  0.00    -0.268 N 
HETATM    5  C8  UNL     1      20.912 -41.422  -6.744  1.00  0.00     0.110 A 
HETATM    6  C9  UNL     1      22.261 -41.586  -7.009  1.00  0.00    -0.022 A 
HETATM    7  C14 UNL     1      22.836 -40.449  -6.539  1.00  0.00     0.073 A 
HETATM    8  C15 UNL     1      24.201 -40.143  -6.614  1.00  0.00     0.273 C 
HETATM    9  O4  UNL     1      24.920 -41.140  -6.698  1.00  0.00    -0.267 OA
HETATM   10  N3  UNL     1      24.796 -38.933  -6.606  1.00  0.00    -0.155 N 
ATOM     11  H3  UNL     1      25.802 -38.909  -6.774  1.00  0.00     0.187 HD
HETATM   12  C16 UNL     1      24.181 -37.753  -6.397  1.00  0.00     0.681 C 
HETATM   13  N5  UNL     1      23.008 -37.513  -5.761  1.00  0.00    -0.154 N 
ATOM     14  H5  UNL     1      22.788 -36.536  -5.566  1.00  0.00     0.187 HD
HETATM   15  C17 UNL     1      22.096 -38.433  -5.354  1.00  0.00     0.288 C 
HETATM   16  O5  UNL     1      21.434 -38.192  -4.330  1.00  0.00    -0.265 OA
HETATM   17  C18 UNL     1      21.861 -39.619  -5.997  1.00  0.00     0.128 A 
ENDROOT
BRANCH   1  18
HETATM   18  C3  UNL     1      17.106 -39.372  -5.144  1.00  0.00     0.159 C 
BRANCH  18  19
HETATM   19  C2  UNL     1      15.875 -39.388  -5.900  1.00  0.00    -0.017 C 
HETATM   20  C1  UNL     1      14.673 -39.300  -5.328  1.00  0.00     0.008 C 
ENDBRANCH  18  19
ENDBRANCH   1  18
BRANCH   1  21
HETATM   21  C4  UNL     1      17.812 -41.543  -6.155  1.00  0.00     0.095 C 
BRANCH  21  22
HETATM   22  C5  UNL     1      17.304 -42.535  -5.198  1.00  0.00     0.007 C 
HETATM   23  C6  UNL     1      17.005 -43.785  -5.381  1.00  0.00     0.012 C 
ENDBRANCH  21  22
ENDBRANCH   1  21
BRANCH   6  24
HETATM   24  C10 UNL     1      22.912 -42.733  -7.670  1.00  0.00     0.068 C 
BRANCH  24  25
HETATM   25  C11 UNL     1      22.035 -43.959  -7.726  1.00  0.00     0.183 C 
BRANCH  25  26
HETATM   26  O2  UNL     1      21.753 -44.420  -9.005  1.00  0.00    -0.321 OA
BRANCH  26  27
HETATM   27  C12 UNL     1      21.823 -43.746 -10.186  1.00  0.00     0.254 C 
HETATM   28  C13 UNL     1      23.088 -43.807 -10.967  1.00  0.00     0.126 C 
HETATM   29  O3  UNL     1      20.829 -43.105 -10.571  1.00  0.00    -0.266 OA
ENDBRANCH  26  27
ENDBRANCH  25  26
ENDBRANCH  24  25
ENDBRANCH   6  24
BRANCH  12  30
HETATM   30  N4  UNL     1      24.812 -36.733  -6.870  1.00  0.00    -0.234 N 
ATOM     31  H42 UNL     1      25.721 -36.517  -6.460  1.00  0.00     0.174 HD
ATOM     32  H41 UNL     1      24.322 -36.247  -7.622  1.00  0.00     0.174 HD
ENDBRANCH  12  30
TORSDOF 9
ENDMDL
