MODEL 1
REMARK VINA RESULT: -8.602914505      0.000      0.000
REMARK  10 active torsions:
REMARK  status: ('A' for Active; 'I' for Inactive)
REMARK    1  A    between atoms: C2_2  and  C3_3 
REMARK    2  A    between atoms: C3_3  and  C4_5 
REMARK    3  A    between atoms: C4_5  and  C5_6 
REMARK    4  A    between atoms: C5_6  and  C7_8 
REMARK    5  A    between atoms: C9_11  and  C10_12 
REMARK    6  A    between atoms: C10_12  and  O4_14 
REMARK    7  A    between atoms: C12_16  and  C13_17 
REMARK    8  A    between atoms: C13_17  and  C14_18 
REMARK    9  A    between atoms: C15_21  and  O6_22 
REMARK   10  A    between atoms: C19_27  and  O7_28 
ROOT
HETATM    1  C7  UNL     1      24.049 -40.269  -6.048  1.00  0.00     0.155 C 
HETATM    2  O2  UNL     1      22.751 -40.682  -6.066  1.00  0.00    -0.372 OA
HETATM    3  C8  UNL     1      21.872 -40.009  -6.854  1.00  0.00     0.168 C 
HETATM    4  C9  UNL     1      20.495 -40.437  -6.423  1.00  0.00     0.051 C 
HETATM    5  C12 UNL     1      20.227 -39.785  -5.322  1.00  0.00    -0.028 C 
HETATM    6  C15 UNL     1      21.389 -38.869  -4.957  1.00  0.00     0.155 C 
HETATM    7  C16 UNL     1      21.837 -38.575  -6.391  1.00  0.00     0.059 C 
HETATM    8  C17 UNL     1      23.156 -37.933  -6.492  1.00  0.00     0.022 C 
HETATM    9  C18 UNL     1      23.168 -37.117  -7.777  1.00  0.00     0.013 C 
HETATM   10  C19 UNL     1      24.302 -38.862  -6.384  1.00  0.00     0.151 C 
ENDROOT
BRANCH   1  11
HETATM   11  C5  UNL     1      24.825 -41.274  -6.882  1.00  0.00     0.020 C 
HETATM   12  C6  UNL     1      26.036 -41.819  -6.217  1.00  0.00     0.013 C 
BRANCH  11  13
HETATM   13  C4  UNL     1      23.837 -42.386  -7.163  1.00  0.00     0.085 C 
BRANCH  13  14
HETATM   14  C3  UNL     1      23.735 -42.760  -8.569  1.00  0.00     0.127 C 
HETATM   15  O1  UNL     1      24.491 -42.392  -9.434  1.00  0.00    -0.298 OA
BRANCH  14  16
HETATM   16  C2  UNL     1      22.617 -43.661  -8.971  1.00  0.00     0.074 C 
HETATM   17  C1  UNL     1      22.824 -44.271 -10.335  1.00  0.00     0.013 C 
ENDBRANCH  14  16
ENDBRANCH  13  14
ENDBRANCH  11  13
ENDBRANCH   1  11
BRANCH  10  18
HETATM   18  O7  UNL     1      25.055 -38.710  -7.561  1.00  0.00    -0.393 OA
ATOM     19  H7  UNL     1      24.572 -38.956  -8.340  1.00  0.00     0.210 HD
ENDBRANCH  10  18
BRANCH   4  20
HETATM   20  C10 UNL     1      19.747 -41.411  -7.201  1.00  0.00     0.291 C 
HETATM   21  O3  UNL     1      19.547 -41.315  -8.426  1.00  0.00    -0.260 OA
BRANCH  20  22
HETATM   22  O4  UNL     1      19.186 -42.556  -6.609  1.00  0.00    -0.323 OA
HETATM   23  C11 UNL     1      19.577 -43.864  -6.986  1.00  0.00     0.213 C 
ENDBRANCH  20  22
ENDBRANCH   4  20
BRANCH   5  24
HETATM   24  C13 UNL     1      18.979 -39.891  -4.539  1.00  0.00     0.137 C 
BRANCH  24  25
HETATM   25  C14 UNL     1      17.917 -39.006  -5.118  1.00  0.00     0.235 C 
HETATM   26  N1  UNL     1      17.879 -37.657  -4.674  1.00  0.00    -0.062 NA
HETATM   27  O5  UNL     1      17.079 -39.397  -5.957  1.00  0.00    -0.277 OA
ENDBRANCH  24  25
ENDBRANCH   5  24
BRANCH   6  28
HETATM   28  O6  UNL     1      20.962 -37.759  -4.287  1.00  0.00    -0.391 OA
ATOM     29  H6  UNL     1      21.523 -37.562  -3.545  1.00  0.00     0.210 HD
ENDBRANCH   6  28
TORSDOF 10
ENDMDL
MODEL 2
REMARK VINA RESULT: -8.237103357      1.412      1.857
REMARK  10 active torsions:
REMARK  status: ('A' for Active; 'I' for Inactive)
REMARK    1  A    between atoms: C2_2  and  C3_3 
REMARK    2  A    between atoms: C3_3  and  C4_5 
REMARK    3  A    between atoms: C4_5  and  C5_6 
REMARK    4  A    between atoms: C5_6  and  C7_8 
REMARK    5  A    between atoms: C9_11  and  C10_12 
REMARK    6  A    between atoms: C10_12  and  O4_14 
REMARK    7  A    between atoms: C12_16  and  C13_17 
REMARK    8  A    between atoms: C13_17  and  C14_18 
REMARK    9  A    between atoms: C15_21  and  O6_22 
REMARK   10  A    between atoms: C19_27  and  O7_28 
ROOT
HETATM    1  C7  UNL     1      23.385 -41.095  -5.693  1.00  0.00     0.155 C 
HETATM    2  O2  UNL     1      22.024 -41.053  -5.699  1.00  0.00    -0.372 OA
HETATM    3  C8  UNL     1      21.409 -40.243  -6.600  1.00  0.00     0.168 C 
HETATM    4  C9  UNL     1      19.973 -40.128  -6.164  1.00  0.00     0.051 C 
HETATM    5  C12 UNL     1      19.950 -39.279  -5.170  1.00  0.00    -0.028 C 
HETATM    6  C15 UNL     1      21.355 -38.757  -4.892  1.00  0.00     0.155 C 
HETATM    7  C16 UNL     1      21.857 -38.829  -6.336  1.00  0.00     0.059 C 
HETATM    8  C17 UNL     1      23.314 -38.679  -6.477  1.00  0.00     0.022 C 
HETATM    9  C18 UNL     1      23.580 -38.099  -7.858  1.00  0.00     0.013 C 
HETATM   10  C19 UNL     1      24.087 -39.911  -6.205  1.00  0.00     0.151 C 
ENDROOT
BRANCH   1  11
HETATM   11  C5  UNL     1      23.772 -42.404  -6.357  1.00  0.00     0.020 C 
HETATM   12  C6  UNL     1      23.827 -43.568  -5.435  1.00  0.00     0.013 C 
BRANCH  11  13
HETATM   13  C4  UNL     1      22.716 -42.627  -7.417  1.00  0.00     0.085 C 
BRANCH  13  14
HETATM   14  C3  UNL     1      23.242 -43.018  -8.719  1.00  0.00     0.127 C 
HETATM   15  O1  UNL     1      24.203 -42.518  -9.251  1.00  0.00    -0.298 OA
BRANCH  14  16
HETATM   16  C2  UNL     1      22.546 -44.116  -9.451  1.00  0.00     0.074 C 
HETATM   17  C1  UNL     1      22.854 -44.116 -10.928  1.00  0.00     0.013 C 
ENDBRANCH  14  16
ENDBRANCH  13  14
ENDBRANCH  11  13
ENDBRANCH   1  11
BRANCH  10  18
HETATM   18  O7  UNL     1      24.833 -40.180  -7.366  1.00  0.00    -0.393 OA
ATOM     19  H7  UNL     1      24.302 -40.174  -8.153  1.00  0.00     0.210 HD
ENDBRANCH  10  18
BRANCH   4  20
HETATM   20  C10 UNL     1      18.934 -40.897  -6.829  1.00  0.00     0.291 C 
HETATM   21  O3  UNL     1      18.853 -42.139  -6.784  1.00  0.00    -0.260 OA
BRANCH  20  22
HETATM   22  O4  UNL     1      17.925 -40.276  -7.586  1.00  0.00    -0.323 OA
HETATM   23  C11 UNL     1      16.628 -40.048  -7.063  1.00  0.00     0.213 C 
ENDBRANCH  20  22
ENDBRANCH   4  20
BRANCH   5  24
HETATM   24  C13 UNL     1      18.748 -38.857  -4.424  1.00  0.00     0.137 C 
BRANCH  24  25
HETATM   25  C14 UNL     1      18.449 -39.822  -3.315  1.00  0.00     0.235 C 
HETATM   26  N1  UNL     1      17.452 -40.804  -3.557  1.00  0.00    -0.062 NA
HETATM   27  O5  UNL     1      19.029 -39.798  -2.210  1.00  0.00    -0.277 OA
ENDBRANCH  24  25
ENDBRANCH   5  24
BRANCH   6  28
HETATM   28  O6  UNL     1      21.330 -37.487  -4.392  1.00  0.00    -0.391 OA
ATOM     29  H6  UNL     1      21.768 -36.875  -4.970  1.00  0.00     0.210 HD
ENDBRANCH   6  28
TORSDOF 10
ENDMDL
MODEL 3
REMARK VINA RESULT: -8.200794259      1.258      1.439
REMARK  10 active torsions:
REMARK  status: ('A' for Active; 'I' for Inactive)
REMARK    1  A    between atoms: C2_2  and  C3_3 
REMARK    2  A    between atoms: C3_3  and  C4_5 
REMARK    3  A    between atoms: C4_5  and  C5_6 
REMARK    4  A    between atoms: C5_6  and  C7_8 
REMARK    5  A    between atoms: C9_11  and  C10_12 
REMARK    6  A    between atoms: C10_12  and  O4_14 
REMARK    7  A    between atoms: C12_16  and  C13_17 
REMARK    8  A    between atoms: C13_17  and  C14_18 
REMARK    9  A    between atoms: C15_21  and  O6_22 
REMARK   10  A    between atoms: C19_27  and  O7_28 
ROOT
HETATM    1  C7  UNL     1      23.491 -41.061  -5.729  1.00  0.00     0.155 C 
HETATM    2  O2  UNL     1      22.130 -41.084  -5.770  1.00  0.00    -0.372 OA
HETATM    3  C8  UNL     1      21.500 -40.306  -6.690  1.00  0.00     0.168 C 
HETATM    4  C9  UNL     1      20.050 -40.257  -6.290  1.00  0.00     0.051 C 
HETATM    5  C12 UNL     1      19.962 -39.407  -5.301  1.00  0.00    -0.028 C 
HETATM    6  C15 UNL     1      21.334 -38.819  -4.990  1.00  0.00     0.155 C 
HETATM    7  C16 UNL     1      21.875 -38.871  -6.420  1.00  0.00     0.059 C 
HETATM    8  C17 UNL     1      23.326 -38.654  -6.525  1.00  0.00     0.022 C 
HETATM    9  C18 UNL     1      23.600 -38.066  -7.901  1.00  0.00     0.013 C 
HETATM   10  C19 UNL     1      24.149 -39.847  -6.228  1.00  0.00     0.151 C 
ENDROOT
BRANCH   1  11
HETATM   11  C5  UNL     1      23.956 -42.353  -6.377  1.00  0.00     0.020 C 
HETATM   12  C6  UNL     1      24.126 -43.487  -5.433  1.00  0.00     0.013 C 
BRANCH  11  13
HETATM   13  C4  UNL     1      22.888 -42.678  -7.399  1.00  0.00     0.085 C 
BRANCH  13  14
HETATM   14  C3  UNL     1      23.399 -42.959  -8.735  1.00  0.00     0.127 C 
HETATM   15  O1  UNL     1      24.342 -42.403  -9.242  1.00  0.00    -0.298 OA
BRANCH  14  16
HETATM   16  C2  UNL     1      22.709 -44.010  -9.539  1.00  0.00     0.074 C 
HETATM   17  C1  UNL     1      23.008 -43.902 -11.014  1.00  0.00     0.013 C 
ENDBRANCH  14  16
ENDBRANCH  13  14
ENDBRANCH  11  13
ENDBRANCH   1  11
BRANCH  10  18
HETATM   18  O7  UNL     1      24.936 -40.084  -7.368  1.00  0.00    -0.393 OA
ATOM     19  H7  UNL     1      24.822 -39.421  -8.038  1.00  0.00     0.210 HD
ENDBRANCH  10  18
BRANCH   4  20
HETATM   20  C10 UNL     1      19.066 -41.076  -6.978  1.00  0.00     0.291 C 
HETATM   21  O3  UNL     1      18.452 -40.714  -7.999  1.00  0.00    -0.260 OA
BRANCH  20  22
HETATM   22  O4  UNL     1      18.733 -42.366  -6.528  1.00  0.00    -0.323 OA
HETATM   23  C11 UNL     1      19.447 -43.515  -6.947  1.00  0.00     0.213 C 
ENDBRANCH  20  22
ENDBRANCH   4  20
BRANCH   5  24
HETATM   24  C13 UNL     1      18.722 -39.040  -4.587  1.00  0.00     0.137 C 
BRANCH  24  25
HETATM   25  C14 UNL     1      18.475 -39.978  -3.444  1.00  0.00     0.235 C 
HETATM   26  N1  UNL     1      17.450 -40.950  -3.607  1.00  0.00    -0.062 NA
HETATM   27  O5  UNL     1      19.117 -39.942  -2.375  1.00  0.00    -0.277 OA
ENDBRANCH  24  25
ENDBRANCH   5  24
BRANCH   6  28
HETATM   28  O6  UNL     1      21.235 -37.550  -4.495  1.00  0.00    -0.391 OA
ATOM     29  H6  UNL     1      21.959 -37.006  -4.783  1.00  0.00     0.210 HD
ENDBRANCH   6  28
TORSDOF 10
ENDMDL
MODEL 4
REMARK VINA RESULT: -7.929919978      1.460      1.712
REMARK  10 active torsions:
REMARK  status: ('A' for Active; 'I' for Inactive)
REMARK    1  A    between atoms: C2_2  and  C3_3 
REMARK    2  A    between atoms: C3_3  and  C4_5 
REMARK    3  A    between atoms: C4_5  and  C5_6 
REMARK    4  A    between atoms: C5_6  and  C7_8 
REMARK    5  A    between atoms: C9_11  and  C10_12 
REMARK    6  A    between atoms: C10_12  and  O4_14 
REMARK    7  A    between atoms: C12_16  and  C13_17 
REMARK    8  A    between atoms: C13_17  and  C14_18 
REMARK    9  A    between atoms: C15_21  and  O6_22 
REMARK   10  A    between atoms: C19_27  and  O7_28 
ROOT
HETATM    1  C7  UNL     1      23.046 -40.603  -6.632  1.00  0.00     0.155 C 
HETATM    2  O2  UNL     1      21.746 -40.783  -6.267  1.00  0.00    -0.372 OA
HETATM    3  C8  UNL     1      20.826 -39.878  -6.694  1.00  0.00     0.168 C 
HETATM    4  C9  UNL     1      19.582 -40.114  -5.880  1.00  0.00     0.051 C 
HETATM    5  C12 UNL     1      19.789 -39.567  -4.711  1.00  0.00    -0.028 C 
HETATM    6  C15 UNL     1      21.166 -38.914  -4.673  1.00  0.00     0.155 C 
HETATM    7  C16 UNL     1      21.217 -38.527  -6.153  1.00  0.00     0.059 C 
HETATM    8  C17 UNL     1      22.548 -38.112  -6.622  1.00  0.00     0.022 C 
HETATM    9  C18 UNL     1      22.341 -37.158  -7.790  1.00  0.00     0.013 C 
HETATM   10  C19 UNL     1      23.464 -39.229  -6.939  1.00  0.00     0.151 C 
ENDROOT
BRANCH   1  11
HETATM   11  C5  UNL     1      23.321 -41.616  -7.730  1.00  0.00     0.020 C 
HETATM   12  C6  UNL     1      24.737 -42.057  -7.817  1.00  0.00     0.013 C 
BRANCH  11  13
HETATM   13  C4  UNL     1      22.426 -42.791  -7.404  1.00  0.00     0.085 C 
BRANCH  13  14
HETATM   14  C3  UNL     1      21.668 -43.304  -8.540  1.00  0.00     0.127 C 
HETATM   15  O1  UNL     1      20.618 -42.853  -8.926  1.00  0.00    -0.298 OA
BRANCH  14  16
HETATM   16  C2  UNL     1      22.228 -44.471  -9.282  1.00  0.00     0.074 C 
HETATM   17  C1  UNL     1      22.976 -44.063 -10.527  1.00  0.00     0.013 C 
ENDBRANCH  14  16
ENDBRANCH  13  14
ENDBRANCH  11  13
ENDBRANCH   1  11
BRANCH  10  18
HETATM   18  O7  UNL     1      23.849 -39.065  -8.281  1.00  0.00    -0.393 OA
ATOM     19  H7  UNL     1      24.382 -38.291  -8.418  1.00  0.00     0.210 HD
ENDBRANCH  10  18
BRANCH   4  20
HETATM   20  C10 UNL     1      18.458 -40.843  -6.444  1.00  0.00     0.291 C 
HETATM   21  O3  UNL     1      17.653 -40.356  -7.261  1.00  0.00    -0.260 OA
BRANCH  20  22
HETATM   22  O4  UNL     1      18.196 -42.181  -6.098  1.00  0.00    -0.323 OA
HETATM   23  C11 UNL     1      17.182 -42.532  -5.173  1.00  0.00     0.213 C 
ENDBRANCH  20  22
ENDBRANCH   4  20
BRANCH   5  24
HETATM   24  C13 UNL     1      18.834 -39.553  -3.584  1.00  0.00     0.137 C 
BRANCH  24  25
HETATM   25  C14 UNL     1      17.776 -38.514  -3.801  1.00  0.00     0.235 C 
HETATM   26  N1  UNL     1      16.445 -38.969  -3.998  1.00  0.00    -0.062 NA
HETATM   27  O5  UNL     1      18.011 -37.288  -3.817  1.00  0.00    -0.277 OA
ENDBRANCH  24  25
ENDBRANCH   5  24
BRANCH   6  28
HETATM   28  O6  UNL     1      21.188 -37.838  -3.832  1.00  0.00    -0.391 OA
ATOM     29  H6  UNL     1      22.077 -37.580  -3.620  1.00  0.00     0.210 HD
ENDBRANCH   6  28
TORSDOF 10
ENDMDL
MODEL 5
REMARK VINA RESULT: -7.785202565      2.436      5.525
REMARK  10 active torsions:
REMARK  status: ('A' for Active; 'I' for Inactive)
REMARK    1  A    between atoms: C2_2  and  C3_3 
REMARK    2  A    between atoms: C3_3  and  C4_5 
REMARK    3  A    between atoms: C4_5  and  C5_6 
REMARK    4  A    between atoms: C5_6  and  C7_8 
REMARK    5  A    between atoms: C9_11  and  C10_12 
REMARK    6  A    between atoms: C10_12  and  O4_14 
REMARK    7  A    between atoms: C12_16  and  C13_17 
REMARK    8  A    between atoms: C13_17  and  C14_18 
REMARK    9  A    between atoms: C15_21  and  O6_22 
REMARK   10  A    between atoms: C19_27  and  O7_28 
ROOT
HETATM    1  C7  UNL     1      22.637 -40.105  -6.968  1.00  0.00     0.155 C 
HETATM    2  O2  UNL     1      22.094 -41.337  -7.173  1.00  0.00    -0.372 OA
HETATM    3  C8  UNL     1      22.779 -42.424  -6.731  1.00  0.00     0.168 C 
HETATM    4  C9  UNL     1      22.144 -43.624  -7.381  1.00  0.00     0.051 C 
HETATM    5  C12 UNL     1      22.591 -43.665  -8.609  1.00  0.00    -0.028 C 
HETATM    6  C15 UNL     1      23.563 -42.517  -8.854  1.00  0.00     0.155 C 
HETATM    7  C16 UNL     1      24.114 -42.448  -7.427  1.00  0.00     0.059 C 
HETATM    8  C17 UNL     1      24.904 -41.240  -7.143  1.00  0.00     0.022 C 
HETATM    9  C18 UNL     1      25.899 -41.594  -6.048  1.00  0.00     0.013 C 
HETATM   10  C19 UNL     1      24.098 -40.039  -6.830  1.00  0.00     0.151 C 
ENDROOT
BRANCH   1  11
HETATM   11  C5  UNL     1      21.858 -39.484  -5.822  1.00  0.00     0.020 C 
HETATM   12  C6  UNL     1      21.597 -38.030  -5.974  1.00  0.00     0.013 C 
BRANCH  11  13
HETATM   13  C4  UNL     1      20.553 -40.249  -5.783  1.00  0.00     0.085 C 
BRANCH  13  14
HETATM   14  C3  UNL     1      19.614 -39.786  -4.768  1.00  0.00     0.127 C 
HETATM   15  O1  UNL     1      19.859 -39.712  -3.589  1.00  0.00    -0.298 OA
BRANCH  14  16
HETATM   16  C2  UNL     1      18.251 -39.374  -5.214  1.00  0.00     0.074 C 
HETATM   17  C1  UNL     1      17.949 -39.801  -6.628  1.00  0.00     0.013 C 
ENDBRANCH  14  16
ENDBRANCH  13  14
ENDBRANCH  11  13
ENDBRANCH   1  11
BRANCH  10  18
HETATM   18  O7  UNL     1      24.505 -39.603  -5.558  1.00  0.00    -0.393 OA
ATOM     19  H7  UNL     1      24.225 -40.187  -4.863  1.00  0.00     0.210 HD
ENDBRANCH  10  18
BRANCH   4  20
HETATM   20  C10 UNL     1      21.223 -44.467  -6.637  1.00  0.00     0.291 C 
HETATM   21  O3  UNL     1      21.581 -45.380  -5.870  1.00  0.00    -0.260 OA
BRANCH  20  22
HETATM   22  O4  UNL     1      19.829 -44.305  -6.734  1.00  0.00    -0.323 OA
HETATM   23  C11 UNL     1      18.932 -45.380  -6.524  1.00  0.00     0.213 C 
ENDBRANCH  20  22
ENDBRANCH   4  20
BRANCH   5  24
HETATM   24  C13 UNL     1      22.234 -44.679  -9.623  1.00  0.00     0.137 C 
BRANCH  24  25
HETATM   25  C14 UNL     1      20.930 -44.334 -10.277  1.00  0.00     0.235 C 
HETATM   26  N1  UNL     1      19.997 -45.388 -10.469  1.00  0.00    -0.062 NA
HETATM   27  O5  UNL     1      20.636 -43.181 -10.656  1.00  0.00    -0.277 OA
ENDBRANCH  24  25
ENDBRANCH   5  24
BRANCH   6  28
HETATM   28  O6  UNL     1      24.506 -42.847  -9.783  1.00  0.00    -0.391 OA
ATOM     29  H6  UNL     1      24.225 -42.623 -10.661  1.00  0.00     0.210 HD
ENDBRANCH   6  28
TORSDOF 10
ENDMDL
