MODEL 1
REMARK VINA RESULT: -7.313785614      0.000      0.000
REMARK  6 active torsions:
REMARK  status: ('A' for Active; 'I' for Inactive)
REMARK    1  A    between atoms: C3_5  and  N2_6 
REMARK    2  A    between atoms: N2_6  and  N3_8 
REMARK    3  A    between atoms: N3_8  and  C4_10 
REMARK    4  A    between atoms: C7_13  and  C8_14 
REMARK    5  A    between atoms: C17_27  and  C18_28 
REMARK    6  A    between atoms: C18_28  and  C19_29 
ROOT
HETATM    1  N2  UNL     1      14.324   8.202 -18.737  1.00  0.00    -0.131 N 
ATOM      2  H2  UNL     1      15.130   8.435 -18.157  1.00  0.00     0.205 HD
ENDROOT
BRANCH   1   3
HETATM    3  C3  UNL     1      13.483   9.114 -19.092  1.00  0.00     0.700 A 
HETATM    4  N1  UNL     1      13.765  10.418 -19.080  1.00  0.00    -0.190 N 
HETATM    5  C2  UNL     1      12.883  11.388 -19.454  1.00  0.00     0.055 A 
ATOM      6  H1  UNL     1      14.695  10.706 -18.774  1.00  0.00     0.184 HD
HETATM    7  C1  UNL     1      13.265  12.625 -19.404  1.00  0.00     0.044 C 
HETATM    8  C17 UNL     1      11.629  11.017 -19.870  1.00  0.00     0.061 A 
HETATM    9  C16 UNL     1      11.354   9.669 -19.876  1.00  0.00     0.272 A 
HETATM   10  N4  UNL     1      12.270   8.729 -19.491  1.00  0.00    -0.154 N 
HETATM   11  O1  UNL     1      10.236   9.226 -20.237  1.00  0.00    -0.267 OA
ATOM     12  H4  UNL     1      12.027   7.738 -19.509  1.00  0.00     0.187 HD
BRANCH   8  13
HETATM   13  C18 UNL     1      10.741  11.899 -20.240  1.00  0.00     0.056 C 
BRANCH  13  14
HETATM   14  C19 UNL     1       9.740  12.480 -19.365  1.00  0.00     0.076 A 
HETATM   15  C20 UNL     1       9.536  13.826 -19.159  1.00  0.00     0.039 A 
HETATM   16  C21 UNL     1       8.498  13.934 -18.271  1.00  0.00     0.027 A 
HETATM   17  C22 UNL     1       8.096  12.638 -17.959  1.00  0.00     0.142 A 
HETATM   18  O2  UNL     1       8.876  11.830 -18.644  1.00  0.00    -0.323 OA
ENDBRANCH  13  14
ENDBRANCH   8  13
ENDBRANCH   1   3
BRANCH   1  19
HETATM   19  N3  UNL     1      14.110   6.892 -19.162  1.00  0.00    -0.287 N 
ATOM     20  H3  UNL     1      13.273   6.385 -18.873  1.00  0.00     0.187 HD
BRANCH  19  21
HETATM   21  C4  UNL     1      15.073   6.271 -20.004  1.00  0.00     0.048 A 
HETATM   22  C5  UNL     1      15.328   4.915 -19.957  1.00  0.00     0.032 A 
HETATM   23  C6  UNL     1      16.269   4.341 -20.787  1.00  0.00     0.014 A 
HETATM   24  C7  UNL     1      16.997   5.080 -21.697  1.00  0.00    -0.026 A 
HETATM   25  C14 UNL     1      16.742   6.436 -21.744  1.00  0.00     0.014 A 
HETATM   26  C15 UNL     1      15.797   7.015 -20.912  1.00  0.00     0.032 A 
BRANCH  24  27
HETATM   27  C8  UNL     1      17.993   4.472 -22.575  1.00  0.00    -0.026 A 
HETATM   28  C9  UNL     1      18.657   3.336 -22.162  1.00  0.00     0.015 A 
HETATM   29  C10 UNL     1      19.605   2.728 -22.958  1.00  0.00     0.043 A 
HETATM   30  C11 UNL     1      19.908   3.259 -24.204  1.00  0.00     0.116 A 
HETATM   31  F1  UNL     1      20.843   2.673 -25.009  1.00  0.00    -0.206 F 
HETATM   32  C12 UNL     1      19.254   4.399 -24.640  1.00  0.00     0.043 A 
HETATM   33  C13 UNL     1      18.309   4.984 -23.817  1.00  0.00     0.015 A 
ENDBRANCH  24  27
ENDBRANCH  19  21
ENDBRANCH   1  19
TORSDOF 6
ENDMDL
MODEL 2
REMARK VINA RESULT: -7.271361899      7.276     11.136
REMARK  6 active torsions:
REMARK  status: ('A' for Active; 'I' for Inactive)
REMARK    1  A    between atoms: C3_5  and  N2_6 
REMARK    2  A    between atoms: N2_6  and  N3_8 
REMARK    3  A    between atoms: N3_8  and  C4_10 
REMARK    4  A    between atoms: C7_13  and  C8_14 
REMARK    5  A    between atoms: C17_27  and  C18_28 
REMARK    6  A    between atoms: C18_28  and  C19_29 
ROOT
HETATM    1  N2  UNL     1      17.226   5.243 -22.095  1.00  0.00    -0.131 N 
ATOM      2  H2  UNL     1      16.482   4.825 -21.537  1.00  0.00     0.205 HD
ENDROOT
BRANCH   1   3
HETATM    3  C3  UNL     1      17.984   4.510 -22.838  1.00  0.00     0.700 A 
HETATM    4  N1  UNL     1      18.864   3.633 -22.350  1.00  0.00    -0.190 N 
HETATM    5  C2  UNL     1      19.669   2.854 -23.129  1.00  0.00     0.055 A 
ATOM      6  H1  UNL     1      18.938   3.540 -21.337  1.00  0.00     0.184 HD
HETATM    7  C1  UNL     1      20.486   2.035 -22.547  1.00  0.00     0.044 C 
HETATM    8  C17 UNL     1      19.580   2.967 -24.493  1.00  0.00     0.061 A 
HETATM    9  C16 UNL     1      18.669   3.877 -24.980  1.00  0.00     0.272 A 
HETATM   10  N4  UNL     1      17.881   4.639 -24.161  1.00  0.00    -0.154 N 
HETATM   11  O1  UNL     1      18.512   4.057 -26.212  1.00  0.00    -0.267 OA
ATOM     12  H4  UNL     1      17.218   5.303 -24.562  1.00  0.00     0.187 HD
BRANCH   8  13
HETATM   13  C18 UNL     1      20.324   2.249 -25.290  1.00  0.00     0.056 C 
BRANCH  13  14
HETATM   14  C19 UNL     1      20.013   0.898 -25.713  1.00  0.00     0.076 A 
HETATM   15  C20 UNL     1      19.006   0.538 -26.581  1.00  0.00     0.039 A 
HETATM   16  C21 UNL     1      19.068  -0.825 -26.710  1.00  0.00     0.027 A 
HETATM   17  C22 UNL     1      20.120  -1.261 -25.910  1.00  0.00     0.142 A 
HETATM   18  O2  UNL     1      20.634  -0.186 -25.350  1.00  0.00    -0.323 OA
ENDBRANCH  13  14
ENDBRANCH   8  13
ENDBRANCH   1   3
BRANCH   1  19
HETATM   19  N3  UNL     1      17.444   6.620 -22.069  1.00  0.00    -0.287 N 
ATOM     20  H3  UNL     1      16.782   7.258 -22.510  1.00  0.00     0.187 HD
BRANCH  19  21
HETATM   21  C4  UNL     1      18.605   7.125 -21.418  1.00  0.00     0.048 A 
HETATM   22  C5  UNL     1      19.703   7.581 -22.120  1.00  0.00     0.032 A 
HETATM   23  C6  UNL     1      20.814   8.065 -21.461  1.00  0.00     0.014 A 
HETATM   24  C7  UNL     1      20.889   8.118 -20.084  1.00  0.00    -0.026 A 
HETATM   25  C14 UNL     1      19.791   7.662 -19.383  1.00  0.00     0.014 A 
HETATM   26  C15 UNL     1      18.673   7.175 -20.042  1.00  0.00     0.032 A 
BRANCH  24  27
HETATM   27  C8  UNL     1      22.065   8.630 -19.387  1.00  0.00    -0.026 A 
HETATM   28  C9  UNL     1      23.175   9.003 -20.116  1.00  0.00     0.015 A 
HETATM   29  C10 UNL     1      24.309   9.492 -19.501  1.00  0.00     0.043 A 
HETATM   30  C11 UNL     1      24.348   9.618 -18.119  1.00  0.00     0.116 A 
HETATM   31  F1  UNL     1      25.459  10.099 -17.488  1.00  0.00    -0.206 F 
HETATM   32  C12 UNL     1      23.245   9.249 -17.367  1.00  0.00     0.043 A 
HETATM   33  C13 UNL     1      22.125   8.762 -18.015  1.00  0.00     0.015 A 
ENDBRANCH  24  27
ENDBRANCH  19  21
ENDBRANCH   1  19
TORSDOF 6
ENDMDL
MODEL 3
REMARK VINA RESULT: -7.266692755      7.399     11.087
REMARK  6 active torsions:
REMARK  status: ('A' for Active; 'I' for Inactive)
REMARK    1  A    between atoms: C3_5  and  N2_6 
REMARK    2  A    between atoms: N2_6  and  N3_8 
REMARK    3  A    between atoms: N3_8  and  C4_10 
REMARK    4  A    between atoms: C7_13  and  C8_14 
REMARK    5  A    between atoms: C17_27  and  C18_28 
REMARK    6  A    between atoms: C18_28  and  C19_29 
ROOT
HETATM    1  N2  UNL     1      17.162   5.216 -22.073  1.00  0.00    -0.131 N 
ATOM      2  H2  UNL     1      16.448   4.768 -21.499  1.00  0.00     0.205 HD
ENDROOT
BRANCH   1   3
HETATM    3  C3  UNL     1      17.905   4.520 -22.865  1.00  0.00     0.700 A 
HETATM    4  N1  UNL     1      17.918   4.680 -24.189  1.00  0.00    -0.190 N 
HETATM    5  C2  UNL     1      18.700   3.948 -25.034  1.00  0.00     0.055 A 
ATOM      6  H1  UNL     1      17.309   5.391 -24.593  1.00  0.00     0.184 HD
HETATM    7  C1  UNL     1      18.633   4.190 -26.305  1.00  0.00     0.044 C 
HETATM    8  C17 UNL     1      19.526   2.989 -24.506  1.00  0.00     0.061 A 
HETATM    9  C16 UNL     1      19.500   2.835 -23.138  1.00  0.00     0.272 A 
HETATM   10  N4  UNL     1      18.698   3.591 -22.328  1.00  0.00    -0.154 N 
HETATM   11  O1  UNL     1      20.216   1.983 -22.557  1.00  0.00    -0.267 OA
ATOM     12  H4  UNL     1      18.707   3.446 -21.319  1.00  0.00     0.187 HD
BRANCH   8  13
HETATM   13  C18 UNL     1      20.297   2.256 -25.263  1.00  0.00     0.056 C 
BRANCH  13  14
HETATM   14  C19 UNL     1      20.004   0.895 -25.668  1.00  0.00     0.076 A 
HETATM   15  C20 UNL     1      19.040   0.517 -26.575  1.00  0.00     0.039 A 
HETATM   16  C21 UNL     1      19.103  -0.849 -26.668  1.00  0.00     0.027 A 
HETATM   17  C22 UNL     1      20.114  -1.267 -25.807  1.00  0.00     0.142 A 
HETATM   18  O2  UNL     1      20.602  -0.180 -25.249  1.00  0.00    -0.323 OA
ENDBRANCH  13  14
ENDBRANCH   8  13
ENDBRANCH   1   3
BRANCH   1  19
HETATM   19  N3  UNL     1      17.355   6.596 -22.016  1.00  0.00    -0.287 N 
ATOM     20  H3  UNL     1      16.663   7.232 -22.411  1.00  0.00     0.187 HD
BRANCH  19  21
HETATM   21  C4  UNL     1      18.531   7.105 -21.398  1.00  0.00     0.048 A 
HETATM   22  C5  UNL     1      19.592   7.601 -22.131  1.00  0.00     0.032 A 
HETATM   23  C6  UNL     1      20.719   8.089 -21.504  1.00  0.00     0.014 A 
HETATM   24  C7  UNL     1      20.849   8.107 -20.130  1.00  0.00    -0.026 A 
HETATM   25  C14 UNL     1      19.789   7.611 -19.399  1.00  0.00     0.014 A 
HETATM   26  C15 UNL     1      18.655   7.121 -20.025  1.00  0.00     0.032 A 
BRANCH  24  27
HETATM   27  C8  UNL     1      22.043   8.623 -19.467  1.00  0.00    -0.026 A 
HETATM   28  C9  UNL     1      22.060   8.732 -18.092  1.00  0.00     0.015 A 
HETATM   29  C10 UNL     1      23.166   9.214 -17.422  1.00  0.00     0.043 A 
HETATM   30  C11 UNL     1      24.293   9.600 -18.134  1.00  0.00     0.116 A 
HETATM   31  F1  UNL     1      25.399  10.080 -17.493  1.00  0.00    -0.206 F 
HETATM   32  C12 UNL     1      24.299   9.500 -19.515  1.00  0.00     0.043 A 
HETATM   33  C13 UNL     1      23.174   9.013 -20.155  1.00  0.00     0.015 A 
ENDBRANCH  24  27
ENDBRANCH  19  21
ENDBRANCH   1  19
TORSDOF 6
ENDMDL
MODEL 4
REMARK VINA RESULT: -7.235900301      0.863      1.734
REMARK  6 active torsions:
REMARK  status: ('A' for Active; 'I' for Inactive)
REMARK    1  A    between atoms: C3_5  and  N2_6 
REMARK    2  A    between atoms: N2_6  and  N3_8 
REMARK    3  A    between atoms: N3_8  and  C4_10 
REMARK    4  A    between atoms: C7_13  and  C8_14 
REMARK    5  A    between atoms: C17_27  and  C18_28 
REMARK    6  A    between atoms: C18_28  and  C19_29 
ROOT
HETATM    1  N2  UNL     1      14.305   8.337 -18.815  1.00  0.00    -0.131 N 
ATOM      2  H2  UNL     1      15.138   8.631 -18.306  1.00  0.00     0.205 HD
ENDROOT
BRANCH   1   3
HETATM    3  C3  UNL     1      13.409   9.197 -19.164  1.00  0.00     0.700 A 
HETATM    4  N1  UNL     1      12.201   8.856 -19.616  1.00  0.00    -0.190 N 
HETATM    5  C2  UNL     1      11.247   9.758 -19.987  1.00  0.00     0.055 A 
ATOM      6  H1  UNL     1      11.977   7.863 -19.689  1.00  0.00     0.184 HD
HETATM    7  C1  UNL     1      10.107   9.314 -20.412  1.00  0.00     0.044 C 
HETATM    8  C17 UNL     1      11.532  11.096 -19.895  1.00  0.00     0.061 A 
HETATM    9  C16 UNL     1      12.783  11.432 -19.427  1.00  0.00     0.272 A 
HETATM   10  N4  UNL     1      13.709  10.493 -19.067  1.00  0.00    -0.154 N 
HETATM   11  O1  UNL     1      13.142  12.629 -19.307  1.00  0.00    -0.267 OA
ATOM     12  H4  UNL     1      14.626  10.782 -18.725  1.00  0.00     0.187 HD
BRANCH   8  13
HETATM   13  C18 UNL     1      10.661  12.008 -20.235  1.00  0.00     0.056 C 
BRANCH  13  14
HETATM   14  C19 UNL     1       9.692  12.600 -19.334  1.00  0.00     0.076 A 
HETATM   15  C20 UNL     1       9.507  13.948 -19.125  1.00  0.00     0.039 A 
HETATM   16  C21 UNL     1       8.496  14.068 -18.208  1.00  0.00     0.027 A 
HETATM   17  C22 UNL     1       8.089  12.777 -17.882  1.00  0.00     0.142 A 
HETATM   18  O2  UNL     1       8.842  11.960 -18.586  1.00  0.00    -0.323 OA
ENDBRANCH  13  14
ENDBRANCH   8  13
ENDBRANCH   1   3
BRANCH   1  19
HETATM   19  N3  UNL     1      14.111   6.996 -19.147  1.00  0.00    -0.287 N 
ATOM     20  H3  UNL     1      13.294   6.492 -18.805  1.00  0.00     0.187 HD
BRANCH  19  21
HETATM   21  C4  UNL     1      15.070   6.343 -19.970  1.00  0.00     0.048 A 
HETATM   22  C5  UNL     1      15.325   4.989 -19.869  1.00  0.00     0.032 A 
HETATM   23  C6  UNL     1      16.261   4.383 -20.681  1.00  0.00     0.014 A 
HETATM   24  C7  UNL     1      16.983   5.084 -21.625  1.00  0.00    -0.026 A 
HETATM   25  C14 UNL     1      16.727   6.437 -21.725  1.00  0.00     0.014 A 
HETATM   26  C15 UNL     1      15.788   7.049 -20.911  1.00  0.00     0.032 A 
BRANCH  24  27
HETATM   27  C8  UNL     1      17.973   4.442 -22.485  1.00  0.00    -0.026 A 
HETATM   28  C9  UNL     1      18.265   4.997 -23.713  1.00  0.00     0.015 A 
HETATM   29  C10 UNL     1      19.194   4.425 -24.559  1.00  0.00     0.043 A 
HETATM   30  C11 UNL     1      19.856   3.267 -24.177  1.00  0.00     0.116 A 
HETATM   31  F1  UNL     1      20.779   2.683 -24.998  1.00  0.00    -0.206 F 
HETATM   32  C12 UNL     1      19.579   2.691 -22.949  1.00  0.00     0.043 A 
HETATM   33  C13 UNL     1      18.643   3.290 -22.126  1.00  0.00     0.015 A 
ENDBRANCH  24  27
ENDBRANCH  19  21
ENDBRANCH   1  19
TORSDOF 6
ENDMDL
MODEL 5
REMARK VINA RESULT: -7.192101253      2.401      3.200
REMARK  6 active torsions:
REMARK  status: ('A' for Active; 'I' for Inactive)
REMARK    1  A    between atoms: C3_5  and  N2_6 
REMARK    2  A    between atoms: N2_6  and  N3_8 
REMARK    3  A    between atoms: N3_8  and  C4_10 
REMARK    4  A    between atoms: C7_13  and  C8_14 
REMARK    5  A    between atoms: C17_27  and  C18_28 
REMARK    6  A    between atoms: C18_28  and  C19_29 
ROOT
HETATM    1  N2  UNL     1      16.372   6.952 -18.913  1.00  0.00    -0.131 N 
ATOM      2  H2  UNL     1      16.108   6.312 -18.165  1.00  0.00     0.205 HD
ENDROOT
BRANCH   1   3
HETATM    3  C3  UNL     1      15.504   7.756 -19.428  1.00  0.00     0.700 A 
HETATM    4  N1  UNL     1      15.400   7.983 -20.739  1.00  0.00    -0.190 N 
HETATM    5  C2  UNL     1      14.486   8.831 -21.292  1.00  0.00     0.055 A 
ATOM      6  H1  UNL     1      16.042   7.493 -21.363  1.00  0.00     0.184 HD
HETATM    7  C1  UNL     1      14.474   8.974 -22.579  1.00  0.00     0.044 C 
HETATM    8  C17 UNL     1      13.617   9.495 -20.465  1.00  0.00     0.061 A 
HETATM    9  C16 UNL     1      13.737   9.251 -19.116  1.00  0.00     0.272 A 
HETATM   10  N4  UNL     1      14.671   8.392 -18.604  1.00  0.00    -0.154 N 
HETATM   11  O1  UNL     1      12.990   9.811 -18.276  1.00  0.00    -0.267 OA
ATOM     12  H4  UNL     1      14.729   8.239 -17.597  1.00  0.00     0.187 HD
BRANCH   8  13
HETATM   13  C18 UNL     1      12.720  10.320 -20.935  1.00  0.00     0.056 C 
BRANCH  13  14
HETATM   14  C19 UNL     1      11.350   9.959 -21.246  1.00  0.00     0.076 A 
HETATM   15  C20 UNL     1      10.787   9.951 -22.503  1.00  0.00     0.039 A 
HETATM   16  C21 UNL     1       9.487   9.546 -22.348  1.00  0.00     0.027 A 
HETATM   17  C22 UNL     1       9.294   9.317 -20.989  1.00  0.00     0.142 A 
HETATM   18  O2  UNL     1      10.439   9.582 -20.398  1.00  0.00    -0.323 OA
ENDBRANCH  13  14
ENDBRANCH   8  13
ENDBRANCH   1   3
BRANCH   1  19
HETATM   19  N3  UNL     1      17.678   6.976 -19.401  1.00  0.00    -0.287 N 
ATOM     20  H3  UNL     1      18.339   7.681 -19.074  1.00  0.00     0.187 HD
BRANCH  19  21
HETATM   21  C4  UNL     1      18.077   6.004 -20.360  1.00  0.00     0.048 A 
HETATM   22  C5  UNL     1      17.605   4.706 -20.332  1.00  0.00     0.032 A 
HETATM   23  C6  UNL     1      18.009   3.786 -21.276  1.00  0.00     0.014 A 
HETATM   24  C7  UNL     1      18.894   4.105 -22.286  1.00  0.00    -0.026 A 
HETATM   25  C14 UNL     1      19.365   5.402 -22.313  1.00  0.00     0.014 A 
HETATM   26  C15 UNL     1      18.961   6.330 -21.366  1.00  0.00     0.032 A 
BRANCH  24  27
HETATM   27  C8  UNL     1      19.322   3.130 -23.285  1.00  0.00    -0.026 A 
HETATM   28  C9  UNL     1      20.131   2.080 -22.904  1.00  0.00     0.015 A 
HETATM   29  C10 UNL     1      20.560   1.135 -23.813  1.00  0.00     0.043 A 
HETATM   30  C11 UNL     1      20.175   1.230 -25.143  1.00  0.00     0.116 A 
HETATM   31  F1  UNL     1      20.587   0.306 -26.061  1.00  0.00    -0.206 F 
HETATM   32  C12 UNL     1      19.364   2.275 -25.549  1.00  0.00     0.043 A 
HETATM   33  C13 UNL     1      18.952   3.206 -24.612  1.00  0.00     0.015 A 
ENDBRANCH  24  27
ENDBRANCH  19  21
ENDBRANCH   1  19
TORSDOF 6
ENDMDL
