MODEL 1
REMARK VINA RESULT: -7.280947039      0.000      0.000
REMARK  7 active torsions:
REMARK  status: ('A' for Active; 'I' for Inactive)
REMARK    1  A    between atoms: C2_2  and  N1_4 
REMARK    2  A    between atoms: N1_4  and  C4_6 
REMARK    3  A    between atoms: C5_9  and  N3_10 
REMARK    4  A    between atoms: N3_10  and  C6_12 
REMARK    5  A    between atoms: C6_12  and  C7_13 
REMARK    6  A    between atoms: C15_24  and  N5_25 
REMARK    7  A    between atoms: N5_25  and  C16_27 
ROOT
HETATM    1  C4  UNL     1      19.874  10.313 -19.498  1.00  0.00     0.707 A 
HETATM    2  N2  UNL     1      20.021   8.993 -19.691  1.00  0.00    -0.022 N 
ATOM      3  H2  UNL     1      20.863   8.525 -19.358  1.00  0.00     0.203 HD
HETATM    4  C5  UNL     1      19.073   8.286 -20.316  1.00  0.00     0.707 A 
HETATM    5  N4  UNL     1      17.948   8.893 -20.765  1.00  0.00    -0.021 N 
ATOM      6  H4  UNL     1      17.233   8.342 -21.241  1.00  0.00     0.203 HD
HETATM    7  C15 UNL     1      17.763  10.212 -20.592  1.00  0.00     0.712 A 
HETATM    8  N8  UNL     1      18.727  10.898 -19.962  1.00  0.00    -0.021 N 
ATOM      9  H8  UNL     1      18.600  11.900 -19.822  1.00  0.00     0.203 HD
ENDROOT
BRANCH   4  10
HETATM   10  N3  UNL     1      19.191   7.018 -20.514  1.00  0.00    -0.225 N 
ATOM     11  H3  UNL     1      20.100   6.579 -20.376  1.00  0.00     0.177 HD
BRANCH  10  12
HETATM   12  C6  UNL     1      18.086   6.206 -20.922  1.00  0.00     0.143 C 
BRANCH  12  13
HETATM   13  C7  UNL     1      17.191   5.783 -19.817  1.00  0.00     0.011 C 
HETATM   14  C8  UNL     1      17.472   4.382 -19.317  1.00  0.00     0.011 C 
HETATM   15  C9  UNL     1      16.046   3.933 -18.983  1.00  0.00    -0.010 C 
HETATM   16  C10 UNL     1      15.374   4.388 -20.292  1.00  0.00     0.013 C 
HETATM   17  C14 UNL     1      15.454   4.888 -18.009  1.00  0.00     0.048 C 
HETATM   18  C11 UNL     1      15.728   5.875 -20.115  1.00  0.00     0.031 C 
HETATM   19  C12 UNL     1      15.008   6.125 -18.806  1.00  0.00     0.104 C 
HETATM   20  C13 UNL     1      15.443   7.396 -18.146  1.00  0.00     0.052 C 
HETATM   21  F1  UNL     1      13.661   6.034 -18.993  1.00  0.00    -0.243 F 
ENDBRANCH  12  13
ENDBRANCH  10  12
ENDBRANCH   4  10
BRANCH   1  22
HETATM   22  N1  UNL     1      20.743  11.055 -18.906  1.00  0.00    -0.221 N 
ATOM     23  H1  UNL     1      20.502  12.004 -18.623  1.00  0.00     0.178 HD
BRANCH  22  24
HETATM   24  C2  UNL     1      22.061  10.531 -18.646  1.00  0.00     0.091 C 
HETATM   25  C1  UNL     1      22.428  10.698 -17.170  1.00  0.00     0.032 C 
HETATM   26  C3  UNL     1      23.049  11.278 -19.524  1.00  0.00     0.032 C 
ENDBRANCH  22  24
ENDBRANCH   1  22
BRANCH   7  27
HETATM   27  N5  UNL     1      16.683  10.764 -21.028  1.00  0.00    -0.188 N 
ATOM     28  H5  UNL     1      16.757  11.657 -21.515  1.00  0.00     0.184 HD
BRANCH  27  29
HETATM   29  C16 UNL     1      15.397  10.187 -20.862  1.00  0.00     0.083 A 
HETATM   30  C17 UNL     1      14.914   9.207 -21.707  1.00  0.00     0.138 A 
HETATM   31  N6  UNL     1      13.694   8.920 -21.243  1.00  0.00    -0.308 N 
HETATM   32  N7  UNL     1      13.389   9.639 -20.189  1.00  0.00    -0.306 N 
ATOM     33  H6  UNL     1      13.074   8.224 -21.658  1.00  0.00     0.186 HD
HETATM   34  C18 UNL     1      12.127   9.569 -19.440  1.00  0.00     0.177 C 
HETATM   35  C19 UNL     1      14.432  10.434 -19.934  1.00  0.00     0.141 A 
ENDBRANCH  27  29
ENDBRANCH   7  27
TORSDOF 7
ENDMDL
MODEL 2
REMARK VINA RESULT: -7.213412468      1.181      5.532
REMARK  7 active torsions:
REMARK  status: ('A' for Active; 'I' for Inactive)
REMARK    1  A    between atoms: C2_2  and  N1_4 
REMARK    2  A    between atoms: N1_4  and  C4_6 
REMARK    3  A    between atoms: C5_9  and  N3_10 
REMARK    4  A    between atoms: N3_10  and  C6_12 
REMARK    5  A    between atoms: C6_12  and  C7_13 
REMARK    6  A    between atoms: C15_24  and  N5_25 
REMARK    7  A    between atoms: N5_25  and  C16_27 
ROOT
HETATM    1  C4  UNL     1      17.595  10.207 -20.575  1.00  0.00     0.707 A 
HETATM    2  N2  UNL     1      17.778   8.898 -20.811  1.00  0.00    -0.022 N 
ATOM      3  H2  UNL     1      17.026   8.350 -21.229  1.00  0.00     0.203 HD
HETATM    4  C5  UNL     1      18.937   8.305 -20.505  1.00  0.00     0.707 A 
HETATM    5  N4  UNL     1      19.947   9.019 -19.949  1.00  0.00    -0.021 N 
ATOM      6  H4  UNL     1      20.826   8.555 -19.719  1.00  0.00     0.203 HD
HETATM    7  C15 UNL     1      19.804  10.330 -19.697  1.00  0.00     0.712 A 
HETATM    8  N8  UNL     1      18.632  10.900 -20.015  1.00  0.00    -0.021 N 
ATOM      9  H8  UNL     1      18.510  11.896 -19.830  1.00  0.00     0.203 HD
ENDROOT
BRANCH   4  10
HETATM   10  N3  UNL     1      19.138   7.051 -20.720  1.00  0.00    -0.225 N 
ATOM     11  H3  UNL     1      20.087   6.685 -20.656  1.00  0.00     0.177 HD
BRANCH  10  12
HETATM   12  C6  UNL     1      18.072   6.154 -21.047  1.00  0.00     0.143 C 
BRANCH  12  13
HETATM   13  C7  UNL     1      17.216   5.770 -19.898  1.00  0.00     0.011 C 
HETATM   14  C8  UNL     1      17.540   4.402 -19.337  1.00  0.00     0.011 C 
HETATM   15  C9  UNL     1      16.134   3.942 -18.942  1.00  0.00    -0.010 C 
HETATM   16  C10 UNL     1      15.417   4.316 -20.253  1.00  0.00     0.013 C 
HETATM   17  C14 UNL     1      15.548   4.933 -18.000  1.00  0.00     0.048 C 
HETATM   18  C11 UNL     1      15.744   5.818 -20.159  1.00  0.00     0.031 C 
HETATM   19  C12 UNL     1      15.054   6.119 -18.845  1.00  0.00     0.104 C 
HETATM   20  C13 UNL     1      15.479   7.430 -18.261  1.00  0.00     0.052 C 
HETATM   21  F1  UNL     1      13.705   5.992 -18.989  1.00  0.00    -0.243 F 
ENDBRANCH  12  13
ENDBRANCH  10  12
ENDBRANCH   4  10
BRANCH   1  22
HETATM   22  N1  UNL     1      16.508  10.841 -20.845  1.00  0.00    -0.221 N 
ATOM     23  H1  UNL     1      16.524  11.851 -20.984  1.00  0.00     0.178 HD
BRANCH  22  24
HETATM   24  C2  UNL     1      15.269  10.111 -20.947  1.00  0.00     0.091 C 
HETATM   25  C1  UNL     1      14.735  10.151 -22.380  1.00  0.00     0.032 C 
HETATM   26  C3  UNL     1      14.270  10.739 -19.993  1.00  0.00     0.032 C 
ENDBRANCH  22  24
ENDBRANCH   1  22
BRANCH   7  27
HETATM   27  N5  UNL     1      20.779  10.986 -19.169  1.00  0.00    -0.188 N 
ATOM     28  H5  UNL     1      20.808  11.998 -19.293  1.00  0.00     0.184 HD
BRANCH  27  29
HETATM   29  C16 UNL     1      21.815  10.365 -18.423  1.00  0.00     0.083 A 
HETATM   30  C17 UNL     1      21.711  10.139 -17.064  1.00  0.00     0.138 A 
HETATM   31  N6  UNL     1      22.860   9.548 -16.723  1.00  0.00    -0.308 N 
HETATM   32  N7  UNL     1      23.657   9.395 -17.753  1.00  0.00    -0.306 N 
ATOM     33  H6  UNL     1      23.090   9.252 -15.774  1.00  0.00     0.186 HD
HETATM   34  C18 UNL     1      24.993   8.783 -17.720  1.00  0.00     0.177 C 
HETATM   35  C19 UNL     1      23.029   9.895 -18.821  1.00  0.00     0.141 A 
ENDBRANCH  27  29
ENDBRANCH   7  27
TORSDOF 7
ENDMDL
MODEL 3
REMARK VINA RESULT: -6.817709159      2.766      6.058
REMARK  7 active torsions:
REMARK  status: ('A' for Active; 'I' for Inactive)
REMARK    1  A    between atoms: C2_2  and  N1_4 
REMARK    2  A    between atoms: N1_4  and  C4_6 
REMARK    3  A    between atoms: C5_9  and  N3_10 
REMARK    4  A    between atoms: N3_10  and  C6_12 
REMARK    5  A    between atoms: C6_12  and  C7_13 
REMARK    6  A    between atoms: C15_24  and  N5_25 
REMARK    7  A    between atoms: N5_25  and  C16_27 
ROOT
HETATM    1  C4  UNL     1      16.743   8.060 -19.640  1.00  0.00     0.707 A 
HETATM    2  N2  UNL     1      17.889   8.734 -19.824  1.00  0.00    -0.022 N 
ATOM      3  H2  UNL     1      18.772   8.316 -19.531  1.00  0.00     0.203 HD
HETATM    4  C5  UNL     1      17.885   9.947 -20.387  1.00  0.00     0.707 A 
HETATM    5  N4  UNL     1      16.720  10.516 -20.781  1.00  0.00    -0.021 N 
ATOM      6  H4  UNL     1      16.730  11.442 -21.209  1.00  0.00     0.203 HD
HETATM    7  C15 UNL     1      15.551   9.876 -20.615  1.00  0.00     0.712 A 
HETATM    8  N8  UNL     1      15.583   8.661 -20.049  1.00  0.00    -0.021 N 
ATOM      9  H8  UNL     1      14.703   8.162 -19.917  1.00  0.00     0.203 HD
ENDROOT
BRANCH   4  10
HETATM   10  N3  UNL     1      18.971  10.614 -20.574  1.00  0.00    -0.225 N 
ATOM     11  H3  UNL     1      19.295  10.772 -21.528  1.00  0.00     0.177 HD
BRANCH  10  12
HETATM   12  C6  UNL     1      19.739  11.140 -19.487  1.00  0.00     0.143 C 
BRANCH  12  13
HETATM   13  C7  UNL     1      21.095  10.554 -19.351  1.00  0.00     0.011 C 
HETATM   14  C8  UNL     1      21.577   9.856 -20.605  1.00  0.00     0.011 C 
HETATM   15  C9  UNL     1      22.371   8.707 -19.976  1.00  0.00    -0.010 C 
HETATM   16  C10 UNL     1      21.310   8.258 -18.954  1.00  0.00     0.013 C 
HETATM   17  C14 UNL     1      23.413   9.274 -19.079  1.00  0.00     0.048 C 
HETATM   18  C11 UNL     1      21.265   9.604 -18.208  1.00  0.00     0.031 C 
HETATM   19  C12 UNL     1      22.712   9.669 -17.768  1.00  0.00     0.104 C 
HETATM   20  C13 UNL     1      23.113  11.038 -17.316  1.00  0.00     0.052 C 
HETATM   21  F1  UNL     1      22.963   8.691 -16.853  1.00  0.00    -0.243 F 
ENDBRANCH  12  13
ENDBRANCH  10  12
ENDBRANCH   4  10
BRANCH   1  22
HETATM   22  N1  UNL     1      16.673   6.892 -19.106  1.00  0.00    -0.221 N 
ATOM     23  H1  UNL     1      16.825   6.774 -18.104  1.00  0.00     0.178 HD
BRANCH  22  24
HETATM   24  C2  UNL     1      16.377   5.751 -19.936  1.00  0.00     0.091 C 
HETATM   25  C1  UNL     1      15.079   5.077 -19.486  1.00  0.00     0.032 C 
HETATM   26  C3  UNL     1      17.539   4.780 -19.838  1.00  0.00     0.032 C 
ENDBRANCH  22  24
ENDBRANCH   1  22
BRANCH   7  27
HETATM   27  N5  UNL     1      14.458  10.439 -20.999  1.00  0.00    -0.188 N 
ATOM     28  H5  UNL     1      13.901   9.979 -21.720  1.00  0.00     0.184 HD
BRANCH  27  29
HETATM   29  C16 UNL     1      13.992  11.670 -20.466  1.00  0.00     0.083 A 
HETATM   30  C17 UNL     1      13.335  11.745 -19.253  1.00  0.00     0.138 A 
HETATM   31  N6  UNL     1      13.057  13.042 -19.091  1.00  0.00    -0.308 N 
HETATM   32  N7  UNL     1      13.485  13.765 -20.099  1.00  0.00    -0.306 N 
ATOM     33  H6  UNL     1      12.570  13.425 -18.281  1.00  0.00     0.186 HD
HETATM   34  C18 UNL     1      13.339  15.221 -20.233  1.00  0.00     0.177 C 
HETATM   35  C19 UNL     1      14.069  12.933 -20.966  1.00  0.00     0.141 A 
ENDBRANCH  27  29
ENDBRANCH   7  27
TORSDOF 7
ENDMDL
MODEL 4
REMARK VINA RESULT: -6.791355248      2.365      5.673
REMARK  7 active torsions:
REMARK  status: ('A' for Active; 'I' for Inactive)
REMARK    1  A    between atoms: C2_2  and  N1_4 
REMARK    2  A    between atoms: N1_4  and  C4_6 
REMARK    3  A    between atoms: C5_9  and  N3_10 
REMARK    4  A    between atoms: N3_10  and  C6_12 
REMARK    5  A    between atoms: C6_12  and  C7_13 
REMARK    6  A    between atoms: C15_24  and  N5_25 
REMARK    7  A    between atoms: N5_25  and  C16_27 
ROOT
HETATM    1  C4  UNL     1      19.327  11.213 -20.058  1.00  0.00     0.707 A 
HETATM    2  N2  UNL     1      18.125  10.639 -20.219  1.00  0.00    -0.022 N 
ATOM      3  H2  UNL     1      17.318  11.216 -20.456  1.00  0.00     0.203 HD
HETATM    4  C5  UNL     1      17.973   9.319 -20.070  1.00  0.00     0.707 A 
HETATM    5  N4  UNL     1      19.035   8.537 -19.755  1.00  0.00    -0.021 N 
ATOM      6  H4  UNL     1      18.907   7.531 -19.644  1.00  0.00     0.203 HD
HETATM    7  C15 UNL     1      20.256   9.072 -19.586  1.00  0.00     0.712 A 
HETATM    8  N8  UNL     1      20.380  10.398 -19.741  1.00  0.00    -0.021 N 
ATOM      9  H8  UNL     1      21.302  10.818 -19.617  1.00  0.00     0.203 HD
ENDROOT
BRANCH   4  10
HETATM   10  N3  UNL     1      16.830   8.744 -20.218  1.00  0.00    -0.225 N 
ATOM     11  H3  UNL     1      16.244   9.007 -21.010  1.00  0.00     0.177 HD
BRANCH  10  12
HETATM   12  C6  UNL     1      16.354   7.750 -19.305  1.00  0.00     0.143 C 
BRANCH  12  13
HETATM   13  C7  UNL     1      16.042   6.441 -19.930  1.00  0.00     0.011 C 
HETATM   14  C8  UNL     1      14.760   5.819 -19.418  1.00  0.00     0.011 C 
HETATM   15  C9  UNL     1      15.155   4.340 -19.451  1.00  0.00    -0.010 C 
HETATM   16  C10 UNL     1      16.522   4.475 -18.754  1.00  0.00     0.013 C 
HETATM   17  C14 UNL     1      15.571   3.982 -20.833  1.00  0.00     0.048 C 
HETATM   18  C11 UNL     1      17.123   5.412 -19.818  1.00  0.00     0.031 C 
HETATM   19  C12 UNL     1      17.009   4.495 -21.018  1.00  0.00     0.104 C 
HETATM   20  C13 UNL     1      17.174   5.224 -22.314  1.00  0.00     0.052 C 
HETATM   21  F1  UNL     1      17.850   3.433 -20.872  1.00  0.00    -0.243 F 
ENDBRANCH  12  13
ENDBRANCH  10  12
ENDBRANCH   4  10
BRANCH   1  22
HETATM   22  N1  UNL     1      19.546  12.474 -20.186  1.00  0.00    -0.221 N 
ATOM     23  H1  UNL     1      19.800  13.037 -19.374  1.00  0.00     0.178 HD
BRANCH  22  24
HETATM   24  C2  UNL     1      19.426  13.085 -21.486  1.00  0.00     0.091 C 
HETATM   25  C1  UNL     1      20.745  12.983 -22.255  1.00  0.00     0.032 C 
HETATM   26  C3  UNL     1      19.039  14.540 -21.292  1.00  0.00     0.032 C 
ENDBRANCH  22  24
ENDBRANCH   1  22
BRANCH   7  27
HETATM   27  N5  UNL     1      21.249   8.307 -19.287  1.00  0.00    -0.188 N 
ATOM     28  H5  UNL     1      21.226   7.336 -19.599  1.00  0.00     0.184 HD
BRANCH  27  29
HETATM   29  C16 UNL     1      22.373   8.753 -18.544  1.00  0.00     0.083 A 
HETATM   30  C17 UNL     1      22.354   8.850 -17.166  1.00  0.00     0.138 A 
HETATM   31  N6  UNL     1      23.569   9.297 -16.834  1.00  0.00    -0.308 N 
HETATM   32  N7  UNL     1      24.328   9.482 -17.887  1.00  0.00    -0.306 N 
ATOM     33  H6  UNL     1      23.870   9.473 -15.875  1.00  0.00     0.186 HD
HETATM   34  C18 UNL     1      25.715   9.966 -17.870  1.00  0.00     0.177 C 
HETATM   35  C19 UNL     1      23.606   9.151 -18.962  1.00  0.00     0.141 A 
ENDBRANCH  27  29
ENDBRANCH   7  27
TORSDOF 7
ENDMDL
MODEL 5
REMARK VINA RESULT: -6.788951495      2.400      5.825
REMARK  7 active torsions:
REMARK  status: ('A' for Active; 'I' for Inactive)
REMARK    1  A    between atoms: C2_2  and  N1_4 
REMARK    2  A    between atoms: N1_4  and  C4_6 
REMARK    3  A    between atoms: C5_9  and  N3_10 
REMARK    4  A    between atoms: N3_10  and  C6_12 
REMARK    5  A    between atoms: C6_12  and  C7_13 
REMARK    6  A    between atoms: C15_24  and  N5_25 
REMARK    7  A    between atoms: N5_25  and  C16_27 
ROOT
HETATM    1  C4  UNL     1      16.334   7.972 -19.595  1.00  0.00     0.707 A 
HETATM    2  N2  UNL     1      17.508   8.490 -19.989  1.00  0.00    -0.022 N 
ATOM      3  H2  UNL     1      18.354   7.923 -19.935  1.00  0.00     0.203 HD
HETATM    4  C5  UNL     1      17.580   9.743 -20.450  1.00  0.00     0.707 A 
HETATM    5  N4  UNL     1      16.465  10.511 -20.528  1.00  0.00    -0.021 N 
ATOM      6  H4  UNL     1      16.533  11.466 -20.881  1.00  0.00     0.203 HD
HETATM    7  C15 UNL     1      15.271  10.029 -20.144  1.00  0.00     0.712 A 
HETATM    8  N8  UNL     1      15.227   8.770 -19.685  1.00  0.00    -0.021 N 
ATOM      9  H8  UNL     1      14.327   8.391 -19.391  1.00  0.00     0.203 HD
ENDROOT
BRANCH   4  10
HETATM   10  N3  UNL     1      18.693  10.264 -20.834  1.00  0.00    -0.225 N 
ATOM     11  H3  UNL     1      19.003  10.117 -21.794  1.00  0.00     0.177 HD
BRANCH  10  12
HETATM   12  C6  UNL     1      19.512  11.044 -19.956  1.00  0.00     0.143 C 
BRANCH  12  13
HETATM   13  C7  UNL     1      20.839  10.450 -19.664  1.00  0.00     0.011 C 
HETATM   14  C8  UNL     1      21.524   9.876 -20.885  1.00  0.00     0.011 C 
HETATM   15  C9  UNL     1      22.228   8.674 -20.249  1.00  0.00    -0.010 C 
HETATM   16  C10 UNL     1      21.027   8.127 -19.454  1.00  0.00     0.013 C 
HETATM   17  C14 UNL     1      23.107   9.154 -19.150  1.00  0.00     0.048 C 
HETATM   18  C11 UNL     1      20.843   9.396 -18.602  1.00  0.00     0.031 C 
HETATM   19  C12 UNL     1      22.203   9.421 -17.935  1.00  0.00     0.104 C 
HETATM   20  C13 UNL     1      22.505  10.742 -17.299  1.00  0.00     0.052 C 
HETATM   21  F1  UNL     1      22.324   8.361 -17.088  1.00  0.00    -0.243 F 
ENDBRANCH  12  13
ENDBRANCH  10  12
ENDBRANCH   4  10
BRANCH   1  22
HETATM   22  N1  UNL     1      16.192   6.776 -19.142  1.00  0.00    -0.221 N 
ATOM     23  H1  UNL     1      16.688   6.483 -18.300  1.00  0.00     0.178 HD
BRANCH  22  24
HETATM   24  C2  UNL     1      15.325   5.855 -19.834  1.00  0.00     0.091 C 
HETATM   25  C1  UNL     1      15.162   4.561 -19.034  1.00  0.00     0.032 C 
HETATM   26  C3  UNL     1      15.934   5.563 -21.193  1.00  0.00     0.032 C 
ENDBRANCH  22  24
ENDBRANCH   1  22
BRANCH   7  27
HETATM   27  N5  UNL     1      14.227  10.780 -20.228  1.00  0.00    -0.188 N 
ATOM     28  H5  UNL     1      14.350  11.791 -20.184  1.00  0.00     0.184 HD
BRANCH  27  29
HETATM   29  C16 UNL     1      12.913  10.264 -20.379  1.00  0.00     0.083 A 
HETATM   30  C17 UNL     1      12.357  10.017 -21.619  1.00  0.00     0.138 A 
HETATM   31  N6  UNL     1      11.133   9.546 -21.361  1.00  0.00    -0.308 N 
HETATM   32  N7  UNL     1      10.892   9.485 -20.073  1.00  0.00    -0.306 N 
ATOM     33  H6  UNL     1      10.465   9.268 -22.080  1.00  0.00     0.186 HD
HETATM   34  C18 UNL     1       9.645   9.015 -19.455  1.00  0.00     0.177 C 
HETATM   35  C19 UNL     1      11.985   9.926 -19.443  1.00  0.00     0.141 A 
ENDBRANCH  27  29
ENDBRANCH   7  27
TORSDOF 7
ENDMDL
