MODEL 1
REMARK VINA RESULT: -7.267355126      0.000      0.000
REMARK  7 active torsions:
REMARK  status: ('A' for Active; 'I' for Inactive)
REMARK    1  A    between atoms: N1_2  and  C2_4 
REMARK    2  A    between atoms: C3_7  and  N3_8 
REMARK    3  A    between atoms: N3_8  and  C4_10 
REMARK    4  A    between atoms: C4_10  and  C5_11 
REMARK    5  A    between atoms: C8_14  and  N4_15 
REMARK    6  A    between atoms: C13_22  and  N6_23 
REMARK    7  A    between atoms: N6_23  and  C14_25 
ROOT
HETATM    1  C2  UNL     1      16.387   5.257 -20.013  1.00  0.00     0.706 A 
HETATM    2  N2  UNL     1      17.275   6.080 -19.416  1.00  0.00    -0.022 N 
ATOM      3  H2  UNL     1      17.121   6.381 -18.453  1.00  0.00     0.203 HD
HETATM    4  C3  UNL     1      18.360   6.503 -20.086  1.00  0.00     0.707 A 
HETATM    5  N5  UNL     1      18.539   6.091 -21.351  1.00  0.00    -0.021 N 
ATOM      6  H5  UNL     1      19.362   6.411 -21.862  1.00  0.00     0.203 HD
HETATM    7  C13 UNL     1      17.671   5.274 -21.966  1.00  0.00     0.711 A 
HETATM    8  N7  UNL     1      16.592   4.860 -21.283  1.00  0.00    -0.021 N 
ATOM      9  H7  UNL     1      15.919   4.237 -21.731  1.00  0.00     0.203 HD
ENDROOT
BRANCH   4  10
HETATM   10  N3  UNL     1      19.245   7.290 -19.572  1.00  0.00    -0.221 N 
ATOM     11  H3  UNL     1      19.373   7.272 -18.560  1.00  0.00     0.178 HD
BRANCH  10  12
HETATM   12  C4  UNL     1      20.056   8.187 -20.337  1.00  0.00     0.176 C 
BRANCH  12  13
HETATM   13  C5  UNL     1      21.338   8.511 -19.647  1.00  0.00    -0.040 A 
HETATM   14  C6  UNL     1      21.457   8.525 -18.282  1.00  0.00     0.011 A 
HETATM   15  C7  UNL     1      22.681   8.836 -17.737  1.00  0.00     0.030 A 
HETATM   16  C8  UNL     1      23.773   9.129 -18.536  1.00  0.00     0.029 A 
HETATM   17  C11 UNL     1      23.666   9.118 -19.908  1.00  0.00     0.030 A 
HETATM   18  C12 UNL     1      22.427   8.803 -20.458  1.00  0.00     0.011 A 
BRANCH  16  19
HETATM   19  N4  UNL     1      25.028   9.452 -17.964  1.00  0.00    -0.390 N 
HETATM   20  C9  UNL     1      25.380  10.860 -17.926  1.00  0.00     0.149 C 
HETATM   21  C10 UNL     1      25.912   8.427 -17.442  1.00  0.00     0.149 C 
ENDBRANCH  16  19
ENDBRANCH  12  13
ENDBRANCH  10  12
ENDBRANCH   4  10
BRANCH   1  22
HETATM   22  N1  UNL     1      15.362   4.881 -19.324  1.00  0.00    -0.229 N 
HETATM   23  C1  UNL     1      14.498   5.843 -18.668  1.00  0.00     0.165 C 
ATOM     24  H1  UNL     1      15.156   3.885 -19.239  1.00  0.00     0.177 HD
ENDBRANCH   1  22
BRANCH   7  25
HETATM   25  N6  UNL     1      17.871   4.892 -23.190  1.00  0.00    -0.191 N 
ATOM     26  H6  UNL     1      17.419   5.403 -23.949  1.00  0.00     0.184 HD
BRANCH  25  27
HETATM   27  C14 UNL     1      18.703   3.784 -23.506  1.00  0.00     0.050 A 
HETATM   28  C15 UNL     1      19.540   3.191 -22.583  1.00  0.00     0.033 A 
HETATM   29  C16 UNL     1      20.339   2.107 -22.933  1.00  0.00     0.045 A 
HETATM   30  C17 UNL     1      20.325   1.587 -24.209  1.00  0.00     0.122 A 
HETATM   31  F1  UNL     1      21.114   0.525 -24.535  1.00  0.00    -0.206 F 
HETATM   32  C18 UNL     1      19.489   2.174 -25.146  1.00  0.00    -0.021 A 
HETATM   33  C19 UNL     1      19.448   1.643 -26.530  1.00  0.00     0.051 C 
HETATM   34  C20 UNL     1      18.708   3.242 -24.784  1.00  0.00     0.039 A 
ENDBRANCH  25  27
ENDBRANCH   7  25
TORSDOF 7
ENDMDL
MODEL 2
REMARK VINA RESULT: -7.217055201      3.955      8.332
REMARK  7 active torsions:
REMARK  status: ('A' for Active; 'I' for Inactive)
REMARK    1  A    between atoms: N1_2  and  C2_4 
REMARK    2  A    between atoms: C3_7  and  N3_8 
REMARK    3  A    between atoms: N3_8  and  C4_10 
REMARK    4  A    between atoms: C4_10  and  C5_11 
REMARK    5  A    between atoms: C8_14  and  N4_15 
REMARK    6  A    between atoms: C13_22  and  N6_23 
REMARK    7  A    between atoms: N6_23  and  C14_25 
ROOT
HETATM    1  C2  UNL     1      19.940  10.263 -19.241  1.00  0.00     0.706 A 
HETATM    2  N2  UNL     1      18.874  10.846 -19.828  1.00  0.00    -0.022 N 
ATOM      3  H2  UNL     1      18.798  11.863 -19.849  1.00  0.00     0.203 HD
HETATM    4  C3  UNL     1      17.913  10.089 -20.386  1.00  0.00     0.707 A 
HETATM    5  N5  UNL     1      18.037   8.753 -20.346  1.00  0.00    -0.021 N 
ATOM      6  H5  UNL     1      17.309   8.177 -20.769  1.00  0.00     0.203 HD
HETATM    7  C13 UNL     1      19.088   8.151 -19.768  1.00  0.00     0.711 A 
HETATM    8  N7  UNL     1      20.039   8.920 -19.215  1.00  0.00    -0.021 N 
ATOM      9  H7  UNL     1      20.847   8.483 -18.771  1.00  0.00     0.203 HD
ENDROOT
BRANCH   4  10
HETATM   10  N3  UNL     1      16.870  10.586 -20.962  1.00  0.00    -0.221 N 
ATOM     11  H3  UNL     1      16.693  11.585 -20.857  1.00  0.00     0.178 HD
BRANCH  10  12
HETATM   12  C4  UNL     1      15.946   9.818 -21.740  1.00  0.00     0.176 C 
BRANCH  12  13
HETATM   13  C5  UNL     1      14.572   9.838 -21.159  1.00  0.00    -0.040 A 
HETATM   14  C6  UNL     1      14.306   9.422 -19.880  1.00  0.00     0.011 A 
HETATM   15  C7  UNL     1      13.007   9.477 -19.432  1.00  0.00     0.030 A 
HETATM   16  C8  UNL     1      11.985   9.939 -20.243  1.00  0.00     0.029 A 
HETATM   17  C11 UNL     1      12.238  10.359 -21.529  1.00  0.00     0.030 A 
HETATM   18  C12 UNL     1      13.553  10.303 -21.980  1.00  0.00     0.011 A 
BRANCH  16  19
HETATM   19  N4  UNL     1      10.649   9.987 -19.773  1.00  0.00    -0.390 N 
HETATM   20  C9  UNL     1      10.121  11.301 -19.453  1.00  0.00     0.149 C 
HETATM   21  C10 UNL     1       9.852   8.784 -19.624  1.00  0.00     0.149 C 
ENDBRANCH  16  19
ENDBRANCH  12  13
ENDBRANCH  10  12
ENDBRANCH   4  10
BRANCH   1  22
HETATM   22  N1  UNL     1      20.834  11.035 -18.721  1.00  0.00    -0.229 N 
HETATM   23  C1  UNL     1      21.601  10.628 -17.559  1.00  0.00     0.165 C 
ATOM     24  H1  UNL     1      21.004  11.951 -19.136  1.00  0.00     0.177 HD
ENDBRANCH   1  22
BRANCH   7  25
HETATM   25  N6  UNL     1      19.180   6.856 -19.745  1.00  0.00    -0.191 N 
ATOM     26  H6  UNL     1      20.073   6.428 -19.498  1.00  0.00     0.184 HD
BRANCH  25  27
HETATM   27  C14 UNL     1      18.075   6.018 -20.053  1.00  0.00     0.050 A 
HETATM   28  C15 UNL     1      18.149   4.993 -20.975  1.00  0.00     0.033 A 
HETATM   29  C16 UNL     1      17.044   4.194 -21.248  1.00  0.00     0.045 A 
HETATM   30  C17 UNL     1      15.837   4.395 -20.611  1.00  0.00     0.122 A 
HETATM   31  F1  UNL     1      14.764   3.603 -20.890  1.00  0.00    -0.206 F 
HETATM   32  C18 UNL     1      15.750   5.421 -19.683  1.00  0.00    -0.021 A 
HETATM   33  C19 UNL     1      14.469   5.668 -18.979  1.00  0.00     0.051 C 
HETATM   34  C20 UNL     1      16.850   6.199 -19.426  1.00  0.00     0.039 A 
ENDBRANCH  25  27
ENDBRANCH   7  25
TORSDOF 7
ENDMDL
MODEL 3
REMARK VINA RESULT: -7.203923081      0.648      1.722
REMARK  7 active torsions:
REMARK  status: ('A' for Active; 'I' for Inactive)
REMARK    1  A    between atoms: N1_2  and  C2_4 
REMARK    2  A    between atoms: C3_7  and  N3_8 
REMARK    3  A    between atoms: N3_8  and  C4_10 
REMARK    4  A    between atoms: C4_10  and  C5_11 
REMARK    5  A    between atoms: C8_14  and  N4_15 
REMARK    6  A    between atoms: C13_22  and  N6_23 
REMARK    7  A    between atoms: N6_23  and  C14_25 
ROOT
HETATM    1  C2  UNL     1      16.383   5.371 -20.262  1.00  0.00     0.706 A 
HETATM    2  N2  UNL     1      17.323   5.986 -19.513  1.00  0.00    -0.022 N 
ATOM      3  H2  UNL     1      17.175   6.109 -18.511  1.00  0.00     0.203 HD
HETATM    4  C3  UNL     1      18.453   6.436 -20.085  1.00  0.00     0.707 A 
HETATM    5  N5  UNL     1      18.624   6.261 -21.405  1.00  0.00    -0.021 N 
ATOM      6  H5  UNL     1      19.481   6.602 -21.840  1.00  0.00     0.203 HD
HETATM    7  C13 UNL     1      17.704   5.653 -22.169  1.00  0.00     0.711 A 
HETATM    8  N7  UNL     1      16.580   5.209 -21.584  1.00  0.00    -0.021 N 
ATOM      9  H7  UNL     1      15.868   4.743 -22.146  1.00  0.00     0.203 HD
ENDROOT
BRANCH   4  10
HETATM   10  N3  UNL     1      19.389   7.032 -19.424  1.00  0.00    -0.221 N 
ATOM     11  H3  UNL     1      19.905   6.492 -18.730  1.00  0.00     0.178 HD
BRANCH  10  12
HETATM   12  C4  UNL     1      19.745   8.406 -19.608  1.00  0.00     0.176 C 
BRANCH  12  13
HETATM   13  C5  UNL     1      21.199   8.644 -19.381  1.00  0.00    -0.040 A 
HETATM   14  C6  UNL     1      22.102   8.729 -20.410  1.00  0.00     0.011 A 
HETATM   15  C7  UNL     1      23.424   8.949 -20.102  1.00  0.00     0.030 A 
HETATM   16  C8  UNL     1      23.845   9.083 -18.790  1.00  0.00     0.029 A 
HETATM   17  C11 UNL     1      22.949   8.999 -17.748  1.00  0.00     0.030 A 
HETATM   18  C12 UNL     1      21.612   8.777 -18.062  1.00  0.00     0.011 A 
BRANCH  16  19
HETATM   19  N4  UNL     1      25.211   9.305 -18.483  1.00  0.00    -0.390 N 
HETATM   20  C9  UNL     1      25.858   8.311 -17.647  1.00  0.00     0.149 C 
HETATM   21  C10 UNL     1      25.922  10.467 -18.982  1.00  0.00     0.149 C 
ENDBRANCH  16  19
ENDBRANCH  12  13
ENDBRANCH  10  12
ENDBRANCH   4  10
BRANCH   1  22
HETATM   22  N1  UNL     1      15.317   4.958 -19.663  1.00  0.00    -0.229 N 
HETATM   23  C1  UNL     1      14.498   5.856 -18.871  1.00  0.00     0.165 C 
ATOM     24  H1  UNL     1      15.044   3.978 -19.748  1.00  0.00     0.177 HD
ENDBRANCH   1  22
BRANCH   7  25
HETATM   25  N6  UNL     1      17.898   5.498 -23.443  1.00  0.00    -0.191 N 
ATOM     26  H6  UNL     1      17.596   6.233 -24.083  1.00  0.00     0.184 HD
BRANCH  25  27
HETATM   27  C14 UNL     1      18.517   4.334 -23.974  1.00  0.00     0.050 A 
HETATM   28  C15 UNL     1      18.339   3.922 -25.279  1.00  0.00     0.033 A 
HETATM   29  C16 UNL     1      18.964   2.776 -25.760  1.00  0.00     0.045 A 
HETATM   30  C17 UNL     1      19.781   2.011 -24.955  1.00  0.00     0.122 A 
HETATM   31  F1  UNL     1      20.385   0.892 -25.441  1.00  0.00    -0.206 F 
HETATM   32  C18 UNL     1      19.967   2.414 -23.642  1.00  0.00    -0.021 A 
HETATM   33  C19 UNL     1      20.838   1.617 -22.745  1.00  0.00     0.051 C 
HETATM   34  C20 UNL     1      19.344   3.547 -23.184  1.00  0.00     0.039 A 
ENDBRANCH  25  27
ENDBRANCH   7  25
TORSDOF 7
ENDMDL
MODEL 4
REMARK VINA RESULT: -7.202379943      0.681      1.340
REMARK  7 active torsions:
REMARK  status: ('A' for Active; 'I' for Inactive)
REMARK    1  A    between atoms: N1_2  and  C2_4 
REMARK    2  A    between atoms: C3_7  and  N3_8 
REMARK    3  A    between atoms: N3_8  and  C4_10 
REMARK    4  A    between atoms: C4_10  and  C5_11 
REMARK    5  A    between atoms: C8_14  and  N4_15 
REMARK    6  A    between atoms: C13_22  and  N6_23 
REMARK    7  A    between atoms: N6_23  and  C14_25 
ROOT
HETATM    1  C2  UNL     1      16.363   5.384 -20.347  1.00  0.00     0.706 A 
HETATM    2  N2  UNL     1      17.290   6.007 -19.591  1.00  0.00    -0.022 N 
ATOM      3  H2  UNL     1      17.129   6.133 -18.591  1.00  0.00     0.203 HD
HETATM    4  C3  UNL     1      18.423   6.463 -20.152  1.00  0.00     0.707 A 
HETATM    5  N5  UNL     1      18.609   6.284 -21.469  1.00  0.00    -0.021 N 
ATOM      6  H5  UNL     1      19.469   6.629 -21.897  1.00  0.00     0.203 HD
HETATM    7  C13 UNL     1      17.702   5.667 -22.241  1.00  0.00     0.711 A 
HETATM    8  N7  UNL     1      16.575   5.217 -21.666  1.00  0.00    -0.021 N 
ATOM      9  H7  UNL     1      15.873   4.745 -22.235  1.00  0.00     0.203 HD
ENDROOT
BRANCH   4  10
HETATM   10  N3  UNL     1      19.348   7.068 -19.483  1.00  0.00    -0.221 N 
ATOM     11  H3  UNL     1      19.812   6.555 -18.734  1.00  0.00     0.178 HD
BRANCH  10  12
HETATM   12  C4  UNL     1      19.759   8.416 -19.731  1.00  0.00     0.176 C 
BRANCH  12  13
HETATM   13  C5  UNL     1      21.189   8.640 -19.373  1.00  0.00    -0.040 A 
HETATM   14  C6  UNL     1      21.612   8.770 -18.076  1.00  0.00     0.011 A 
HETATM   15  C7  UNL     1      22.952   8.976 -17.843  1.00  0.00     0.030 A 
HETATM   16  C8  UNL     1      23.861   9.052 -18.885  1.00  0.00     0.029 A 
HETATM   17  C11 UNL     1      23.448   8.923 -20.192  1.00  0.00     0.030 A 
HETATM   18  C12 UNL     1      22.093   8.715 -20.425  1.00  0.00     0.011 A 
BRANCH  16  19
HETATM   19  N4  UNL     1      25.238   9.268 -18.635  1.00  0.00    -0.390 N 
HETATM   20  C9  UNL     1      25.835  10.436 -19.258  1.00  0.00     0.149 C 
HETATM   21  C10 UNL     1      26.009   8.369 -17.797  1.00  0.00     0.149 C 
ENDBRANCH  16  19
ENDBRANCH  12  13
ENDBRANCH  10  12
ENDBRANCH   4  10
BRANCH   1  22
HETATM   22  N1  UNL     1      15.292   4.965 -19.758  1.00  0.00    -0.229 N 
HETATM   23  C1  UNL     1      14.488   5.848 -18.936  1.00  0.00     0.165 C 
ATOM     24  H1  UNL     1      15.007   3.993 -19.874  1.00  0.00     0.177 HD
ENDBRANCH   1  22
BRANCH   7  25
HETATM   25  N6  UNL     1      17.911   5.508 -23.513  1.00  0.00    -0.191 N 
ATOM     26  H6  UNL     1      17.630   6.248 -24.157  1.00  0.00     0.184 HD
BRANCH  25  27
HETATM   27  C14 UNL     1      18.519   4.335 -24.034  1.00  0.00     0.050 A 
HETATM   28  C15 UNL     1      18.347   3.921 -25.340  1.00  0.00     0.033 A 
HETATM   29  C16 UNL     1      18.960   2.765 -25.812  1.00  0.00     0.045 A 
HETATM   30  C17 UNL     1      19.760   1.992 -24.997  1.00  0.00     0.122 A 
HETATM   31  F1  UNL     1      20.354   0.863 -25.476  1.00  0.00    -0.206 F 
HETATM   32  C18 UNL     1      19.941   2.397 -23.684  1.00  0.00    -0.021 A 
HETATM   33  C19 UNL     1      20.793   1.591 -22.777  1.00  0.00     0.051 C 
HETATM   34  C20 UNL     1      19.329   3.540 -23.235  1.00  0.00     0.039 A 
ENDBRANCH  25  27
ENDBRANCH   7  25
TORSDOF 7
ENDMDL
MODEL 5
REMARK VINA RESULT: -7.189125152      3.577      5.259
REMARK  7 active torsions:
REMARK  status: ('A' for Active; 'I' for Inactive)
REMARK    1  A    between atoms: N1_2  and  C2_4 
REMARK    2  A    between atoms: C3_7  and  N3_8 
REMARK    3  A    between atoms: N3_8  and  C4_10 
REMARK    4  A    between atoms: C4_10  and  C5_11 
REMARK    5  A    between atoms: C8_14  and  N4_15 
REMARK    6  A    between atoms: C13_22  and  N6_23 
REMARK    7  A    between atoms: N6_23  and  C14_25 
ROOT
HETATM    1  C2  UNL     1      14.399  11.064 -20.432  1.00  0.00     0.706 A 
HETATM    2  N2  UNL     1      15.732  11.071 -20.639  1.00  0.00    -0.022 N 
ATOM      3  H2  UNL     1      16.199  11.932 -20.923  1.00  0.00     0.203 HD
HETATM    4  C3  UNL     1      16.446   9.944 -20.473  1.00  0.00     0.707 A 
HETATM    5  N5  UNL     1      15.808   8.823 -20.099  1.00  0.00    -0.021 N 
ATOM      6  H5  UNL     1      16.348   7.967 -19.973  1.00  0.00     0.203 HD
HETATM    7  C13 UNL     1      14.483   8.793 -19.887  1.00  0.00     0.711 A 
HETATM    8  N7  UNL     1      13.784   9.927 -20.057  1.00  0.00    -0.021 N 
ATOM      9  H7  UNL     1      12.776   9.926 -19.900  1.00  0.00     0.203 HD
ENDROOT
BRANCH   4  10
HETATM   10  N3  UNL     1      17.723   9.884 -20.656  1.00  0.00    -0.221 N 
ATOM     11  H3  UNL     1      18.181  10.678 -21.103  1.00  0.00     0.178 HD
BRANCH  10  12
HETATM   12  C4  UNL     1      18.533   8.769 -20.270  1.00  0.00     0.176 C 
BRANCH  12  13
HETATM   13  C5  UNL     1      19.818   9.200 -19.647  1.00  0.00    -0.040 A 
HETATM   14  C6  UNL     1      20.140  10.518 -19.458  1.00  0.00     0.011 A 
HETATM   15  C7  UNL     1      21.350  10.818 -18.876  1.00  0.00     0.030 A 
HETATM   16  C8  UNL     1      22.228   9.822 -18.486  1.00  0.00     0.029 A 
HETATM   17  C11 UNL     1      21.917   8.494 -18.671  1.00  0.00     0.030 A 
HETATM   18  C12 UNL     1      20.693   8.193 -19.259  1.00  0.00     0.011 A 
BRANCH  16  19
HETATM   19  N4  UNL     1      23.474  10.142 -17.891  1.00  0.00    -0.390 N 
HETATM   20  C9  UNL     1      24.384   9.036 -17.658  1.00  0.00     0.149 C 
HETATM   21  C10 UNL     1      23.819  11.505 -17.537  1.00  0.00     0.149 C 
ENDBRANCH  16  19
ENDBRANCH  12  13
ENDBRANCH  10  12
ENDBRANCH   4  10
BRANCH   1  22
HETATM   22  N1  UNL     1      13.761  12.173 -20.605  1.00  0.00    -0.229 N 
HETATM   23  C1  UNL     1      12.957  12.756 -19.548  1.00  0.00     0.165 C 
ATOM     24  H1  UNL     1      13.824  12.650 -21.505  1.00  0.00     0.177 HD
ENDBRANCH   1  22
BRANCH   7  25
HETATM   25  N6  UNL     1      13.894   7.694 -19.526  1.00  0.00    -0.191 N 
ATOM     26  H6  UNL     1      12.875   7.670 -19.480  1.00  0.00     0.184 HD
BRANCH  25  27
HETATM   27  C14 UNL     1      14.626   6.523 -19.191  1.00  0.00     0.050 A 
HETATM   28  C15 UNL     1      14.847   6.127 -17.888  1.00  0.00     0.033 A 
HETATM   29  C16 UNL     1      15.570   4.973 -17.603  1.00  0.00     0.045 A 
HETATM   30  C17 UNL     1      16.090   4.184 -18.607  1.00  0.00     0.122 A 
HETATM   31  F1  UNL     1      16.795   3.057 -18.310  1.00  0.00    -0.206 F 
HETATM   32  C18 UNL     1      15.875   4.572 -19.920  1.00  0.00    -0.021 A 
HETATM   33  C19 UNL     1      16.420   3.750 -21.028  1.00  0.00     0.051 C 
HETATM   34  C20 UNL     1      15.160   5.713 -20.184  1.00  0.00     0.039 A 
ENDBRANCH  25  27
ENDBRANCH   7  25
TORSDOF 7
ENDMDL
