MODEL 1
REMARK VINA RESULT: -7.811241488      0.000      0.000
REMARK  2 active torsions:
REMARK  status: ('A' for Active; 'I' for Inactive)
REMARK    1  A    between atoms: N2_6  and  C4_8 
REMARK    2  A    between atoms: C4_8  and  C5_9 
ROOT
HETATM    1  C1  UNL     1      37.423  13.460 -11.317  1.00  0.00     0.049 C 
HETATM    2  C2  UNL     1      38.085  14.067 -12.281  1.00  0.00     0.109 A 
HETATM    3  N1  UNL     1      39.200  13.418 -12.898  1.00  0.00    -0.186 N 
ATOM      4  H1  UNL     1      39.472  12.487 -12.582  1.00  0.00     0.184 HD
HETATM    5  C3  UNL     1      39.935  14.038 -13.934  1.00  0.00     0.693 A 
HETATM    6  N2  UNL     1      40.914  13.445 -14.464  1.00  0.00    -0.218 N 
ATOM      7  H2  UNL     1      41.128  12.516 -14.100  1.00  0.00     0.178 HD
HETATM    8  N6  UNL     1      39.556  15.326 -14.367  1.00  0.00    -0.129 N 
ATOM      9  H6  UNL     1      40.084  15.775 -15.115  1.00  0.00     0.205 HD
HETATM   10  N7  UNL     1      38.466  16.007 -13.791  1.00  0.00    -0.250 N 
ATOM     11  H7  UNL     1      38.219  16.937 -14.128  1.00  0.00     0.191 HD
HETATM   12  C7  UNL     1      37.706  15.413 -12.747  1.00  0.00     0.286 A 
HETATM   13  O2  UNL     1      36.725  15.999 -12.212  1.00  0.00    -0.264 OA
ENDROOT
BRANCH   6  14
HETATM   14  C4  UNL     1      41.757  13.922 -15.512  1.00  0.00     0.216 C 
BRANCH  14  15
HETATM   15  C5  UNL     1      41.135  13.508 -16.817  1.00  0.00     0.118 A 
HETATM   16  N3  UNL     1      41.293  12.340 -17.473  1.00  0.00    -0.294 N 
HETATM   17  C6  UNL     1      40.572  12.361 -18.600  1.00  0.00     0.340 A 
ATOM     18  H3  UNL     1      41.872  11.562 -17.159  1.00  0.00     0.172 HD
HETATM   19  O1  UNL     1      40.530  11.397 -19.414  1.00  0.00    -0.245 OA
HETATM   20  N4  UNL     1      39.951  13.555 -18.657  1.00  0.00    -0.250 N 
HETATM   21  N5  UNL     1      40.299  14.247 -17.567  1.00  0.00    -0.283 N 
ATOM     22  H4  UNL     1      39.328  13.875 -19.399  1.00  0.00     0.192 HD
ATOM     23  H5  UNL     1      39.980  15.188 -17.340  1.00  0.00     0.188 HD
ENDBRANCH  14  15
ENDBRANCH   6  14
TORSDOF 2
ENDMDL
MODEL 2
REMARK VINA RESULT: -7.778178851      1.151      1.819
REMARK  2 active torsions:
REMARK  status: ('A' for Active; 'I' for Inactive)
REMARK    1  A    between atoms: N2_6  and  C4_8 
REMARK    2  A    between atoms: C4_8  and  C5_9 
ROOT
HETATM    1  C1  UNL     1      36.562  15.950 -12.557  1.00  0.00     0.049 C 
HETATM    2  C2  UNL     1      37.680  15.303 -12.814  1.00  0.00     0.109 A 
HETATM    3  N1  UNL     1      38.570  15.790 -13.822  1.00  0.00    -0.186 N 
ATOM      4  H1  UNL     1      38.327  16.637 -14.335  1.00  0.00     0.184 HD
HETATM    5  C3  UNL     1      39.778  15.121 -14.125  1.00  0.00     0.693 A 
HETATM    6  N2  UNL     1      40.548  15.570 -15.019  1.00  0.00    -0.218 N 
ATOM      7  H2  UNL     1      40.242  16.422 -15.489  1.00  0.00     0.178 HD
HETATM    8  N6  UNL     1      40.110  13.950 -13.414  1.00  0.00    -0.129 N 
ATOM      9  H6  UNL     1      40.982  13.466 -13.631  1.00  0.00     0.205 HD
HETATM   10  N7  UNL     1      39.268  13.430 -12.413  1.00  0.00    -0.250 N 
ATOM     11  H7  UNL     1      39.539  12.580 -11.918  1.00  0.00     0.191 HD
HETATM   12  C7  UNL     1      38.045  14.076 -12.083  1.00  0.00     0.286 A 
HETATM   13  O2  UNL     1      37.270  13.634 -11.190  1.00  0.00    -0.264 OA
ENDROOT
BRANCH   6  14
HETATM   14  C4  UNL     1      41.795  15.025 -15.448  1.00  0.00     0.216 C 
BRANCH  14  15
HETATM   15  C5  UNL     1      41.534  14.225 -16.694  1.00  0.00     0.118 A 
HETATM   16  N3  UNL     1      42.122  13.071 -17.073  1.00  0.00    -0.294 N 
HETATM   17  C6  UNL     1      41.615  12.677 -18.247  1.00  0.00     0.340 A 
ATOM     18  H3  UNL     1      42.841  12.575 -16.547  1.00  0.00     0.172 HD
HETATM   19  O1  UNL     1      41.980  11.626 -18.843  1.00  0.00    -0.245 OA
HETATM   20  N4  UNL     1      40.696  13.592 -18.615  1.00  0.00    -0.250 N 
HETATM   21  N5  UNL     1      40.653  14.531 -17.663  1.00  0.00    -0.283 N 
ATOM     22  H4  UNL     1      40.135  13.573 -19.466  1.00  0.00     0.192 HD
ATOM     23  H5  UNL     1      40.047  15.350 -17.670  1.00  0.00     0.188 HD
ENDBRANCH  14  15
ENDBRANCH   6  14
TORSDOF 2
ENDMDL
MODEL 3
REMARK VINA RESULT: -7.653400668      1.116      1.964
REMARK  2 active torsions:
REMARK  status: ('A' for Active; 'I' for Inactive)
REMARK    1  A    between atoms: N2_6  and  C4_8 
REMARK    2  A    between atoms: C4_8  and  C5_9 
ROOT
HETATM    1  C1  UNL     1      36.676  15.945 -12.639  1.00  0.00     0.049 C 
HETATM    2  C2  UNL     1      37.721  15.180 -12.880  1.00  0.00     0.109 A 
HETATM    3  N1  UNL     1      38.528  15.419 -14.037  1.00  0.00    -0.186 N 
ATOM      4  H1  UNL     1      38.283  16.183 -14.666  1.00  0.00     0.184 HD
HETATM    5  C3  UNL     1      39.656  14.618 -14.327  1.00  0.00     0.693 A 
HETATM    6  N2  UNL     1      40.353  14.849 -15.353  1.00  0.00    -0.218 N 
ATOM      7  H2  UNL     1      40.051  15.630 -15.937  1.00  0.00     0.178 HD
HETATM    8  N6  UNL     1      39.990  13.562 -13.455  1.00  0.00    -0.129 N 
ATOM      9  H6  UNL     1      40.805  12.984 -13.663  1.00  0.00     0.205 HD
HETATM   10  N7  UNL     1      39.228  13.286 -12.304  1.00  0.00    -0.250 N 
ATOM     11  H7  UNL     1      39.498  12.514 -11.694  1.00  0.00     0.191 HD
HETATM   12  C7  UNL     1      38.087  14.070 -11.981  1.00  0.00     0.286 A 
HETATM   13  O2  UNL     1      37.385  13.847 -10.957  1.00  0.00    -0.264 OA
ENDROOT
BRANCH   6  14
HETATM   14  C4  UNL     1      41.514  14.145 -15.793  1.00  0.00     0.216 C 
BRANCH  14  15
HETATM   15  C5  UNL     1      41.164  13.458 -17.085  1.00  0.00     0.118 A 
HETATM   16  N3  UNL     1      40.482  13.966 -18.132  1.00  0.00    -0.294 N 
HETATM   17  C6  UNL     1      40.379  13.037 -19.089  1.00  0.00     0.340 A 
ATOM     18  H3  UNL     1      40.104  14.912 -18.186  1.00  0.00     0.172 HD
HETATM   19  O1  UNL     1      39.788  13.236 -20.188  1.00  0.00    -0.245 OA
HETATM   20  N4  UNL     1      41.002  11.929 -18.642  1.00  0.00    -0.250 N 
HETATM   21  N5  UNL     1      41.478  12.195 -17.421  1.00  0.00    -0.283 N 
ATOM     22  H4  UNL     1      41.094  11.046 -19.145  1.00  0.00     0.192 HD
ATOM     23  H5  UNL     1      41.998  11.541 -16.836  1.00  0.00     0.188 HD
ENDBRANCH  14  15
ENDBRANCH   6  14
TORSDOF 2
ENDMDL
MODEL 4
REMARK VINA RESULT: -7.464111288      3.967      6.806
REMARK  2 active torsions:
REMARK  status: ('A' for Active; 'I' for Inactive)
REMARK    1  A    between atoms: N2_6  and  C4_8 
REMARK    2  A    between atoms: C4_8  and  C5_9 
ROOT
HETATM    1  C1  UNL     1      36.231  16.576 -21.381  1.00  0.00     0.049 C 
HETATM    2  C2  UNL     1      37.392  15.957 -21.309  1.00  0.00     0.109 A 
HETATM    3  N1  UNL     1      37.723  15.197 -20.143  1.00  0.00    -0.186 N 
ATOM      4  H1  UNL     1      37.052  15.143 -19.377  1.00  0.00     0.184 HD
HETATM    5  C3  UNL     1      38.958  14.521 -20.030  1.00  0.00     0.693 A 
HETATM    6  N2  UNL     1      39.228  13.856 -18.993  1.00  0.00    -0.218 N 
ATOM      7  H2  UNL     1      38.511  13.844 -18.267  1.00  0.00     0.178 HD
HETATM    8  N6  UNL     1      39.883  14.600 -21.092  1.00  0.00    -0.129 N 
ATOM      9  H6  UNL     1      40.775  14.111 -21.013  1.00  0.00     0.205 HD
HETATM   10  N7  UNL     1      39.604  15.335 -22.260  1.00  0.00    -0.250 N 
ATOM     11  H7  UNL     1      40.295  15.371 -23.010  1.00  0.00     0.191 HD
HETATM   12  C7  UNL     1      38.372  16.028 -22.408  1.00  0.00     0.286 A 
HETATM   13  O2  UNL     1      38.094  16.695 -23.442  1.00  0.00    -0.264 OA
ENDROOT
BRANCH   6  14
HETATM   14  C4  UNL     1      40.418  13.119 -18.716  1.00  0.00     0.216 C 
BRANCH  14  15
HETATM   15  C5  UNL     1      40.242  12.462 -17.375  1.00  0.00     0.118 A 
HETATM   16  N3  UNL     1      40.776  12.837 -16.194  1.00  0.00    -0.294 N 
HETATM   17  C6  UNL     1      40.379  11.991 -15.236  1.00  0.00     0.340 A 
ATOM     18  H3  UNL     1      41.387  13.641 -16.053  1.00  0.00     0.172 HD
HETATM   19  O1  UNL     1      40.727  12.100 -14.027  1.00  0.00    -0.245 OA
HETATM   20  N4  UNL     1      39.586  11.070 -15.818  1.00  0.00    -0.250 N 
HETATM   21  N5  UNL     1      39.507  11.365 -17.120  1.00  0.00    -0.283 N 
ATOM     22  H4  UNL     1      39.128  10.289 -15.349  1.00  0.00     0.192 HD
ATOM     23  H5  UNL     1      38.973  10.840 -17.811  1.00  0.00     0.188 HD
ENDBRANCH  14  15
ENDBRANCH   6  14
TORSDOF 2
ENDMDL
MODEL 5
REMARK VINA RESULT: -7.369777027      2.135      2.711
REMARK  2 active torsions:
REMARK  status: ('A' for Active; 'I' for Inactive)
REMARK    1  A    between atoms: N2_6  and  C4_8 
REMARK    2  A    between atoms: C4_8  and  C5_9 
ROOT
HETATM    1  C1  UNL     1      37.213  15.136 -12.279  1.00  0.00     0.049 C 
HETATM    2  C2  UNL     1      37.965  14.233 -12.875  1.00  0.00     0.109 A 
HETATM    3  N1  UNL     1      37.640  13.796 -14.197  1.00  0.00    -0.186 N 
ATOM      4  H1  UNL     1      36.825  14.190 -14.666  1.00  0.00     0.184 HD
HETATM    5  C3  UNL     1      38.423  12.829 -14.868  1.00  0.00     0.693 A 
HETATM    6  N2  UNL     1      38.118  12.459 -16.034  1.00  0.00    -0.218 N 
ATOM      7  H2  UNL     1      37.291  12.896 -16.443  1.00  0.00     0.178 HD
HETATM    8  N6  UNL     1      39.549  12.287 -14.215  1.00  0.00    -0.129 N 
ATOM      9  H6  UNL     1      40.116  11.589 -14.697  1.00  0.00     0.205 HD
HETATM   10  N7  UNL     1      39.911  12.684 -12.913  1.00  0.00    -0.250 N 
ATOM     11  H7  UNL     1      40.732  12.271 -12.470  1.00  0.00     0.191 HD
HETATM   12  C7  UNL     1      39.145  13.654 -12.209  1.00  0.00     0.286 A 
HETATM   13  O2  UNL     1      39.445  14.029 -11.042  1.00  0.00    -0.264 OA
ENDROOT
BRANCH   6  14
HETATM   14  C4  UNL     1      38.793  11.501 -16.849  1.00  0.00     0.216 C 
BRANCH  14  15
HETATM   15  C5  UNL     1      39.582  12.260 -17.880  1.00  0.00     0.118 A 
HETATM   16  N3  UNL     1      39.313  13.480 -18.392  1.00  0.00    -0.294 N 
HETATM   17  C6  UNL     1      40.255  13.804 -19.285  1.00  0.00     0.340 A 
ATOM     18  H3  UNL     1      38.517  14.063 -18.138  1.00  0.00     0.172 HD
HETATM   19  O1  UNL     1      40.259  14.893 -19.925  1.00  0.00    -0.245 OA
HETATM   20  N4  UNL     1      41.129  12.779 -19.339  1.00  0.00    -0.250 N 
HETATM   21  N5  UNL     1      40.711  11.844 -18.479  1.00  0.00    -0.283 N 
ATOM     22  H4  UNL     1      41.959  12.726 -19.929  1.00  0.00     0.192 HD
ATOM     23  H5  UNL     1      41.176  10.954 -18.305  1.00  0.00     0.188 HD
ENDBRANCH  14  15
ENDBRANCH   6  14
TORSDOF 2
ENDMDL
