MODEL 1
REMARK VINA RESULT: -7.841903447      0.000      0.000
REMARK  5 active torsions:
REMARK  status: ('A' for Active; 'I' for Inactive)
REMARK    1  A    between atoms: O1_2  and  C2_3 
REMARK    2  A    between atoms: C4_5  and  N1_6 
REMARK    3  A    between atoms: C5_11  and  N3_12 
REMARK       I    between atoms: N3_12  and  C6_14 
REMARK       I    between atoms: C6_14  and  N4_15 
REMARK    4  A    between atoms: N5_17  and  N6_19 
REMARK    5  A    between atoms: N7_22  and  N8_24 
ROOT
HETATM    1  N3  UNL     1      39.572  13.620 -15.105  1.00  0.00    -0.019 N 
ATOM      2  H3  UNL     1      39.376  13.885 -16.070  1.00  0.00     0.203 HD
HETATM    3  C6  UNL     1      40.624  12.701 -14.846  1.00  0.00     0.728 C 
HETATM    4  N4  UNL     1      40.293  11.370 -14.568  1.00  0.00    -0.116 N 
ATOM      5  H4  UNL     1      40.614  10.987 -13.679  1.00  0.00     0.207 HD
HETATM    6  N5  UNL     1      39.632  10.603 -15.320  1.00  0.00    -0.235 N 
ATOM      7  H5  UNL     1      39.463   9.653 -14.989  1.00  0.00     0.208 HD
HETATM    8  N7  UNL     1      41.845  13.101 -14.871  1.00  0.00    -0.116 N 
ATOM      9  H7  UNL     1      42.581  12.420 -14.682  1.00  0.00     0.207 HD
ENDROOT
BRANCH   1  10
HETATM   10  C5  UNL     1      38.850  14.136 -14.153  1.00  0.00     0.700 A 
HETATM   11  N2  UNL     1      38.393  13.288 -13.217  1.00  0.00    -0.176 N 
HETATM   12  C4  UNL     1      37.632  13.754 -12.193  1.00  0.00     0.118 A 
ATOM     13  H2  UNL     1      38.618  12.295 -13.276  1.00  0.00     0.186 HD
HETATM   14  C3  UNL     1      37.365  15.109 -12.170  1.00  0.00     0.105 A 
HETATM   15  C2  UNL     1      37.823  15.992 -13.118  1.00  0.00     0.160 A 
HETATM   16  N10 UNL     1      38.578  15.455 -14.113  1.00  0.00    -0.170 N 
ATOM     17  H10 UNL     1      38.946  16.063 -14.843  1.00  0.00     0.186 HD
BRANCH  12  18
HETATM   18  N1  UNL     1      37.188  12.937 -11.284  1.00  0.00    -0.385 N 
ATOM     19  H12 UNL     1      36.841  12.015 -11.548  1.00  0.00     0.157 HD
ATOM     20  H11 UNL     1      37.168  13.175 -10.292  1.00  0.00     0.157 HD
ENDBRANCH  12  18
BRANCH  15  21
HETATM   21  O1  UNL     1      37.585  17.336 -13.138  1.00  0.00    -0.340 OA
HETATM   22  C1  UNL     1      38.329  18.305 -13.792  1.00  0.00     0.211 C 
ENDBRANCH  15  21
ENDBRANCH   1  10
BRANCH   8  23
HETATM   23  N8  UNL     1      42.215  14.410 -15.143  1.00  0.00    -0.235 N 
HETATM   24  N9  UNL     1      42.595  15.232 -14.236  1.00  0.00    -0.330 N 
ATOM     25  H92 UNL     1      42.622  14.892 -13.276  1.00  0.00     0.178 HD
ATOM     26  H91 UNL     1      42.866  16.194 -14.436  1.00  0.00     0.178 HD
ATOM     27  H8  UNL     1      42.182  14.734 -16.110  1.00  0.00     0.208 HD
ENDBRANCH   8  23
BRANCH   6  28
HETATM   28  N6  UNL     1      39.120  10.945 -16.552  1.00  0.00    -0.330 N 
ATOM     29  H62 UNL     1      38.835  11.918 -16.669  1.00  0.00     0.178 HD
ATOM     30  H61 UNL     1      39.008  10.307 -17.340  1.00  0.00     0.178 HD
ENDBRANCH   6  28
TORSDOF 5
ENDMDL
MODEL 2
REMARK VINA RESULT: -7.669224864      1.071      2.826
REMARK  5 active torsions:
REMARK  status: ('A' for Active; 'I' for Inactive)
REMARK    1  A    between atoms: O1_2  and  C2_3 
REMARK    2  A    between atoms: C4_5  and  N1_6 
REMARK    3  A    between atoms: C5_11  and  N3_12 
REMARK       I    between atoms: N3_12  and  C6_14 
REMARK       I    between atoms: C6_14  and  N4_15 
REMARK    4  A    between atoms: N5_17  and  N6_19 
REMARK    5  A    between atoms: N7_22  and  N8_24 
ROOT
HETATM    1  N3  UNL     1      40.768  13.686 -14.379  1.00  0.00    -0.019 N 
ATOM      2  H3  UNL     1      41.618  13.518 -13.841  1.00  0.00     0.203 HD
HETATM    3  C6  UNL     1      40.771  13.406 -15.772  1.00  0.00     0.728 C 
HETATM    4  N4  UNL     1      40.894  14.474 -16.667  1.00  0.00    -0.116 N 
ATOM      5  H4  UNL     1      40.150  14.595 -17.353  1.00  0.00     0.207 HD
HETATM    6  N5  UNL     1      41.844  15.302 -16.698  1.00  0.00    -0.235 N 
ATOM      7  H5  UNL     1      41.805  16.036 -17.407  1.00  0.00     0.208 HD
HETATM    8  N7  UNL     1      40.662  12.192 -16.182  1.00  0.00    -0.116 N 
ATOM      9  H7  UNL     1      40.668  12.020 -17.188  1.00  0.00     0.207 HD
ENDROOT
BRANCH   1  10
HETATM   10  C5  UNL     1      39.717  14.149 -13.766  1.00  0.00     0.700 A 
HETATM   11  N2  UNL     1      39.127  13.331 -12.881  1.00  0.00    -0.176 N 
HETATM   12  C4  UNL     1      38.025  13.746 -12.204  1.00  0.00     0.118 A 
ATOM     13  H2  UNL     1      39.505  12.399 -12.717  1.00  0.00     0.186 HD
HETATM   14  C3  UNL     1      37.562  15.021 -12.470  1.00  0.00     0.105 A 
HETATM   15  C2  UNL     1      38.152  15.872 -13.372  1.00  0.00     0.160 A 
HETATM   16  N10 UNL     1      39.250  15.390 -14.012  1.00  0.00    -0.170 N 
ATOM     17  H10 UNL     1      39.731  15.979 -14.692  1.00  0.00     0.186 HD
BRANCH  12  18
HETATM   18  N1  UNL     1      37.449  12.957 -11.345  1.00  0.00    -0.385 N 
ATOM     19  H12 UNL     1      36.627  12.418 -11.615  1.00  0.00     0.157 HD
ATOM     20  H11 UNL     1      37.786  12.846 -10.389  1.00  0.00     0.157 HD
ENDBRANCH  12  18
BRANCH  15  21
HETATM   21  O1  UNL     1      37.732  17.137 -13.669  1.00  0.00    -0.340 OA
HETATM   22  C1  UNL     1      38.524  18.263 -13.823  1.00  0.00     0.211 C 
ENDBRANCH  15  21
ENDBRANCH   1  10
BRANCH   8  23
HETATM   23  N8  UNL     1      40.539  11.106 -15.329  1.00  0.00    -0.235 N 
HETATM   24  N9  UNL     1      39.507  10.346 -15.309  1.00  0.00    -0.330 N 
ATOM     25  H92 UNL     1      38.751  10.563 -15.957  1.00  0.00     0.178 HD
ATOM     26  H91 UNL     1      39.416   9.548 -14.681  1.00  0.00     0.178 HD
ATOM     27  H8  UNL     1      41.305  10.902 -14.686  1.00  0.00     0.208 HD
ENDBRANCH   8  23
BRANCH   6  28
HETATM   28  N6  UNL     1      42.933  15.297 -15.853  1.00  0.00    -0.330 N 
ATOM     29  H62 UNL     1      43.055  16.124 -15.269  1.00  0.00     0.178 HD
ATOM     30  H61 UNL     1      43.610  14.539 -15.772  1.00  0.00     0.178 HD
ENDBRANCH   6  28
TORSDOF 5
ENDMDL
MODEL 3
REMARK VINA RESULT: -7.658838000      1.206      2.164
REMARK  5 active torsions:
REMARK  status: ('A' for Active; 'I' for Inactive)
REMARK    1  A    between atoms: O1_2  and  C2_3 
REMARK    2  A    between atoms: C4_5  and  N1_6 
REMARK    3  A    between atoms: C5_11  and  N3_12 
REMARK       I    between atoms: N3_12  and  C6_14 
REMARK       I    between atoms: C6_14  and  N4_15 
REMARK    4  A    between atoms: N5_17  and  N6_19 
REMARK    5  A    between atoms: N7_22  and  N8_24 
ROOT
HETATM    1  N3  UNL     1      39.977  13.538 -14.766  1.00  0.00    -0.019 N 
ATOM      2  H3  UNL     1      40.877  13.992 -14.920  1.00  0.00     0.203 HD
HETATM    3  C6  UNL     1      39.707  12.309 -15.426  1.00  0.00     0.728 C 
HETATM    4  N4  UNL     1      38.887  12.328 -16.560  1.00  0.00    -0.116 N 
ATOM      5  H4  UNL     1      38.047  11.751 -16.535  1.00  0.00     0.207 HD
HETATM    6  N5  UNL     1      39.094  12.997 -17.608  1.00  0.00    -0.235 N 
ATOM      7  H5  UNL     1      38.409  12.916 -18.360  1.00  0.00     0.208 HD
HETATM    8  N7  UNL     1      40.214  11.216 -14.980  1.00  0.00    -0.116 N 
ATOM      9  H7  UNL     1      40.004  10.348 -15.474  1.00  0.00     0.207 HD
ENDROOT
BRANCH   1  10
HETATM   10  C5  UNL     1      39.115  14.103 -13.971  1.00  0.00     0.700 A 
HETATM   11  N2  UNL     1      38.599  13.335 -12.999  1.00  0.00    -0.176 N 
HETATM   12  C4  UNL     1      37.692  13.855 -12.132  1.00  0.00     0.118 A 
ATOM     13  H2  UNL     1      38.887  12.360 -12.912  1.00  0.00     0.186 HD
HETATM   14  C3  UNL     1      37.344  15.182 -12.303  1.00  0.00     0.105 A 
HETATM   15  C2  UNL     1      37.862  15.983 -13.291  1.00  0.00     0.160 A 
HETATM   16  N10 UNL     1      38.763  15.395 -14.121  1.00  0.00    -0.170 N 
ATOM     17  H10 UNL     1      39.181  15.943 -14.872  1.00  0.00     0.186 HD
BRANCH  12  18
HETATM   18  N1  UNL     1      37.189  13.115 -11.188  1.00  0.00    -0.385 N 
ATOM     19  H12 UNL     1      37.254  13.411 -10.215  1.00  0.00     0.157 HD
ATOM     20  H11 UNL     1      36.719  12.230 -11.376  1.00  0.00     0.157 HD
ENDBRANCH  12  18
BRANCH  15  21
HETATM   21  O1  UNL     1      37.549  17.296 -13.499  1.00  0.00    -0.340 OA
HETATM   22  C1  UNL     1      38.433  18.334 -13.751  1.00  0.00     0.211 C 
ENDBRANCH  15  21
ENDBRANCH   1  10
BRANCH   8  23
HETATM   23  N8  UNL     1      41.032  11.155 -13.861  1.00  0.00    -0.235 N 
HETATM   24  N9  UNL     1      40.782  10.408 -12.851  1.00  0.00    -0.330 N 
ATOM     25  H92 UNL     1      39.937   9.837 -12.887  1.00  0.00     0.178 HD
ATOM     26  H91 UNL     1      41.383  10.363 -12.028  1.00  0.00     0.178 HD
ATOM     27  H8  UNL     1      41.874  11.733 -13.841  1.00  0.00     0.208 HD
ENDBRANCH   8  23
BRANCH   6  28
HETATM   28  N6  UNL     1      40.172  13.829 -17.820  1.00  0.00    -0.330 N 
ATOM     29  H62 UNL     1      41.014  13.623 -17.283  1.00  0.00     0.178 HD
ATOM     30  H61 UNL     1      40.186  14.620 -18.464  1.00  0.00     0.178 HD
ENDBRANCH   6  28
TORSDOF 5
ENDMDL
MODEL 4
REMARK VINA RESULT: -7.526520058      2.483      4.850
REMARK  5 active torsions:
REMARK  status: ('A' for Active; 'I' for Inactive)
REMARK    1  A    between atoms: O1_2  and  C2_3 
REMARK    2  A    between atoms: C4_5  and  N1_6 
REMARK    3  A    between atoms: C5_11  and  N3_12 
REMARK       I    between atoms: N3_12  and  C6_14 
REMARK       I    between atoms: C6_14  and  N4_15 
REMARK    4  A    between atoms: N5_17  and  N6_19 
REMARK    5  A    between atoms: N7_22  and  N8_24 
ROOT
HETATM    1  N3  UNL     1      39.486  14.298 -13.564  1.00  0.00    -0.019 N 
ATOM      2  H3  UNL     1      40.309  14.676 -13.095  1.00  0.00     0.203 HD
HETATM    3  C6  UNL     1      38.202  14.556 -13.014  1.00  0.00     0.728 C 
HETATM    4  N4  UNL     1      37.575  13.543 -12.281  1.00  0.00    -0.116 N 
ATOM      5  H4  UNL     1      36.657  13.235 -12.604  1.00  0.00     0.207 HD
HETATM    6  N5  UNL     1      38.043  12.975 -11.258  1.00  0.00    -0.235 N 
ATOM      7  H5  UNL     1      37.475  12.248 -10.822  1.00  0.00     0.208 HD
HETATM    8  N7  UNL     1      37.646  15.701 -13.194  1.00  0.00    -0.116 N 
ATOM      9  H7  UNL     1      36.724  15.860 -12.787  1.00  0.00     0.207 HD
ENDROOT
BRANCH   1  10
HETATM   10  C5  UNL     1      39.648  13.595 -14.648  1.00  0.00     0.700 A 
HETATM   11  N2  UNL     1      39.403  12.279 -14.554  1.00  0.00    -0.176 N 
HETATM   12  C4  UNL     1      39.552  11.481 -15.643  1.00  0.00     0.118 A 
ATOM     13  H2  UNL     1      39.105  11.878 -13.665  1.00  0.00     0.186 HD
HETATM   14  C3  UNL     1      39.957  12.085 -16.818  1.00  0.00     0.105 A 
HETATM   15  C2  UNL     1      40.212  13.429 -16.934  1.00  0.00     0.160 A 
HETATM   16  N10 UNL     1      40.042  14.165 -15.803  1.00  0.00    -0.170 N 
ATOM     17  H10 UNL     1      40.217  15.170 -15.831  1.00  0.00     0.186 HD
BRANCH  12  18
HETATM   18  N1  UNL     1      39.315  10.205 -15.557  1.00  0.00    -0.385 N 
ATOM     19  H12 UNL     1      40.079   9.535 -15.640  1.00  0.00     0.157 HD
ATOM     20  H11 UNL     1      38.380   9.828 -15.405  1.00  0.00     0.157 HD
ENDBRANCH  12  18
BRANCH  15  21
HETATM   21  O1  UNL     1      40.614  14.071 -18.070  1.00  0.00    -0.340 OA
HETATM   22  C1  UNL     1      40.000  14.028 -19.312  1.00  0.00     0.211 C 
ENDBRANCH  15  21
ENDBRANCH   1  10
BRANCH   8  23
HETATM   23  N8  UNL     1      38.235  16.731 -13.912  1.00  0.00    -0.235 N 
HETATM   24  N9  UNL     1      37.873  17.956 -13.803  1.00  0.00    -0.330 N 
ATOM     25  H92 UNL     1      37.116  18.166 -13.153  1.00  0.00     0.178 HD
ATOM     26  H91 UNL     1      38.305  18.713 -14.332  1.00  0.00     0.178 HD
ATOM     27  H8  UNL     1      38.991  16.504 -14.558  1.00  0.00     0.208 HD
ENDBRANCH   8  23
BRANCH   6  28
HETATM   28  N6  UNL     1      39.262  13.259 -10.679  1.00  0.00    -0.330 N 
ATOM     29  H62 UNL     1      40.075  12.804 -11.094  1.00  0.00     0.178 HD
ATOM     30  H61 UNL     1      39.404  13.878  -9.882  1.00  0.00     0.178 HD
ENDBRANCH   6  28
TORSDOF 5
ENDMDL
MODEL 5
REMARK VINA RESULT: -7.335531121      2.895      4.524
REMARK  5 active torsions:
REMARK  status: ('A' for Active; 'I' for Inactive)
REMARK    1  A    between atoms: O1_2  and  C2_3 
REMARK    2  A    between atoms: C4_5  and  N1_6 
REMARK    3  A    between atoms: C5_11  and  N3_12 
REMARK       I    between atoms: N3_12  and  C6_14 
REMARK       I    between atoms: C6_14  and  N4_15 
REMARK    4  A    between atoms: N5_17  and  N6_19 
REMARK    5  A    between atoms: N7_22  and  N8_24 
ROOT
HETATM    1  N3  UNL     1      40.526  13.138 -14.221  1.00  0.00    -0.019 N 
ATOM      2  H3  UNL     1      41.121  12.430 -13.791  1.00  0.00     0.203 HD
HETATM    3  C6  UNL     1      39.117  13.030 -14.076  1.00  0.00     0.728 C 
HETATM    4  N4  UNL     1      38.372  12.536 -15.153  1.00  0.00    -0.116 N 
ATOM      5  H4  UNL     1      37.635  13.136 -15.523  1.00  0.00     0.207 HD
HETATM    6  N5  UNL     1      38.533  11.415 -15.707  1.00  0.00    -0.235 N 
ATOM      7  H5  UNL     1      37.917  11.184 -16.487  1.00  0.00     0.208 HD
HETATM    8  N7  UNL     1      38.556  13.382 -12.975  1.00  0.00    -0.116 N 
ATOM      9  H7  UNL     1      37.542  13.293 -12.898  1.00  0.00     0.207 HD
ENDROOT
BRANCH   1  10
HETATM   10  C5  UNL     1      41.083  14.111 -14.883  1.00  0.00     0.700 A 
HETATM   11  N2  UNL     1      40.637  14.323 -16.130  1.00  0.00    -0.176 N 
HETATM   12  C4  UNL     1      41.172  15.320 -16.882  1.00  0.00     0.118 A 
ATOM     13  H2  UNL     1      39.897  13.736 -16.514  1.00  0.00     0.186 HD
HETATM   14  C3  UNL     1      42.171  16.080 -16.304  1.00  0.00     0.105 A 
HETATM   15  C2  UNL     1      42.641  15.878 -15.030  1.00  0.00     0.160 A 
HETATM   16  N10 UNL     1      42.059  14.864 -14.337  1.00  0.00    -0.170 N 
ATOM     17  H10 UNL     1      42.367  14.669 -13.384  1.00  0.00     0.186 HD
BRANCH  12  18
HETATM   18  N1  UNL     1      40.744  15.530 -18.092  1.00  0.00    -0.385 N 
ATOM     19  H12 UNL     1      39.996  14.954 -18.478  1.00  0.00     0.157 HD
ATOM     20  H11 UNL     1      41.125  16.261 -18.691  1.00  0.00     0.157 HD
ENDBRANCH  12  18
BRANCH  15  21
HETATM   21  O1  UNL     1      43.624  16.601 -14.417  1.00  0.00    -0.340 OA
HETATM   22  C1  UNL     1      43.640  17.040 -13.103  1.00  0.00     0.211 C 
ENDBRANCH  15  21
ENDBRANCH   1  10
BRANCH   8  23
HETATM   23  N8  UNL     1      39.257  13.875 -11.885  1.00  0.00    -0.235 N 
HETATM   24  N9  UNL     1      39.203  13.345 -10.719  1.00  0.00    -0.330 N 
ATOM     25  H92 UNL     1      38.611  12.522 -10.605  1.00  0.00     0.178 HD
ATOM     26  H91 UNL     1      39.718  13.708  -9.918  1.00  0.00     0.178 HD
ATOM     27  H8  UNL     1      39.845  14.699 -12.016  1.00  0.00     0.208 HD
ENDBRANCH   8  23
BRANCH   6  28
HETATM   28  N6  UNL     1      39.474  10.477 -15.344  1.00  0.00    -0.330 N 
ATOM     29  H62 UNL     1      40.437  10.674 -15.616  1.00  0.00     0.178 HD
ATOM     30  H61 UNL     1      39.280   9.616 -14.833  1.00  0.00     0.178 HD
ENDBRANCH   6  28
TORSDOF 5
ENDMDL
