MODEL 1
REMARK VINA RESULT: -6.864378802      0.000      0.000
REMARK  5 active torsions:
REMARK  status: ('A' for Active; 'I' for Inactive)
REMARK    1  A    between atoms: C5_10  and  C6_11 
REMARK    2  A    between atoms: C6_11  and  O1_12 
REMARK    3  A    between atoms: N4_17  and  C8_18 
REMARK    4  A    between atoms: C8_18  and  C9_19 
REMARK    5  A    between atoms: C10_20  and  N5_21 
ROOT
HETATM    1  N1  UNL     1      39.503  10.261 -15.190  1.00  0.00    -0.388 N 
ATOM      2  H11 UNL     1      40.201   9.979 -14.501  1.00  0.00     0.157 HD
ATOM      3  H12 UNL     1      38.567   9.905 -15.383  1.00  0.00     0.157 HD
HETATM    4  C1  UNL     1      39.880  11.295 -15.925  1.00  0.00     0.090 C 
HETATM    5  C2  UNL     1      38.853  11.710 -16.937  1.00  0.00     0.197 C 
HETATM    6  N2  UNL     1      39.155  12.972 -17.554  1.00  0.00    -0.370 N 
ATOM      7  H2  UNL     1      38.614  13.447 -18.276  1.00  0.00     0.161 HD
HETATM    8  C3  UNL     1      40.377  13.430 -16.946  1.00  0.00     0.098 C 
HETATM    9  C4  UNL     1      41.536  13.330 -17.635  1.00  0.00     0.032 C 
HETATM   10  C5  UNL     1      42.548  13.787 -16.620  1.00  0.00     0.078 C 
HETATM   11  C7  UNL     1      41.775  13.137 -15.404  1.00  0.00     0.197 C 
HETATM   12  N3  UNL     1      41.228  11.807 -15.647  1.00  0.00    -0.357 N 
ATOM     13  H3  UNL     1      41.935  11.073 -15.616  1.00  0.00     0.163 HD
HETATM   14  N4  UNL     1      40.558  14.043 -15.684  1.00  0.00    -0.335 N 
ENDROOT
BRANCH  14  15
HETATM   15  C8  UNL     1      40.200  14.953 -14.646  1.00  0.00     0.222 C 
BRANCH  15  16
HETATM   16  C9  UNL     1      39.520  14.254 -13.538  1.00  0.00    -0.064 C 
HETATM   17  C10 UNL     1      38.958  13.696 -12.608  1.00  0.00     0.005 C 
BRANCH  17  18
HETATM   18  N5  UNL     1      38.327  13.074 -11.522  1.00  0.00    -0.359 N 
ATOM     19  H52 UNL     1      39.219  13.556 -11.632  1.00  0.00     0.166 HD
ATOM     20  H51 UNL     1      37.852  12.616 -10.745  1.00  0.00     0.166 HD
ENDBRANCH  17  18
ENDBRANCH  15  16
ENDBRANCH  14  15
BRANCH  10  21
HETATM   21  C6  UNL     1      42.794  15.179 -16.455  1.00  0.00     0.176 C 
BRANCH  21  22
HETATM   22  O1  UNL     1      44.175  15.516 -16.637  1.00  0.00    -0.400 OA
ATOM     23  H1  UNL     1      44.370  16.406 -16.370  1.00  0.00     0.209 HD
ENDBRANCH  21  22
ENDBRANCH  10  21
TORSDOF 5
ENDMDL
MODEL 2
REMARK VINA RESULT: -6.329115971      2.592      4.149
REMARK  5 active torsions:
REMARK  status: ('A' for Active; 'I' for Inactive)
REMARK    1  A    between atoms: C5_10  and  C6_11 
REMARK    2  A    between atoms: C6_11  and  O1_12 
REMARK    3  A    between atoms: N4_17  and  C8_18 
REMARK    4  A    between atoms: C8_18  and  C9_19 
REMARK    5  A    between atoms: C10_20  and  N5_21 
ROOT
HETATM    1  N1  UNL     1      39.596  13.717 -10.944  1.00  0.00    -0.388 N 
ATOM      2  H11 UNL     1      40.378  13.083 -10.780  1.00  0.00     0.157 HD
ATOM      3  H12 UNL     1      39.148  14.403 -10.336  1.00  0.00     0.157 HD
HETATM    4  C1  UNL     1      39.118  13.654 -12.176  1.00  0.00     0.090 C 
HETATM    5  C2  UNL     1      37.969  14.587 -12.416  1.00  0.00     0.197 C 
HETATM    6  N2  UNL     1      37.620  14.698 -13.806  1.00  0.00    -0.370 N 
ATOM      7  H2  UNL     1      36.868  15.258 -14.207  1.00  0.00     0.161 HD
HETATM    8  C3  UNL     1      38.547  13.857 -14.517  1.00  0.00     0.098 C 
HETATM    9  C4  UNL     1      38.130  12.654 -14.975  1.00  0.00     0.032 C 
HETATM   10  C5  UNL     1      39.402  12.068 -15.526  1.00  0.00     0.078 C 
HETATM   11  C7  UNL     1      40.307  12.715 -14.403  1.00  0.00     0.197 C 
HETATM   12  N3  UNL     1      39.763  12.666 -13.051  1.00  0.00    -0.357 N 
ATOM     13  H3  UNL     1      39.849  11.746 -12.620  1.00  0.00     0.163 HD
HETATM   14  N4  UNL     1      39.890  14.125 -14.869  1.00  0.00    -0.335 N 
ENDROOT
BRANCH  14  15
HETATM   15  C8  UNL     1      40.938  14.962 -15.353  1.00  0.00     0.222 C 
BRANCH  15  16
HETATM   16  C9  UNL     1      41.871  15.327 -14.268  1.00  0.00    -0.064 C 
HETATM   17  C10 UNL     1      42.660  15.617 -13.384  1.00  0.00     0.005 C 
BRANCH  17  18
HETATM   18  N5  UNL     1      43.582  15.926 -12.373  1.00  0.00    -0.359 N 
ATOM     19  H52 UNL     1      43.345  15.066 -12.867  1.00  0.00     0.166 HD
ATOM     20  H51 UNL     1      44.245  16.171 -11.639  1.00  0.00     0.166 HD
ENDBRANCH  17  18
ENDBRANCH  15  16
ENDBRANCH  14  15
BRANCH  10  21
HETATM   21  C6  UNL     1      39.813  12.403 -16.846  1.00  0.00     0.176 C 
BRANCH  21  22
HETATM   22  O1  UNL     1      39.524  11.363 -17.789  1.00  0.00    -0.400 OA
ATOM     23  H1  UNL     1      40.056  11.425 -18.574  1.00  0.00     0.209 HD
ENDBRANCH  21  22
ENDBRANCH  10  21
TORSDOF 5
ENDMDL
MODEL 3
REMARK VINA RESULT: -6.013151863      1.111      1.157
REMARK  5 active torsions:
REMARK  status: ('A' for Active; 'I' for Inactive)
REMARK    1  A    between atoms: C5_10  and  C6_11 
REMARK    2  A    between atoms: C6_11  and  O1_12 
REMARK    3  A    between atoms: N4_17  and  C8_18 
REMARK    4  A    between atoms: C8_18  and  C9_19 
REMARK    5  A    between atoms: C10_20  and  N5_21 
ROOT
HETATM    1  N1  UNL     1      39.597  10.582 -15.129  1.00  0.00    -0.388 N 
ATOM      2  H11 UNL     1      40.058  10.341 -14.252  1.00  0.00     0.157 HD
ATOM      3  H12 UNL     1      38.850  10.118 -15.647  1.00  0.00     0.157 HD
HETATM    4  C1  UNL     1      40.028  11.719 -15.653  1.00  0.00     0.090 C 
HETATM    5  C2  UNL     1      39.350  12.074 -16.943  1.00  0.00     0.197 C 
HETATM    6  N2  UNL     1      39.635  13.415 -17.373  1.00  0.00    -0.370 N 
ATOM      7  H2  UNL     1      39.300  13.871 -18.222  1.00  0.00     0.161 HD
HETATM    8  C3  UNL     1      40.490  13.983 -16.365  1.00  0.00     0.098 C 
HETATM    9  C4  UNL     1      41.814  14.105 -16.614  1.00  0.00     0.032 C 
HETATM   10  C5  UNL     1      42.338  14.609 -15.296  1.00  0.00     0.078 C 
HETATM   11  C7  UNL     1      41.316  13.753 -14.446  1.00  0.00     0.197 C 
HETATM   12  N3  UNL     1      41.103  12.387 -14.908  1.00  0.00    -0.357 N 
ATOM     13  H3  UNL     1      41.867  11.759 -14.660  1.00  0.00     0.163 HD
HETATM   14  N4  UNL     1      40.136  14.503 -15.098  1.00  0.00    -0.335 N 
ENDROOT
BRANCH  14  15
HETATM   15  C8  UNL     1      39.308  15.260 -14.218  1.00  0.00     0.222 C 
BRANCH  15  16
HETATM   16  C9  UNL     1      38.651  14.388 -13.224  1.00  0.00    -0.064 C 
HETATM   17  C10 UNL     1      38.105  13.686 -12.388  1.00  0.00     0.005 C 
BRANCH  17  18
HETATM   18  N5  UNL     1      37.488  12.897 -11.406  1.00  0.00    -0.359 N 
ATOM     19  H52 UNL     1      38.461  13.069 -11.658  1.00  0.00     0.166 HD
ATOM     20  H51 UNL     1      37.020  12.330 -10.700  1.00  0.00     0.166 HD
ENDBRANCH  17  18
ENDBRANCH  15  16
ENDBRANCH  14  15
BRANCH  10  21
HETATM   21  C6  UNL     1      42.287  16.001 -15.008  1.00  0.00     0.176 C 
BRANCH  21  22
HETATM   22  O1  UNL     1      43.549  16.514 -14.560  1.00  0.00    -0.400 OA
ATOM     23  H1  UNL     1      43.797  17.312 -15.012  1.00  0.00     0.209 HD
ENDBRANCH  21  22
ENDBRANCH  10  21
TORSDOF 5
ENDMDL
MODEL 4
REMARK VINA RESULT: -6.007156771      1.463      1.798
REMARK  5 active torsions:
REMARK  status: ('A' for Active; 'I' for Inactive)
REMARK    1  A    between atoms: C5_10  and  C6_11 
REMARK    2  A    between atoms: C6_11  and  O1_12 
REMARK    3  A    between atoms: N4_17  and  C8_18 
REMARK    4  A    between atoms: C8_18  and  C9_19 
REMARK    5  A    between atoms: C10_20  and  N5_21 
ROOT
HETATM    1  N1  UNL     1      39.495  10.361 -15.192  1.00  0.00    -0.388 N 
ATOM      2  H11 UNL     1      40.189  10.094 -14.494  1.00  0.00     0.157 HD
ATOM      3  H12 UNL     1      38.550  10.017 -15.367  1.00  0.00     0.157 HD
HETATM    4  C1  UNL     1      39.891  11.353 -15.974  1.00  0.00     0.090 C 
HETATM    5  C2  UNL     1      38.869  11.744 -17.000  1.00  0.00     0.197 C 
HETATM    6  N2  UNL     1      39.196  12.971 -17.674  1.00  0.00    -0.370 N 
ATOM      7  H2  UNL     1      38.662  13.425 -18.415  1.00  0.00     0.161 HD
HETATM    8  C3  UNL     1      40.430  13.429 -17.090  1.00  0.00     0.098 C 
HETATM    9  C4  UNL     1      41.584  13.273 -17.778  1.00  0.00     0.032 C 
HETATM   10  C5  UNL     1      42.609  13.753 -16.787  1.00  0.00     0.078 C 
HETATM   11  C7  UNL     1      41.827  13.174 -15.542  1.00  0.00     0.197 C 
HETATM   12  N3  UNL     1      41.251  11.847 -15.723  1.00  0.00    -0.357 N 
ATOM     13  H3  UNL     1      41.942  11.100 -15.662  1.00  0.00     0.163 HD
HETATM   14  N4  UNL     1      40.629  14.093 -15.858  1.00  0.00    -0.335 N 
ENDROOT
BRANCH  14  15
HETATM   15  C8  UNL     1      40.296  15.056 -14.860  1.00  0.00     0.222 C 
BRANCH  15  16
HETATM   16  C9  UNL     1      41.401  15.228 -13.897  1.00  0.00    -0.064 C 
HETATM   17  C10 UNL     1      42.315  15.395 -13.106  1.00  0.00     0.005 C 
BRANCH  17  18
HETATM   18  N5  UNL     1      43.374  15.609 -12.211  1.00  0.00    -0.359 N 
ATOM     19  H52 UNL     1      43.321  15.514 -13.225  1.00  0.00     0.166 HD
ATOM     20  H51 UNL     1      44.130  15.765 -11.545  1.00  0.00     0.166 HD
ENDBRANCH  17  18
ENDBRANCH  15  16
ENDBRANCH  14  15
BRANCH  10  21
HETATM   21  C6  UNL     1      42.886  15.145 -16.685  1.00  0.00     0.176 C 
BRANCH  21  22
HETATM   22  O1  UNL     1      44.292  15.424 -16.681  1.00  0.00    -0.400 OA
ATOM     23  H1  UNL     1      44.694  15.276 -17.530  1.00  0.00     0.209 HD
ENDBRANCH  21  22
ENDBRANCH  10  21
TORSDOF 5
ENDMDL
MODEL 5
REMARK VINA RESULT: -5.966082558      1.031      1.031
REMARK  5 active torsions:
REMARK  status: ('A' for Active; 'I' for Inactive)
REMARK    1  A    between atoms: C5_10  and  C6_11 
REMARK    2  A    between atoms: C6_11  and  O1_12 
REMARK    3  A    between atoms: N4_17  and  C8_18 
REMARK    4  A    between atoms: C8_18  and  C9_19 
REMARK    5  A    between atoms: C10_20  and  N5_21 
ROOT
HETATM    1  N1  UNL     1      39.661  10.200 -15.111  1.00  0.00    -0.388 N 
ATOM      2  H11 UNL     1      40.473   9.797 -14.642  1.00  0.00     0.157 HD
ATOM      3  H12 UNL     1      38.677   9.931 -15.102  1.00  0.00     0.157 HD
HETATM    4  C1  UNL     1      39.948  11.281 -15.818  1.00  0.00     0.090 C 
HETATM    5  C2  UNL     1      38.754  11.873 -16.508  1.00  0.00     0.197 C 
HETATM    6  N2  UNL     1      39.017  13.173 -17.062  1.00  0.00    -0.370 N 
ATOM      7  H2  UNL     1      38.367  13.760 -17.584  1.00  0.00     0.161 HD
HETATM    8  C3  UNL     1      40.384  13.478 -16.731  1.00  0.00     0.098 C 
HETATM    9  C4  UNL     1      41.334  13.376 -17.689  1.00  0.00     0.032 C 
HETATM   10  C5  UNL     1      42.594  13.649 -16.913  1.00  0.00     0.078 C 
HETATM   11  C7  UNL     1      42.073  12.922 -15.610  1.00  0.00     0.197 C 
HETATM   12  N3  UNL     1      41.365  11.667 -15.832  1.00  0.00    -0.357 N 
ATOM     13  H3  UNL     1      41.989  10.888 -16.042  1.00  0.00     0.163 HD
HETATM   14  N4  UNL     1      40.913  13.933 -15.502  1.00  0.00    -0.335 N 
ENDROOT
BRANCH  14  15
HETATM   15  C8  UNL     1      40.896  14.745 -14.329  1.00  0.00     0.222 C 
BRANCH  15  16
HETATM   16  C9  UNL     1      39.512  15.030 -13.901  1.00  0.00    -0.064 C 
HETATM   17  C10 UNL     1      38.375  15.286 -13.536  1.00  0.00     0.005 C 
BRANCH  17  18
HETATM   18  N5  UNL     1      37.081  15.595 -13.096  1.00  0.00    -0.359 N 
ATOM     19  H52 UNL     1      37.489  14.783 -13.557  1.00  0.00     0.166 HD
ATOM     20  H51 UNL     1      36.146  15.839 -12.769  1.00  0.00     0.166 HD
ENDBRANCH  17  18
ENDBRANCH  15  16
ENDBRANCH  14  15
BRANCH  10  21
HETATM   21  C6  UNL     1      43.000  14.995 -16.687  1.00  0.00     0.176 C 
BRANCH  21  22
HETATM   22  O1  UNL     1      44.424  15.151 -16.726  1.00  0.00    -0.400 OA
ATOM     23  H1  UNL     1      44.795  15.313 -15.866  1.00  0.00     0.209 HD
ENDBRANCH  21  22
ENDBRANCH  10  21
TORSDOF 5
ENDMDL
