MODEL 1
REMARK VINA RESULT: -7.978170481      0.000      0.000
REMARK  4 active torsions:
REMARK  status: ('A' for Active; 'I' for Inactive)
REMARK    1  A    between atoms: N1_1  and  N2_4 
REMARK    2  A    between atoms: C2_9  and  C3_10 
REMARK    3  A    between atoms: N4_11  and  N5_13 
REMARK    4  A    between atoms: C5_18  and  O1_19 
ROOT
HETATM    1  N2  UNL     1      38.597  13.690 -11.501  1.00  0.00    -0.287 N 
ATOM      2  H2  UNL     1      37.951  14.325 -11.033  1.00  0.00     0.188 HD
HETATM    3  C1  UNL     1      39.082  14.031 -12.626  1.00  0.00     0.190 A 
HETATM    4  N3  UNL     1      39.949  13.153 -13.236  1.00  0.00    -0.332 N 
ATOM      5  H3  UNL     1      40.170  12.273 -12.770  1.00  0.00     0.168 HD
HETATM    6  C2  UNL     1      40.511  13.417 -14.416  1.00  0.00     0.102 A 
HETATM    7  C5  UNL     1      40.196  14.633 -15.045  1.00  0.00     0.172 A 
HETATM    8  N8  UNL     1      39.363  15.495 -14.476  1.00  0.00    -0.299 N 
ATOM      9  H8  UNL     1      39.139  16.377 -14.936  1.00  0.00     0.171 HD
HETATM   10  C6  UNL     1      38.816  15.190 -13.281  1.00  0.00     0.293 A 
HETATM   11  O2  UNL     1      38.032  16.018 -12.764  1.00  0.00    -0.264 OA
ENDROOT
BRANCH   6  12
HETATM   12  C3  UNL     1      41.417  12.526 -15.076  1.00  0.00     0.141 C 
HETATM   13  N4  UNL     1      41.367  12.103 -16.234  1.00  0.00    -0.307 N 
ATOM     14  H4  UNL     1      42.141  11.477 -16.455  1.00  0.00     0.186 HD
BRANCH  13  15
HETATM   15  N5  UNL     1      40.539  12.272 -17.264  1.00  0.00    -0.276 N 
HETATM   16  C4  UNL     1      40.927  12.233 -18.478  1.00  0.00     0.215 C 
HETATM   17  N6  UNL     1      42.275  12.004 -18.761  1.00  0.00    -0.065 NA
HETATM   18  N7  UNL     1      39.990  12.420 -19.514  1.00  0.00    -0.065 NA
ATOM     19  H5  UNL     1      39.551  12.441 -17.073  1.00  0.00     0.189 HD
ENDBRANCH  13  15
ENDBRANCH   6  12
BRANCH   7  20
HETATM   20  O1  UNL     1      40.772  14.913 -16.263  1.00  0.00    -0.344 OA
ATOM     21  H1  UNL     1      40.218  15.233 -16.966  1.00  0.00     0.219 HD
ENDBRANCH   7  20
BRANCH   1  22
HETATM   22  N1  UNL     1      38.913  12.486 -10.885  1.00  0.00    -0.343 N 
ATOM     23  H12 UNL     1      39.776  12.021 -11.167  1.00  0.00     0.176 HD
ATOM     24  H11 UNL     1      38.318  12.061 -10.172  1.00  0.00     0.176 HD
ENDBRANCH   1  22
TORSDOF 4
ENDMDL
MODEL 2
REMARK VINA RESULT: -7.879667234      1.898      2.117
REMARK  4 active torsions:
REMARK  status: ('A' for Active; 'I' for Inactive)
REMARK    1  A    between atoms: N1_1  and  N2_4 
REMARK    2  A    between atoms: C2_9  and  C3_10 
REMARK    3  A    between atoms: N4_11  and  N5_13 
REMARK    4  A    between atoms: C5_18  and  O1_19 
ROOT
HETATM    1  N2  UNL     1      40.881  15.414 -12.697  1.00  0.00    -0.287 N 
ATOM      2  H2  UNL     1      40.559  16.224 -12.167  1.00  0.00     0.188 HD
HETATM    3  C1  UNL     1      40.021  14.702 -13.307  1.00  0.00     0.190 A 
HETATM    4  N3  UNL     1      40.483  13.615 -14.013  1.00  0.00    -0.332 N 
ATOM      5  H3  UNL     1      41.484  13.420 -14.020  1.00  0.00     0.168 HD
HETATM    6  C2  UNL     1      39.663  12.807 -14.685  1.00  0.00     0.102 A 
HETATM    7  C5  UNL     1      38.288  13.087 -14.663  1.00  0.00     0.172 A 
HETATM    8  N8  UNL     1      37.819  14.132 -13.991  1.00  0.00    -0.299 N 
ATOM      9  H8  UNL     1      36.819  14.332 -13.980  1.00  0.00     0.171 HD
HETATM   10  C6  UNL     1      38.681  14.925 -13.323  1.00  0.00     0.293 A 
HETATM   11  O2  UNL     1      38.217  15.903 -12.695  1.00  0.00    -0.264 OA
ENDROOT
BRANCH   6  12
HETATM   12  C3  UNL     1      40.111  11.668 -15.428  1.00  0.00     0.141 C 
HETATM   13  N4  UNL     1      40.119  11.506 -16.652  1.00  0.00    -0.307 N 
ATOM     14  H4  UNL     1      40.492  10.596 -16.922  1.00  0.00     0.186 HD
BRANCH  13  15
HETATM   15  N5  UNL     1      39.754  12.241 -17.701  1.00  0.00    -0.276 N 
HETATM   16  C4  UNL     1      40.496  12.397 -18.727  1.00  0.00     0.215 C 
HETATM   17  N6  UNL     1      41.747  11.780 -18.771  1.00  0.00    -0.065 NA
HETATM   18  N7  UNL     1      40.040  13.190 -19.799  1.00  0.00    -0.065 NA
ATOM     19  H5  UNL     1      38.843  12.698 -17.683  1.00  0.00     0.189 HD
ENDBRANCH  13  15
ENDBRANCH   6  12
BRANCH   7  20
HETATM   20  O1  UNL     1      37.434  12.259 -15.356  1.00  0.00    -0.344 OA
ATOM     21  H1  UNL     1      37.805  11.607 -15.940  1.00  0.00     0.219 HD
ENDBRANCH   7  20
BRANCH   1  22
HETATM   22  N1  UNL     1      42.240  15.130 -12.723  1.00  0.00    -0.343 N 
ATOM     23  H12 UNL     1      42.888  15.890 -12.511  1.00  0.00     0.176 HD
ATOM     24  H11 UNL     1      42.603  14.202 -12.944  1.00  0.00     0.176 HD
ENDBRANCH   1  22
TORSDOF 4
ENDMDL
MODEL 3
REMARK VINA RESULT: -7.799456397      2.283      6.045
REMARK  4 active torsions:
REMARK  status: ('A' for Active; 'I' for Inactive)
REMARK    1  A    between atoms: N1_1  and  N2_4 
REMARK    2  A    between atoms: C2_9  and  C3_10 
REMARK    3  A    between atoms: N4_11  and  N5_13 
REMARK    4  A    between atoms: C5_18  and  O1_19 
ROOT
HETATM    1  N2  UNL     1      40.308  13.832 -19.033  1.00  0.00    -0.287 N 
ATOM      2  H2  UNL     1      41.097  13.822 -19.680  1.00  0.00     0.188 HD
HETATM    3  C1  UNL     1      40.430  13.241 -17.912  1.00  0.00     0.190 A 
HETATM    4  N3  UNL     1      39.350  13.269 -17.059  1.00  0.00    -0.332 N 
ATOM      5  H3  UNL     1      38.502  13.755 -17.352  1.00  0.00     0.168 HD
HETATM    6  C2  UNL     1      39.376  12.681 -15.864  1.00  0.00     0.102 A 
HETATM    7  C5  UNL     1      40.550  12.015 -15.476  1.00  0.00     0.172 A 
HETATM    8  N8  UNL     1      41.605  11.975 -16.282  1.00  0.00    -0.299 N 
ATOM      9  H8  UNL     1      42.456  11.492 -15.995  1.00  0.00     0.171 HD
HETATM   10  C6  UNL     1      41.538  12.583 -17.484  1.00  0.00     0.293 A 
HETATM   11  O2  UNL     1      42.544  12.532 -18.226  1.00  0.00    -0.264 OA
ENDROOT
BRANCH   6  12
HETATM   12  C3  UNL     1      38.271  12.691 -14.954  1.00  0.00     0.141 C 
HETATM   13  N4  UNL     1      38.274  12.952 -13.748  1.00  0.00    -0.307 N 
ATOM     14  H4  UNL     1      37.346  12.884 -13.331  1.00  0.00     0.186 HD
BRANCH  13  15
HETATM   15  N5  UNL     1      39.206  13.300 -12.862  1.00  0.00    -0.276 N 
HETATM   16  C4  UNL     1      38.927  13.686 -11.679  1.00  0.00     0.215 C 
HETATM   17  N6  UNL     1      37.592  13.754 -11.276  1.00  0.00    -0.065 NA
HETATM   18  N7  UNL     1      39.969  14.038 -10.798  1.00  0.00    -0.065 NA
ATOM     19  H5  UNL     1      40.186  13.256 -13.142  1.00  0.00     0.189 HD
ENDBRANCH  13  15
ENDBRANCH   6  12
BRANCH   7  20
HETATM   20  O1  UNL     1      40.586  11.405 -14.243  1.00  0.00    -0.344 OA
ATOM     21  H1  UNL     1      40.913  10.514 -14.184  1.00  0.00     0.219 HD
ENDBRANCH   7  20
BRANCH   1  22
HETATM   22  N1  UNL     1      39.144  14.489 -19.409  1.00  0.00    -0.343 N 
ATOM     23  H12 UNL     1      38.462  13.968 -19.960  1.00  0.00     0.176 HD
ATOM     24  H11 UNL     1      38.954  15.459 -19.154  1.00  0.00     0.176 HD
ENDBRANCH   1  22
TORSDOF 4
ENDMDL
MODEL 4
REMARK VINA RESULT: -7.597149457      1.814      2.518
REMARK  4 active torsions:
REMARK  status: ('A' for Active; 'I' for Inactive)
REMARK    1  A    between atoms: N1_1  and  N2_4 
REMARK    2  A    between atoms: C2_9  and  C3_10 
REMARK    3  A    between atoms: N4_11  and  N5_13 
REMARK    4  A    between atoms: C5_18  and  O1_19 
ROOT
HETATM    1  N2  UNL     1      37.173  15.802 -12.516  1.00  0.00    -0.287 N 
ATOM      2  H2  UNL     1      36.552  15.498 -11.766  1.00  0.00     0.188 HD
HETATM    3  C1  UNL     1      38.079  15.005 -12.920  1.00  0.00     0.190 A 
HETATM    4  N3  UNL     1      38.903  15.442 -13.932  1.00  0.00    -0.332 N 
ATOM      5  H3  UNL     1      38.761  16.376 -14.317  1.00  0.00     0.168 HD
HETATM    6  C2  UNL     1      39.882  14.683 -14.426  1.00  0.00     0.102 A 
HETATM    7  C5  UNL     1      40.066  13.401 -13.885  1.00  0.00     0.172 A 
HETATM    8  N8  UNL     1      39.283  12.958 -12.909  1.00  0.00    -0.299 N 
ATOM      9  H8  UNL     1      39.419  12.024 -12.520  1.00  0.00     0.171 HD
HETATM   10  C6  UNL     1      38.304  13.756 -12.437  1.00  0.00     0.293 A 
HETATM   11  O2  UNL     1      37.578  13.318 -11.516  1.00  0.00    -0.264 OA
ENDROOT
BRANCH   6  12
HETATM   12  C3  UNL     1      40.756  15.107 -15.477  1.00  0.00     0.141 C 
HETATM   13  N4  UNL     1      40.843  14.665 -16.626  1.00  0.00    -0.307 N 
ATOM     14  H4  UNL     1      41.552  15.147 -17.177  1.00  0.00     0.186 HD
BRANCH  13  15
HETATM   15  N5  UNL     1      40.229  13.704 -17.314  1.00  0.00    -0.276 N 
HETATM   16  C4  UNL     1      40.825  12.651 -17.717  1.00  0.00     0.215 C 
HETATM   17  N6  UNL     1      42.181  12.479 -17.433  1.00  0.00    -0.065 NA
HETATM   18  N7  UNL     1      40.105  11.679 -18.440  1.00  0.00    -0.065 NA
ATOM     19  H5  UNL     1      39.238  13.817 -17.530  1.00  0.00     0.189 HD
ENDBRANCH  13  15
ENDBRANCH   6  12
BRANCH   7  20
HETATM   20  O1  UNL     1      41.074  12.610 -14.388  1.00  0.00    -0.344 OA
ATOM     21  H1  UNL     1      40.984  12.262 -15.268  1.00  0.00     0.219 HD
ENDBRANCH   7  20
BRANCH   1  22
HETATM   22  N1  UNL     1      36.997  17.069 -13.056  1.00  0.00    -0.343 N 
ATOM     23  H12 UNL     1      36.610  17.134 -13.997  1.00  0.00     0.176 HD
ATOM     24  H11 UNL     1      37.240  17.921 -12.548  1.00  0.00     0.176 HD
ENDBRANCH   1  22
TORSDOF 4
ENDMDL
MODEL 5
REMARK VINA RESULT: -7.471233235      2.469      5.688
REMARK  4 active torsions:
REMARK  status: ('A' for Active; 'I' for Inactive)
REMARK    1  A    between atoms: N1_1  and  N2_4 
REMARK    2  A    between atoms: C2_9  and  C3_10 
REMARK    3  A    between atoms: N4_11  and  N5_13 
REMARK    4  A    between atoms: C5_18  and  O1_19 
ROOT
HETATM    1  N2  UNL     1      42.668  14.107 -16.171  1.00  0.00    -0.287 N 
ATOM      2  H2  UNL     1      43.494  14.076 -16.769  1.00  0.00     0.188 HD
HETATM    3  C1  UNL     1      41.656  13.404 -16.489  1.00  0.00     0.190 A 
HETATM    4  N3  UNL     1      40.555  13.467 -15.666  1.00  0.00    -0.332 N 
ATOM      5  H3  UNL     1      40.589  14.066 -14.841  1.00  0.00     0.168 HD
HETATM    6  C2  UNL     1      39.446  12.770 -15.911  1.00  0.00     0.102 A 
HETATM    7  C5  UNL     1      39.415  11.950 -17.051  1.00  0.00     0.172 A 
HETATM    8  N8  UNL     1      40.465  11.873 -17.860  1.00  0.00    -0.299 N 
ATOM      9  H8  UNL     1      40.438  11.275 -18.686  1.00  0.00     0.171 HD
HETATM   10  C6  UNL     1      41.568  12.594 -17.576  1.00  0.00     0.293 A 
HETATM   11  O2  UNL     1      42.546  12.506 -18.353  1.00  0.00    -0.264 OA
ENDROOT
BRANCH   6  12
HETATM   12  C3  UNL     1      38.285  12.812 -15.075  1.00  0.00     0.141 C 
HETATM   13  N4  UNL     1      38.227  12.952 -13.850  1.00  0.00    -0.307 N 
ATOM     14  H4  UNL     1      37.269  12.947 -13.502  1.00  0.00     0.186 HD
BRANCH  13  15
HETATM   15  N5  UNL     1      39.123  13.109 -12.877  1.00  0.00    -0.276 N 
HETATM   16  C4  UNL     1      38.885  13.778 -11.818  1.00  0.00     0.215 C 
HETATM   17  N6  UNL     1      37.636  14.380 -11.653  1.00  0.00    -0.065 NA
HETATM   18  N7  UNL     1      39.884  13.897 -10.832  1.00  0.00    -0.065 NA
ATOM     19  H5  UNL     1      40.040  12.675 -12.984  1.00  0.00     0.189 HD
ENDBRANCH  13  15
ENDBRANCH   6  12
BRANCH   7  20
HETATM   20  O1  UNL     1      38.274  11.226 -17.312  1.00  0.00    -0.344 OA
ATOM     21  H1  UNL     1      37.492  11.691 -17.587  1.00  0.00     0.219 HD
ENDBRANCH   7  20
BRANCH   1  22
HETATM   22  N1  UNL     1      42.691  14.915 -15.042  1.00  0.00    -0.343 N 
ATOM     23  H12 UNL     1      42.805  15.920 -15.180  1.00  0.00     0.176 HD
ATOM     24  H11 UNL     1      42.600  14.541 -14.097  1.00  0.00     0.176 HD
ENDBRANCH   1  22
TORSDOF 4
ENDMDL
