MODEL 1
REMARK VINA RESULT: -8.261377605      0.000      0.000
REMARK  12 active torsions:
REMARK  status: ('A' for Active; 'I' for Inactive)
REMARK    1  A    between atoms: C2_2  and  C3_3 
REMARK       I    between atoms: C3_3  and  N1_5 
REMARK    2  A    between atoms: N1_5  and  C4_7 
REMARK    3  A    between atoms: C4_7  and  C5_8 
REMARK    4  A    between atoms: C8_11  and  N2_12 
REMARK    5  A    between atoms: N2_12  and  C9_14 
REMARK    6  A    between atoms: C10_17  and  N4_18 
REMARK    7  A    between atoms: N4_18  and  C11_19 
REMARK    8  A    between atoms: C15_24  and  N5_25 
REMARK    9  A    between atoms: N5_25  and  C16_27 
REMARK   10  A    between atoms: C19_32  and  C20_33 
REMARK   11  A    between atoms: C22_37  and  N8_38 
REMARK   12  A    between atoms: N8_38  and  C23_40 
ROOT
HETATM    1  C9  UNL     1      39.148 -20.141  28.500  1.00  0.00     0.696 A 
HETATM    2  N3  UNL     1      38.616 -21.060  27.702  1.00  0.00    -0.148 N 
ATOM      3  H3  UNL     1      39.013 -21.999  27.722  1.00  0.00     0.188 HD
HETATM    4  C10 UNL     1      37.560 -20.821  26.847  1.00  0.00     0.288 A 
HETATM    5  N7  UNL     1      37.077 -19.540  26.873  1.00  0.00    -0.148 N 
ATOM      6  H7  UNL     1      36.295 -19.309  26.261  1.00  0.00     0.188 HD
HETATM    7  C22 UNL     1      37.565 -18.585  27.646  1.00  0.00     0.696 A 
HETATM    8  N9  UNL     1      38.608 -18.920  28.455  1.00  0.00    -0.022 N 
ATOM      9  H9  UNL     1      39.000 -18.198  29.059  1.00  0.00     0.203 HD
ENDROOT
BRANCH   4  10
HETATM   10  N4  UNL     1      37.138 -21.681  26.138  1.00  0.00    -0.369 NA
BRANCH  10  11
HETATM   11  C11 UNL     1      36.668 -22.638  25.357  1.00  0.00     0.125 A 
HETATM   12  C12 UNL     1      35.567 -22.391  24.506  1.00  0.00     0.069 A 
HETATM   13  C13 UNL     1      35.107 -23.377  23.687  1.00  0.00     0.039 A 
HETATM   14 CL1  UNL     1      33.730 -23.006  22.645  1.00  0.00    -0.084 Cl
HETATM   15  C14 UNL     1      35.695 -24.620  23.670  1.00  0.00     0.054 A 
HETATM   16  C15 UNL     1      36.777 -24.912  24.487  1.00  0.00     0.048 A 
HETATM   17  C19 UNL     1      37.234 -23.922  25.303  1.00  0.00     0.031 A 
BRANCH  16  18
HETATM   18  N5  UNL     1      37.266 -26.234  24.431  1.00  0.00    -0.346 N 
ATOM     19  H5  UNL     1      38.216 -26.427  24.748  1.00  0.00     0.167 HD
BRANCH  18  20
HETATM   20  C16 UNL     1      36.465 -27.307  23.943  1.00  0.00     0.072 C 
HETATM   21  C17 UNL     1      36.711 -27.797  22.572  1.00  0.00     0.088 C 
HETATM   22  N6  UNL     1      35.561 -27.810  24.697  1.00  0.00    -0.384 N 
HETATM   23  C18 UNL     1      34.703 -28.901  24.279  1.00  0.00     0.147 C 
ATOM     24  H6  UNL     1      35.440 -27.426  25.634  1.00  0.00     0.160 HD
ENDBRANCH  18  20
ENDBRANCH  16  18
BRANCH  17  25
HETATM   25  C20 UNL     1      38.349 -24.125  26.195  1.00  0.00     0.007 C 
HETATM   26  C21 UNL     1      39.598 -24.046  25.809  1.00  0.00     0.012 C 
ENDBRANCH  17  25
ENDBRANCH  10  11
ENDBRANCH   4  10
BRANCH   1  27
HETATM   27  N2  UNL     1      40.111 -20.345  29.311  1.00  0.00    -0.221 N 
ATOM     28  H2  UNL     1      40.039 -19.948  30.249  1.00  0.00     0.178 HD
BRANCH  27  29
HETATM   29  C8  UNL     1      41.307 -21.112  28.979  1.00  0.00     0.099 C 
HETATM   30  C7  UNL     1      41.924 -21.493  30.273  1.00  0.00     0.026 C 
HETATM   31  C6  UNL     1      43.395 -21.800  30.243  1.00  0.00     0.012 C 
HETATM   32  C5  UNL     1      44.052 -20.615  29.543  1.00  0.00     0.024 C 
HETATM   33  C27 UNL     1      43.620 -20.650  28.135  1.00  0.00     0.012 C 
HETATM   34  C26 UNL     1      42.145 -20.245  28.084  1.00  0.00     0.026 C 
BRANCH  32  35
HETATM   35  C4  UNL     1      45.450 -20.403  29.917  1.00  0.00     0.068 C 
BRANCH  35  36
HETATM   36  N1  UNL     1      46.109 -21.251  30.819  1.00  0.00    -0.337 N 
HETATM   37  C3  UNL     1      47.422 -21.209  31.281  1.00  0.00     0.244 C 
HETATM   38  O1  UNL     1      48.226 -20.318  30.911  1.00  0.00    -0.268 OA
ATOM     39  H1  UNL     1      45.542 -22.012  31.194  1.00  0.00     0.168 HD
BRANCH  37  40
HETATM   40  C2  UNL     1      47.969 -22.185  32.217  1.00  0.00     0.064 C 
HETATM   41  C1  UNL     1      49.231 -22.207  32.578  1.00  0.00     0.017 C 
ENDBRANCH  37  40
ENDBRANCH  35  36
ENDBRANCH  32  35
ENDBRANCH  27  29
ENDBRANCH   1  27
BRANCH   7  42
HETATM   42  N8  UNL     1      37.104 -17.394  27.666  1.00  0.00    -0.221 N 
ATOM     43  H8  UNL     1      36.874 -16.949  26.778  1.00  0.00     0.178 HD
BRANCH  42  44
HETATM   44  C23 UNL     1      36.893 -16.655  28.873  1.00  0.00     0.099 A 
HETATM   45  C24 UNL     1      37.344 -15.164  28.858  1.00  0.00     0.028 A 
HETATM   46  C25 UNL     1      35.916 -15.509  28.879  1.00  0.00     0.028 A 
ENDBRANCH  42  44
ENDBRANCH   7  42
TORSDOF 12
ENDMDL
MODEL 2
REMARK VINA RESULT: -8.250486276      3.376      6.972
REMARK  12 active torsions:
REMARK  status: ('A' for Active; 'I' for Inactive)
REMARK    1  A    between atoms: C2_2  and  C3_3 
REMARK       I    between atoms: C3_3  and  N1_5 
REMARK    2  A    between atoms: N1_5  and  C4_7 
REMARK    3  A    between atoms: C4_7  and  C5_8 
REMARK    4  A    between atoms: C8_11  and  N2_12 
REMARK    5  A    between atoms: N2_12  and  C9_14 
REMARK    6  A    between atoms: C10_17  and  N4_18 
REMARK    7  A    between atoms: N4_18  and  C11_19 
REMARK    8  A    between atoms: C15_24  and  N5_25 
REMARK    9  A    between atoms: N5_25  and  C16_27 
REMARK   10  A    between atoms: C19_32  and  C20_33 
REMARK   11  A    between atoms: C22_37  and  N8_38 
REMARK   12  A    between atoms: N8_38  and  C23_40 
ROOT
HETATM    1  C9  UNL     1      41.729 -22.291  30.404  1.00  0.00     0.696 A 
HETATM    2  N3  UNL     1      40.968 -21.562  29.595  1.00  0.00    -0.148 N 
ATOM      3  H3  UNL     1      41.174 -20.567  29.511  1.00  0.00     0.188 HD
HETATM    4  C10 UNL     1      39.917 -22.068  28.860  1.00  0.00     0.288 A 
HETATM    5  N7  UNL     1      39.698 -23.412  29.018  1.00  0.00    -0.148 N 
ATOM      6  H7  UNL     1      38.932 -23.838  28.496  1.00  0.00     0.188 HD
HETATM    7  C22 UNL     1      40.421 -24.186  29.808  1.00  0.00     0.696 A 
HETATM    8  N9  UNL     1      41.437 -23.592  30.493  1.00  0.00    -0.022 N 
ATOM      9  H9  UNL     1      42.007 -24.172  31.108  1.00  0.00     0.203 HD
ENDROOT
BRANCH   4  10
HETATM   10  N4  UNL     1      39.256 -21.361  28.165  1.00  0.00    -0.369 NA
BRANCH  10  11
HETATM   11  C11 UNL     1      38.526 -20.570  27.398  1.00  0.00     0.125 A 
HETATM   12  C12 UNL     1      37.534 -21.113  26.550  1.00  0.00     0.069 A 
HETATM   13  C13 UNL     1      36.769 -20.287  25.783  1.00  0.00     0.039 A 
HETATM   14 CL1  UNL     1      35.545 -21.025  24.746  1.00  0.00    -0.084 Cl
HETATM   15  C14 UNL     1      36.942 -18.923  25.816  1.00  0.00     0.054 A 
HETATM   16  C15 UNL     1      37.903 -18.342  26.631  1.00  0.00     0.048 A 
HETATM   17  C19 UNL     1      38.664 -19.173  27.397  1.00  0.00     0.031 A 
BRANCH  16  18
HETATM   18  N5  UNL     1      38.034 -16.940  26.544  1.00  0.00    -0.346 N 
ATOM     19  H5  UNL     1      38.704 -16.544  25.885  1.00  0.00     0.167 HD
BRANCH  18  20
HETATM   20  C16 UNL     1      37.253 -16.065  27.353  1.00  0.00     0.072 C 
HETATM   21  C17 UNL     1      36.556 -16.630  28.526  1.00  0.00     0.088 C 
HETATM   22  N6  UNL     1      37.175 -14.826  27.043  1.00  0.00    -0.384 N 
HETATM   23  C18 UNL     1      36.402 -13.868  27.810  1.00  0.00     0.147 C 
ATOM     24  H6  UNL     1      37.679 -14.497  26.219  1.00  0.00     0.160 HD
ENDBRANCH  18  20
ENDBRANCH  16  18
BRANCH  17  25
HETATM   25  C20 UNL     1      39.693 -18.670  28.273  1.00  0.00     0.007 C 
HETATM   26  C21 UNL     1      39.471 -18.334  29.520  1.00  0.00     0.012 C 
ENDBRANCH  17  25
ENDBRANCH  10  11
ENDBRANCH   4  10
BRANCH   1  27
HETATM   27  N2  UNL     1      42.717 -21.847  31.077  1.00  0.00    -0.221 N 
ATOM     28  H2  UNL     1      42.576 -21.006  31.636  1.00  0.00     0.178 HD
BRANCH  27  29
HETATM   29  C8  UNL     1      44.036 -22.471  31.094  1.00  0.00     0.099 C 
HETATM   30  C7  UNL     1      44.759 -21.871  32.243  1.00  0.00     0.026 C 
HETATM   31  C6  UNL     1      46.261 -21.913  32.178  1.00  0.00     0.012 C 
HETATM   32  C5  UNL     1      46.632 -21.339  30.814  1.00  0.00     0.024 C 
HETATM   33  C27 UNL     1      46.174 -22.303  29.799  1.00  0.00     0.012 C 
HETATM   34  C26 UNL     1      44.645 -22.237  29.742  1.00  0.00     0.026 C 
BRANCH  32  35
HETATM   35  C4  UNL     1      47.966 -20.741  30.764  1.00  0.00     0.068 C 
BRANCH  35  36
HETATM   36  N1  UNL     1      48.998 -21.167  31.614  1.00  0.00    -0.337 N 
HETATM   37  C3  UNL     1      50.059 -20.444  32.154  1.00  0.00     0.244 C 
HETATM   38  O1  UNL     1      50.211 -19.219  31.923  1.00  0.00    -0.268 OA
ATOM     39  H1  UNL     1      48.966 -22.152  31.877  1.00  0.00     0.168 HD
BRANCH  37  40
HETATM   40  C2  UNL     1      51.071 -21.041  33.018  1.00  0.00     0.064 C 
HETATM   41  C1  UNL     1      50.825 -21.439  34.245  1.00  0.00     0.017 C 
ENDBRANCH  37  40
ENDBRANCH  35  36
ENDBRANCH  32  35
ENDBRANCH  27  29
ENDBRANCH   1  27
BRANCH   7  42
HETATM   42  N8  UNL     1      40.211 -25.438  29.946  1.00  0.00    -0.221 N 
ATOM     43  H8  UNL     1      39.353 -25.738  30.409  1.00  0.00     0.178 HD
BRANCH  42  44
HETATM   44  C23 UNL     1      41.119 -26.441  29.481  1.00  0.00     0.099 A 
HETATM   45  C24 UNL     1      40.524 -27.531  28.541  1.00  0.00     0.028 A 
HETATM   46  C25 UNL     1      41.450 -26.520  28.014  1.00  0.00     0.028 A 
ENDBRANCH  42  44
ENDBRANCH   7  42
TORSDOF 12
ENDMDL
MODEL 3
REMARK VINA RESULT: -8.211827690      3.700      9.801
REMARK  12 active torsions:
REMARK  status: ('A' for Active; 'I' for Inactive)
REMARK    1  A    between atoms: C2_2  and  C3_3 
REMARK       I    between atoms: C3_3  and  N1_5 
REMARK    2  A    between atoms: N1_5  and  C4_7 
REMARK    3  A    between atoms: C4_7  and  C5_8 
REMARK    4  A    between atoms: C8_11  and  N2_12 
REMARK    5  A    between atoms: N2_12  and  C9_14 
REMARK    6  A    between atoms: C10_17  and  N4_18 
REMARK    7  A    between atoms: N4_18  and  C11_19 
REMARK    8  A    between atoms: C15_24  and  N5_25 
REMARK    9  A    between atoms: N5_25  and  C16_27 
REMARK   10  A    between atoms: C19_32  and  C20_33 
REMARK   11  A    between atoms: C22_37  and  N8_38 
REMARK   12  A    between atoms: N8_38  and  C23_40 
ROOT
HETATM    1  C9  UNL     1      37.951 -21.371  26.577  1.00  0.00     0.696 A 
HETATM    2  N3  UNL     1      39.005 -21.721  27.308  1.00  0.00    -0.148 N 
ATOM      3  H3  UNL     1      39.463 -20.999  27.863  1.00  0.00     0.188 HD
HETATM    4  C10 UNL     1      39.516 -23.001  27.360  1.00  0.00     0.288 A 
HETATM    5  N7  UNL     1      38.850 -23.919  26.592  1.00  0.00    -0.148 N 
ATOM      6  H7  UNL     1      39.186 -24.882  26.595  1.00  0.00     0.188 HD
HETATM    7  C22 UNL     1      37.798 -23.629  25.846  1.00  0.00     0.696 A 
HETATM    8  N9  UNL     1      37.369 -22.336  25.860  1.00  0.00    -0.022 N 
ATOM      9  H9  UNL     1      36.559 -22.091  25.292  1.00  0.00     0.203 HD
ENDROOT
BRANCH   4  10
HETATM   10  N4  UNL     1      40.477 -23.251  28.019  1.00  0.00    -0.369 NA
BRANCH  10  11
HETATM   11  C11 UNL     1      41.540 -23.526  28.755  1.00  0.00     0.125 A 
HETATM   12  C12 UNL     1      42.154 -24.797  28.680  1.00  0.00     0.069 A 
HETATM   13  C13 UNL     1      43.264 -25.061  29.423  1.00  0.00     0.039 A 
HETATM   14 CL1  UNL     1      43.986 -26.667  29.284  1.00  0.00    -0.084 Cl
HETATM   15  C14 UNL     1      43.806 -24.109  30.253  1.00  0.00     0.054 A 
HETATM   16  C15 UNL     1      43.241 -22.847  30.363  1.00  0.00     0.048 A 
HETATM   17  C19 UNL     1      42.131 -22.587  29.616  1.00  0.00     0.031 A 
BRANCH  16  18
HETATM   18  N5  UNL     1      43.844 -21.967  31.286  1.00  0.00    -0.346 N 
ATOM     19  H5  UNL     1      43.366 -21.762  32.163  1.00  0.00     0.167 HD
BRANCH  18  20
HETATM   20  C16 UNL     1      45.105 -21.358  31.023  1.00  0.00     0.072 C 
HETATM   21  C17 UNL     1      45.159 -20.250  30.048  1.00  0.00     0.088 C 
HETATM   22  N6  UNL     1      46.148 -21.786  31.631  1.00  0.00    -0.384 N 
HETATM   23  C18 UNL     1      47.468 -21.225  31.421  1.00  0.00     0.147 C 
ATOM     24  H6  UNL     1      46.045 -22.556  32.292  1.00  0.00     0.160 HD
ENDBRANCH  18  20
ENDBRANCH  16  18
BRANCH  17  25
HETATM   25  C20 UNL     1      41.464 -21.310  29.661  1.00  0.00     0.007 C 
HETATM   26  C21 UNL     1      41.756 -20.321  28.854  1.00  0.00     0.012 C 
ENDBRANCH  17  25
ENDBRANCH  10  11
ENDBRANCH   4  10
BRANCH   1  27
HETATM   27  N2  UNL     1      37.451 -20.199  26.529  1.00  0.00    -0.221 N 
ATOM     28  H2  UNL     1      36.437 -20.109  26.587  1.00  0.00     0.178 HD
BRANCH  27  29
HETATM   29  C8  UNL     1      38.243 -18.980  26.395  1.00  0.00     0.099 C 
HETATM   30  C7  UNL     1      38.603 -18.570  27.774  1.00  0.00     0.026 C 
HETATM   31  C6  UNL     1      38.932 -17.116  27.970  1.00  0.00     0.012 C 
HETATM   32  C5  UNL     1      37.773 -16.342  27.351  1.00  0.00     0.024 C 
HETATM   33  C27 UNL     1      37.835 -16.560  25.896  1.00  0.00     0.012 C 
HETATM   34  C26 UNL     1      37.409 -18.004  25.617  1.00  0.00     0.026 C 
BRANCH  32  35
HETATM   35  C4  UNL     1      37.573 -15.011  27.925  1.00  0.00     0.068 C 
BRANCH  35  36
HETATM   36  N1  UNL     1      36.470 -14.717  28.740  1.00  0.00    -0.337 N 
HETATM   37  C3  UNL     1      35.474 -13.759  28.574  1.00  0.00     0.244 C 
HETATM   38  O1  UNL     1      35.449 -12.994  27.579  1.00  0.00    -0.268 OA
ATOM     39  H1  UNL     1      36.385 -15.290  29.580  1.00  0.00     0.168 HD
BRANCH  37  40
HETATM   40  C2  UNL     1      34.390 -13.563  29.531  1.00  0.00     0.064 C 
HETATM   41  C1  UNL     1      33.620 -14.537  29.956  1.00  0.00     0.017 C 
ENDBRANCH  37  40
ENDBRANCH  35  36
ENDBRANCH  32  35
ENDBRANCH  27  29
ENDBRANCH   1  27
BRANCH   7  42
HETATM   42  N8  UNL     1      37.182 -24.494  25.136  1.00  0.00    -0.221 N 
ATOM     43  H8  UNL     1      36.617 -24.165  24.354  1.00  0.00     0.178 HD
BRANCH  42  44
HETATM   44  C23 UNL     1      37.248 -25.901  25.384  1.00  0.00     0.099 A 
HETATM   45  C24 UNL     1      36.190 -26.782  24.653  1.00  0.00     0.028 A 
HETATM   46  C25 UNL     1      37.604 -26.836  24.258  1.00  0.00     0.028 A 
ENDBRANCH  42  44
ENDBRANCH   7  42
TORSDOF 12
ENDMDL
MODEL 4
REMARK VINA RESULT: -8.016085448      3.564      8.907
REMARK  12 active torsions:
REMARK  status: ('A' for Active; 'I' for Inactive)
REMARK    1  A    between atoms: C2_2  and  C3_3 
REMARK       I    between atoms: C3_3  and  N1_5 
REMARK    2  A    between atoms: N1_5  and  C4_7 
REMARK    3  A    between atoms: C4_7  and  C5_8 
REMARK    4  A    between atoms: C8_11  and  N2_12 
REMARK    5  A    between atoms: N2_12  and  C9_14 
REMARK    6  A    between atoms: C10_17  and  N4_18 
REMARK    7  A    between atoms: N4_18  and  C11_19 
REMARK    8  A    between atoms: C15_24  and  N5_25 
REMARK    9  A    between atoms: N5_25  and  C16_27 
REMARK   10  A    between atoms: C19_32  and  C20_33 
REMARK   11  A    between atoms: C22_37  and  N8_38 
REMARK   12  A    between atoms: N8_38  and  C23_40 
ROOT
HETATM    1  C9  UNL     1      38.431 -20.681  24.314  1.00  0.00     0.696 A 
HETATM    2  N3  UNL     1      39.097 -21.155  25.362  1.00  0.00    -0.148 N 
ATOM      3  H3  UNL     1      39.988 -20.720  25.600  1.00  0.00     0.188 HD
HETATM    4  C10 UNL     1      38.656 -22.200  26.147  1.00  0.00     0.288 A 
HETATM    5  N7  UNL     1      37.452 -22.735  25.770  1.00  0.00    -0.148 N 
ATOM      6  H7  UNL     1      37.079 -23.511  26.318  1.00  0.00     0.188 HD
HETATM    7  C22 UNL     1      36.747 -22.305  24.739  1.00  0.00     0.696 A 
HETATM    8  N9  UNL     1      37.267 -21.268  24.026  1.00  0.00    -0.022 N 
ATOM      9  H9  UNL     1      36.738 -20.921  23.226  1.00  0.00     0.203 HD
ENDROOT
BRANCH   4  10
HETATM   10  N4  UNL     1      39.307 -22.597  27.063  1.00  0.00    -0.369 NA
BRANCH  10  11
HETATM   11  C11 UNL     1      40.023 -23.041  28.081  1.00  0.00     0.125 A 
HETATM   12  C12 UNL     1      40.197 -24.430  28.281  1.00  0.00     0.069 A 
HETATM   13  C13 UNL     1      40.958 -24.877  29.318  1.00  0.00     0.039 A 
HETATM   14 CL1  UNL     1      41.140 -26.623  29.514  1.00  0.00    -0.084 Cl
HETATM   15  C14 UNL     1      41.567 -23.999  30.184  1.00  0.00     0.054 A 
HETATM   16  C15 UNL     1      41.426 -22.627  30.030  1.00  0.00     0.048 A 
HETATM   17  C19 UNL     1      40.665 -22.185  28.990  1.00  0.00     0.031 A 
BRANCH  16  18
HETATM   18  N5  UNL     1      42.045 -21.820  31.007  1.00  0.00    -0.346 N 
ATOM     19  H5  UNL     1      41.466 -21.343  31.698  1.00  0.00     0.167 HD
BRANCH  18  20
HETATM   20  C16 UNL     1      43.460 -21.656  31.053  1.00  0.00     0.072 C 
HETATM   21  C17 UNL     1      44.134 -21.056  29.884  1.00  0.00     0.088 C 
HETATM   22  N6  UNL     1      44.103 -22.031  32.095  1.00  0.00    -0.384 N 
HETATM   23  C18 UNL     1      45.541 -21.902  32.223  1.00  0.00     0.147 C 
ATOM     24  H6  UNL     1      43.579 -22.440  32.869  1.00  0.00     0.160 HD
ENDBRANCH  18  20
ENDBRANCH  16  18
BRANCH  17  25
HETATM   25  C20 UNL     1      40.450 -20.781  28.747  1.00  0.00     0.007 C 
HETATM   26  C21 UNL     1      41.277 -20.041  28.050  1.00  0.00     0.012 C 
ENDBRANCH  17  25
ENDBRANCH  10  11
ENDBRANCH   4  10
BRANCH   1  27
HETATM   27  N2  UNL     1      38.810 -19.704  23.588  1.00  0.00    -0.221 N 
ATOM     28  H2  UNL     1      39.142 -19.909  22.645  1.00  0.00     0.178 HD
BRANCH  27  29
HETATM   29  C8  UNL     1      38.798 -18.311  24.024  1.00  0.00     0.099 C 
HETATM   30  C7  UNL     1      39.983 -18.145  24.901  1.00  0.00     0.026 C 
HETATM   31  C6  UNL     1      39.923 -17.015  25.892  1.00  0.00     0.012 C 
HETATM   32  C5  UNL     1      38.597 -17.179  26.627  1.00  0.00     0.024 C 
HETATM   33  C27 UNL     1      37.526 -16.899  25.656  1.00  0.00     0.012 C 
HETATM   34  C26 UNL     1      37.465 -18.070  24.671  1.00  0.00     0.026 C 
BRANCH  32  35
HETATM   35  C4  UNL     1      38.588 -16.605  27.973  1.00  0.00     0.068 C 
BRANCH  35  36
HETATM   36  N1  UNL     1      37.871 -15.437  28.272  1.00  0.00    -0.337 N 
HETATM   37  C3  UNL     1      36.551 -15.289  28.693  1.00  0.00     0.244 C 
HETATM   38  O1  UNL     1      35.800 -16.278  28.878  1.00  0.00    -0.268 OA
ATOM     39  H1  UNL     1      38.392 -14.567  28.165  1.00  0.00     0.168 HD
BRANCH  37  40
HETATM   40  C2  UNL     1      35.938 -13.991  28.949  1.00  0.00     0.064 C 
HETATM   41  C1  UNL     1      35.499 -13.201  27.997  1.00  0.00     0.017 C 
ENDBRANCH  37  40
ENDBRANCH  35  36
ENDBRANCH  32  35
ENDBRANCH  27  29
ENDBRANCH   1  27
BRANCH   7  42
HETATM   42  N8  UNL     1      35.623 -22.808  24.400  1.00  0.00    -0.221 N 
ATOM     43  H8  UNL     1      34.794 -22.546  24.931  1.00  0.00     0.178 HD
BRANCH  42  44
HETATM   44  C23 UNL     1      35.471 -23.722  23.309  1.00  0.00     0.099 A 
HETATM   45  C24 UNL     1      34.488 -24.909  23.533  1.00  0.00     0.028 A 
HETATM   46  C25 UNL     1      34.143 -23.823  22.606  1.00  0.00     0.028 A 
ENDBRANCH  42  44
ENDBRANCH   7  42
TORSDOF 12
ENDMDL
MODEL 5
REMARK VINA RESULT: -7.978588685      2.899      3.802
REMARK  12 active torsions:
REMARK  status: ('A' for Active; 'I' for Inactive)
REMARK    1  A    between atoms: C2_2  and  C3_3 
REMARK       I    between atoms: C3_3  and  N1_5 
REMARK    2  A    between atoms: N1_5  and  C4_7 
REMARK    3  A    between atoms: C4_7  and  C5_8 
REMARK    4  A    between atoms: C8_11  and  N2_12 
REMARK    5  A    between atoms: N2_12  and  C9_14 
REMARK    6  A    between atoms: C10_17  and  N4_18 
REMARK    7  A    between atoms: N4_18  and  C11_19 
REMARK    8  A    between atoms: C15_24  and  N5_25 
REMARK    9  A    between atoms: N5_25  and  C16_27 
REMARK   10  A    between atoms: C19_32  and  C20_33 
REMARK   11  A    between atoms: C22_37  and  N8_38 
REMARK   12  A    between atoms: N8_38  and  C23_40 
ROOT
HETATM    1  C9  UNL     1      39.816 -19.740  27.574  1.00  0.00     0.696 A 
HETATM    2  N3  UNL     1      39.241 -20.733  26.902  1.00  0.00    -0.148 N 
ATOM      3  H3  UNL     1      39.842 -21.458  26.511  1.00  0.00     0.188 HD
HETATM    4  C10 UNL     1      37.881 -20.842  26.703  1.00  0.00     0.288 A 
HETATM    5  N7  UNL     1      37.135 -19.835  27.256  1.00  0.00    -0.148 N 
ATOM      6  H7  UNL     1      36.122 -19.867  27.139  1.00  0.00     0.188 HD
HETATM    7  C22 UNL     1      37.651 -18.824  27.934  1.00  0.00     0.696 A 
HETATM    8  N9  UNL     1      39.005 -18.805  28.076  1.00  0.00    -0.022 N 
ATOM      9  H9  UNL     1      39.424 -18.034  28.595  1.00  0.00     0.203 HD
ENDROOT
BRANCH   4  10
HETATM   10  N4  UNL     1      37.423 -21.744  26.074  1.00  0.00    -0.369 NA
BRANCH  10  11
HETATM   11  C11 UNL     1      36.910 -22.746  25.381  1.00  0.00     0.125 A 
HETATM   12  C12 UNL     1      35.796 -22.535  24.536  1.00  0.00     0.069 A 
HETATM   13  C13 UNL     1      35.290 -23.568  23.807  1.00  0.00     0.039 A 
HETATM   14 CL1  UNL     1      33.900 -23.241  22.768  1.00  0.00    -0.084 Cl
HETATM   15  C14 UNL     1      35.845 -24.825  23.875  1.00  0.00     0.054 A 
HETATM   16  C15 UNL     1      36.938 -25.083  24.690  1.00  0.00     0.048 A 
HETATM   17  C19 UNL     1      37.440 -24.046  25.416  1.00  0.00     0.031 A 
BRANCH  16  18
HETATM   18  N5  UNL     1      37.390 -26.419  24.727  1.00  0.00    -0.346 N 
ATOM     19  H5  UNL     1      37.240 -26.971  25.571  1.00  0.00     0.167 HD
BRANCH  18  20
HETATM   20  C16 UNL     1      38.051 -27.015  23.614  1.00  0.00     0.072 C 
HETATM   21  C17 UNL     1      39.527 -27.012  23.592  1.00  0.00     0.088 C 
HETATM   22  N6  UNL     1      37.354 -27.530  22.672  1.00  0.00    -0.384 N 
HETATM   23  C18 UNL     1      37.946 -28.154  21.505  1.00  0.00     0.147 C 
ATOM     24  H6  UNL     1      36.337 -27.499  22.746  1.00  0.00     0.160 HD
ENDBRANCH  18  20
ENDBRANCH  16  18
BRANCH  17  25
HETATM   25  C20 UNL     1      38.569 -24.210  26.297  1.00  0.00     0.007 C 
HETATM   26  C21 UNL     1      39.811 -24.191  25.880  1.00  0.00     0.012 C 
ENDBRANCH  17  25
ENDBRANCH  10  11
ENDBRANCH   4  10
BRANCH   1  27
HETATM   27  N2  UNL     1      41.068 -19.631  27.787  1.00  0.00    -0.221 N 
ATOM     28  H2  UNL     1      41.575 -18.893  27.296  1.00  0.00     0.178 HD
BRANCH  27  29
HETATM   29  C8  UNL     1      41.820 -20.497  28.689  1.00  0.00     0.099 C 
HETATM   30  C7  UNL     1      42.113 -21.733  27.924  1.00  0.00     0.026 C 
HETATM   31  C6  UNL     1      42.382 -22.970  28.736  1.00  0.00     0.012 C 
HETATM   32  C5  UNL     1      41.220 -23.082  29.717  1.00  0.00     0.024 C 
HETATM   33  C27 UNL     1      41.344 -21.961  30.665  1.00  0.00     0.012 C 
HETATM   34  C26 UNL     1      40.981 -20.673  29.922  1.00  0.00     0.026 C 
BRANCH  32  35
HETATM   35  C4  UNL     1      40.951 -24.447  30.167  1.00  0.00     0.068 C 
BRANCH  35  36
HETATM   36  N1  UNL     1      40.628 -25.471  29.264  1.00  0.00    -0.337 N 
HETATM   37  C3  UNL     1      41.423 -26.502  28.769  1.00  0.00     0.244 C 
HETATM   38  O1  UNL     1      42.621 -26.642  29.121  1.00  0.00    -0.268 OA
ATOM     39  H1  UNL     1      39.669 -25.459  28.919  1.00  0.00     0.168 HD
BRANCH  37  40
HETATM   40  C2  UNL     1      40.941 -27.490  27.811  1.00  0.00     0.064 C 
HETATM   41  C1  UNL     1      41.549 -27.751  26.677  1.00  0.00     0.017 C 
ENDBRANCH  37  40
ENDBRANCH  35  36
ENDBRANCH  32  35
ENDBRANCH  27  29
ENDBRANCH   1  27
BRANCH   7  42
HETATM   42  N8  UNL     1      36.946 -17.893  28.449  1.00  0.00    -0.221 N 
ATOM     43  H8  UNL     1      36.326 -18.126  29.224  1.00  0.00     0.178 HD
BRANCH  42  44
HETATM   44  C23 UNL     1      36.984 -16.537  27.993  1.00  0.00     0.099 A 
HETATM   45  C24 UNL     1      36.097 -15.520  28.773  1.00  0.00     0.028 A 
HETATM   46  C25 UNL     1      37.561 -15.470  28.887  1.00  0.00     0.028 A 
ENDBRANCH  42  44
ENDBRANCH   7  42
TORSDOF 12
ENDMDL
