MODEL 1
REMARK VINA RESULT: -8.177994060      0.000      0.000
REMARK  11 active torsions:
REMARK  status: ('A' for Active; 'I' for Inactive)
REMARK    1  A    between atoms: C2_2  and  N1_4 
REMARK    2  A    between atoms: N1_4  and  C4_6 
REMARK    3  A    between atoms: C6_8  and  N2_9 
REMARK    4  A    between atoms: N2_9  and  C7_11 
REMARK    5  A    between atoms: C7_11  and  C8_12 
REMARK    6  A    between atoms: C11_15  and  N3_16 
REMARK       I    between atoms: N3_16  and  C12_18 
REMARK    7  A    between atoms: C12_18  and  C13_20 
REMARK    8  A    between atoms: C13_20  and  O2_21 
REMARK    9  A    between atoms: C17_26  and  N4_27 
REMARK       I    between atoms: N4_27  and  C18_29 
REMARK       I    between atoms: C18_29  and  N5_31 
REMARK   10  A    between atoms: N5_31  and  C19_33 
REMARK   11  A    between atoms: C24_38  and  C25_39 
ROOT
HETATM    1  N3  UNL     1      39.689 -22.953  26.980  1.00  0.00    -0.354 N 
ATOM      2  H3  UNL     1      39.411 -23.030  27.959  1.00  0.00     0.162 HD
HETATM    3  C12 UNL     1      40.087 -24.121  26.275  1.00  0.00     0.254 C 
HETATM    4  O1  UNL     1      40.421 -24.002  25.074  1.00  0.00    -0.270 OA
ENDROOT
BRANCH   3   5
HETATM    5  C13 UNL     1      40.110 -25.407  26.932  1.00  0.00     0.158 C 
HETATM    6  C14 UNL     1      41.124 -26.408  26.505  1.00  0.00     0.050 C 
HETATM    7  C15 UNL     1      40.974 -27.462  27.602  1.00  0.00     0.006 C 
HETATM    8  C16 UNL     1      40.316 -26.760  28.786  1.00  0.00     0.029 C 
HETATM    9  C17 UNL     1      40.507 -25.300  28.443  1.00  0.00     0.130 C 
BRANCH   5  10
HETATM   10  O2  UNL     1      38.847 -26.029  26.980  1.00  0.00    -0.378 OA
ATOM     11  H2  UNL     1      38.401 -25.909  27.810  1.00  0.00     0.211 HD
ENDBRANCH   5  10
BRANCH   9  12
HETATM   12  N4  UNL     1      41.882 -24.984  28.619  1.00  0.00    -0.335 N 
HETATM   13  C18 UNL     1      42.419 -23.804  29.156  1.00  0.00     0.316 C 
HETATM   14  O3  UNL     1      41.659 -22.876  29.529  1.00  0.00    -0.247 OA
HETATM   15  N5  UNL     1      43.811 -23.557  29.320  1.00  0.00    -0.338 N 
ATOM     16  H5  UNL     1      44.458 -24.300  29.057  1.00  0.00     0.164 HD
ATOM     17  H4  UNL     1      42.552 -25.693  28.322  1.00  0.00     0.164 HD
BRANCH  15  18
HETATM   18  C19 UNL     1      44.367 -22.346  29.827  1.00  0.00     0.095 C 
HETATM   19  C20 UNL     1      45.009 -22.479  31.199  1.00  0.00     0.026 C 
HETATM   20  C21 UNL     1      45.416 -21.150  31.762  1.00  0.00     0.002 C 
HETATM   21  C22 UNL     1      45.981 -20.256  30.710  1.00  0.00     0.001 C 
HETATM   22  C23 UNL     1      46.509 -21.091  29.573  1.00  0.00     0.012 C 
HETATM   23  C24 UNL     1      45.306 -21.686  28.855  1.00  0.00     0.073 C 
BRANCH  23  24
HETATM   24  C25 UNL     1      44.641 -20.667  27.962  1.00  0.00     0.359 C 
HETATM   25  F1  UNL     1      45.466 -19.602  27.667  1.00  0.00    -0.214 F 
HETATM   26  F2  UNL     1      43.538 -20.173  28.632  1.00  0.00    -0.214 F 
ENDBRANCH  23  24
ENDBRANCH  15  18
ENDBRANCH   9  12
ENDBRANCH   3   5
BRANCH   1  27
HETATM   27  C11 UNL     1      39.671 -21.649  26.334  1.00  0.00     0.084 C 
HETATM   28  C10 UNL     1      40.945 -20.910  26.747  1.00  0.00     0.026 C 
HETATM   29  C9  UNL     1      40.586 -19.565  27.310  1.00  0.00     0.008 C 
HETATM   30  C8  UNL     1      39.712 -19.768  28.551  1.00  0.00     0.003 C 
HETATM   31  C27 UNL     1      38.376 -20.323  28.060  1.00  0.00     0.008 C 
HETATM   32  C26 UNL     1      38.469 -20.844  26.658  1.00  0.00     0.026 C 
BRANCH  30  33
HETATM   33  C7  UNL     1      39.492 -18.425  29.178  1.00  0.00     0.124 C 
BRANCH  33  34
HETATM   34  N2  UNL     1      38.221 -17.900  28.818  1.00  0.00    -0.389 N 
ATOM     35  H2  UNL     1      37.386 -18.423  29.085  1.00  0.00     0.159 HD
BRANCH  34  36
HETATM   36  C6  UNL     1      38.059 -16.699  28.115  1.00  0.00     0.032 A 
HETATM   37  C5  UNL     1      38.469 -16.558  26.796  1.00  0.00     0.077 A 
HETATM   38  C4  UNL     1      38.303 -15.364  26.148  1.00  0.00     0.103 A 
HETATM   39  N6  UNL     1      37.737 -14.292  26.765  1.00  0.00    -0.352 N 
HETATM   40  C29 UNL     1      37.316 -14.378  28.057  1.00  0.00     0.092 A 
ATOM     41  H6  UNL     1      37.627 -13.415  26.255  1.00  0.00     0.166 HD
HETATM   42  C28 UNL     1      37.490 -15.577  28.698  1.00  0.00     0.046 A 
BRANCH  38  43
HETATM   43  N1  UNL     1      38.699 -15.198  24.928  1.00  0.00    -0.372 N 
ATOM     44  H1  UNL     1      38.259 -14.449  24.395  1.00  0.00     0.161 HD
BRANCH  43  45
HETATM   45  C2  UNL     1      39.695 -15.970  24.260  1.00  0.00     0.075 C 
HETATM   46  C1  UNL     1      40.971 -15.107  24.247  1.00  0.00     0.031 C 
HETATM   47  C3  UNL     1      39.383 -16.276  22.829  1.00  0.00     0.031 C 
ENDBRANCH  43  45
ENDBRANCH  38  43
ENDBRANCH  34  36
ENDBRANCH  33  34
ENDBRANCH  30  33
ENDBRANCH   1  27
TORSDOF 11
ENDMDL
MODEL 2
REMARK VINA RESULT: -7.872363925      4.100     10.235
REMARK  11 active torsions:
REMARK  status: ('A' for Active; 'I' for Inactive)
REMARK    1  A    between atoms: C2_2  and  N1_4 
REMARK    2  A    between atoms: N1_4  and  C4_6 
REMARK    3  A    between atoms: C6_8  and  N2_9 
REMARK    4  A    between atoms: N2_9  and  C7_11 
REMARK    5  A    between atoms: C7_11  and  C8_12 
REMARK    6  A    between atoms: C11_15  and  N3_16 
REMARK       I    between atoms: N3_16  and  C12_18 
REMARK    7  A    between atoms: C12_18  and  C13_20 
REMARK    8  A    between atoms: C13_20  and  O2_21 
REMARK    9  A    between atoms: C17_26  and  N4_27 
REMARK       I    between atoms: N4_27  and  C18_29 
REMARK       I    between atoms: C18_29  and  N5_31 
REMARK   10  A    between atoms: N5_31  and  C19_33 
REMARK   11  A    between atoms: C24_38  and  C25_39 
ROOT
HETATM    1  N3  UNL     1      43.312 -22.570  30.447  1.00  0.00    -0.354 N 
ATOM      2  H3  UNL     1      43.964 -23.293  30.138  1.00  0.00     0.162 HD
HETATM    3  C12 UNL     1      41.918 -22.757  30.242  1.00  0.00     0.254 C 
HETATM    4  O1  UNL     1      41.138 -21.859  30.632  1.00  0.00    -0.270 OA
ENDROOT
BRANCH   3   5
HETATM    5  C13 UNL     1      41.421 -23.949  29.597  1.00  0.00     0.158 C 
HETATM    6  C14 UNL     1      40.153 -24.552  30.090  1.00  0.00     0.050 C 
HETATM    7  C15 UNL     1      39.871 -25.578  28.994  1.00  0.00     0.006 C 
HETATM    8  C16 UNL     1      40.658 -25.125  27.767  1.00  0.00     0.029 C 
HETATM    9  C17 UNL     1      40.995 -23.692  28.111  1.00  0.00     0.130 C 
BRANCH   5  10
HETATM   10  O2  UNL     1      42.392 -24.963  29.477  1.00  0.00    -0.378 OA
ATOM     11  H2  UNL     1      42.980 -24.833  28.743  1.00  0.00     0.211 HD
ENDBRANCH   5  10
BRANCH   9  12
HETATM   12  N4  UNL     1      39.802 -22.925  28.016  1.00  0.00    -0.335 N 
HETATM   13  C18 UNL     1      39.659 -21.643  27.462  1.00  0.00     0.316 C 
HETATM   14  O3  UNL     1      40.658 -21.042  26.993  1.00  0.00    -0.247 OA
HETATM   15  N5  UNL     1      38.428 -20.935  27.383  1.00  0.00    -0.338 N 
ATOM     16  H5  UNL     1      37.589 -21.404  27.726  1.00  0.00     0.164 HD
ATOM     17  H4  UNL     1      38.957 -23.353  28.392  1.00  0.00     0.164 HD
BRANCH  15  18
HETATM   18  C19 UNL     1      38.280 -19.618  26.860  1.00  0.00     0.095 C 
HETATM   19  C20 UNL     1      37.169 -19.474  25.831  1.00  0.00     0.026 C 
HETATM   20  C21 UNL     1      37.172 -18.122  25.183  1.00  0.00     0.002 C 
HETATM   21  C22 UNL     1      37.483 -17.042  26.163  1.00  0.00     0.001 C 
HETATM   22  C23 UNL     1      37.136 -17.510  27.553  1.00  0.00     0.012 C 
HETATM   23  C24 UNL     1      38.155 -18.575  27.935  1.00  0.00     0.073 C 
BRANCH  23  24
HETATM   24  C25 UNL     1      39.470 -17.955  28.340  1.00  0.00     0.359 C 
HETATM   25  F1  UNL     1      40.400 -17.970  27.321  1.00  0.00    -0.214 F 
HETATM   26  F2  UNL     1      39.982 -18.696  29.389  1.00  0.00    -0.214 F 
ENDBRANCH  23  24
ENDBRANCH  15  18
ENDBRANCH   9  12
ENDBRANCH   3   5
BRANCH   1  27
HETATM   27  C11 UNL     1      43.829 -21.371  31.088  1.00  0.00     0.084 C 
HETATM   28  C10 UNL     1      44.529 -20.537  30.012  1.00  0.00     0.026 C 
HETATM   29  C9  UNL     1      45.925 -20.213  30.458  1.00  0.00     0.008 C 
HETATM   30  C8  UNL     1      46.699 -21.520  30.646  1.00  0.00     0.003 C 
HETATM   31  C27 UNL     1      46.086 -22.221  31.857  1.00  0.00     0.008 C 
HETATM   32  C26 UNL     1      44.748 -21.650  32.215  1.00  0.00     0.026 C 
BRANCH  30  33
HETATM   33  C7  UNL     1      48.125 -21.169  30.944  1.00  0.00     0.124 C 
BRANCH  33  34
HETATM   34  N2  UNL     1      48.705 -22.115  31.831  1.00  0.00    -0.389 N 
ATOM     35  H2  UNL     1      48.500 -23.104  31.687  1.00  0.00     0.159 HD
BRANCH  34  36
HETATM   36  C6  UNL     1      49.545 -21.756  32.893  1.00  0.00     0.032 A 
HETATM   37  C5  UNL     1      49.355 -22.243  34.180  1.00  0.00     0.077 A 
HETATM   38  C4  UNL     1      50.191 -21.858  35.191  1.00  0.00     0.103 A 
HETATM   39  N6  UNL     1      51.223 -20.999  34.974  1.00  0.00    -0.352 N 
HETATM   40  C29 UNL     1      51.455 -20.494  33.732  1.00  0.00     0.092 A 
ATOM     41  H6  UNL     1      51.830 -20.732  35.750  1.00  0.00     0.166 HD
HETATM   42  C28 UNL     1      50.610 -20.883  32.725  1.00  0.00     0.046 A 
BRANCH  38  43
HETATM   43  N1  UNL     1      50.021 -22.278  36.403  1.00  0.00    -0.372 N 
ATOM     44  H1  UNL     1      49.332 -23.017  36.547  1.00  0.00     0.161 HD
BRANCH  43  45
HETATM   45  C2  UNL     1      50.709 -21.801  37.557  1.00  0.00     0.075 C 
HETATM   46  C1  UNL     1      51.417 -23.022  38.173  1.00  0.00     0.031 C 
HETATM   47  C3  UNL     1      49.817 -21.253  38.627  1.00  0.00     0.031 C 
ENDBRANCH  43  45
ENDBRANCH  38  43
ENDBRANCH  34  36
ENDBRANCH  33  34
ENDBRANCH  30  33
ENDBRANCH   1  27
TORSDOF 11
ENDMDL
MODEL 3
REMARK VINA RESULT: -7.851829236      3.993      8.399
REMARK  11 active torsions:
REMARK  status: ('A' for Active; 'I' for Inactive)
REMARK    1  A    between atoms: C2_2  and  N1_4 
REMARK    2  A    between atoms: N1_4  and  C4_6 
REMARK    3  A    between atoms: C6_8  and  N2_9 
REMARK    4  A    between atoms: N2_9  and  C7_11 
REMARK    5  A    between atoms: C7_11  and  C8_12 
REMARK    6  A    between atoms: C11_15  and  N3_16 
REMARK       I    between atoms: N3_16  and  C12_18 
REMARK    7  A    between atoms: C12_18  and  C13_20 
REMARK    8  A    between atoms: C13_20  and  O2_21 
REMARK    9  A    between atoms: C17_26  and  N4_27 
REMARK       I    between atoms: N4_27  and  C18_29 
REMARK       I    between atoms: C18_29  and  N5_31 
REMARK   10  A    between atoms: N5_31  and  C19_33 
REMARK   11  A    between atoms: C24_38  and  C25_39 
ROOT
HETATM    1  N3  UNL     1      36.879 -17.799  24.741  1.00  0.00    -0.354 N 
ATOM      2  H3  UNL     1      35.910 -17.717  25.050  1.00  0.00     0.162 HD
HETATM    3  C12 UNL     1      37.896 -17.096  25.443  1.00  0.00     0.254 C 
HETATM    4  O1  UNL     1      39.077 -17.215  25.048  1.00  0.00    -0.270 OA
ENDROOT
BRANCH   3   5
HETATM    5  C13 UNL     1      37.568 -16.265  26.577  1.00  0.00     0.158 C 
HETATM    6  C14 UNL     1      36.380 -16.617  27.400  1.00  0.00     0.050 C 
HETATM    7  C15 UNL     1      36.564 -15.683  28.596  1.00  0.00     0.006 C 
HETATM    8  C16 UNL     1      38.039 -15.293  28.614  1.00  0.00     0.029 C 
HETATM    9  C17 UNL     1      38.658 -16.328  27.701  1.00  0.00     0.130 C 
BRANCH   5  10
HETATM   10  O2  UNL     1      37.515 -14.892  26.264  1.00  0.00    -0.378 OA
ATOM     11  H2  UNL     1      38.052 -14.658  25.517  1.00  0.00     0.211 HD
ENDBRANCH   5  10
BRANCH   9  12
HETATM   12  N4  UNL     1      38.658 -17.574  28.385  1.00  0.00    -0.335 N 
HETATM   13  C18 UNL     1      39.567 -18.630  28.223  1.00  0.00     0.316 C 
HETATM   14  O3  UNL     1      40.501 -18.539  27.388  1.00  0.00    -0.247 OA
HETATM   15  N5  UNL     1      39.519 -19.850  28.955  1.00  0.00    -0.338 N 
ATOM     16  H5  UNL     1      38.793 -19.948  29.664  1.00  0.00     0.164 HD
ATOM     17  H4  UNL     1      37.915 -17.715  29.068  1.00  0.00     0.164 HD
BRANCH  15  18
HETATM   18  C19 UNL     1      40.413 -20.944  28.769  1.00  0.00     0.095 C 
HETATM   19  C20 UNL     1      41.369 -21.175  29.930  1.00  0.00     0.026 C 
HETATM   20  C21 UNL     1      42.401 -22.215  29.611  1.00  0.00     0.002 C 
HETATM   21  C22 UNL     1      41.821 -23.346  28.832  1.00  0.00     0.001 C 
HETATM   22  C23 UNL     1      40.337 -23.419  29.082  1.00  0.00     0.012 C 
HETATM   23  C24 UNL     1      39.706 -22.217  28.395  1.00  0.00     0.073 C 
BRANCH  23  24
HETATM   24  C25 UNL     1      39.590 -22.434  26.906  1.00  0.00     0.359 C 
HETATM   25  F1  UNL     1      40.184 -21.428  26.175  1.00  0.00    -0.214 F 
HETATM   26  F2  UNL     1      38.245 -22.452  26.584  1.00  0.00    -0.214 F 
ENDBRANCH  23  24
ENDBRANCH  15  18
ENDBRANCH   9  12
ENDBRANCH   3   5
BRANCH   1  27
HETATM   27  C11 UNL     1      37.193 -18.633  23.591  1.00  0.00     0.084 C 
HETATM   28  C10 UNL     1      36.012 -18.546  22.621  1.00  0.00     0.026 C 
HETATM   29  C9  UNL     1      35.538 -19.929  22.281  1.00  0.00     0.008 C 
HETATM   30  C8  UNL     1      35.069 -20.619  23.564  1.00  0.00     0.003 C 
HETATM   31  C27 UNL     1      36.316 -20.862  24.413  1.00  0.00     0.008 C 
HETATM   32  C26 UNL     1      37.479 -20.044  23.942  1.00  0.00     0.026 C 
BRANCH  30  33
HETATM   33  C7  UNL     1      34.464 -21.935  23.181  1.00  0.00     0.124 C 
BRANCH  33  34
HETATM   34  N2  UNL     1      35.475 -22.894  22.899  1.00  0.00    -0.389 N 
ATOM     35  H2  UNL     1      36.208 -22.645  22.234  1.00  0.00     0.159 HD
BRANCH  34  36
HETATM   36  C6  UNL     1      35.513 -24.164  23.490  1.00  0.00     0.032 A 
HETATM   37  C5  UNL     1      36.507 -24.527  24.389  1.00  0.00     0.077 A 
HETATM   38  C4  UNL     1      36.515 -25.781  24.935  1.00  0.00     0.103 A 
HETATM   39  N6  UNL     1      35.562 -26.701  24.622  1.00  0.00    -0.352 N 
HETATM   40  C29 UNL     1      34.564 -26.395  23.748  1.00  0.00     0.092 A 
ATOM     41  H6  UNL     1      35.596 -27.628  25.047  1.00  0.00     0.166 HD
HETATM   42  C28 UNL     1      34.567 -25.136  23.204  1.00  0.00     0.046 A 
BRANCH  38  43
HETATM   43  N1  UNL     1      37.444 -26.154  25.756  1.00  0.00    -0.372 N 
ATOM     44  H1  UNL     1      37.151 -26.672  26.584  1.00  0.00     0.161 HD
BRANCH  43  45
HETATM   45  C2  UNL     1      38.840 -25.906  25.606  1.00  0.00     0.075 C 
HETATM   46  C1  UNL     1      39.323 -26.830  24.472  1.00  0.00     0.031 C 
HETATM   47  C3  UNL     1      39.662 -26.255  26.807  1.00  0.00     0.031 C 
ENDBRANCH  43  45
ENDBRANCH  38  43
ENDBRANCH  34  36
ENDBRANCH  33  34
ENDBRANCH  30  33
ENDBRANCH   1  27
TORSDOF 11
ENDMDL
MODEL 4
REMARK VINA RESULT: -7.846563962      3.948      7.094
REMARK  11 active torsions:
REMARK  status: ('A' for Active; 'I' for Inactive)
REMARK    1  A    between atoms: C2_2  and  N1_4 
REMARK    2  A    between atoms: N1_4  and  C4_6 
REMARK    3  A    between atoms: C6_8  and  N2_9 
REMARK    4  A    between atoms: N2_9  and  C7_11 
REMARK    5  A    between atoms: C7_11  and  C8_12 
REMARK    6  A    between atoms: C11_15  and  N3_16 
REMARK       I    between atoms: N3_16  and  C12_18 
REMARK    7  A    between atoms: C12_18  and  C13_20 
REMARK    8  A    between atoms: C13_20  and  O2_21 
REMARK    9  A    between atoms: C17_26  and  N4_27 
REMARK       I    between atoms: N4_27  and  C18_29 
REMARK       I    between atoms: C18_29  and  N5_31 
REMARK   10  A    between atoms: N5_31  and  C19_33 
REMARK   11  A    between atoms: C24_38  and  C25_39 
ROOT
HETATM    1  N3  UNL     1      40.135 -19.911  28.392  1.00  0.00    -0.354 N 
ATOM      2  H3  UNL     1      40.521 -20.210  27.496  1.00  0.00     0.162 HD
HETATM    3  C12 UNL     1      40.742 -20.357  29.597  1.00  0.00     0.254 C 
HETATM    4  O1  UNL     1      40.252 -19.974  30.683  1.00  0.00    -0.270 OA
ENDROOT
BRANCH   3   5
HETATM    5  C13 UNL     1      41.889 -21.233  29.563  1.00  0.00     0.158 C 
HETATM    6  C14 UNL     1      41.935 -22.385  30.504  1.00  0.00     0.050 C 
HETATM    7  C15 UNL     1      43.130 -23.163  29.956  1.00  0.00     0.006 C 
HETATM    8  C16 UNL     1      43.315 -22.708  28.512  1.00  0.00     0.029 C 
HETATM    9  C17 UNL     1      41.998 -22.026  28.217  1.00  0.00     0.130 C 
BRANCH   5  10
HETATM   10  O2  UNL     1      43.117 -20.545  29.625  1.00  0.00    -0.378 OA
ATOM     11  H2  UNL     1      43.871 -21.122  29.607  1.00  0.00     0.211 HD
ENDBRANCH   5  10
BRANCH   9  12
HETATM   12  N4  UNL     1      40.999 -23.032  28.100  1.00  0.00    -0.335 N 
HETATM   13  C18 UNL     1      40.481 -23.579  26.916  1.00  0.00     0.316 C 
HETATM   14  O3  UNL     1      40.887 -23.171  25.800  1.00  0.00    -0.247 OA
HETATM   15  N5  UNL     1      39.490 -24.599  26.870  1.00  0.00    -0.338 N 
ATOM     16  H5  UNL     1      39.157 -24.977  27.757  1.00  0.00     0.164 HD
ATOM     17  H4  UNL     1      40.618 -23.395  28.973  1.00  0.00     0.164 HD
BRANCH  15  18
HETATM   18  C19 UNL     1      38.928 -25.132  25.673  1.00  0.00     0.095 C 
HETATM   19  C20 UNL     1      39.475 -26.495  25.278  1.00  0.00     0.026 C 
HETATM   20  C21 UNL     1      38.988 -26.928  23.927  1.00  0.00     0.002 C 
HETATM   21  C22 UNL     1      37.559 -26.560  23.713  1.00  0.00     0.001 C 
HETATM   22  C23 UNL     1      36.875 -26.406  25.047  1.00  0.00     0.012 C 
HETATM   23  C24 UNL     1      37.424 -25.140  25.690  1.00  0.00     0.073 C 
BRANCH  23  24
HETATM   24  C25 UNL     1      36.801 -23.904  25.089  1.00  0.00     0.359 C 
HETATM   25  F1  UNL     1      37.057 -22.768  25.826  1.00  0.00    -0.214 F 
HETATM   26  F2  UNL     1      35.431 -24.091  25.064  1.00  0.00    -0.214 F 
ENDBRANCH  23  24
ENDBRANCH  15  18
ENDBRANCH   9  12
ENDBRANCH   3   5
BRANCH   1  27
HETATM   27  C11 UNL     1      38.973 -19.035  28.409  1.00  0.00     0.084 C 
HETATM   28  C10 UNL     1      37.875 -19.707  27.582  1.00  0.00     0.026 C 
HETATM   29  C9  UNL     1      37.378 -18.750  26.537  1.00  0.00     0.008 C 
HETATM   30  C8  UNL     1      38.539 -18.388  25.608  1.00  0.00     0.003 C 
HETATM   31  C27 UNL     1      39.513 -17.548  26.432  1.00  0.00     0.008 C 
HETATM   32  C26 UNL     1      39.251 -17.671  27.902  1.00  0.00     0.026 C 
BRANCH  30  33
HETATM   33  C7  UNL     1      37.988 -17.555  24.490  1.00  0.00     0.124 C 
BRANCH  33  34
HETATM   34  N2  UNL     1      36.672 -17.972  24.149  1.00  0.00    -0.389 N 
ATOM     35  H2  UNL     1      35.899 -17.668  24.741  1.00  0.00     0.159 HD
BRANCH  34  36
HETATM   36  C6  UNL     1      36.387 -18.779  23.040  1.00  0.00     0.032 A 
HETATM   37  C5  UNL     1      35.995 -20.104  23.175  1.00  0.00     0.077 A 
HETATM   38  C4  UNL     1      35.737 -20.861  22.066  1.00  0.00     0.103 A 
HETATM   39  N6  UNL     1      35.852 -20.349  20.811  1.00  0.00    -0.352 N 
HETATM   40  C29 UNL     1      36.231 -19.055  20.623  1.00  0.00     0.092 A 
ATOM     41  H6  UNL     1      35.652 -20.939  20.004  1.00  0.00     0.166 HD
HETATM   42  C28 UNL     1      36.490 -18.305  21.741  1.00  0.00     0.046 A 
BRANCH  38  43
HETATM   43  N1  UNL     1      35.395 -22.106  22.163  1.00  0.00    -0.372 N 
ATOM     44  H1  UNL     1      34.721 -22.346  22.890  1.00  0.00     0.161 HD
BRANCH  43  45
HETATM   45  C2  UNL     1      35.874 -23.171  21.345  1.00  0.00     0.075 C 
HETATM   46  C1  UNL     1      35.083 -24.425  21.763  1.00  0.00     0.031 C 
HETATM   47  C3  UNL     1      37.319 -23.502  21.547  1.00  0.00     0.031 C 
ENDBRANCH  43  45
ENDBRANCH  38  43
ENDBRANCH  34  36
ENDBRANCH  33  34
ENDBRANCH  30  33
ENDBRANCH   1  27
TORSDOF 11
ENDMDL
MODEL 5
REMARK VINA RESULT: -7.831969733      3.217      6.052
REMARK  11 active torsions:
REMARK  status: ('A' for Active; 'I' for Inactive)
REMARK    1  A    between atoms: C2_2  and  N1_4 
REMARK    2  A    between atoms: N1_4  and  C4_6 
REMARK    3  A    between atoms: C6_8  and  N2_9 
REMARK    4  A    between atoms: N2_9  and  C7_11 
REMARK    5  A    between atoms: C7_11  and  C8_12 
REMARK    6  A    between atoms: C11_15  and  N3_16 
REMARK       I    between atoms: N3_16  and  C12_18 
REMARK    7  A    between atoms: C12_18  and  C13_20 
REMARK    8  A    between atoms: C13_20  and  O2_21 
REMARK    9  A    between atoms: C17_26  and  N4_27 
REMARK       I    between atoms: N4_27  and  C18_29 
REMARK       I    between atoms: C18_29  and  N5_31 
REMARK   10  A    between atoms: N5_31  and  C19_33 
REMARK   11  A    between atoms: C24_38  and  C25_39 
ROOT
HETATM    1  N3  UNL     1      41.160 -22.776  28.487  1.00  0.00    -0.354 N 
ATOM      2  H3  UNL     1      40.360 -23.091  29.036  1.00  0.00     0.162 HD
HETATM    3  C12 UNL     1      42.147 -23.718  28.089  1.00  0.00     0.254 C 
HETATM    4  O1  UNL     1      43.117 -23.309  27.413  1.00  0.00    -0.270 OA
ENDROOT
BRANCH   3   5
HETATM    5  C13 UNL     1      42.031 -25.108  28.463  1.00  0.00     0.158 C 
HETATM    6  C14 UNL     1      41.139 -25.470  29.597  1.00  0.00     0.050 C 
HETATM    7  C15 UNL     1      41.105 -26.992  29.469  1.00  0.00     0.006 C 
HETATM    8  C16 UNL     1      41.512 -27.312  28.034  1.00  0.00     0.029 C 
HETATM    9  C17 UNL     1      41.354 -25.974  27.347  1.00  0.00     0.130 C 
BRANCH   5  10
HETATM   10  O2  UNL     1      43.277 -25.741  28.643  1.00  0.00    -0.378 OA
ATOM     11  H2  UNL     1      43.985 -25.133  28.816  1.00  0.00     0.211 HD
ENDBRANCH   5  10
BRANCH   9  12
HETATM   12  N4  UNL     1      39.964 -25.705  27.223  1.00  0.00    -0.335 N 
HETATM   13  C18 UNL     1      39.130 -26.030  26.143  1.00  0.00     0.316 C 
HETATM   14  O3  UNL     1      39.600 -26.611  25.133  1.00  0.00    -0.247 OA
HETATM   15  N5  UNL     1      37.737 -25.745  26.090  1.00  0.00    -0.338 N 
ATOM     16  H5  UNL     1      37.313 -25.302  26.904  1.00  0.00     0.164 HD
ATOM     17  H4  UNL     1      39.524 -25.222  28.006  1.00  0.00     0.164 HD
BRANCH  15  18
HETATM   18  C19 UNL     1      36.890 -26.035  24.980  1.00  0.00     0.095 C 
HETATM   19  C20 UNL     1      36.041 -27.286  25.151  1.00  0.00     0.026 C 
HETATM   20  C21 UNL     1      35.308 -27.645  23.893  1.00  0.00     0.002 C 
HETATM   21  C22 UNL     1      34.794 -26.435  23.190  1.00  0.00     0.001 C 
HETATM   22  C23 UNL     1      34.641 -25.307  24.178  1.00  0.00     0.012 C 
HETATM   23  C24 UNL     1      36.042 -24.862  24.573  1.00  0.00     0.073 C 
BRANCH  23  24
HETATM   24  C25 UNL     1      36.666 -24.002  23.501  1.00  0.00     0.359 C 
HETATM   25  F1  UNL     1      37.878 -24.493  23.065  1.00  0.00    -0.214 F 
HETATM   26  F2  UNL     1      36.890 -22.749  24.041  1.00  0.00    -0.214 F 
ENDBRANCH  23  24
ENDBRANCH  15  18
ENDBRANCH   9  12
ENDBRANCH   3   5
BRANCH   1  27
HETATM   27  C11 UNL     1      41.267 -21.370  28.126  1.00  0.00     0.084 C 
HETATM   28  C10 UNL     1      40.507 -20.563  29.180  1.00  0.00     0.026 C 
HETATM   29  C9  UNL     1      39.510 -19.667  28.503  1.00  0.00     0.008 C 
HETATM   30  C8  UNL     1      38.510 -20.534  27.735  1.00  0.00     0.003 C 
HETATM   31  C27 UNL     1      39.278 -21.163  26.573  1.00  0.00     0.008 C 
HETATM   32  C26 UNL     1      40.760 -21.067  26.767  1.00  0.00     0.026 C 
BRANCH  30  33
HETATM   33  C7  UNL     1      37.443 -19.631  27.194  1.00  0.00     0.124 C 
BRANCH  33  34
HETATM   34  N2  UNL     1      37.256 -18.504  28.040  1.00  0.00    -0.389 N 
ATOM     35  H2  UNL     1      37.066 -18.667  29.029  1.00  0.00     0.159 HD
BRANCH  34  36
HETATM   36  C6  UNL     1      37.322 -17.182  27.582  1.00  0.00     0.032 A 
HETATM   37  C5  UNL     1      38.015 -16.836  26.429  1.00  0.00     0.077 A 
HETATM   38  C4  UNL     1      38.064 -15.531  26.022  1.00  0.00     0.103 A 
HETATM   39  N6  UNL     1      37.443 -14.543  26.721  1.00  0.00    -0.352 N 
HETATM   40  C29 UNL     1      36.749 -14.828  27.857  1.00  0.00     0.092 A 
ATOM     41  H6  UNL     1      37.499 -13.579  26.391  1.00  0.00     0.166 HD
HETATM   42  C28 UNL     1      36.708 -16.139  28.259  1.00  0.00     0.046 A 
BRANCH  38  43
HETATM   43  N1  UNL     1      38.723 -15.179  24.966  1.00  0.00    -0.372 N 
ATOM     44  H1  UNL     1      38.534 -14.250  24.589  1.00  0.00     0.161 HD
BRANCH  43  45
HETATM   45  C2  UNL     1      39.689 -15.972  24.280  1.00  0.00     0.075 C 
HETATM   46  C1  UNL     1      40.988 -15.145  24.257  1.00  0.00     0.031 C 
HETATM   47  C3  UNL     1      39.351 -16.258  22.850  1.00  0.00     0.031 C 
ENDBRANCH  43  45
ENDBRANCH  38  43
ENDBRANCH  34  36
ENDBRANCH  33  34
ENDBRANCH  30  33
ENDBRANCH   1  27
TORSDOF 11
ENDMDL
