MODEL 1
REMARK VINA RESULT: -7.733437631      0.000      0.000
REMARK  11 active torsions:
REMARK  status: ('A' for Active; 'I' for Inactive)
REMARK    1  A    between atoms: C1_4  and  N2_5 
REMARK    2  A    between atoms: C1_4  and  C8_17 
REMARK    3  A    between atoms: N2_5  and  C2_7 
REMARK    4  A    between atoms: C2_7  and  C3_8 
REMARK    5  A    between atoms: C3_8  and  C4_9 
REMARK    6  A    between atoms: C4_9  and  C5_10 
REMARK    7  A    between atoms: C5_10  and  C6_11 
REMARK    8  A    between atoms: C6_11  and  C7_12 
REMARK    9  A    between atoms: C7_12  and  N3_13 
REMARK   10  A    between atoms: C8_17  and  N4_18 
REMARK       I    between atoms: N4_18  and  C9_20 
REMARK       I    between atoms: C9_20  and  N5_22 
REMARK   11  A    between atoms: N5_22  and  C10_24 
ROOT
HETATM    1  C8  UNL     1      38.751 -19.309  27.284  1.00  0.00     0.171 C 
HETATM    2  C20 UNL     1      40.144 -18.766  27.562  1.00  0.00     0.103 C 
HETATM    3  C21 UNL     1      40.846 -19.946  28.113  1.00  0.00    -0.026 A 
HETATM    4  C22 UNL     1      42.183 -20.321  28.208  1.00  0.00     0.028 A 
HETATM    5  C23 UNL     1      42.566 -21.506  28.790  1.00  0.00     0.011 A 
HETATM    6 BR1  UNL     1      44.418 -21.964  28.891  1.00  0.00    -0.051 Br
HETATM    7  C24 UNL     1      41.617 -22.372  29.307  1.00  0.00     0.021 A 
HETATM    8  C25 UNL     1      40.278 -22.031  29.230  1.00  0.00     0.031 A 
HETATM    9  C26 UNL     1      39.919 -20.815  28.630  1.00  0.00     0.036 A 
HETATM   10  N6  UNL     1      38.631 -20.254  28.430  1.00  0.00    -0.357 N 
ATOM     11  H6  UNL     1      37.787 -20.458  28.966  1.00  0.00     0.162 HD
ENDROOT
BRANCH   1  12
HETATM   12  C1  UNL     1      37.703 -18.290  27.415  1.00  0.00     0.121 C 
HETATM   13  N1  UNL     1      37.064 -18.245  28.531  1.00  0.00    -0.386 N 
ATOM     14  H12 UNL     1      36.336 -17.537  28.622  1.00  0.00     0.157 HD
ATOM     15  H11 UNL     1      37.310 -18.888  29.283  1.00  0.00     0.157 HD
BRANCH  12  16
HETATM   16  N2  UNL     1      37.365 -17.408  26.383  1.00  0.00    -0.377 N 
ATOM     17  H2  UNL     1      36.536 -17.667  25.848  1.00  0.00     0.160 HD
BRANCH  16  18
HETATM   18  C2  UNL     1      37.998 -16.210  25.965  1.00  0.00     0.121 C 
BRANCH  18  19
HETATM   19  C3  UNL     1      38.656 -15.340  26.959  1.00  0.00     0.020 C 
BRANCH  19  20
HETATM   20  C4  UNL     1      37.730 -14.285  27.487  1.00  0.00     0.002 C 
BRANCH  20  21
HETATM   21  C5  UNL     1      37.128 -14.693  28.830  1.00  0.00     0.002 C 
BRANCH  21  22
HETATM   22  C6  UNL     1      35.694 -15.116  28.725  1.00  0.00     0.027 C 
BRANCH  22  23
HETATM   23  C7  UNL     1      34.744 -14.061  29.243  1.00  0.00     0.229 C 
BRANCH  23  24
HETATM   24  N3  UNL     1      33.492 -14.679  29.623  1.00  0.00    -0.079 N 
ATOM     25  H33 UNL     1      32.910 -14.895  28.815  1.00  0.00     0.274 HD
ATOM     26  H32 UNL     1      33.622 -15.630  29.968  1.00  0.00     0.274 HD
ATOM     27  H31 UNL     1      33.009 -14.087  30.299  1.00  0.00     0.274 HD
ENDBRANCH  23  24
ENDBRANCH  22  23
ENDBRANCH  21  22
ENDBRANCH  20  21
ENDBRANCH  19  20
ENDBRANCH  18  19
ENDBRANCH  16  18
ENDBRANCH  12  16
ENDBRANCH   1  12
BRANCH   1  28
HETATM   28  N4  UNL     1      38.687 -20.084  26.103  1.00  0.00    -0.309 N 
HETATM   29  C9  UNL     1      37.769 -21.112  25.779  1.00  0.00     0.319 C 
HETATM   30  O1  UNL     1      36.850 -21.417  26.590  1.00  0.00    -0.247 OA
HETATM   31  N5  UNL     1      37.835 -21.828  24.563  1.00  0.00    -0.334 N 
ATOM     32  H5  UNL     1      38.588 -21.562  23.929  1.00  0.00     0.165 HD
ATOM     33  H4  UNL     1      39.392 -19.877  25.396  1.00  0.00     0.167 HD
BRANCH  31  34
HETATM   34  C10 UNL     1      36.985 -22.875  24.113  1.00  0.00     0.035 C 
HETATM   35  C11 UNL     1      35.585 -22.344  23.918  1.00  0.00     0.035 C 
HETATM   36  C12 UNL     1      34.674 -23.421  23.313  1.00  0.00    -0.012 C 
HETATM   37  C13 UNL     1      35.254 -23.806  21.990  1.00  0.00     0.009 C 
HETATM   38  C17 UNL     1      34.617 -24.596  24.265  1.00  0.00     0.009 C 
HETATM   39  C14 UNL     1      36.596 -24.444  22.188  1.00  0.00    -0.012 C 
HETATM   40  C15 UNL     1      36.534 -25.611  23.158  1.00  0.00     0.009 C 
HETATM   41  C19 UNL     1      37.526 -23.429  22.807  1.00  0.00     0.035 C 
HETATM   42  C16 UNL     1      36.024 -25.106  24.466  1.00  0.00    -0.012 C 
HETATM   43  C18 UNL     1      36.881 -24.030  25.085  1.00  0.00     0.035 C 
ENDBRANCH  31  34
ENDBRANCH   1  28
TORSDOF 11
ENDMDL
MODEL 2
REMARK VINA RESULT: -7.730061331      0.132      1.255
REMARK  11 active torsions:
REMARK  status: ('A' for Active; 'I' for Inactive)
REMARK    1  A    between atoms: C1_4  and  N2_5 
REMARK    2  A    between atoms: C1_4  and  C8_17 
REMARK    3  A    between atoms: N2_5  and  C2_7 
REMARK    4  A    between atoms: C2_7  and  C3_8 
REMARK    5  A    between atoms: C3_8  and  C4_9 
REMARK    6  A    between atoms: C4_9  and  C5_10 
REMARK    7  A    between atoms: C5_10  and  C6_11 
REMARK    8  A    between atoms: C6_11  and  C7_12 
REMARK    9  A    between atoms: C7_12  and  N3_13 
REMARK   10  A    between atoms: C8_17  and  N4_18 
REMARK       I    between atoms: N4_18  and  C9_20 
REMARK       I    between atoms: C9_20  and  N5_22 
REMARK   11  A    between atoms: N5_22  and  C10_24 
ROOT
HETATM    1  C8  UNL     1      38.804 -19.395  27.322  1.00  0.00     0.171 C 
HETATM    2  C20 UNL     1      40.186 -18.828  27.608  1.00  0.00     0.103 C 
HETATM    3  C21 UNL     1      40.912 -20.000  28.141  1.00  0.00    -0.026 A 
HETATM    4  C22 UNL     1      42.257 -20.349  28.229  1.00  0.00     0.028 A 
HETATM    5  C23 UNL     1      42.665 -21.534  28.794  1.00  0.00     0.011 A 
HETATM    6 BR1  UNL     1      44.526 -21.955  28.887  1.00  0.00    -0.051 Br
HETATM    7  C24 UNL     1      41.735 -22.426  29.299  1.00  0.00     0.021 A 
HETATM    8  C25 UNL     1      40.389 -22.112  29.228  1.00  0.00     0.031 A 
HETATM    9  C26 UNL     1      40.005 -20.896  28.646  1.00  0.00     0.036 A 
HETATM   10  N6  UNL     1      38.705 -20.359  28.455  1.00  0.00    -0.357 N 
ATOM     11  H6  UNL     1      37.866 -20.588  28.989  1.00  0.00     0.162 HD
ENDROOT
BRANCH   1  12
HETATM   12  C1  UNL     1      37.735 -18.400  27.469  1.00  0.00     0.121 C 
HETATM   13  N1  UNL     1      37.118 -18.364  28.597  1.00  0.00    -0.386 N 
ATOM     14  H12 UNL     1      36.375 -17.672  28.699  1.00  0.00     0.157 HD
ATOM     15  H11 UNL     1      37.394 -18.996  29.349  1.00  0.00     0.157 HD
BRANCH  12  16
HETATM   16  N2  UNL     1      37.356 -17.533  26.439  1.00  0.00    -0.377 N 
ATOM     17  H2  UNL     1      36.499 -17.792  25.950  1.00  0.00     0.160 HD
BRANCH  16  18
HETATM   18  C2  UNL     1      37.980 -16.350  25.969  1.00  0.00     0.121 C 
BRANCH  18  19
HETATM   19  C3  UNL     1      38.640 -15.437  26.922  1.00  0.00     0.020 C 
BRANCH  19  20
HETATM   20  C4  UNL     1      37.701 -14.389  27.442  1.00  0.00     0.002 C 
BRANCH  20  21
HETATM   21  C5  UNL     1      37.184 -14.743  28.834  1.00  0.00     0.002 C 
BRANCH  21  22
HETATM   22  C6  UNL     1      35.762 -15.215  28.829  1.00  0.00     0.027 C 
BRANCH  22  23
HETATM   23  C7  UNL     1      34.792 -14.120  29.211  1.00  0.00     0.229 C 
BRANCH  23  24
HETATM   24  N3  UNL     1      33.531 -14.707  29.612  1.00  0.00    -0.079 N 
ATOM     25  H33 UNL     1      33.384 -15.625  29.194  1.00  0.00     0.274 HD
ATOM     26  H32 UNL     1      33.533 -14.990  30.591  1.00  0.00     0.274 HD
ATOM     27  H31 UNL     1      32.771 -14.061  29.399  1.00  0.00     0.274 HD
ENDBRANCH  23  24
ENDBRANCH  22  23
ENDBRANCH  21  22
ENDBRANCH  20  21
ENDBRANCH  19  20
ENDBRANCH  18  19
ENDBRANCH  16  18
ENDBRANCH  12  16
ENDBRANCH   1  12
BRANCH   1  28
HETATM   28  N4  UNL     1      38.755 -20.155  26.131  1.00  0.00    -0.309 N 
HETATM   29  C9  UNL     1      37.813 -21.145  25.761  1.00  0.00     0.319 C 
HETATM   30  O1  UNL     1      36.854 -21.424  26.535  1.00  0.00    -0.247 OA
HETATM   31  N5  UNL     1      37.897 -21.850  24.540  1.00  0.00    -0.334 N 
ATOM     32  H5  UNL     1      38.681 -21.604  23.937  1.00  0.00     0.165 HD
ATOM     33  H4  UNL     1      39.492 -19.966  25.452  1.00  0.00     0.167 HD
BRANCH  31  34
HETATM   34  C10 UNL     1      37.026 -22.859  24.047  1.00  0.00     0.035 C 
HETATM   35  C11 UNL     1      37.512 -23.336  22.700  1.00  0.00     0.035 C 
HETATM   36  C12 UNL     1      36.662 -24.513  22.200  1.00  0.00    -0.012 C 
HETATM   37  C13 UNL     1      36.792 -25.616  23.201  1.00  0.00     0.009 C 
HETATM   38  C17 UNL     1      35.229 -24.048  22.059  1.00  0.00     0.009 C 
HETATM   39  C14 UNL     1      36.201 -25.187  24.510  1.00  0.00    -0.012 C 
HETATM   40  C15 UNL     1      34.768 -24.705  24.358  1.00  0.00     0.009 C 
HETATM   41  C19 UNL     1      36.989 -24.012  25.034  1.00  0.00     0.035 C 
HETATM   42  C16 UNL     1      34.760 -23.556  23.407  1.00  0.00    -0.012 C 
HETATM   43  C18 UNL     1      35.602 -22.386  23.853  1.00  0.00     0.035 C 
ENDBRANCH  31  34
ENDBRANCH   1  28
TORSDOF 11
ENDMDL
MODEL 3
REMARK VINA RESULT: -7.677154876      3.115      6.425
REMARK  11 active torsions:
REMARK  status: ('A' for Active; 'I' for Inactive)
REMARK    1  A    between atoms: C1_4  and  N2_5 
REMARK    2  A    between atoms: C1_4  and  C8_17 
REMARK    3  A    between atoms: N2_5  and  C2_7 
REMARK    4  A    between atoms: C2_7  and  C3_8 
REMARK    5  A    between atoms: C3_8  and  C4_9 
REMARK    6  A    between atoms: C4_9  and  C5_10 
REMARK    7  A    between atoms: C5_10  and  C6_11 
REMARK    8  A    between atoms: C6_11  and  C7_12 
REMARK    9  A    between atoms: C7_12  and  N3_13 
REMARK   10  A    between atoms: C8_17  and  N4_18 
REMARK       I    between atoms: N4_18  and  C9_20 
REMARK       I    between atoms: C9_20  and  N5_22 
REMARK   11  A    between atoms: N5_22  and  C10_24 
ROOT
HETATM    1  C8  UNL     1      39.076 -18.877  28.349  1.00  0.00     0.171 C 
HETATM    2  C20 UNL     1      38.647 -17.911  29.444  1.00  0.00     0.103 C 
HETATM    3  C21 UNL     1      38.063 -16.791  28.674  1.00  0.00    -0.026 A 
HETATM    4  C22 UNL     1      37.144 -15.788  28.969  1.00  0.00     0.028 A 
HETATM    5  C23 UNL     1      36.773 -14.846  28.040  1.00  0.00     0.011 A 
HETATM    6 BR1  UNL     1      35.508 -13.492  28.507  1.00  0.00    -0.051 Br
HETATM    7  C24 UNL     1      37.312 -14.868  26.766  1.00  0.00     0.021 A 
HETATM    8  C25 UNL     1      38.229 -15.852  26.437  1.00  0.00     0.031 A 
HETATM    9  C26 UNL     1      38.587 -16.799  27.407  1.00  0.00     0.036 A 
HETATM   10  N6  UNL     1      39.489 -17.891  27.311  1.00  0.00    -0.357 N 
ATOM     11  H6  UNL     1      40.267 -17.983  26.658  1.00  0.00     0.162 HD
ENDROOT
BRANCH   1  12
HETATM   12  C1  UNL     1      40.250 -19.676  28.719  1.00  0.00     0.121 C 
HETATM   13  N1  UNL     1      40.240 -20.232  29.879  1.00  0.00    -0.386 N 
ATOM     14  H12 UNL     1      41.056 -20.788  30.136  1.00  0.00     0.157 HD
ATOM     15  H11 UNL     1      39.428 -20.124  30.488  1.00  0.00     0.157 HD
BRANCH  12  16
HETATM   16  N2  UNL     1      41.362 -19.825  27.885  1.00  0.00    -0.377 N 
ATOM     17  H2  UNL     1      41.533 -19.046  27.249  1.00  0.00     0.160 HD
BRANCH  16  18
HETATM   18  C2  UNL     1      42.290 -20.892  27.787  1.00  0.00     0.121 C 
BRANCH  18  19
HETATM   19  C3  UNL     1      43.702 -20.678  28.160  1.00  0.00     0.020 C 
BRANCH  19  20
HETATM   20  C4  UNL     1      43.919 -20.801  29.639  1.00  0.00     0.002 C 
BRANCH  20  21
HETATM   21  C5  UNL     1      45.224 -20.134  30.069  1.00  0.00     0.002 C 
BRANCH  21  22
HETATM   22  C6  UNL     1      45.962 -20.911  31.116  1.00  0.00     0.027 C 
BRANCH  22  23
HETATM   23  C7  UNL     1      45.287 -22.225  31.439  1.00  0.00     0.229 C 
BRANCH  23  24
HETATM   24  N3  UNL     1      44.920 -22.252  32.838  1.00  0.00    -0.079 N 
ATOM     25  H33 UNL     1      44.862 -23.202  33.202  1.00  0.00     0.274 HD
ATOM     26  H32 UNL     1      45.670 -21.910  33.439  1.00  0.00     0.274 HD
ATOM     27  H31 UNL     1      44.052 -21.734  32.974  1.00  0.00     0.274 HD
ENDBRANCH  23  24
ENDBRANCH  22  23
ENDBRANCH  21  22
ENDBRANCH  20  21
ENDBRANCH  19  20
ENDBRANCH  18  19
ENDBRANCH  16  18
ENDBRANCH  12  16
ENDBRANCH   1  12
BRANCH   1  28
HETATM   28  N4  UNL     1      37.996 -19.614  27.811  1.00  0.00    -0.309 N 
HETATM   29  C9  UNL     1      37.914 -20.252  26.550  1.00  0.00     0.319 C 
HETATM   30  O1  UNL     1      38.899 -20.218  25.760  1.00  0.00    -0.247 OA
HETATM   31  N5  UNL     1      36.755 -20.940  26.125  1.00  0.00    -0.334 N 
ATOM     32  H5  UNL     1      35.976 -20.949  26.782  1.00  0.00     0.165 HD
ATOM     33  H4  UNL     1      37.172 -19.695  28.406  1.00  0.00     0.167 HD
BRANCH  31  34
HETATM   34  C10 UNL     1      36.539 -21.620  24.896  1.00  0.00     0.035 C 
HETATM   35  C11 UNL     1      35.816 -22.920  25.154  1.00  0.00     0.035 C 
HETATM   36  C12 UNL     1      35.458 -23.616  23.833  1.00  0.00    -0.012 C 
HETATM   37  C13 UNL     1      34.570 -22.690  23.066  1.00  0.00     0.009 C 
HETATM   38  C17 UNL     1      36.738 -23.917  23.084  1.00  0.00     0.009 C 
HETATM   39  C14 UNL     1      35.323 -21.446  22.703  1.00  0.00    -0.012 C 
HETATM   40  C15 UNL     1      36.615 -21.757  21.966  1.00  0.00     0.009 C 
HETATM   41  C19 UNL     1      35.720 -20.735  23.973  1.00  0.00     0.035 C 
HETATM   42  C16 UNL     1      37.461 -22.612  22.848  1.00  0.00    -0.012 C 
HETATM   43  C18 UNL     1      37.818 -21.972  24.166  1.00  0.00     0.035 C 
ENDBRANCH  31  34
ENDBRANCH   1  28
TORSDOF 11
ENDMDL
MODEL 4
REMARK VINA RESULT: -7.618174739      3.149      6.714
REMARK  11 active torsions:
REMARK  status: ('A' for Active; 'I' for Inactive)
REMARK    1  A    between atoms: C1_4  and  N2_5 
REMARK    2  A    between atoms: C1_4  and  C8_17 
REMARK    3  A    between atoms: N2_5  and  C2_7 
REMARK    4  A    between atoms: C2_7  and  C3_8 
REMARK    5  A    between atoms: C3_8  and  C4_9 
REMARK    6  A    between atoms: C4_9  and  C5_10 
REMARK    7  A    between atoms: C5_10  and  C6_11 
REMARK    8  A    between atoms: C6_11  and  C7_12 
REMARK    9  A    between atoms: C7_12  and  N3_13 
REMARK   10  A    between atoms: C8_17  and  N4_18 
REMARK       I    between atoms: N4_18  and  C9_20 
REMARK       I    between atoms: C9_20  and  N5_22 
REMARK   11  A    between atoms: N5_22  and  C10_24 
ROOT
HETATM    1  C8  UNL     1      39.200 -19.054  28.365  1.00  0.00     0.171 C 
HETATM    2  C20 UNL     1      38.801 -18.040  29.426  1.00  0.00     0.103 C 
HETATM    3  C21 UNL     1      38.264 -16.923  28.619  1.00  0.00    -0.026 A 
HETATM    4  C22 UNL     1      37.380 -15.878  28.876  1.00  0.00     0.028 A 
HETATM    5  C23 UNL     1      37.051 -14.952  27.916  1.00  0.00     0.011 A 
HETATM    6 BR1  UNL     1      35.833 -13.540  28.331  1.00  0.00    -0.051 Br
HETATM    7  C24 UNL     1      37.597 -15.034  26.646  1.00  0.00     0.021 A 
HETATM    8  C25 UNL     1      38.479 -16.060  26.355  1.00  0.00     0.031 A 
HETATM    9  C26 UNL     1      38.795 -16.990  27.356  1.00  0.00     0.036 A 
HETATM   10  N6  UNL     1      39.656 -18.117  27.300  1.00  0.00    -0.357 N 
ATOM     11  H6  UNL     1      40.435 -18.258  26.656  1.00  0.00     0.162 HD
ENDROOT
BRANCH   1  12
HETATM   12  C1  UNL     1      40.341 -19.884  28.768  1.00  0.00     0.121 C 
HETATM   13  N1  UNL     1      41.362 -19.898  27.986  1.00  0.00    -0.386 N 
ATOM     14  H12 UNL     1      42.156 -20.475  28.265  1.00  0.00     0.157 HD
ATOM     15  H11 UNL     1      41.361 -19.330  27.138  1.00  0.00     0.157 HD
BRANCH  12  16
HETATM   16  N2  UNL     1      40.344 -20.663  29.930  1.00  0.00    -0.377 N 
ATOM     17  H2  UNL     1      39.472 -20.653  30.458  1.00  0.00     0.160 HD
BRANCH  16  18
HETATM   18  C2  UNL     1      41.373 -21.464  30.487  1.00  0.00     0.121 C 
BRANCH  18  19
HETATM   19  C3  UNL     1      41.591 -22.835  29.987  1.00  0.00     0.020 C 
BRANCH  19  20
HETATM   20  C4  UNL     1      40.324 -23.635  29.963  1.00  0.00     0.002 C 
BRANCH  20  21
HETATM   21  C5  UNL     1      40.581 -25.100  30.311  1.00  0.00     0.002 C 
BRANCH  21  22
HETATM   22  C6  UNL     1      40.283 -26.033  29.176  1.00  0.00     0.027 C 
BRANCH  22  23
HETATM   23  C7  UNL     1      41.326 -27.117  29.035  1.00  0.00     0.229 C 
BRANCH  23  24
HETATM   24  N3  UNL     1      40.696 -28.415  29.149  1.00  0.00    -0.079 N 
ATOM     25  H33 UNL     1      40.076 -28.611  28.364  1.00  0.00     0.274 HD
ATOM     26  H32 UNL     1      41.359 -29.177  29.006  1.00  0.00     0.274 HD
ATOM     27  H31 UNL     1      40.216 -28.484  30.046  1.00  0.00     0.274 HD
ENDBRANCH  23  24
ENDBRANCH  22  23
ENDBRANCH  21  22
ENDBRANCH  20  21
ENDBRANCH  19  20
ENDBRANCH  18  19
ENDBRANCH  16  18
ENDBRANCH  12  16
ENDBRANCH   1  12
BRANCH   1  28
HETATM   28  N4  UNL     1      38.098 -19.767  27.841  1.00  0.00    -0.309 N 
HETATM   29  C9  UNL     1      37.975 -20.380  26.571  1.00  0.00     0.319 C 
HETATM   30  O1  UNL     1      38.939 -20.343  25.756  1.00  0.00    -0.247 OA
HETATM   31  N5  UNL     1      36.797 -21.045  26.163  1.00  0.00    -0.334 N 
ATOM     32  H5  UNL     1      36.035 -21.057  26.841  1.00  0.00     0.165 HD
ATOM     33  H4  UNL     1      37.288 -19.850  28.456  1.00  0.00     0.167 HD
BRANCH  31  34
HETATM   34  C10 UNL     1      36.540 -21.699  24.928  1.00  0.00     0.035 C 
HETATM   35  C11 UNL     1      35.726 -22.946  25.172  1.00  0.00     0.035 C 
HETATM   36  C12 UNL     1      35.328 -23.605  23.844  1.00  0.00    -0.012 C 
HETATM   37  C13 UNL     1      34.510 -22.614  23.081  1.00  0.00     0.009 C 
HETATM   38  C17 UNL     1      36.587 -23.989  23.098  1.00  0.00     0.009 C 
HETATM   39  C14 UNL     1      35.351 -21.423  22.731  1.00  0.00    -0.012 C 
HETATM   40  C15 UNL     1      36.622 -21.817  21.998  1.00  0.00     0.009 C 
HETATM   41  C19 UNL     1      35.790 -20.751  24.009  1.00  0.00     0.035 C 
HETATM   42  C16 UNL     1      37.401 -22.736  22.876  1.00  0.00    -0.012 C 
HETATM   43  C18 UNL     1      37.795 -22.133  24.202  1.00  0.00     0.035 C 
ENDBRANCH  31  34
ENDBRANCH   1  28
TORSDOF 11
ENDMDL
MODEL 5
REMARK VINA RESULT: -7.592553840      1.439      2.100
REMARK  11 active torsions:
REMARK  status: ('A' for Active; 'I' for Inactive)
REMARK    1  A    between atoms: C1_4  and  N2_5 
REMARK    2  A    between atoms: C1_4  and  C8_17 
REMARK    3  A    between atoms: N2_5  and  C2_7 
REMARK    4  A    between atoms: C2_7  and  C3_8 
REMARK    5  A    between atoms: C3_8  and  C4_9 
REMARK    6  A    between atoms: C4_9  and  C5_10 
REMARK    7  A    between atoms: C5_10  and  C6_11 
REMARK    8  A    between atoms: C6_11  and  C7_12 
REMARK    9  A    between atoms: C7_12  and  N3_13 
REMARK   10  A    between atoms: C8_17  and  N4_18 
REMARK       I    between atoms: N4_18  and  C9_20 
REMARK       I    between atoms: C9_20  and  N5_22 
REMARK   11  A    between atoms: N5_22  and  C10_24 
ROOT
HETATM    1  C8  UNL     1      39.739 -19.489  28.255  1.00  0.00     0.171 C 
HETATM    2  C20 UNL     1      41.112 -19.698  27.636  1.00  0.00     0.103 C 
HETATM    3  C21 UNL     1      41.614 -20.886  28.360  1.00  0.00    -0.026 A 
HETATM    4  C22 UNL     1      42.565 -21.864  28.077  1.00  0.00     0.028 A 
HETATM    5  C23 UNL     1      42.844 -22.881  28.957  1.00  0.00     0.011 A 
HETATM    6 BR1  UNL     1      44.161 -24.192  28.512  1.00  0.00    -0.051 Br
HETATM    7  C24 UNL     1      42.178 -22.965  30.167  1.00  0.00     0.021 A 
HETATM    8  C25 UNL     1      41.225 -22.010  30.481  1.00  0.00     0.031 A 
HETATM    9  C26 UNL     1      40.963 -20.983  29.563  1.00  0.00     0.036 A 
HETATM   10  N6  UNL     1      40.042 -19.907  29.653  1.00  0.00    -0.357 N 
ATOM     11  H6  UNL     1      39.662 -19.500  30.507  1.00  0.00     0.162 HD
ENDROOT
BRANCH   1  12
HETATM   12  C1  UNL     1      39.329 -18.080  28.275  1.00  0.00     0.121 C 
HETATM   13  N1  UNL     1      38.799 -17.637  29.361  1.00  0.00    -0.386 N 
ATOM     14  H12 UNL     1      38.515 -16.658  29.374  1.00  0.00     0.157 HD
ATOM     15  H11 UNL     1      38.699 -18.256  30.166  1.00  0.00     0.157 HD
BRANCH  12  16
HETATM   16  N2  UNL     1      39.466 -17.232  27.171  1.00  0.00    -0.377 N 
ATOM     17  H2  UNL     1      39.724 -17.695  26.300  1.00  0.00     0.160 HD
BRANCH  16  18
HETATM   18  C2  UNL     1      39.300 -15.827  27.076  1.00  0.00     0.121 C 
BRANCH  18  19
HETATM   19  C3  UNL     1      37.947 -15.251  26.959  1.00  0.00     0.020 C 
BRANCH  19  20
HETATM   20  C4  UNL     1      37.535 -14.519  28.202  1.00  0.00     0.002 C 
BRANCH  20  21
HETATM   21  C5  UNL     1      36.090 -14.833  28.583  1.00  0.00     0.002 C 
BRANCH  21  22
HETATM   22  C6  UNL     1      35.210 -13.620  28.595  1.00  0.00     0.027 C 
BRANCH  22  23
HETATM   23  C7  UNL     1      34.245 -13.622  29.758  1.00  0.00     0.229 C 
BRANCH  23  24
HETATM   24  N3  UNL     1      33.402 -14.796  29.687  1.00  0.00    -0.079 N 
ATOM     25  H33 UNL     1      32.411 -14.562  29.741  1.00  0.00     0.274 HD
ATOM     26  H32 UNL     1      33.403 -15.214  28.756  1.00  0.00     0.274 HD
ATOM     27  H31 UNL     1      33.681 -15.462  30.408  1.00  0.00     0.274 HD
ENDBRANCH  23  24
ENDBRANCH  22  23
ENDBRANCH  21  22
ENDBRANCH  20  21
ENDBRANCH  19  20
ENDBRANCH  18  19
ENDBRANCH  16  18
ENDBRANCH  12  16
ENDBRANCH   1  12
BRANCH   1  28
HETATM   28  N4  UNL     1      38.767 -20.387  27.759  1.00  0.00    -0.309 N 
HETATM   29  C9  UNL     1      38.302 -20.528  26.429  1.00  0.00     0.319 C 
HETATM   30  O1  UNL     1      38.786 -19.807  25.511  1.00  0.00    -0.247 OA
HETATM   31  N5  UNL     1      37.300 -21.458  26.072  1.00  0.00    -0.334 N 
ATOM     32  H5  UNL     1      36.927 -22.024  26.834  1.00  0.00     0.165 HD
ATOM     33  H4  UNL     1      38.346 -21.013  28.446  1.00  0.00     0.167 HD
BRANCH  31  34
HETATM   34  C10 UNL     1      36.746 -21.703  24.787  1.00  0.00     0.035 C 
HETATM   35  C11 UNL     1      35.818 -22.891  24.851  1.00  0.00     0.035 C 
HETATM   36  C12 UNL     1      35.109 -23.102  23.505  1.00  0.00    -0.012 C 
HETATM   37  C13 UNL     1      34.322 -21.864  23.216  1.00  0.00     0.009 C 
HETATM   38  C17 UNL     1      36.155 -23.364  22.444  1.00  0.00     0.009 C 
HETATM   39  C14 UNL     1      35.250 -20.702  23.033  1.00  0.00    -0.012 C 
HETATM   40  C15 UNL     1      36.308 -20.978  21.978  1.00  0.00     0.009 C 
HETATM   41  C19 UNL     1      35.992 -20.468  24.326  1.00  0.00     0.035 C 
HETATM   42  C16 UNL     1      37.088 -22.177  22.402  1.00  0.00    -0.012 C 
HETATM   43  C18 UNL     1      37.784 -22.018  23.731  1.00  0.00     0.035 C 
ENDBRANCH  31  34
ENDBRANCH   1  28
TORSDOF 11
ENDMDL
