MODEL 1
REMARK VINA RESULT: -8.675142404      0.000      0.000
REMARK  8 active torsions:
REMARK  status: ('A' for Active; 'I' for Inactive)
REMARK    1  A    between atoms: C9_14  and  C10_15 
REMARK    2  A    between atoms: C17_22  and  C18_23 
REMARK    3  A    between atoms: C18_23  and  N3_24 
REMARK       I    between atoms: N3_24  and  C19_26 
REMARK    4  A    between atoms: C19_26  and  C20_28 
REMARK    5  A    between atoms: C21_29  and  N4_30 
REMARK       I    between atoms: N4_30  and  C22_32 
REMARK    6  A    between atoms: N8_40  and  C24_41 
REMARK    7  A    between atoms: C24_41  and  C25_42 
REMARK    8  A    between atoms: C25_42  and  C26_43 
ROOT
HETATM    1  C10 UNL     1      43.302 -23.616  26.644  1.00  0.00     0.004 C 
HETATM    2  C11 UNL     1      42.706 -22.582  27.266  1.00  0.00    -0.075 C 
HETATM    3  C12 UNL     1      43.572 -21.685  28.058  1.00  0.00     0.034 C 
HETATM    4  C13 UNL     1      42.829 -20.777  28.971  1.00  0.00     0.005 C 
HETATM    5  C14 UNL     1      41.474 -20.367  28.427  1.00  0.00     0.010 C 
HETATM    6  C15 UNL     1      40.656 -21.597  28.256  1.00  0.00    -0.032 C 
HETATM    7  C16 UNL     1      40.644 -22.478  29.478  1.00  0.00     0.016 C 
HETATM    8  C17 UNL     1      39.252 -21.376  27.791  1.00  0.00     0.012 C 
HETATM    9  C27 UNL     1      39.418 -21.111  26.307  1.00  0.00     0.007 C 
HETATM   10  C28 UNL     1      40.799 -21.658  25.930  1.00  0.00     0.010 C 
HETATM   11  C29 UNL     1      41.259 -22.424  27.125  1.00  0.00     0.023 C 
ENDROOT
BRANCH   8  12
HETATM   12  C18 UNL     1      38.657 -20.219  28.519  1.00  0.00     0.128 C 
BRANCH  12  13
HETATM   13  N3  UNL     1      38.280 -19.133  27.599  1.00  0.00    -0.355 N 
HETATM   14  C19 UNL     1      38.547 -17.795  27.903  1.00  0.00     0.272 C 
HETATM   15  O1  UNL     1      39.139 -17.629  29.038  1.00  0.00    -0.266 OA
ATOM     16  H3  UNL     1      37.814 -19.361  26.720  1.00  0.00     0.162 HD
BRANCH  14  17
HETATM   17  C20 UNL     1      38.256 -16.598  27.137  1.00  0.00     0.148 A 
HETATM   18  C21 UNL     1      38.574 -16.502  25.769  1.00  0.00     0.141 A 
HETATM   19  N7  UNL     1      38.154 -15.240  25.420  1.00  0.00    -0.336 N 
HETATM   20  C23 UNL     1      37.638 -14.628  26.454  1.00  0.00     0.185 A 
ATOM     21  H7  UNL     1      38.234 -14.838  24.486  1.00  0.00     0.168 HD
HETATM   22  N8  UNL     1      37.689 -15.451  27.531  1.00  0.00    -0.335 N 
BRANCH  18  23
HETATM   23  N4  UNL     1      39.175 -17.409  24.874  1.00  0.00    -0.315 N 
HETATM   24  C22 UNL     1      38.320 -18.170  23.992  1.00  0.00     0.187 C 
HETATM   25  N5  UNL     1      37.242 -17.647  23.513  1.00  0.00    -0.373 N 
HETATM   26  N6  UNL     1      38.639 -19.491  23.634  1.00  0.00    -0.064 NA
ATOM     27  H52 UNL     1      37.010 -16.688  23.772  1.00  0.00     0.158 HD
ATOM     28  H51 UNL     1      36.639 -18.184  22.890  1.00  0.00     0.158 HD
ATOM     29  H4  UNL     1      40.187 -17.526  24.850  1.00  0.00     0.170 HD
ENDBRANCH  18  23
BRANCH  22  30
HETATM   30  C24 UNL     1      37.184 -15.049  28.809  1.00  0.00     0.135 C 
BRANCH  30  31
HETATM   31  C25 UNL     1      35.698 -15.323  28.985  1.00  0.00     0.091 C 
BRANCH  31  32
HETATM   32  C26 UNL     1      34.960 -14.002  28.902  1.00  0.00     0.354 C 
HETATM   33  F1  UNL     1      35.912 -12.987  28.856  1.00  0.00    -0.214 F 
HETATM   34  F2  UNL     1      34.164 -13.829  30.013  1.00  0.00    -0.214 F 
ENDBRANCH  31  32
ENDBRANCH  30  31
ENDBRANCH  22  30
ENDBRANCH  14  17
ENDBRANCH  12  13
ENDBRANCH   8  12
BRANCH   1  35
HETATM   35  C9  UNL     1      42.608 -24.563  25.846  1.00  0.00     0.009 C 
HETATM   36  C8  UNL     1      41.927 -25.597  26.236  1.00  0.00    -0.039 C 
HETATM   37  C2  UNL     1      41.721 -26.050  27.599  1.00  0.00     0.005 C 
HETATM   38  C7  UNL     1      41.120 -26.386  25.192  1.00  0.00     0.096 C 
HETATM   39  C1  UNL     1      42.745 -26.042  28.446  1.00  0.00     0.028 C 
HETATM   40  C3  UNL     1      40.424 -26.559  28.025  1.00  0.00     0.109 C 
HETATM   41  N1  UNL     1      40.190 -26.956  29.228  1.00  0.00    -0.385 N 
HETATM   42  N2  UNL     1      39.388 -26.598  27.019  1.00  0.00    -0.346 N 
ATOM     43  H12 UNL     1      40.921 -26.927  29.938  1.00  0.00     0.157 HD
ATOM     44  H11 UNL     1      39.282 -27.312  29.527  1.00  0.00     0.157 HD
HETATM   45  C4  UNL     1      39.700 -26.158  25.691  1.00  0.00     0.011 C 
ATOM     46  H2  UNL     1      38.453 -26.933  27.250  1.00  0.00     0.167 HD
HETATM   47  C5  UNL     1      38.839 -25.591  24.928  1.00  0.00    -0.006 C 
HETATM   48  C6  UNL     1      37.432 -25.336  25.345  1.00  0.00     0.038 C 
ENDBRANCH   1  35
TORSDOF 8
ENDMDL
MODEL 2
REMARK VINA RESULT: -8.666564098      3.248      5.657
REMARK  8 active torsions:
REMARK  status: ('A' for Active; 'I' for Inactive)
REMARK    1  A    between atoms: C9_14  and  C10_15 
REMARK    2  A    between atoms: C17_22  and  C18_23 
REMARK    3  A    between atoms: C18_23  and  N3_24 
REMARK       I    between atoms: N3_24  and  C19_26 
REMARK    4  A    between atoms: C19_26  and  C20_28 
REMARK    5  A    between atoms: C21_29  and  N4_30 
REMARK       I    between atoms: N4_30  and  C22_32 
REMARK    6  A    between atoms: N8_40  and  C24_41 
REMARK    7  A    between atoms: C24_41  and  C25_42 
REMARK    8  A    between atoms: C25_42  and  C26_43 
ROOT
HETATM    1  C10 UNL     1      35.789 -25.772  24.503  1.00  0.00     0.004 C 
HETATM    2  C11 UNL     1      35.473 -24.558  24.017  1.00  0.00    -0.075 C 
HETATM    3  C12 UNL     1      34.323 -24.482  23.093  1.00  0.00     0.034 C 
HETATM    4  C13 UNL     1      34.230 -23.201  22.346  1.00  0.00     0.005 C 
HETATM    5  C14 UNL     1      34.748 -22.014  23.135  1.00  0.00     0.010 C 
HETATM    6  C15 UNL     1      36.185 -22.254  23.434  1.00  0.00    -0.032 C 
HETATM    7  C16 UNL     1      36.987 -22.649  22.223  1.00  0.00     0.016 C 
HETATM    8  C17 UNL     1      36.886 -21.145  24.153  1.00  0.00     0.012 C 
HETATM    9  C27 UNL     1      36.415 -21.310  25.585  1.00  0.00     0.007 C 
HETATM   10  C28 UNL     1      35.880 -22.742  25.694  1.00  0.00     0.010 C 
HETATM   11  C29 UNL     1      36.285 -23.411  24.423  1.00  0.00     0.023 C 
ENDROOT
BRANCH   8  12
HETATM   12  C18 UNL     1      36.489 -19.834  23.564  1.00  0.00     0.128 C 
BRANCH  12  13
HETATM   13  N3  UNL     1      36.689 -18.727  24.516  1.00  0.00    -0.355 N 
HETATM   14  C19 UNL     1      37.933 -18.106  24.659  1.00  0.00     0.272 C 
HETATM   15  O1  UNL     1      38.849 -18.593  23.891  1.00  0.00    -0.266 OA
ATOM     16  H3  UNL     1      35.903 -18.408  25.082  1.00  0.00     0.162 HD
BRANCH  14  17
HETATM   17  C20 UNL     1      38.324 -17.015  25.532  1.00  0.00     0.148 A 
HETATM   18  C21 UNL     1      38.880 -15.825  25.024  1.00  0.00     0.141 A 
HETATM   19  N7  UNL     1      39.115 -15.066  26.146  1.00  0.00    -0.336 N 
HETATM   20  C23 UNL     1      38.748 -15.712  27.221  1.00  0.00     0.185 A 
ATOM     21  H7  UNL     1      39.519 -14.129  26.139  1.00  0.00     0.168 HD
HETATM   22  N8  UNL     1      38.253 -16.925  26.866  1.00  0.00    -0.335 N 
BRANCH  18  23
HETATM   23  N4  UNL     1      39.171 -15.406  23.711  1.00  0.00    -0.315 N 
HETATM   24  C22 UNL     1      40.504 -15.626  23.201  1.00  0.00     0.187 C 
HETATM   25  N5  UNL     1      41.170 -16.678  23.540  1.00  0.00    -0.373 N 
HETATM   26  N6  UNL     1      41.106 -14.707  22.325  1.00  0.00    -0.064 NA
ATOM     27  H52 UNL     1      40.732 -17.346  24.176  1.00  0.00     0.158 HD
ATOM     28  H51 UNL     1      42.111 -16.834  23.179  1.00  0.00     0.158 HD
ATOM     29  H4  UNL     1      38.458 -14.958  23.136  1.00  0.00     0.170 HD
ENDBRANCH  18  23
BRANCH  22  30
HETATM   30  C24 UNL     1      37.763 -17.851  27.841  1.00  0.00     0.135 C 
BRANCH  30  31
HETATM   31  C25 UNL     1      38.865 -18.649  28.523  1.00  0.00     0.091 C 
BRANCH  31  32
HETATM   32  C26 UNL     1      38.820 -20.068  27.991  1.00  0.00     0.354 C 
HETATM   33  F1  UNL     1      39.558 -20.869  28.857  1.00  0.00    -0.214 F 
HETATM   34  F2  UNL     1      39.379 -20.124  26.733  1.00  0.00    -0.214 F 
ENDBRANCH  31  32
ENDBRANCH  30  31
ENDBRANCH  22  30
ENDBRANCH  14  17
ENDBRANCH  12  13
ENDBRANCH   8  12
BRANCH   1  35
HETATM   35  C9  UNL     1      36.864 -26.007  25.401  1.00  0.00     0.009 C 
HETATM   36  C8  UNL     1      38.102 -26.276  25.118  1.00  0.00    -0.039 C 
HETATM   37  C2  UNL     1      38.692 -26.416  23.800  1.00  0.00     0.005 C 
HETATM   38  C7  UNL     1      39.126 -26.327  26.264  1.00  0.00     0.096 C 
HETATM   39  C1  UNL     1      38.030 -27.087  22.863  1.00  0.00     0.028 C 
HETATM   40  C3  UNL     1      40.016 -25.879  23.516  1.00  0.00     0.109 C 
HETATM   41  N1  UNL     1      40.572 -25.965  22.358  1.00  0.00    -0.385 N 
HETATM   42  N2  UNL     1      40.693 -25.228  24.614  1.00  0.00    -0.346 N 
ATOM     43  H12 UNL     1      40.094 -26.424  21.583  1.00  0.00     0.157 HD
ATOM     44  H11 UNL     1      41.499 -25.589  22.159  1.00  0.00     0.157 HD
HETATM   45  C4  UNL     1      40.039 -25.168  25.889  1.00  0.00     0.011 C 
ATOM     46  H2  UNL     1      41.618 -24.820  24.486  1.00  0.00     0.167 HD
HETATM   47  C5  UNL     1      40.195 -24.190  26.703  1.00  0.00    -0.006 C 
HETATM   48  C6  UNL     1      41.073 -23.023  26.408  1.00  0.00     0.038 C 
ENDBRANCH   1  35
TORSDOF 8
ENDMDL
MODEL 3
REMARK VINA RESULT: -8.636384270      1.911      2.448
REMARK  8 active torsions:
REMARK  status: ('A' for Active; 'I' for Inactive)
REMARK    1  A    between atoms: C9_14  and  C10_15 
REMARK    2  A    between atoms: C17_22  and  C18_23 
REMARK    3  A    between atoms: C18_23  and  N3_24 
REMARK       I    between atoms: N3_24  and  C19_26 
REMARK    4  A    between atoms: C19_26  and  C20_28 
REMARK    5  A    between atoms: C21_29  and  N4_30 
REMARK       I    between atoms: N4_30  and  C22_32 
REMARK    6  A    between atoms: N8_40  and  C24_41 
REMARK    7  A    between atoms: C24_41  and  C25_42 
REMARK    8  A    between atoms: C25_42  and  C26_43 
ROOT
HETATM    1  C10 UNL     1      44.544 -25.055  28.310  1.00  0.00     0.004 C 
HETATM    2  C11 UNL     1      44.053 -23.939  28.879  1.00  0.00    -0.075 C 
HETATM    3  C12 UNL     1      44.813 -23.372  30.012  1.00  0.00     0.034 C 
HETATM    4  C13 UNL     1      44.063 -22.355  30.796  1.00  0.00     0.005 C 
HETATM    5  C14 UNL     1      43.095 -21.550  29.950  1.00  0.00     0.010 C 
HETATM    6  C15 UNL     1      42.100 -22.490  29.370  1.00  0.00    -0.032 C 
HETATM    7  C16 UNL     1      41.485 -23.411  30.391  1.00  0.00     0.016 C 
HETATM    8  C17 UNL     1      41.016 -21.857  28.556  1.00  0.00     0.012 C 
HETATM    9  C27 UNL     1      41.705 -21.553  27.241  1.00  0.00     0.007 C 
HETATM   10  C28 UNL     1      42.957 -22.436  27.202  1.00  0.00     0.010 C 
HETATM   11  C29 UNL     1      42.810 -23.376  28.352  1.00  0.00     0.023 C 
ENDROOT
BRANCH   8  12
HETATM   12  C18 UNL     1      40.521 -20.631  29.245  1.00  0.00     0.128 C 
BRANCH  12  13
HETATM   13  N3  UNL     1      40.065 -19.613  28.282  1.00  0.00    -0.355 N 
HETATM   14  C19 UNL     1      38.723 -19.521  27.900  1.00  0.00     0.272 C 
HETATM   15  O1  UNL     1      37.961 -20.394  28.467  1.00  0.00    -0.266 OA
ATOM     16  H3  UNL     1      40.743 -18.962  27.885  1.00  0.00     0.162 HD
BRANCH  14  17
HETATM   17  C20 UNL     1      38.088 -18.600  26.977  1.00  0.00     0.148 A 
HETATM   18  C21 UNL     1      37.625 -19.021  25.715  1.00  0.00     0.141 A 
HETATM   19  N7  UNL     1      37.107 -17.878  25.155  1.00  0.00    -0.336 N 
HETATM   20  C23 UNL     1      37.236 -16.868  25.975  1.00  0.00     0.185 A 
ATOM     21  H7  UNL     1      36.682 -17.825  24.229  1.00  0.00     0.168 HD
HETATM   22  N8  UNL     1      37.842 -17.291  27.113  1.00  0.00    -0.335 N 
BRANCH  18  23
HETATM   23  N4  UNL     1      37.637 -20.277  25.078  1.00  0.00    -0.315 N 
HETATM   24  C22 UNL     1      36.840 -21.341  25.644  1.00  0.00     0.187 C 
HETATM   25  N5  UNL     1      35.706 -21.083  26.203  1.00  0.00    -0.373 N 
HETATM   26  N6  UNL     1      37.276 -22.676  25.600  1.00  0.00    -0.064 NA
ATOM     27  H52 UNL     1      35.389 -20.114  26.235  1.00  0.00     0.158 HD
ATOM     28  H51 UNL     1      35.143 -21.834  26.602  1.00  0.00     0.158 HD
ATOM     29  H4  UNL     1      38.194 -20.432  24.238  1.00  0.00     0.170 HD
ENDBRANCH  18  23
BRANCH  22  30
HETATM   30  C24 UNL     1      38.107 -16.398  28.200  1.00  0.00     0.135 C 
BRANCH  30  31
HETATM   31  C25 UNL     1      37.504 -15.015  28.006  1.00  0.00     0.091 C 
BRANCH  31  32
HETATM   32  C26 UNL     1      36.275 -14.907  28.886  1.00  0.00     0.354 C 
HETATM   33  F1  UNL     1      35.719 -16.178  28.994  1.00  0.00    -0.214 F 
HETATM   34  F2  UNL     1      35.353 -14.055  28.316  1.00  0.00    -0.214 F 
ENDBRANCH  31  32
ENDBRANCH  30  31
ENDBRANCH  22  30
ENDBRANCH  14  17
ENDBRANCH  12  13
ENDBRANCH   8  12
BRANCH   1  35
HETATM   35  C9  UNL     1      43.931 -25.717  27.214  1.00  0.00     0.009 C 
HETATM   36  C8  UNL     1      43.183 -26.777  27.233  1.00  0.00    -0.039 C 
HETATM   37  C2  UNL     1      42.799 -27.561  28.392  1.00  0.00     0.005 C 
HETATM   38  C7  UNL     1      42.492 -27.216  25.931  1.00  0.00     0.096 C 
HETATM   39  C1  UNL     1      43.710 -27.835  29.320  1.00  0.00     0.028 C 
HETATM   40  C3  UNL     1      41.447 -28.091  28.517  1.00  0.00     0.109 C 
HETATM   41  N1  UNL     1      41.056 -28.777  29.535  1.00  0.00    -0.385 N 
HETATM   42  N2  UNL     1      40.543 -27.805  27.427  1.00  0.00    -0.346 N 
ATOM     43  H12 UNL     1      41.695 -28.978  30.304  1.00  0.00     0.157 HD
ATOM     44  H11 UNL     1      40.111 -29.148  29.623  1.00  0.00     0.157 HD
HETATM   45  C4  UNL     1      41.028 -27.049  26.310  1.00  0.00     0.011 C 
ATOM     46  H2  UNL     1      39.579 -28.136  27.452  1.00  0.00     0.167 HD
HETATM   47  C5  UNL     1      40.282 -26.253  25.636  1.00  0.00    -0.006 C 
HETATM   48  C6  UNL     1      38.840 -26.038  25.944  1.00  0.00     0.038 C 
ENDBRANCH   1  35
TORSDOF 8
ENDMDL
MODEL 4
REMARK VINA RESULT: -8.635366454      4.318      8.167
REMARK  8 active torsions:
REMARK  status: ('A' for Active; 'I' for Inactive)
REMARK    1  A    between atoms: C9_14  and  C10_15 
REMARK    2  A    between atoms: C17_22  and  C18_23 
REMARK    3  A    between atoms: C18_23  and  N3_24 
REMARK       I    between atoms: N3_24  and  C19_26 
REMARK    4  A    between atoms: C19_26  and  C20_28 
REMARK    5  A    between atoms: C21_29  and  N4_30 
REMARK       I    between atoms: N4_30  and  C22_32 
REMARK    6  A    between atoms: N8_40  and  C24_41 
REMARK    7  A    between atoms: C24_41  and  C25_42 
REMARK    8  A    between atoms: C25_42  and  C26_43 
ROOT
HETATM    1  C10 UNL     1      37.282 -18.291  23.506  1.00  0.00     0.004 C 
HETATM    2  C11 UNL     1      38.186 -18.077  24.479  1.00  0.00    -0.075 C 
HETATM    3  C12 UNL     1      39.291 -17.143  24.177  1.00  0.00     0.034 C 
HETATM    4  C13 UNL     1      40.415 -17.202  25.148  1.00  0.00     0.005 C 
HETATM    5  C14 UNL     1      39.965 -17.538  26.557  1.00  0.00     0.010 C 
HETATM    6  C15 UNL     1      39.330 -18.883  26.528  1.00  0.00    -0.032 C 
HETATM    7  C16 UNL     1      40.168 -19.921  25.830  1.00  0.00     0.016 C 
HETATM    8  C17 UNL     1      38.885 -19.412  27.854  1.00  0.00     0.012 C 
HETATM    9  C27 UNL     1      37.599 -18.655  28.115  1.00  0.00     0.007 C 
HETATM   10  C28 UNL     1      37.140 -18.116  26.755  1.00  0.00     0.010 C 
HETATM   11  C29 UNL     1      38.022 -18.780  25.751  1.00  0.00     0.023 C 
ENDROOT
BRANCH   8  12
HETATM   12  C18 UNL     1      39.932 -19.141  28.881  1.00  0.00     0.128 C 
BRANCH  12  13
HETATM   13  N3  UNL     1      40.360 -20.376  29.560  1.00  0.00    -0.355 N 
HETATM   14  C19 UNL     1      41.625 -20.928  29.340  1.00  0.00     0.272 C 
HETATM   15  O1  UNL     1      42.346 -20.257  28.505  1.00  0.00    -0.266 OA
ATOM     16  H3  UNL     1      39.719 -20.838  30.206  1.00  0.00     0.162 HD
BRANCH  14  17
HETATM   17  C20 UNL     1      42.222 -22.123  29.905  1.00  0.00     0.148 A 
HETATM   18  C21 UNL     1      43.483 -22.093  30.532  1.00  0.00     0.141 A 
HETATM   19  N7  UNL     1      43.690 -23.396  30.919  1.00  0.00    -0.336 N 
HETATM   20  C23 UNL     1      42.676 -24.143  30.571  1.00  0.00     0.185 A 
ATOM     21  H7  UNL     1      44.520 -23.732  31.408  1.00  0.00     0.168 HD
HETATM   22  N8  UNL     1      41.751 -23.375  29.941  1.00  0.00    -0.335 N 
BRANCH  18  23
HETATM   23  N4  UNL     1      44.396 -21.046  30.763  1.00  0.00    -0.315 N 
HETATM   24  C22 UNL     1      45.506 -20.891  29.850  1.00  0.00     0.187 C 
HETATM   25  N5  UNL     1      45.362 -21.151  28.594  1.00  0.00    -0.373 N 
HETATM   26  N6  UNL     1      46.762 -20.453  30.304  1.00  0.00    -0.064 NA
ATOM     27  H52 UNL     1      44.450 -21.469  28.265  1.00  0.00     0.158 HD
ATOM     28  H51 UNL     1      46.145 -21.041  27.950  1.00  0.00     0.158 HD
ATOM     29  H4  UNL     1      44.278 -20.413  31.553  1.00  0.00     0.170 HD
ENDBRANCH  18  23
BRANCH  22  30
HETATM   30  C24 UNL     1      40.523 -23.926  29.453  1.00  0.00     0.135 C 
BRANCH  30  31
HETATM   31  C25 UNL     1      40.658 -24.591  28.091  1.00  0.00     0.091 C 
BRANCH  31  32
HETATM   32  C26 UNL     1      40.237 -23.591  27.033  1.00  0.00     0.354 C 
HETATM   33  F1  UNL     1      41.374 -22.900  26.627  1.00  0.00    -0.214 F 
HETATM   34  F2  UNL     1      39.325 -22.700  27.555  1.00  0.00    -0.214 F 
ENDBRANCH  31  32
ENDBRANCH  30  31
ENDBRANCH  22  30
ENDBRANCH  14  17
ENDBRANCH  12  13
ENDBRANCH   8  12
BRANCH   1  35
HETATM   35  C9  UNL     1      36.165 -19.156  23.643  1.00  0.00     0.009 C 
HETATM   36  C8  UNL     1      35.631 -19.927  22.746  1.00  0.00    -0.039 C 
HETATM   37  C2  UNL     1      36.043 -20.083  21.364  1.00  0.00     0.005 C 
HETATM   38  C7  UNL     1      34.524 -20.903  23.176  1.00  0.00     0.096 C 
HETATM   39  C1  UNL     1      36.369 -19.003  20.660  1.00  0.00     0.028 C 
HETATM   40  C3  UNL     1      36.050 -21.395  20.732  1.00  0.00     0.109 C 
HETATM   41  N1  UNL     1      36.424 -21.584  19.514  1.00  0.00    -0.385 N 
HETATM   42  N2  UNL     1      35.612 -22.502  21.550  1.00  0.00    -0.346 N 
ATOM     43  H12 UNL     1      36.734 -20.802  18.937  1.00  0.00     0.157 HD
ATOM     44  H11 UNL     1      36.429 -22.503  19.072  1.00  0.00     0.157 HD
HETATM   45  C4  UNL     1      35.193 -22.242  22.896  1.00  0.00     0.011 C 
ATOM     46  H2  UNL     1      35.601 -23.451  21.177  1.00  0.00     0.167 HD
HETATM   47  C5  UNL     1      35.362 -23.082  23.850  1.00  0.00    -0.006 C 
HETATM   48  C6  UNL     1      36.007 -24.410  23.654  1.00  0.00     0.038 C 
ENDBRANCH   1  35
TORSDOF 8
ENDMDL
MODEL 5
REMARK VINA RESULT: -8.617337286      4.620     10.420
REMARK  8 active torsions:
REMARK  status: ('A' for Active; 'I' for Inactive)
REMARK    1  A    between atoms: C9_14  and  C10_15 
REMARK    2  A    between atoms: C17_22  and  C18_23 
REMARK    3  A    between atoms: C18_23  and  N3_24 
REMARK       I    between atoms: N3_24  and  C19_26 
REMARK    4  A    between atoms: C19_26  and  C20_28 
REMARK    5  A    between atoms: C21_29  and  N4_30 
REMARK       I    between atoms: N4_30  and  C22_32 
REMARK    6  A    between atoms: N8_40  and  C24_41 
REMARK    7  A    between atoms: C24_41  and  C25_42 
REMARK    8  A    between atoms: C25_42  and  C26_43 
ROOT
HETATM    1  C10 UNL     1      37.235 -17.560  25.435  1.00  0.00     0.004 C 
HETATM    2  C11 UNL     1      37.301 -18.753  24.815  1.00  0.00    -0.075 C 
HETATM    3  C12 UNL     1      37.412 -18.741  23.342  1.00  0.00     0.034 C 
HETATM    4  C13 UNL     1      37.150 -20.057  22.704  1.00  0.00     0.005 C 
HETATM    5  C14 UNL     1      37.578 -21.230  23.565  1.00  0.00     0.010 C 
HETATM    6  C15 UNL     1      36.794 -21.182  24.829  1.00  0.00    -0.032 C 
HETATM    7  C16 UNL     1      35.314 -21.025  24.604  1.00  0.00     0.016 C 
HETATM    8  C17 UNL     1      37.036 -22.312  25.778  1.00  0.00     0.012 C 
HETATM    9  C27 UNL     1      38.360 -21.946  26.420  1.00  0.00     0.007 C 
HETATM   10  C28 UNL     1      38.553 -20.446  26.172  1.00  0.00     0.010 C 
HETATM   11  C29 UNL     1      37.247 -19.966  25.630  1.00  0.00     0.023 C 
ENDROOT
BRANCH   8  12
HETATM   12  C18 UNL     1      37.096 -23.597  25.026  1.00  0.00     0.128 C 
BRANCH  12  13
HETATM   13  N3  UNL     1      38.443 -24.193  25.075  1.00  0.00    -0.355 N 
HETATM   14  C19 UNL     1      38.641 -25.512  25.494  1.00  0.00     0.272 C 
HETATM   15  O1  UNL     1      37.551 -26.123  25.819  1.00  0.00    -0.266 OA
ATOM     16  H3  UNL     1      39.248 -23.632  24.797  1.00  0.00     0.162 HD
BRANCH  14  17
HETATM   17  C20 UNL     1      39.873 -26.268  25.611  1.00  0.00     0.148 A 
HETATM   18  C21 UNL     1      40.351 -26.713  26.858  1.00  0.00     0.141 A 
HETATM   19  N7  UNL     1      41.519 -27.369  26.550  1.00  0.00    -0.336 N 
HETATM   20  C23 UNL     1      41.738 -27.332  25.261  1.00  0.00     0.185 A 
ATOM     21  H7  UNL     1      42.130 -27.820  27.231  1.00  0.00     0.168 HD
HETATM   22  N8  UNL     1      40.729 -26.654  24.657  1.00  0.00    -0.335 N 
BRANCH  18  23
HETATM   23  N4  UNL     1      39.842 -26.579  28.165  1.00  0.00    -0.315 N 
HETATM   24  C22 UNL     1      40.248 -25.432  28.944  1.00  0.00     0.187 C 
HETATM   25  N5  UNL     1      40.450 -24.292  28.374  1.00  0.00    -0.373 N 
HETATM   26  N6  UNL     1      40.431 -25.527  30.334  1.00  0.00    -0.064 NA
ATOM     27  H52 UNL     1      40.317 -24.222  27.365  1.00  0.00     0.158 HD
ATOM     28  H51 UNL     1      40.736 -23.482  28.924  1.00  0.00     0.158 HD
ATOM     29  H4  UNL     1      39.204 -27.274  28.552  1.00  0.00     0.170 HD
ENDBRANCH  18  23
BRANCH  22  30
HETATM   30  C24 UNL     1      40.698 -26.461  23.239  1.00  0.00     0.135 C 
BRANCH  30  31
HETATM   31  C25 UNL     1      40.071 -27.625  22.485  1.00  0.00     0.091 C 
BRANCH  31  32
HETATM   32  C26 UNL     1      38.625 -27.278  22.196  1.00  0.00     0.354 C 
HETATM   33  F1  UNL     1      38.515 -25.890  22.191  1.00  0.00    -0.214 F 
HETATM   34  F2  UNL     1      37.805 -27.795  23.175  1.00  0.00    -0.214 F 
ENDBRANCH  31  32
ENDBRANCH  30  31
ENDBRANCH  22  30
ENDBRANCH  14  17
ENDBRANCH  12  13
ENDBRANCH   8  12
BRANCH   1  35
HETATM   35  C9  UNL     1      37.128 -17.407  26.841  1.00  0.00     0.009 C 
HETATM   36  C8  UNL     1      37.419 -16.366  27.561  1.00  0.00    -0.039 C 
HETATM   37  C2  UNL     1      37.945 -15.096  27.096  1.00  0.00     0.005 C 
HETATM   38  C7  UNL     1      37.061 -16.379  29.056  1.00  0.00     0.096 C 
HETATM   39  C1  UNL     1      38.906 -15.090  26.177  1.00  0.00     0.028 C 
HETATM   40  C3  UNL     1      37.469 -13.842  27.663  1.00  0.00     0.109 C 
HETATM   41  N1  UNL     1      37.895 -12.691  27.270  1.00  0.00    -0.385 N 
HETATM   42  N2  UNL     1      36.476 -13.945  28.707  1.00  0.00    -0.346 N 
ATOM     43  H12 UNL     1      38.596 -12.618  26.533  1.00  0.00     0.157 HD
ATOM     44  H11 UNL     1      37.562 -11.812  27.667  1.00  0.00     0.157 HD
HETATM   45  C4  UNL     1      36.043 -15.249  29.119  1.00  0.00     0.011 C 
ATOM     46  H2  UNL     1      36.091 -13.108  29.142  1.00  0.00     0.167 HD
HETATM   47  C5  UNL     1      34.852 -15.486  29.530  1.00  0.00    -0.006 C 
HETATM   48  C6  UNL     1      33.803 -14.433  29.621  1.00  0.00     0.038 C 
ENDBRANCH   1  35
TORSDOF 8
ENDMDL
