MODEL 1
REMARK VINA RESULT: -9.268645811      0.000      0.000
REMARK  8 active torsions:
REMARK  status: ('A' for Active; 'I' for Inactive)
REMARK    1  A    between atoms: N3_4  and  C2_6 
REMARK    2  A    between atoms: C2_6  and  C3_7 
REMARK    3  A    between atoms: C3_7  and  C4_8 
REMARK    4  A    between atoms: C4_8  and  C5_9 
REMARK    5  A    between atoms: C5_9  and  C6_10 
REMARK    6  A    between atoms: C5_9  and  N7_24 
REMARK    7  A    between atoms: C6_10  and  N4_11 
REMARK       I    between atoms: N4_11  and  C7_13 
REMARK       I    between atoms: C7_13  and  N5_15 
REMARK    8  A    between atoms: N5_15  and  C8_17 
REMARK       I    between atoms: N7_24  and  C14_26 
REMARK       I    between atoms: C14_26  and  N8_28 
ROOT
HETATM    1  C5  UNL     1      39.715 -21.820  28.647  1.00  0.00     0.104 C 
ENDROOT
BRANCH   1   2
HETATM    2  C4  UNL     1      40.246 -22.837  29.559  1.00  0.00     0.028 C 
BRANCH   2   3
HETATM    3  C3  UNL     1      41.117 -23.806  28.710  1.00  0.00     0.022 C 
BRANCH   3   4
HETATM    4  C2  UNL     1      41.893 -24.688  29.654  1.00  0.00     0.122 C 
BRANCH   4   5
HETATM    5  N3  UNL     1      42.700 -23.896  30.558  1.00  0.00    -0.367 N 
HETATM    6  C1  UNL     1      43.973 -24.134  30.698  1.00  0.00     0.196 C 
HETATM    7  N1  UNL     1      44.748 -23.347  31.591  1.00  0.00    -0.067 NA
HETATM    8  N2  UNL     1      44.585 -25.168  29.949  1.00  0.00    -0.067 NA
ATOM      9  H3  UNL     1      42.267 -23.142  31.091  1.00  0.00     0.161 HD
ENDBRANCH   4   5
ENDBRANCH   3   4
ENDBRANCH   2   3
ENDBRANCH   1   2
BRANCH   1  10
HETATM   10  C6  UNL     1      40.428 -20.555  28.365  1.00  0.00     0.149 C 
BRANCH  10  11
HETATM   11  N4  UNL     1      39.961 -19.391  29.021  1.00  0.00    -0.341 N 
HETATM   12  C7  UNL     1      39.126 -18.419  28.389  1.00  0.00     0.320 C 
HETATM   13  O1  UNL     1      38.702 -18.409  27.245  1.00  0.00    -0.247 OA
HETATM   14  N5  UNL     1      38.759 -17.323  29.238  1.00  0.00    -0.309 N 
ATOM     15  H5  UNL     1      39.104 -17.301  30.197  1.00  0.00     0.170 HD
ATOM     16  H4  UNL     1      40.234 -19.238  29.991  1.00  0.00     0.164 HD
BRANCH  14  17
HETATM   17  C8  UNL     1      37.937 -16.277  28.783  1.00  0.00     0.036 A 
HETATM   18  C9  UNL     1      38.400 -15.251  28.030  1.00  0.00     0.031 A 
HETATM   19  C10 UNL     1      37.535 -14.230  27.653  1.00  0.00     0.029 A 
HETATM   20  C11 UNL     1      36.216 -14.225  28.019  1.00  0.00     0.046 A 
HETATM   21  N6  UNL     1      35.358 -13.173  27.625  1.00  0.00    -0.102 NA
HETATM   22  C12 UNL     1      35.776 -15.282  28.783  1.00  0.00     0.029 A 
HETATM   23  C13 UNL     1      36.590 -16.296  29.169  1.00  0.00     0.031 A 
ENDBRANCH  14  17
ENDBRANCH  10  11
ENDBRANCH   1  10
BRANCH   1  24
HETATM   24  N7  UNL     1      39.454 -22.440  27.329  1.00  0.00    -0.337 N 
HETATM   25  C14 UNL     1      38.316 -22.076  26.569  1.00  0.00     0.318 C 
HETATM   26  O2  UNL     1      37.495 -21.196  26.995  1.00  0.00    -0.247 OA
HETATM   27  N8  UNL     1      38.090 -22.693  25.325  1.00  0.00    -0.334 N 
HETATM   28  C15 UNL     1      36.971 -22.268  24.527  1.00  0.00     0.127 C 
HETATM   29  C27 UNL     1      38.956 -23.755  24.865  1.00  0.00     0.133 C 
HETATM   30  C16 UNL     1      35.720 -23.066  24.685  1.00  0.00     0.020 C 
HETATM   31  C17 UNL     1      34.907 -22.940  23.381  1.00  0.00     0.002 C 
HETATM   32  C18 UNL     1      35.661 -23.613  22.277  1.00  0.00     0.000 C 
HETATM   33  C19 UNL     1      34.787 -24.446  21.356  1.00  0.00     0.000 C 
HETATM   34  C20 UNL     1      35.494 -25.740  21.006  1.00  0.00     0.000 C 
HETATM   35  C21 UNL     1      34.930 -26.920  21.724  1.00  0.00     0.000 C 
HETATM   36  C22 UNL     1      35.410 -27.057  23.138  1.00  0.00     0.000 C 
HETATM   37  C23 UNL     1      36.882 -27.402  23.247  1.00  0.00     0.006 C 
HETATM   38  C24 UNL     1      37.326 -26.970  24.639  1.00  0.00     0.079 C 
HETATM   39  C25 UNL     1      38.633 -26.199  24.593  1.00  0.00     0.245 C 
HETATM   40  F1  UNL     1      39.697 -27.065  24.908  1.00  0.00    -0.206 F 
HETATM   41  F2  UNL     1      38.871 -25.777  23.324  1.00  0.00    -0.206 F 
HETATM   42  C26 UNL     1      38.650 -25.065  25.554  1.00  0.00     0.099 C 
ATOM     43  H7  UNL     1      40.103 -23.138  26.964  1.00  0.00     0.164 HD
ENDBRANCH   1  24
TORSDOF 8
ENDMDL
MODEL 2
REMARK VINA RESULT: -9.050416656      1.409      1.856
REMARK  8 active torsions:
REMARK  status: ('A' for Active; 'I' for Inactive)
REMARK    1  A    between atoms: N3_4  and  C2_6 
REMARK    2  A    between atoms: C2_6  and  C3_7 
REMARK    3  A    between atoms: C3_7  and  C4_8 
REMARK    4  A    between atoms: C4_8  and  C5_9 
REMARK    5  A    between atoms: C5_9  and  C6_10 
REMARK    6  A    between atoms: C5_9  and  N7_24 
REMARK    7  A    between atoms: C6_10  and  N4_11 
REMARK       I    between atoms: N4_11  and  C7_13 
REMARK       I    between atoms: C7_13  and  N5_15 
REMARK    8  A    between atoms: N5_15  and  C8_17 
REMARK       I    between atoms: N7_24  and  C14_26 
REMARK       I    between atoms: C14_26  and  N8_28 
ROOT
HETATM    1  C5  UNL     1      40.266 -21.538  29.000  1.00  0.00     0.104 C 
ENDROOT
BRANCH   1   2
HETATM    2  C4  UNL     1      40.712 -22.555  29.958  1.00  0.00     0.028 C 
BRANCH   2   3
HETATM    3  C3  UNL     1      39.961 -23.873  29.613  1.00  0.00     0.022 C 
BRANCH   3   4
HETATM    4  C2  UNL     1      40.664 -25.009  30.311  1.00  0.00     0.122 C 
BRANCH   4   5
HETATM    5  N3  UNL     1      40.403 -26.267  29.644  1.00  0.00    -0.367 N 
HETATM    6  C1  UNL     1      41.330 -26.855  28.943  1.00  0.00     0.196 C 
HETATM    7  N1  UNL     1      41.054 -28.088  28.294  1.00  0.00    -0.067 NA
HETATM    8  N2  UNL     1      42.616 -26.272  28.842  1.00  0.00    -0.067 NA
ATOM      9  H3  UNL     1      39.482 -26.698  29.723  1.00  0.00     0.161 HD
ENDBRANCH   4   5
ENDBRANCH   3   4
ENDBRANCH   2   3
ENDBRANCH   1   2
BRANCH   1  10
HETATM   10  C6  UNL     1      41.094 -20.367  28.643  1.00  0.00     0.149 C 
BRANCH  10  11
HETATM   11  N4  UNL     1      40.490 -19.371  27.837  1.00  0.00    -0.341 N 
HETATM   12  C7  UNL     1      39.601 -18.380  28.354  1.00  0.00     0.320 C 
HETATM   13  O1  UNL     1      39.216 -18.228  29.501  1.00  0.00    -0.247 OA
HETATM   14  N5  UNL     1      39.112 -17.461  27.367  1.00  0.00    -0.309 N 
ATOM     15  H5  UNL     1      39.412 -17.568  26.398  1.00  0.00     0.170 HD
ATOM     16  H4  UNL     1      40.701 -19.362  26.839  1.00  0.00     0.164 HD
BRANCH  14  17
HETATM   17  C8  UNL     1      38.231 -16.417  27.698  1.00  0.00     0.036 A 
HETATM   18  C9  UNL     1      37.023 -16.628  28.273  1.00  0.00     0.031 A 
HETATM   19  C10 UNL     1      36.188 -15.549  28.534  1.00  0.00     0.029 A 
HETATM   20  C11 UNL     1      36.547 -14.264  28.228  1.00  0.00     0.046 A 
HETATM   21  N6  UNL     1      35.677 -13.183  28.501  1.00  0.00    -0.102 NA
HETATM   22  C12 UNL     1      37.781 -14.082  27.646  1.00  0.00     0.029 A 
HETATM   23  C13 UNL     1      38.623 -15.111  27.377  1.00  0.00     0.031 A 
ENDBRANCH  14  17
ENDBRANCH  10  11
ENDBRANCH   1  10
BRANCH   1  24
HETATM   24  N7  UNL     1      39.922 -22.197  27.721  1.00  0.00    -0.337 N 
HETATM   25  C14 UNL     1      38.758 -21.824  27.004  1.00  0.00     0.318 C 
HETATM   26  O2  UNL     1      37.987 -20.902  27.436  1.00  0.00    -0.247 OA
HETATM   27  N8  UNL     1      38.453 -22.477  25.796  1.00  0.00    -0.334 N 
HETATM   28  C15 UNL     1      37.308 -22.045  25.038  1.00  0.00     0.127 C 
HETATM   29  C27 UNL     1      39.262 -23.582  25.334  1.00  0.00     0.133 C 
HETATM   30  C16 UNL     1      36.043 -22.796  25.286  1.00  0.00     0.020 C 
HETATM   31  C17 UNL     1      35.171 -22.690  24.019  1.00  0.00     0.002 C 
HETATM   32  C18 UNL     1      35.848 -23.427  22.905  1.00  0.00     0.000 C 
HETATM   33  C19 UNL     1      34.905 -24.264  22.060  1.00  0.00     0.000 C 
HETATM   34  C20 UNL     1      35.554 -25.591  21.724  1.00  0.00     0.000 C 
HETATM   35  C21 UNL     1      34.991 -26.725  22.512  1.00  0.00     0.000 C 
HETATM   36  C22 UNL     1      35.536 -26.827  23.905  1.00  0.00     0.000 C 
HETATM   37  C23 UNL     1      37.000 -27.216  23.956  1.00  0.00     0.006 C 
HETATM   38  C24 UNL     1      37.526 -26.748  25.308  1.00  0.00     0.079 C 
HETATM   39  C25 UNL     1      38.852 -26.023  25.169  1.00  0.00     0.245 C 
HETATM   40  F1  UNL     1      39.903 -26.911  25.464  1.00  0.00    -0.206 F 
HETATM   41  F2  UNL     1      39.039 -25.654  23.876  1.00  0.00    -0.206 F 
HETATM   42  C26 UNL     1      38.950 -24.856  26.086  1.00  0.00     0.099 C 
ATOM     43  H7  UNL     1      40.530 -22.928  27.351  1.00  0.00     0.164 HD
ENDBRANCH   1  24
TORSDOF 8
ENDMDL
MODEL 3
REMARK VINA RESULT: -8.904249703      2.240      7.111
REMARK  8 active torsions:
REMARK  status: ('A' for Active; 'I' for Inactive)
REMARK    1  A    between atoms: N3_4  and  C2_6 
REMARK    2  A    between atoms: C2_6  and  C3_7 
REMARK    3  A    between atoms: C3_7  and  C4_8 
REMARK    4  A    between atoms: C4_8  and  C5_9 
REMARK    5  A    between atoms: C5_9  and  C6_10 
REMARK    6  A    between atoms: C5_9  and  N7_24 
REMARK    7  A    between atoms: C6_10  and  N4_11 
REMARK       I    between atoms: N4_11  and  C7_13 
REMARK       I    between atoms: C7_13  and  N5_15 
REMARK    8  A    between atoms: N5_15  and  C8_17 
REMARK       I    between atoms: N7_24  and  C14_26 
REMARK       I    between atoms: C14_26  and  N8_28 
ROOT
HETATM    1  C5  UNL     1      39.281 -20.168  26.958  1.00  0.00     0.104 C 
ENDROOT
BRANCH   1   2
HETATM    2  C4  UNL     1      39.207 -18.924  26.185  1.00  0.00     0.028 C 
BRANCH   2   3
HETATM    3  C3  UNL     1      39.852 -17.805  27.052  1.00  0.00     0.022 C 
BRANCH   3   4
HETATM    4  C2  UNL     1      38.944 -16.602  27.016  1.00  0.00     0.122 C 
BRANCH   4   5
HETATM    5  N3  UNL     1      37.852 -16.751  27.954  1.00  0.00    -0.367 N 
HETATM    6  C1  UNL     1      36.871 -15.894  27.976  1.00  0.00     0.196 C 
HETATM    7  N1  UNL     1      35.809 -16.054  28.906  1.00  0.00    -0.067 NA
HETATM    8  N2  UNL     1      36.857 -14.811  27.064  1.00  0.00    -0.067 NA
ATOM      9  H3  UNL     1      37.850 -17.535  28.606  1.00  0.00     0.161 HD
ENDBRANCH   4   5
ENDBRANCH   3   4
ENDBRANCH   2   3
ENDBRANCH   1   2
BRANCH   1  10
HETATM   10  C6  UNL     1      39.164 -20.196  28.431  1.00  0.00     0.149 C 
BRANCH  10  11
HETATM   11  N4  UNL     1      39.930 -21.166  29.122  1.00  0.00    -0.341 N 
HETATM   12  C7  UNL     1      41.342 -21.055  29.314  1.00  0.00     0.320 C 
HETATM   13  O1  UNL     1      42.094 -20.174  28.935  1.00  0.00    -0.247 OA
HETATM   14  N5  UNL     1      41.918 -22.142  30.051  1.00  0.00    -0.309 N 
ATOM     15  H5  UNL     1      41.314 -22.897  30.375  1.00  0.00     0.170 HD
ATOM     16  H4  UNL     1      39.451 -21.983  29.500  1.00  0.00     0.164 HD
BRANCH  14  17
HETATM   17  C8  UNL     1      43.293 -22.196  30.338  1.00  0.00     0.036 A 
HETATM   18  C9  UNL     1      43.840 -21.616  31.434  1.00  0.00     0.031 A 
HETATM   19  C10 UNL     1      45.214 -21.676  31.629  1.00  0.00     0.029 A 
HETATM   20  C11 UNL     1      46.046 -22.308  30.744  1.00  0.00     0.046 A 
HETATM   21  N6  UNL     1      47.441 -22.352  30.965  1.00  0.00    -0.102 NA
HETATM   22  C12 UNL     1      45.459 -22.889  29.642  1.00  0.00     0.029 A 
HETATM   23  C13 UNL     1      44.122 -22.851  29.418  1.00  0.00     0.031 A 
ENDBRANCH  14  17
ENDBRANCH  10  11
ENDBRANCH   1  10
BRANCH   1  24
HETATM   24  N7  UNL     1      38.261 -21.113  26.453  1.00  0.00    -0.337 N 
HETATM   25  C14 UNL     1      38.569 -22.483  26.271  1.00  0.00     0.318 C 
HETATM   26  O2  UNL     1      39.729 -22.939  26.551  1.00  0.00    -0.247 OA
HETATM   27  N8  UNL     1      37.580 -23.354  25.778  1.00  0.00    -0.334 N 
HETATM   28  C15 UNL     1      37.879 -24.757  25.663  1.00  0.00     0.127 C 
HETATM   29  C27 UNL     1      36.290 -22.844  25.371  1.00  0.00     0.133 C 
HETATM   30  C16 UNL     1      38.361 -25.211  24.326  1.00  0.00     0.020 C 
HETATM   31  C17 UNL     1      38.003 -26.703  24.173  1.00  0.00     0.002 C 
HETATM   32  C18 UNL     1      36.513 -26.838  24.116  1.00  0.00     0.000 C 
HETATM   33  C19 UNL     1      36.026 -27.824  23.069  1.00  0.00     0.000 C 
HETATM   34  C20 UNL     1      34.801 -27.270  22.371  1.00  0.00     0.000 C 
HETATM   35  C21 UNL     1      35.093 -26.780  20.993  1.00  0.00     0.000 C 
HETATM   36  C22 UNL     1      35.714 -25.415  20.954  1.00  0.00     0.000 C 
HETATM   37  C23 UNL     1      34.777 -24.310  21.399  1.00  0.00     0.006 C 
HETATM   38  C24 UNL     1      35.657 -23.142  21.829  1.00  0.00     0.079 C 
HETATM   39  C25 UNL     1      35.206 -22.565  23.158  1.00  0.00     0.245 C 
HETATM   40  F1  UNL     1      34.415 -21.424  22.927  1.00  0.00    -0.206 F 
HETATM   41  F2  UNL     1      34.393 -23.449  23.790  1.00  0.00    -0.206 F 
HETATM   42  C26 UNL     1      36.355 -22.175  24.018  1.00  0.00     0.099 C 
ATOM     43  H7  UNL     1      37.324 -20.773  26.234  1.00  0.00     0.164 HD
ENDBRANCH   1  24
TORSDOF 8
ENDMDL
MODEL 4
REMARK VINA RESULT: -8.904183454      3.219      6.647
REMARK  8 active torsions:
REMARK  status: ('A' for Active; 'I' for Inactive)
REMARK    1  A    between atoms: N3_4  and  C2_6 
REMARK    2  A    between atoms: C2_6  and  C3_7 
REMARK    3  A    between atoms: C3_7  and  C4_8 
REMARK    4  A    between atoms: C4_8  and  C5_9 
REMARK    5  A    between atoms: C5_9  and  C6_10 
REMARK    6  A    between atoms: C5_9  and  N7_24 
REMARK    7  A    between atoms: C6_10  and  N4_11 
REMARK       I    between atoms: N4_11  and  C7_13 
REMARK       I    between atoms: C7_13  and  N5_15 
REMARK    8  A    between atoms: N5_15  and  C8_17 
REMARK       I    between atoms: N7_24  and  C14_26 
REMARK       I    between atoms: C14_26  and  N8_28 
ROOT
HETATM    1  C5  UNL     1      37.850 -20.725  23.955  1.00  0.00     0.104 C 
ENDROOT
BRANCH   1   2
HETATM    2  C4  UNL     1      36.545 -20.918  24.598  1.00  0.00     0.028 C 
BRANCH   2   3
HETATM    3  C3  UNL     1      35.460 -20.725  23.501  1.00  0.00     0.022 C 
BRANCH   3   4
HETATM    4  C2  UNL     1      35.550 -21.887  22.544  1.00  0.00     0.122 C 
BRANCH   4   5
HETATM    5  N3  UNL     1      35.462 -23.147  23.251  1.00  0.00    -0.367 N 
HETATM    6  C1  UNL     1      34.350 -23.825  23.269  1.00  0.00     0.196 C 
HETATM    7  N1  UNL     1      34.283 -25.059  23.970  1.00  0.00    -0.067 NA
HETATM    8  N2  UNL     1      33.214 -23.338  22.579  1.00  0.00    -0.067 NA
ATOM      9  H3  UNL     1      36.281 -23.509  23.740  1.00  0.00     0.161 HD
ENDBRANCH   4   5
ENDBRANCH   3   4
ENDBRANCH   2   3
ENDBRANCH   1   2
BRANCH   1  10
HETATM   10  C6  UNL     1      38.448 -19.387  23.760  1.00  0.00     0.149 C 
BRANCH  10  11
HETATM   11  N4  UNL     1      38.703 -18.618  24.921  1.00  0.00    -0.341 N 
HETATM   12  C7  UNL     1      37.751 -17.714  25.485  1.00  0.00     0.320 C 
HETATM   13  O1  UNL     1      36.629 -17.448  25.089  1.00  0.00    -0.247 OA
HETATM   14  N5  UNL     1      38.210 -17.045  26.668  1.00  0.00    -0.309 N 
ATOM     15  H5  UNL     1      39.147 -17.243  27.018  1.00  0.00     0.170 HD
ATOM     16  H4  UNL     1      39.610 -18.715  25.377  1.00  0.00     0.164 HD
BRANCH  14  17
HETATM   17  C8  UNL     1      37.403 -16.124  27.358  1.00  0.00     0.036 A 
HETATM   18  C9  UNL     1      36.560 -16.486  28.356  1.00  0.00     0.031 A 
HETATM   19  C10 UNL     1      35.763 -15.525  28.963  1.00  0.00     0.029 A 
HETATM   20  C11 UNL     1      35.798 -14.208  28.587  1.00  0.00     0.046 A 
HETATM   21  N6  UNL     1      34.974 -13.251  29.220  1.00  0.00    -0.102 NA
HETATM   22  C12 UNL     1      36.666 -13.873  27.572  1.00  0.00     0.029 A 
HETATM   23  C13 UNL     1      37.459 -14.784  26.955  1.00  0.00     0.031 A 
ENDBRANCH  14  17
ENDBRANCH  10  11
ENDBRANCH   1  10
BRANCH   1  24
HETATM   24  N7  UNL     1      38.866 -21.522  24.675  1.00  0.00    -0.337 N 
HETATM   25  C14 UNL     1      39.259 -22.797  24.197  1.00  0.00     0.318 C 
HETATM   26  O2  UNL     1      38.757 -23.282  23.128  1.00  0.00    -0.247 OA
HETATM   27  N8  UNL     1      40.220 -23.535  24.912  1.00  0.00    -0.334 N 
HETATM   28  C15 UNL     1      40.666 -24.797  24.383  1.00  0.00     0.127 C 
HETATM   29  C27 UNL     1      40.736 -23.046  26.170  1.00  0.00     0.133 C 
HETATM   30  C16 UNL     1      39.957 -26.005  24.898  1.00  0.00     0.020 C 
HETATM   31  C17 UNL     1      40.916 -27.206  24.783  1.00  0.00     0.002 C 
HETATM   32  C18 UNL     1      42.063 -26.998  25.724  1.00  0.00     0.000 C 
HETATM   33  C19 UNL     1      42.470 -28.249  26.482  1.00  0.00     0.000 C 
HETATM   34  C20 UNL     1      42.787 -27.898  27.921  1.00  0.00     0.000 C 
HETATM   35  C21 UNL     1      41.717 -28.322  28.869  1.00  0.00     0.000 C 
HETATM   36  C22 UNL     1      40.543 -27.390  28.917  1.00  0.00     0.000 C 
HETATM   37  C23 UNL     1      40.866 -26.039  29.523  1.00  0.00     0.006 C 
HETATM   38  C24 UNL     1      39.807 -25.071  29.012  1.00  0.00     0.079 C 
HETATM   39  C25 UNL     1      40.426 -23.776  28.521  1.00  0.00     0.245 C 
HETATM   40  F1  UNL     1      40.327 -22.798  29.529  1.00  0.00    -0.206 F 
HETATM   41  F2  UNL     1      41.757 -23.953  28.316  1.00  0.00    -0.206 F 
HETATM   42  C26 UNL     1      39.753 -23.261  27.298  1.00  0.00     0.099 C 
ATOM     43  H7  UNL     1      39.290 -21.150  25.526  1.00  0.00     0.164 HD
ENDBRANCH   1  24
TORSDOF 8
ENDMDL
MODEL 5
REMARK VINA RESULT: -8.813740415      2.674      4.948
REMARK  8 active torsions:
REMARK  status: ('A' for Active; 'I' for Inactive)
REMARK    1  A    between atoms: N3_4  and  C2_6 
REMARK    2  A    between atoms: C2_6  and  C3_7 
REMARK    3  A    between atoms: C3_7  and  C4_8 
REMARK    4  A    between atoms: C4_8  and  C5_9 
REMARK    5  A    between atoms: C5_9  and  C6_10 
REMARK    6  A    between atoms: C5_9  and  N7_24 
REMARK    7  A    between atoms: C6_10  and  N4_11 
REMARK       I    between atoms: N4_11  and  C7_13 
REMARK       I    between atoms: C7_13  and  N5_15 
REMARK    8  A    between atoms: N5_15  and  C8_17 
REMARK       I    between atoms: N7_24  and  C14_26 
REMARK       I    between atoms: C14_26  and  N8_28 
ROOT
HETATM    1  C5  UNL     1      40.071 -21.508  27.150  1.00  0.00     0.104 C 
ENDROOT
BRANCH   1   2
HETATM    2  C4  UNL     1      40.567 -20.556  26.151  1.00  0.00     0.028 C 
BRANCH   2   3
HETATM    3  C3  UNL     1      39.575 -20.588  24.953  1.00  0.00     0.022 C 
BRANCH   3   4
HETATM    4  C2  UNL     1      39.101 -19.180  24.700  1.00  0.00     0.122 C 
BRANCH   4   5
HETATM    5  N3  UNL     1      38.005 -19.165  23.754  1.00  0.00    -0.367 N 
HETATM    6  C1  UNL     1      36.963 -18.409  23.952  1.00  0.00     0.196 C 
HETATM    7  N1  UNL     1      35.896 -18.410  23.015  1.00  0.00    -0.067 NA
HETATM    8  N2  UNL     1      36.902 -17.576  25.095  1.00  0.00    -0.067 NA
ATOM      9  H3  UNL     1      38.049 -19.754  22.922  1.00  0.00     0.161 HD
ENDBRANCH   4   5
ENDBRANCH   3   4
ENDBRANCH   2   3
ENDBRANCH   1   2
BRANCH   1  10
HETATM   10  C6  UNL     1      39.635 -21.087  28.499  1.00  0.00     0.149 C 
BRANCH  10  11
HETATM   11  N4  UNL     1      39.705 -19.705  28.798  1.00  0.00    -0.341 N 
HETATM   12  C7  UNL     1      38.667 -18.780  28.469  1.00  0.00     0.320 C 
HETATM   13  O1  UNL     1      37.611 -18.994  27.898  1.00  0.00    -0.247 OA
HETATM   14  N5  UNL     1      38.937 -17.430  28.873  1.00  0.00    -0.309 N 
ATOM     15  H5  UNL     1      39.815 -17.220  29.346  1.00  0.00     0.170 HD
ATOM     16  H4  UNL     1      40.536 -19.353  29.272  1.00  0.00     0.164 HD
BRANCH  14  17
HETATM   17  C8  UNL     1      38.023 -16.389  28.634  1.00  0.00     0.036 A 
HETATM   18  C9  UNL     1      36.793 -16.343  29.201  1.00  0.00     0.031 A 
HETATM   19  C10 UNL     1      35.929 -15.303  28.883  1.00  0.00     0.029 A 
HETATM   20  C11 UNL     1      36.279 -14.309  28.009  1.00  0.00     0.046 A 
HETATM   21  N6  UNL     1      35.380 -13.264  27.701  1.00  0.00    -0.102 NA
HETATM   22  C12 UNL     1      37.536 -14.383  27.451  1.00  0.00     0.029 A 
HETATM   23  C13 UNL     1      38.407 -15.384  27.737  1.00  0.00     0.031 A 
ENDBRANCH  14  17
ENDBRANCH  10  11
ENDBRANCH   1  10
BRANCH   1  24
HETATM   24  N7  UNL     1      38.937 -22.264  26.576  1.00  0.00    -0.337 N 
HETATM   25  C14 UNL     1      39.107 -23.600  26.135  1.00  0.00     0.318 C 
HETATM   26  O2  UNL     1      40.236 -24.187  26.233  1.00  0.00    -0.247 OA
HETATM   27  N8  UNL     1      38.011 -24.288  25.583  1.00  0.00    -0.334 N 
HETATM   28  C15 UNL     1      38.173 -25.667  25.201  1.00  0.00     0.127 C 
HETATM   29  C27 UNL     1      36.748 -23.616  25.379  1.00  0.00     0.133 C 
HETATM   30  C16 UNL     1      38.518 -25.909  23.770  1.00  0.00     0.020 C 
HETATM   31  C17 UNL     1      38.018 -27.317  23.391  1.00  0.00     0.002 C 
HETATM   32  C18 UNL     1      36.521 -27.324  23.436  1.00  0.00     0.000 C 
HETATM   33  C19 UNL     1      35.876 -28.066  22.279  1.00  0.00     0.000 C 
HETATM   34  C20 UNL     1      34.661 -27.302  21.792  1.00  0.00     0.000 C 
HETATM   35  C21 UNL     1      34.901 -26.596  20.501  1.00  0.00     0.000 C 
HETATM   36  C22 UNL     1      35.639 -25.298  20.647  1.00  0.00     0.000 C 
HETATM   37  C23 UNL     1      34.839 -24.222  21.353  1.00  0.00     0.006 C 
HETATM   38  C24 UNL     1      35.849 -23.223  21.904  1.00  0.00     0.079 C 
HETATM   39  C25 UNL     1      35.544 -22.861  23.346  1.00  0.00     0.245 C 
HETATM   40  F1  UNL     1      34.846 -21.639  23.383  1.00  0.00    -0.206 F 
HETATM   41  F2  UNL     1      34.699 -23.779  23.881  1.00  0.00    -0.206 F 
HETATM   42  C26 UNL     1      36.780 -22.721  24.162  1.00  0.00     0.099 C 
ATOM     43  H7  UNL     1      38.021 -21.820  26.498  1.00  0.00     0.164 HD
ENDBRANCH   1  24
TORSDOF 8
ENDMDL
