MODEL 1
REMARK VINA RESULT: -8.214330671      0.000      0.000
REMARK  11 active torsions:
REMARK  status: ('A' for Active; 'I' for Inactive)
REMARK    1  A    between atoms: C5_5  and  C6_6 
REMARK    2  A    between atoms: C8_8  and  C9_9 
REMARK    3  A    between atoms: C9_9  and  C10_10 
REMARK    4  A    between atoms: C10_10  and  N1_11 
REMARK    5  A    between atoms: C10_10  and  C19_27 
REMARK    6  A    between atoms: N1_11  and  C11_13 
REMARK    7  A    between atoms: C11_13  and  O1_14 
REMARK    8  A    between atoms: C11_13  and  C12_16 
REMARK    9  A    between atoms: C12_16  and  N2_17 
REMARK   10  A    between atoms: C12_16  and  C14_22 
REMARK       I    between atoms: N2_17  and  C13_19 
REMARK   11  A    between atoms: C21_33  and  C23_35 
ROOT
HETATM    1  C6  UNL     1      38.521 -21.111  24.554  1.00  0.00     0.039 A 
HETATM    2  C7  UNL     1      38.583 -19.978  25.304  1.00  0.00     0.038 A 
HETATM    3  C8  UNL     1      39.714 -20.030  26.124  1.00  0.00    -0.038 A 
HETATM    4  C20 UNL     1      40.312 -21.223  25.836  1.00  0.00     0.095 A 
HETATM    5  N3  UNL     1      39.593 -21.856  24.901  1.00  0.00    -0.365 N 
ATOM      6  H3  UNL     1      39.822 -22.769  24.507  1.00  0.00     0.165 HD
ENDROOT
BRANCH   3   7
HETATM    7  C9  UNL     1      40.175 -19.019  27.096  1.00  0.00     0.076 C 
BRANCH   7   8
HETATM    8  C10 UNL     1      39.417 -19.050  28.372  1.00  0.00     0.188 C 
BRANCH   8   9
HETATM    9  N1  UNL     1      38.975 -17.641  28.648  1.00  0.00    -0.358 N 
ATOM     10  H1  UNL     1      39.479 -17.054  29.312  1.00  0.00     0.162 HD
BRANCH   9  11
HETATM   11  C11 UNL     1      37.868 -17.163  27.978  1.00  0.00     0.136 C 
BRANCH  11  12
HETATM   12  O1  UNL     1      36.923 -18.029  27.737  1.00  0.00    -0.348 OA
ATOM     13  H1  UNL     1      36.293 -18.166  28.435  1.00  0.00     0.219 HD
ENDBRANCH  11  12
BRANCH  11  14
HETATM   14  C12 UNL     1      37.622 -15.799  27.504  1.00  0.00     0.166 C 
BRANCH  14  15
HETATM   15  N2  UNL     1      38.031 -15.687  26.092  1.00  0.00    -0.323 N 
HETATM   16  C13 UNL     1      39.387 -15.540  25.713  1.00  0.00     0.284 C 
HETATM   17  O2  UNL     1      40.257 -15.505  26.607  1.00  0.00    -0.630 OA
HETATM   18  O3  UNL     1      39.784 -15.435  24.386  1.00  0.00    -0.630 OA
ATOM     19  H2  UNL     1      37.315 -15.715  25.366  1.00  0.00     0.166 HD
ENDBRANCH  14  15
BRANCH  14  20
HETATM   20  C14 UNL     1      36.335 -15.144  27.762  1.00  0.00     0.016 C 
HETATM   21  C15 UNL     1      36.375 -13.649  27.675  1.00  0.00     0.007 C 
HETATM   22  C16 UNL     1      35.447 -13.129  28.746  1.00  0.00     0.000 C 
HETATM   23  C17 UNL     1      34.711 -14.338  29.232  1.00  0.00     0.000 C 
HETATM   24  C18 UNL     1      35.715 -15.459  29.114  1.00  0.00     0.007 C 
ENDBRANCH  14  20
ENDBRANCH  11  14
ENDBRANCH   9  11
ENDBRANCH   8   9
BRANCH   8  25
HETATM   25  C19 UNL     1      40.222 -19.490  29.512  1.00  0.00     0.197 C 
HETATM   26  O4  UNL     1      39.873 -19.150  30.684  1.00  0.00    -0.646 OA
HETATM   27  O5  UNL     1      41.353 -20.277  29.325  1.00  0.00    -0.646 OA
ENDBRANCH   8  25
ENDBRANCH   7   8
ENDBRANCH   3   7
BRANCH   1  28
HETATM   28  C5  UNL     1      37.526 -21.549  23.549  1.00  0.00    -0.018 C 
HETATM   29  C4  UNL     1      37.640 -21.024  22.347  1.00  0.00     0.021 C 
HETATM   30  C2  UNL     1      36.787 -21.277  21.166  1.00  0.00     0.138 C 
HETATM   31  C1  UNL     1      36.220 -19.887  20.791  1.00  0.00     0.050 C 
HETATM   32  C3  UNL     1      37.559 -21.690  19.932  1.00  0.00     0.050 C 
HETATM   33  N4  UNL     1      35.778 -22.233  21.446  1.00  0.00    -0.054 N 
HETATM   34  C25 UNL     1      35.331 -22.215  22.826  1.00  0.00     0.135 C 
ATOM     35  H42 UNL     1      34.989 -22.122  20.809  1.00  0.00     0.279 HD
ATOM     36  H41 UNL     1      36.083 -23.168  21.177  1.00  0.00     0.279 HD
HETATM   37  C21 UNL     1      36.444 -22.543  23.823  1.00  0.00     0.068 C 
HETATM   38  C26 UNL     1      34.129 -23.105  22.864  1.00  0.00     0.047 C 
HETATM   39  C27 UNL     1      34.803 -20.831  23.248  1.00  0.00     0.047 C 
HETATM   40  C22 UNL     1      35.818 -22.371  25.198  1.00  0.00     0.028 C 
BRANCH  37  41
HETATM   41  C23 UNL     1      36.984 -23.925  23.674  1.00  0.00     0.189 C 
HETATM   42  C24 UNL     1      37.337 -24.620  24.989  1.00  0.00     0.071 C 
HETATM   43  F1  UNL     1      35.969 -24.756  23.152  1.00  0.00    -0.225 F 
HETATM   44 CL1  UNL     1      38.385 -24.095  22.609  1.00  0.00    -0.082 Cl
ENDBRANCH  37  41
ENDBRANCH   1  28
TORSDOF 11
ENDMDL
MODEL 2
REMARK VINA RESULT: -8.176444184      4.150      7.222
REMARK  11 active torsions:
REMARK  status: ('A' for Active; 'I' for Inactive)
REMARK    1  A    between atoms: C5_5  and  C6_6 
REMARK    2  A    between atoms: C8_8  and  C9_9 
REMARK    3  A    between atoms: C9_9  and  C10_10 
REMARK    4  A    between atoms: C10_10  and  N1_11 
REMARK    5  A    between atoms: C10_10  and  C19_27 
REMARK    6  A    between atoms: N1_11  and  C11_13 
REMARK    7  A    between atoms: C11_13  and  O1_14 
REMARK    8  A    between atoms: C11_13  and  C12_16 
REMARK    9  A    between atoms: C12_16  and  N2_17 
REMARK   10  A    between atoms: C12_16  and  C14_22 
REMARK       I    between atoms: N2_17  and  C13_19 
REMARK   11  A    between atoms: C21_33  and  C23_35 
ROOT
HETATM    1  C6  UNL     1      42.018 -21.106  28.488  1.00  0.00     0.039 A 
HETATM    2  C7  UNL     1      40.697 -21.410  28.609  1.00  0.00     0.038 A 
HETATM    3  C8  UNL     1      39.941 -20.460  27.918  1.00  0.00    -0.038 A 
HETATM    4  C20 UNL     1      40.852 -19.589  27.390  1.00  0.00     0.095 A 
HETATM    5  N3  UNL     1      42.083 -19.985  27.736  1.00  0.00    -0.365 N 
ATOM      6  H3  UNL     1      42.945 -19.510  27.471  1.00  0.00     0.165 HD
ENDROOT
BRANCH   3   7
HETATM    7  C9  UNL     1      38.472 -20.398  27.780  1.00  0.00     0.076 C 
BRANCH   7   8
HETATM    8  C10 UNL     1      38.000 -19.138  27.152  1.00  0.00     0.188 C 
BRANCH   8   9
HETATM    9  N1  UNL     1      37.280 -18.365  28.220  1.00  0.00    -0.358 N 
ATOM     10  H1  UNL     1      36.343 -18.634  28.520  1.00  0.00     0.162 HD
BRANCH   9  11
HETATM   11  C11 UNL     1      37.921 -17.282  28.784  1.00  0.00     0.136 C 
BRANCH  11  12
HETATM   12  O1  UNL     1      38.576 -17.513  29.888  1.00  0.00    -0.348 OA
ATOM     13  H1  UNL     1      39.070 -18.324  29.921  1.00  0.00     0.219 HD
ENDBRANCH  11  12
BRANCH  11  14
HETATM   14  C12 UNL     1      37.960 -15.904  28.293  1.00  0.00     0.166 C 
BRANCH  14  15
HETATM   15  N2  UNL     1      37.973 -15.906  26.818  1.00  0.00    -0.323 N 
HETATM   16  C13 UNL     1      39.174 -15.791  26.078  1.00  0.00     0.284 C 
HETATM   17  O2  UNL     1      40.251 -15.683  26.699  1.00  0.00    -0.630 OA
HETATM   18  O3  UNL     1      39.198 -15.794  24.689  1.00  0.00    -0.630 OA
ATOM     19  H2  UNL     1      37.090 -15.994  26.316  1.00  0.00     0.166 HD
ENDBRANCH  14  15
BRANCH  14  20
HETATM   20  C14 UNL     1      37.046 -14.894  28.837  1.00  0.00     0.016 C 
HETATM   21  C15 UNL     1      35.736 -15.441  29.316  1.00  0.00     0.007 C 
HETATM   22  C16 UNL     1      34.688 -14.411  28.973  1.00  0.00     0.000 C 
HETATM   23  C17 UNL     1      35.463 -13.203  28.549  1.00  0.00     0.000 C 
HETATM   24  C18 UNL     1      36.695 -13.766  27.882  1.00  0.00     0.007 C 
ENDBRANCH  14  20
ENDBRANCH  11  14
ENDBRANCH   9  11
ENDBRANCH   8   9
BRANCH   8  25
HETATM   25  C19 UNL     1      37.056 -19.358  26.055  1.00  0.00     0.197 C 
HETATM   26  O4  UNL     1      36.482 -20.485  25.950  1.00  0.00    -0.646 OA
HETATM   27  O5  UNL     1      36.780 -18.350  25.139  1.00  0.00    -0.646 OA
ENDBRANCH   8  25
ENDBRANCH   7   8
ENDBRANCH   3   7
BRANCH   1  28
HETATM   28  C5  UNL     1      43.217 -21.781  29.035  1.00  0.00    -0.018 C 
HETATM   29  C4  UNL     1      43.789 -21.205  30.071  1.00  0.00     0.021 C 
HETATM   30  C2  UNL     1      44.991 -21.656  30.806  1.00  0.00     0.138 C 
HETATM   31  C1  UNL     1      45.989 -20.480  30.678  1.00  0.00     0.050 C 
HETATM   32  C3  UNL     1      44.782 -21.783  32.299  1.00  0.00     0.050 C 
HETATM   33  N4  UNL     1      45.495 -22.874  30.285  1.00  0.00    -0.054 N 
HETATM   34  C25 UNL     1      45.262 -23.034  28.862  1.00  0.00     0.135 C 
ATOM     35  H42 UNL     1      46.486 -22.976  30.502  1.00  0.00     0.279 HD
ATOM     36  H41 UNL     1      45.124 -23.669  30.804  1.00  0.00     0.279 HD
HETATM   37  C21 UNL     1      43.776 -23.057  28.494  1.00  0.00     0.068 C 
HETATM   38  C26 UNL     1      46.057 -24.238  28.464  1.00  0.00     0.047 C 
HETATM   39  C27 UNL     1      45.865 -21.881  28.040  1.00  0.00     0.047 C 
HETATM   40  C22 UNL     1      43.737 -23.122  26.976  1.00  0.00     0.028 C 
BRANCH  37  41
HETATM   41  C23 UNL     1      43.040 -24.215  29.077  1.00  0.00     0.189 C 
HETATM   42  C24 UNL     1      42.029 -24.870  28.136  1.00  0.00     0.071 C 
HETATM   43  F1  UNL     1      43.956 -25.261  29.320  1.00  0.00    -0.225 F 
HETATM   44 CL1  UNL     1      42.199 -23.905  30.602  1.00  0.00    -0.082 Cl
ENDBRANCH  37  41
ENDBRANCH   1  28
TORSDOF 11
ENDMDL
MODEL 3
REMARK VINA RESULT: -8.162768389      3.593      7.150
REMARK  11 active torsions:
REMARK  status: ('A' for Active; 'I' for Inactive)
REMARK    1  A    between atoms: C5_5  and  C6_6 
REMARK    2  A    between atoms: C8_8  and  C9_9 
REMARK    3  A    between atoms: C9_9  and  C10_10 
REMARK    4  A    between atoms: C10_10  and  N1_11 
REMARK    5  A    between atoms: C10_10  and  C19_27 
REMARK    6  A    between atoms: N1_11  and  C11_13 
REMARK    7  A    between atoms: C11_13  and  O1_14 
REMARK    8  A    between atoms: C11_13  and  C12_16 
REMARK    9  A    between atoms: C12_16  and  N2_17 
REMARK   10  A    between atoms: C12_16  and  C14_22 
REMARK       I    between atoms: N2_17  and  C13_19 
REMARK   11  A    between atoms: C21_33  and  C23_35 
ROOT
HETATM    1  C6  UNL     1      40.576 -20.361  28.439  1.00  0.00     0.039 A 
HETATM    2  C7  UNL     1      40.509 -19.351  27.530  1.00  0.00     0.038 A 
HETATM    3  C8  UNL     1      39.767 -18.296  28.067  1.00  0.00    -0.038 A 
HETATM    4  C20 UNL     1      39.397 -18.714  29.314  1.00  0.00     0.095 A 
HETATM    5  N3  UNL     1      39.885 -19.943  29.522  1.00  0.00    -0.365 N 
ATOM      6  H3  UNL     1      39.754 -20.486  30.376  1.00  0.00     0.165 HD
ENDROOT
BRANCH   3   7
HETATM    7  C9  UNL     1      39.443 -17.001  27.434  1.00  0.00     0.076 C 
BRANCH   7   8
HETATM    8  C10 UNL     1      37.993 -16.831  27.167  1.00  0.00     0.188 C 
BRANCH   8   9
HETATM    9  N1  UNL     1      37.840 -16.690  25.680  1.00  0.00    -0.358 N 
ATOM     10  H1  UNL     1      38.025 -15.801  25.215  1.00  0.00     0.162 HD
BRANCH   9  11
HETATM   11  C11 UNL     1      37.442 -17.797  24.959  1.00  0.00     0.136 C 
BRANCH  11  12
HETATM   12  O1  UNL     1      36.420 -17.630  24.167  1.00  0.00    -0.348 OA
ATOM     13  H1  UNL     1      35.895 -18.403  23.991  1.00  0.00     0.219 HD
ENDBRANCH  11  12
BRANCH  11  14
HETATM   14  C12 UNL     1      38.029 -19.138  24.972  1.00  0.00     0.166 C 
BRANCH  14  15
HETATM   15  N2  UNL     1      36.953 -20.147  24.949  1.00  0.00    -0.323 N 
HETATM   16  C13 UNL     1      36.609 -20.904  26.094  1.00  0.00     0.284 C 
HETATM   17  O2  UNL     1      37.241 -20.706  27.153  1.00  0.00    -0.630 OA
HETATM   18  O3  UNL     1      35.597 -21.855  26.084  1.00  0.00    -0.630 OA
ATOM     19  H2  UNL     1      36.442 -20.304  24.080  1.00  0.00     0.166 HD
ENDBRANCH  14  15
BRANCH  14  20
HETATM   20  C14 UNL     1      39.127 -19.478  24.061  1.00  0.00     0.016 C 
HETATM   21  C15 UNL     1      39.748 -20.818  24.313  1.00  0.00     0.007 C 
HETATM   22  C16 UNL     1      41.226 -20.665  24.050  1.00  0.00     0.000 C 
HETATM   23  C17 UNL     1      41.362 -19.321  23.406  1.00  0.00     0.000 C 
HETATM   24  C18 UNL     1      40.280 -18.488  24.049  1.00  0.00     0.007 C 
ENDBRANCH  14  20
ENDBRANCH  11  14
ENDBRANCH   9  11
ENDBRANCH   8   9
BRANCH   8  25
HETATM   25  C19 UNL     1      37.430 -15.628  27.784  1.00  0.00     0.197 C 
HETATM   26  O4  UNL     1      36.769 -14.817  27.065  1.00  0.00    -0.646 OA
HETATM   27  O5  UNL     1      37.606 -15.372  29.138  1.00  0.00    -0.646 OA
ENDBRANCH   8  25
ENDBRANCH   7   8
ENDBRANCH   3   7
BRANCH   1  28
HETATM   28  C5  UNL     1      41.226 -21.689  28.359  1.00  0.00    -0.018 C 
HETATM   29  C4  UNL     1      40.721 -22.534  27.485  1.00  0.00     0.021 C 
HETATM   30  C2  UNL     1      41.168 -23.915  27.204  1.00  0.00     0.138 C 
HETATM   31  C1  UNL     1      39.926 -24.792  27.493  1.00  0.00     0.050 C 
HETATM   32  C3  UNL     1      41.455 -24.179  25.741  1.00  0.00     0.050 C 
HETATM   33  N4  UNL     1      42.294 -24.271  27.987  1.00  0.00    -0.054 N 
HETATM   34  C25 UNL     1      42.327 -23.617  29.282  1.00  0.00     0.135 C 
ATOM     35  H42 UNL     1      42.357 -25.283  28.092  1.00  0.00     0.279 HD
ATOM     36  H41 UNL     1      43.159 -24.100  27.474  1.00  0.00     0.279 HD
HETATM   37  C21 UNL     1      42.405 -22.092  29.185  1.00  0.00     0.068 C 
HETATM   38  C26 UNL     1      43.433 -24.286  30.035  1.00  0.00     0.047 C 
HETATM   39  C27 UNL     1      41.062 -23.906  30.112  1.00  0.00     0.047 C 
HETATM   40  C22 UNL     1      42.321 -21.591  30.618  1.00  0.00     0.028 C 
BRANCH  37  41
HETATM   41  C23 UNL     1      43.658 -21.603  28.542  1.00  0.00     0.189 C 
HETATM   42  C24 UNL     1      44.321 -20.421  29.249  1.00  0.00     0.071 C 
HETATM   43  F1  UNL     1      44.642 -22.610  28.639  1.00  0.00    -0.225 F 
HETATM   44 CL1  UNL     1      43.531 -21.174  26.831  1.00  0.00    -0.082 Cl
ENDBRANCH  37  41
ENDBRANCH   1  28
TORSDOF 11
ENDMDL
MODEL 4
REMARK VINA RESULT: -8.107405234      1.775      2.819
REMARK  11 active torsions:
REMARK  status: ('A' for Active; 'I' for Inactive)
REMARK    1  A    between atoms: C5_5  and  C6_6 
REMARK    2  A    between atoms: C8_8  and  C9_9 
REMARK    3  A    between atoms: C9_9  and  C10_10 
REMARK    4  A    between atoms: C10_10  and  N1_11 
REMARK    5  A    between atoms: C10_10  and  C19_27 
REMARK    6  A    between atoms: N1_11  and  C11_13 
REMARK    7  A    between atoms: C11_13  and  O1_14 
REMARK    8  A    between atoms: C11_13  and  C12_16 
REMARK    9  A    between atoms: C12_16  and  N2_17 
REMARK   10  A    between atoms: C12_16  and  C14_22 
REMARK       I    between atoms: N2_17  and  C13_19 
REMARK   11  A    between atoms: C21_33  and  C23_35 
ROOT
HETATM    1  C6  UNL     1      38.854 -21.477  24.386  1.00  0.00     0.039 A 
HETATM    2  C7  UNL     1      39.053 -21.881  25.670  1.00  0.00     0.038 A 
HETATM    3  C8  UNL     1      40.291 -21.411  26.115  1.00  0.00    -0.038 A 
HETATM    4  C20 UNL     1      40.815 -20.722  25.058  1.00  0.00     0.095 A 
HETATM    5  N3  UNL     1      39.950 -20.769  24.037  1.00  0.00    -0.365 N 
ATOM      6  H3  UNL     1      40.098 -20.333  23.127  1.00  0.00     0.165 HD
ENDROOT
BRANCH   3   7
HETATM    7  C9  UNL     1      40.913 -21.609  27.440  1.00  0.00     0.076 C 
BRANCH   7   8
HETATM    8  C10 UNL     1      40.107 -21.042  28.550  1.00  0.00     0.188 C 
BRANCH   8   9
HETATM    9  N1  UNL     1      40.556 -19.619  28.729  1.00  0.00    -0.358 N 
ATOM     10  H1  UNL     1      41.532 -19.357  28.596  1.00  0.00     0.162 HD
BRANCH   9  11
HETATM   11  C11 UNL     1      39.610 -18.678  29.077  1.00  0.00     0.136 C 
BRANCH  11  12
HETATM   12  O1  UNL     1      39.598 -18.311  30.329  1.00  0.00    -0.348 OA
ATOM     13  H1  UNL     1      39.273 -17.435  30.505  1.00  0.00     0.219 HD
ENDBRANCH  11  12
BRANCH  11  14
HETATM   14  C12 UNL     1      38.618 -18.035  28.213  1.00  0.00     0.166 C 
BRANCH  14  15
HETATM   15  N2  UNL     1      38.588 -16.586  28.490  1.00  0.00    -0.323 N 
HETATM   16  C13 UNL     1      37.413 -15.930  28.927  1.00  0.00     0.284 C 
HETATM   17  O2  UNL     1      36.373 -16.604  29.079  1.00  0.00    -0.630 OA
HETATM   18  O3  UNL     1      37.373 -14.568  29.192  1.00  0.00    -0.630 OA
ATOM     19  H2  UNL     1      39.441 -16.041  28.363  1.00  0.00     0.166 HD
ENDBRANCH  14  15
BRANCH  14  20
HETATM   20  C14 UNL     1      38.585 -18.325  26.775  1.00  0.00     0.016 C 
HETATM   21  C15 UNL     1      39.422 -17.405  25.940  1.00  0.00     0.007 C 
HETATM   22  C16 UNL     1      38.665 -17.184  24.653  1.00  0.00     0.000 C 
HETATM   23  C17 UNL     1      37.555 -18.186  24.685  1.00  0.00     0.000 C 
HETATM   24  C18 UNL     1      37.201 -18.303  26.149  1.00  0.00     0.007 C 
ENDBRANCH  14  20
ENDBRANCH  11  14
ENDBRANCH   9  11
ENDBRANCH   8   9
BRANCH   8  25
HETATM   25  C19 UNL     1      40.313 -21.732  29.825  1.00  0.00     0.197 C 
HETATM   26  O4  UNL     1      39.861 -22.909  29.970  1.00  0.00    -0.646 OA
HETATM   27  O5  UNL     1      40.999 -21.118  30.865  1.00  0.00    -0.646 OA
ENDBRANCH   8  25
ENDBRANCH   7   8
ENDBRANCH   3   7
BRANCH   1  28
HETATM   28  C5  UNL     1      37.721 -21.717  23.464  1.00  0.00    -0.018 C 
HETATM   29  C4  UNL     1      37.858 -21.255  22.239  1.00  0.00     0.021 C 
HETATM   30  C2  UNL     1      36.889 -21.349  21.126  1.00  0.00     0.138 C 
HETATM   31  C1  UNL     1      36.600 -19.879  20.736  1.00  0.00     0.050 C 
HETATM   32  C3  UNL     1      37.469 -21.943  19.860  1.00  0.00     0.050 C 
HETATM   33  N4  UNL     1      35.725 -22.064  21.504  1.00  0.00    -0.054 N 
HETATM   34  C25 UNL     1      35.390 -21.921  22.909  1.00  0.00     0.135 C 
ATOM     35  H42 UNL     1      34.934 -21.803  20.916  1.00  0.00     0.279 HD
ATOM     36  H41 UNL     1      35.808 -23.048  21.251  1.00  0.00     0.279 HD
HETATM   37  C21 UNL     1      36.478 -22.454  23.844  1.00  0.00     0.068 C 
HETATM   38  C26 UNL     1      34.035 -22.536  23.056  1.00  0.00     0.047 C 
HETATM   39  C27 UNL     1      35.195 -20.448  23.313  1.00  0.00     0.047 C 
HETATM   40  C22 UNL     1      36.000 -22.122  25.249  1.00  0.00     0.028 C 
BRANCH  37  41
HETATM   41  C23 UNL     1      36.704 -23.922  23.711  1.00  0.00     0.189 C 
HETATM   42  C24 UNL     1      36.846 -24.670  25.037  1.00  0.00     0.071 C 
HETATM   43  F1  UNL     1      35.552 -24.511  23.148  1.00  0.00    -0.225 F 
HETATM   44 CL1  UNL     1      38.073 -24.403  22.700  1.00  0.00    -0.082 Cl
ENDBRANCH  37  41
ENDBRANCH   1  28
TORSDOF 11
ENDMDL
MODEL 5
REMARK VINA RESULT: -8.037020727      3.917      6.751
REMARK  11 active torsions:
REMARK  status: ('A' for Active; 'I' for Inactive)
REMARK    1  A    between atoms: C5_5  and  C6_6 
REMARK    2  A    between atoms: C8_8  and  C9_9 
REMARK    3  A    between atoms: C9_9  and  C10_10 
REMARK    4  A    between atoms: C10_10  and  N1_11 
REMARK    5  A    between atoms: C10_10  and  C19_27 
REMARK    6  A    between atoms: N1_11  and  C11_13 
REMARK    7  A    between atoms: C11_13  and  O1_14 
REMARK    8  A    between atoms: C11_13  and  C12_16 
REMARK    9  A    between atoms: C12_16  and  N2_17 
REMARK   10  A    between atoms: C12_16  and  C14_22 
REMARK       I    between atoms: N2_17  and  C13_19 
REMARK   11  A    between atoms: C21_33  and  C23_35 
ROOT
HETATM    1  C6  UNL     1      39.977 -20.123  28.371  1.00  0.00     0.039 A 
HETATM    2  C7  UNL     1      39.791 -18.914  28.968  1.00  0.00     0.038 A 
HETATM    3  C8  UNL     1      38.465 -18.513  28.792  1.00  0.00    -0.038 A 
HETATM    4  C20 UNL     1      37.877 -19.515  28.075  1.00  0.00     0.095 A 
HETATM    5  N3  UNL     1      38.786 -20.467  27.832  1.00  0.00    -0.365 N 
ATOM      6  H3  UNL     1      38.607 -21.327  27.314  1.00  0.00     0.165 HD
ENDROOT
BRANCH   3   7
HETATM    7  C9  UNL     1      37.822 -17.273  29.274  1.00  0.00     0.076 C 
BRANCH   7   8
HETATM    8  C10 UNL     1      37.211 -16.473  28.182  1.00  0.00     0.188 C 
BRANCH   8   9
HETATM    9  N1  UNL     1      38.342 -15.832  27.430  1.00  0.00    -0.358 N 
ATOM     10  H1  UNL     1      39.049 -15.280  27.916  1.00  0.00     0.162 HD
BRANCH   9  11
HETATM   11  C11 UNL     1      38.398 -16.010  26.064  1.00  0.00     0.136 C 
BRANCH  11  12
HETATM   12  O1  UNL     1      38.129 -14.963  25.335  1.00  0.00    -0.348 OA
ATOM     13  H1  UNL     1      37.221 -14.685  25.320  1.00  0.00     0.219 HD
ENDBRANCH  11  12
BRANCH  11  14
HETATM   14  C12 UNL     1      38.726 -17.233  25.328  1.00  0.00     0.166 C 
BRANCH  14  15
HETATM   15  N2  UNL     1      37.899 -17.312  24.109  1.00  0.00    -0.323 N 
HETATM   16  C13 UNL     1      36.901 -18.301  23.942  1.00  0.00     0.284 C 
HETATM   17  O2  UNL     1      36.721 -19.129  24.859  1.00  0.00    -0.630 OA
HETATM   18  O3  UNL     1      36.115 -18.384  22.800  1.00  0.00    -0.630 OA
ATOM     19  H2  UNL     1      38.052 -16.633  23.364  1.00  0.00     0.166 HD
ENDBRANCH  14  15
BRANCH  14  20
HETATM   20  C14 UNL     1      40.125 -17.595  25.073  1.00  0.00     0.016 C 
HETATM   21  C15 UNL     1      40.692 -17.021  23.811  1.00  0.00     0.007 C 
HETATM   22  C16 UNL     1      41.610 -18.071  23.234  1.00  0.00     0.000 C 
HETATM   23  C17 UNL     1      41.741 -19.099  24.314  1.00  0.00     0.000 C 
HETATM   24  C18 UNL     1      40.398 -19.088  25.003  1.00  0.00     0.007 C 
ENDBRANCH  14  20
ENDBRANCH  11  14
ENDBRANCH   9  11
ENDBRANCH   8   9
BRANCH   8  25
HETATM   25  C19 UNL     1      36.342 -15.400  28.670  1.00  0.00     0.197 C 
HETATM   26  O4  UNL     1      36.777 -14.209  28.679  1.00  0.00    -0.646 OA
HETATM   27  O5  UNL     1      35.053 -15.673  29.112  1.00  0.00    -0.646 OA
ENDBRANCH   8  25
ENDBRANCH   7   8
ENDBRANCH   3   7
BRANCH   1  28
HETATM   28  C5  UNL     1      41.187 -20.968  28.260  1.00  0.00    -0.018 C 
HETATM   29  C4  UNL     1      42.337 -20.332  28.177  1.00  0.00     0.021 C 
HETATM   30  C2  UNL     1      43.687 -20.922  28.054  1.00  0.00     0.138 C 
HETATM   31  C1  UNL     1      44.244 -20.344  26.730  1.00  0.00     0.050 C 
HETATM   32  C3  UNL     1      44.668 -20.427  29.096  1.00  0.00     0.050 C 
HETATM   33  N4  UNL     1      43.643 -22.338  28.068  1.00  0.00    -0.054 N 
HETATM   34  C25 UNL     1      42.425 -22.884  27.499  1.00  0.00     0.135 C 
ATOM     35  H42 UNL     1      44.464 -22.730  27.607  1.00  0.00     0.279 HD
ATOM     36  H41 UNL     1      43.792 -22.694  29.012  1.00  0.00     0.279 HD
HETATM   37  C21 UNL     1      41.165 -22.462  28.258  1.00  0.00     0.068 C 
HETATM   38  C26 UNL     1      42.665 -24.357  27.389  1.00  0.00     0.047 C 
HETATM   39  C27 UNL     1      42.200 -22.417  26.049  1.00  0.00     0.047 C 
HETATM   40  C22 UNL     1      40.003 -23.034  27.461  1.00  0.00     0.028 C 
BRANCH  37  41
HETATM   41  C23 UNL     1      41.122 -22.966  29.661  1.00  0.00     0.189 C 
HETATM   42  C24 UNL     1      39.872 -23.771  30.014  1.00  0.00     0.071 C 
HETATM   43  F1  UNL     1      42.155 -23.910  29.837  1.00  0.00    -0.225 F 
HETATM   44 CL1  UNL     1      41.323 -21.745  30.925  1.00  0.00    -0.082 Cl
ENDBRANCH  37  41
ENDBRANCH   1  28
TORSDOF 11
ENDMDL
