MODEL 1
REMARK VINA RESULT: -8.308118104      0.000      0.000
REMARK  10 active torsions:
REMARK  status: ('A' for Active; 'I' for Inactive)
REMARK    1  A    between atoms: O1_2  and  C2_3 
REMARK    2  A    between atoms: C2_3  and  C3_5 
REMARK    3  A    between atoms: C15_17  and  C16_18 
REMARK    4  A    between atoms: C16_18  and  O3_19 
REMARK    5  A    between atoms: C16_18  and  C17_21 
REMARK    6  A    between atoms: C17_21  and  N1_22 
REMARK    7  A    between atoms: N1_22  and  C18_25 
REMARK    8  A    between atoms: C18_25  and  C19_26 
REMARK    9  A    between atoms: C19_26  and  C20_27 
REMARK   10  A    between atoms: C20_27  and  C21_28 
ROOT
HETATM    1  C3  UNL     1      39.438 -25.976  24.127  1.00  0.00     0.117 C 
HETATM    2  C4  UNL     1      39.586 -27.244  23.296  1.00  0.00     0.049 C 
HETATM    3  C5  UNL     1      38.001 -25.612  24.180  1.00  0.00     0.041 C 
HETATM    4  C6  UNL     1      37.084 -26.786  23.971  1.00  0.00     0.003 C 
HETATM    5  C7  UNL     1      35.733 -26.353  23.425  1.00  0.00     0.000 C 
HETATM    6  C8  UNL     1      35.156 -25.150  24.087  1.00  0.00     0.000 C 
HETATM    7  C9  UNL     1      34.488 -24.242  23.041  1.00  0.00     0.000 C 
HETATM    8  C10 UNL     1      35.301 -22.998  22.795  1.00  0.00     0.000 C 
HETATM    9  C11 UNL     1      34.572 -21.717  23.005  1.00  0.00     0.000 C 
HETATM   10  C12 UNL     1      35.287 -20.882  24.014  1.00  0.00     0.006 C 
HETATM   11  C13 UNL     1      36.354 -19.973  23.440  1.00  0.00     0.007 C 
HETATM   12  C14 UNL     1      35.712 -19.135  22.325  1.00  0.00     0.012 C 
HETATM   13  C15 UNL     1      36.796 -19.062  24.603  1.00  0.00     0.118 C 
HETATM   14  N2  UNL     1      36.761 -19.796  25.823  1.00  0.00    -0.349 N 
ATOM     15  H2  UNL     1      35.811 -19.934  26.170  1.00  0.00     0.163 HD
HETATM   16  C22 UNL     1      37.716 -20.363  26.644  1.00  0.00     0.260 C 
HETATM   17  O6  UNL     1      37.632 -20.172  27.901  1.00  0.00    -0.267 OA
HETATM   18  C23 UNL     1      38.877 -21.201  26.265  1.00  0.00     0.095 A 
HETATM   19  S1  UNL     1      38.872 -22.305  24.973  1.00  0.00    -0.077 SA
HETATM   20  C24 UNL     1      40.455 -22.918  25.093  1.00  0.00     0.075 A 
HETATM   21  C25 UNL     1      40.952 -22.228  26.161  1.00  0.00     0.050 A 
HETATM   22  C26 UNL     1      40.142 -21.344  26.768  1.00  0.00     0.058 A 
HETATM   23 CL1  UNL     1      40.701 -20.392  28.191  1.00  0.00    -0.083 Cl
HETATM   24  C27 UNL     1      41.020 -23.951  24.188  1.00  0.00     0.259 C 
HETATM   25  O7  UNL     1      42.275 -23.846  24.002  1.00  0.00    -0.267 OA
HETATM   26  N3  UNL     1      40.297 -24.967  23.566  1.00  0.00    -0.338 N 
ATOM     27  H3  UNL     1      40.392 -25.002  22.551  1.00  0.00     0.164 HD
ENDROOT
BRANCH  13  28
HETATM   28  C16 UNL     1      37.946 -18.209  24.279  1.00  0.00     0.167 C 
BRANCH  28  29
HETATM   29  O3  UNL     1      39.061 -18.765  23.721  1.00  0.00    -0.392 OA
ATOM     30  H3  UNL     1      39.650 -18.221  23.211  1.00  0.00     0.210 HD
ENDBRANCH  28  29
BRANCH  28  31
HETATM   31  C17 UNL     1      38.412 -17.269  25.368  1.00  0.00     0.265 C 
BRANCH  31  32
HETATM   32  N1  UNL     1      37.916 -15.941  25.112  1.00  0.00    -0.073 N 
ATOM     33  H12 UNL     1      38.558 -15.425  24.510  1.00  0.00     0.277 HD
ATOM     34  H11 UNL     1      37.100 -15.972  24.501  1.00  0.00     0.277 HD
BRANCH  32  35
HETATM   35  C18 UNL     1      37.629 -15.199  26.300  1.00  0.00     0.233 C 
BRANCH  35  36
HETATM   36  C19 UNL     1      37.204 -16.076  27.460  1.00  0.00     0.038 C 
BRANCH  36  37
HETATM   37  C20 UNL     1      37.037 -15.277  28.737  1.00  0.00     0.115 C 
BRANCH  37  38
HETATM   38  C21 UNL     1      35.629 -14.812  28.833  1.00  0.00     0.172 C 
HETATM   39  O4  UNL     1      35.376 -13.639  28.489  1.00  0.00    -0.648 OA
HETATM   40  O5  UNL     1      34.590 -15.612  29.282  1.00  0.00    -0.648 OA
ENDBRANCH  37  38
ENDBRANCH  36  37
ENDBRANCH  35  36
ENDBRANCH  32  35
ENDBRANCH  31  32
ENDBRANCH  28  31
ENDBRANCH  13  28
BRANCH   1  41
HETATM   41  C2  UNL     1      39.829 -26.368  25.509  1.00  0.00     0.286 C 
HETATM   42  O2  UNL     1      40.708 -27.228  25.748  1.00  0.00    -0.262 OA
BRANCH  41  43
HETATM   43  O1  UNL     1      39.175 -25.739  26.556  1.00  0.00    -0.325 OA
HETATM   44  C1  UNL     1      39.818 -25.390  27.760  1.00  0.00     0.213 C 
ENDBRANCH  41  43
ENDBRANCH   1  41
TORSDOF 10
ENDMDL
MODEL 2
REMARK VINA RESULT: -7.744053248      2.592      4.968
REMARK  10 active torsions:
REMARK  status: ('A' for Active; 'I' for Inactive)
REMARK    1  A    between atoms: O1_2  and  C2_3 
REMARK    2  A    between atoms: C2_3  and  C3_5 
REMARK    3  A    between atoms: C15_17  and  C16_18 
REMARK    4  A    between atoms: C16_18  and  O3_19 
REMARK    5  A    between atoms: C16_18  and  C17_21 
REMARK    6  A    between atoms: C17_21  and  N1_22 
REMARK    7  A    between atoms: N1_22  and  C18_25 
REMARK    8  A    between atoms: C18_25  and  C19_26 
REMARK    9  A    between atoms: C19_26  and  C20_27 
REMARK   10  A    between atoms: C20_27  and  C21_28 
ROOT
HETATM    1  C3  UNL     1      37.303 -26.104  23.496  1.00  0.00     0.117 C 
HETATM    2  C4  UNL     1      37.089 -27.611  23.450  1.00  0.00     0.049 C 
HETATM    3  C5  UNL     1      38.723 -25.839  23.830  1.00  0.00     0.041 C 
HETATM    4  C6  UNL     1      39.642 -26.970  23.456  1.00  0.00     0.003 C 
HETATM    5  C7  UNL     1      40.899 -26.979  24.309  1.00  0.00     0.000 C 
HETATM    6  C8  UNL     1      41.519 -25.640  24.510  1.00  0.00     0.000 C 
HETATM    7  C9  UNL     1      42.022 -25.502  25.957  1.00  0.00     0.000 C 
HETATM    8  C10 UNL     1      41.148 -24.571  26.756  1.00  0.00     0.000 C 
HETATM    9  C11 UNL     1      41.859 -23.426  27.388  1.00  0.00     0.000 C 
HETATM   10  C12 UNL     1      41.252 -22.139  26.941  1.00  0.00     0.006 C 
HETATM   11  C13 UNL     1      40.095 -21.656  27.790  1.00  0.00     0.007 C 
HETATM   12  C14 UNL     1      40.565 -21.615  29.251  1.00  0.00     0.012 C 
HETATM   13  C15 UNL     1      39.776 -20.233  27.293  1.00  0.00     0.118 C 
HETATM   14  N2  UNL     1      39.987 -20.161  25.886  1.00  0.00    -0.349 N 
ATOM     15  H2  UNL     1      40.976 -20.126  25.639  1.00  0.00     0.163 HD
HETATM   16  C22 UNL     1      39.161 -20.128  24.780  1.00  0.00     0.260 C 
HETATM   17  O6  UNL     1      39.398 -19.272  23.866  1.00  0.00    -0.267 OA
HETATM   18  C23 UNL     1      37.986 -20.981  24.481  1.00  0.00     0.095 A 
HETATM   19  S1  UNL     1      37.861 -22.617  24.924  1.00  0.00    -0.077 SA
HETATM   20  C24 UNL     1      36.326 -22.984  24.290  1.00  0.00     0.075 A 
HETATM   21  C25 UNL     1      35.947 -21.794  23.740  1.00  0.00     0.050 A 
HETATM   22  C26 UNL     1      36.800 -20.760  23.835  1.00  0.00     0.058 A 
HETATM   23 CL1  UNL     1      36.397 -19.151  23.132  1.00  0.00    -0.083 Cl
HETATM   24  C27 UNL     1      35.682 -24.319  24.386  1.00  0.00     0.259 C 
HETATM   25  O7  UNL     1      34.411 -24.278  24.445  1.00  0.00    -0.267 OA
HETATM   26  N3  UNL     1      36.350 -25.542  24.416  1.00  0.00    -0.338 N 
ATOM     27  H3  UNL     1      36.128 -26.132  25.217  1.00  0.00     0.164 HD
ENDROOT
BRANCH  13  28
HETATM   28  C16 UNL     1      38.570 -19.653  27.896  1.00  0.00     0.167 C 
BRANCH  28  29
HETATM   29  O3  UNL     1      37.364 -20.268  27.714  1.00  0.00    -0.392 OA
ATOM     30  H3  UNL     1      37.313 -21.216  27.749  1.00  0.00     0.210 HD
ENDBRANCH  28  29
BRANCH  28  31
HETATM   31  C17 UNL     1      38.354 -18.173  27.676  1.00  0.00     0.265 C 
BRANCH  31  32
HETATM   32  N1  UNL     1      36.980 -17.834  27.950  1.00  0.00    -0.073 N 
ATOM     33  H12 UNL     1      36.577 -17.308  27.175  1.00  0.00     0.277 HD
ATOM     34  H11 UNL     1      36.391 -18.665  27.917  1.00  0.00     0.277 HD
BRANCH  32  35
HETATM   35  C18 UNL     1      36.800 -17.135  29.184  1.00  0.00     0.233 C 
BRANCH  35  36
HETATM   36  C19 UNL     1      37.320 -15.713  29.143  1.00  0.00     0.038 C 
BRANCH  36  37
HETATM   37  C20 UNL     1      36.272 -14.747  28.628  1.00  0.00     0.115 C 
BRANCH  37  38
HETATM   38  C21 UNL     1      36.684 -14.259  27.286  1.00  0.00     0.172 C 
HETATM   39  O4  UNL     1      36.622 -13.032  27.065  1.00  0.00    -0.648 OA
HETATM   40  O5  UNL     1      37.132 -15.095  26.276  1.00  0.00    -0.648 OA
ENDBRANCH  37  38
ENDBRANCH  36  37
ENDBRANCH  35  36
ENDBRANCH  32  35
ENDBRANCH  31  32
ENDBRANCH  28  31
ENDBRANCH  13  28
BRANCH   1  41
HETATM   41  C2  UNL     1      37.102 -25.639  22.096  1.00  0.00     0.286 C 
HETATM   42  O2  UNL     1      36.246 -26.140  21.330  1.00  0.00    -0.262 OA
BRANCH  41  43
HETATM   43  O1  UNL     1      37.911 -24.608  21.646  1.00  0.00    -0.325 OA
HETATM   44  C1  UNL     1      37.448 -23.591  20.789  1.00  0.00     0.213 C 
ENDBRANCH  41  43
ENDBRANCH   1  41
TORSDOF 10
ENDMDL
MODEL 3
REMARK VINA RESULT: -7.729169543      2.585      4.708
REMARK  10 active torsions:
REMARK  status: ('A' for Active; 'I' for Inactive)
REMARK    1  A    between atoms: O1_2  and  C2_3 
REMARK    2  A    between atoms: C2_3  and  C3_5 
REMARK    3  A    between atoms: C15_17  and  C16_18 
REMARK    4  A    between atoms: C16_18  and  O3_19 
REMARK    5  A    between atoms: C16_18  and  C17_21 
REMARK    6  A    between atoms: C17_21  and  N1_22 
REMARK    7  A    between atoms: N1_22  and  C18_25 
REMARK    8  A    between atoms: C18_25  and  C19_26 
REMARK    9  A    between atoms: C19_26  and  C20_27 
REMARK   10  A    between atoms: C20_27  and  C21_28 
ROOT
HETATM    1  C3  UNL     1      37.170 -24.748  24.500  1.00  0.00     0.117 C 
HETATM    2  C4  UNL     1      36.629 -26.084  24.991  1.00  0.00     0.049 C 
HETATM    3  C5  UNL     1      38.361 -24.395  25.310  1.00  0.00     0.041 C 
HETATM    4  C6  UNL     1      39.044 -25.591  25.913  1.00  0.00     0.003 C 
HETATM    5  C7  UNL     1      39.819 -25.223  27.167  1.00  0.00     0.000 C 
HETATM    6  C8  UNL     1      40.617 -23.971  27.055  1.00  0.00     0.000 C 
HETATM    7  C9  UNL     1      40.526 -23.167  28.363  1.00  0.00     0.000 C 
HETATM    8  C10 UNL     1      39.665 -21.942  28.196  1.00  0.00     0.000 C 
HETATM    9  C11 UNL     1      40.326 -20.655  28.545  1.00  0.00     0.000 C 
HETATM   10  C12 UNL     1      40.280 -19.726  27.379  1.00  0.00     0.006 C 
HETATM   11  C13 UNL     1      39.039 -18.861  27.307  1.00  0.00     0.007 C 
HETATM   12  C14 UNL     1      38.890 -18.135  28.650  1.00  0.00     0.012 C 
HETATM   13  C15 UNL     1      39.302 -17.845  26.178  1.00  0.00     0.118 C 
HETATM   14  N2  UNL     1      40.061 -18.466  25.145  1.00  0.00    -0.349 N 
ATOM     15  H2  UNL     1      41.043 -18.582  25.396  1.00  0.00     0.163 HD
HETATM   16  C22 UNL     1      39.774 -18.947  23.883  1.00  0.00     0.260 C 
HETATM   17  O6  UNL     1      40.554 -18.644  22.921  1.00  0.00    -0.267 OA
HETATM   18  C23 UNL     1      38.643 -19.805  23.458  1.00  0.00     0.095 A 
HETATM   19  S1  UNL     1      37.956 -21.021  24.427  1.00  0.00    -0.077 SA
HETATM   20  C24 UNL     1      36.756 -21.605  23.372  1.00  0.00     0.075 A 
HETATM   21  C25 UNL     1      36.929 -20.817  22.271  1.00  0.00     0.050 A 
HETATM   22  C26 UNL     1      37.901 -19.890  22.311  1.00  0.00     0.058 A 
HETATM   23 CL1  UNL     1      38.215 -18.807  20.906  1.00  0.00    -0.083 Cl
HETATM   24  C27 UNL     1      35.820 -22.710  23.704  1.00  0.00     0.259 C 
HETATM   25  O7  UNL     1      34.681 -22.610  23.144  1.00  0.00    -0.267 OA
HETATM   26  N3  UNL     1      36.101 -23.786  24.545  1.00  0.00    -0.338 N 
ATOM     27  H3  UNL     1      35.443 -23.911  25.315  1.00  0.00     0.164 HD
ENDROOT
BRANCH  13  28
HETATM   28  C16 UNL     1      38.138 -17.013  25.850  1.00  0.00     0.167 C 
BRANCH  28  29
HETATM   29  O3  UNL     1      37.076 -17.570  25.196  1.00  0.00    -0.392 OA
ATOM     30  H3  UNL     1      36.523 -17.022  24.651  1.00  0.00     0.210 HD
ENDBRANCH  28  29
BRANCH  28  31
HETATM   31  C17 UNL     1      38.426 -15.686  25.185  1.00  0.00     0.265 C 
BRANCH  31  32
HETATM   32  N1  UNL     1      37.622 -14.654  25.788  1.00  0.00    -0.073 N 
ATOM     33  H12 UNL     1      37.693 -13.786  25.257  1.00  0.00     0.277 HD
ATOM     34  H11 UNL     1      36.629 -14.850  25.661  1.00  0.00     0.277 HD
BRANCH  32  35
HETATM   35  C18 UNL     1      37.921 -14.430  27.168  1.00  0.00     0.233 C 
BRANCH  35  36
HETATM   36  C19 UNL     1      36.847 -14.950  28.101  1.00  0.00     0.038 C 
BRANCH  36  37
HETATM   37  C20 UNL     1      35.769 -13.914  28.350  1.00  0.00     0.115 C 
BRANCH  37  38
HETATM   38  C21 UNL     1      34.714 -14.512  29.210  1.00  0.00     0.172 C 
HETATM   39  O4  UNL     1      34.672 -15.756  29.303  1.00  0.00    -0.648 OA
HETATM   40  O5  UNL     1      33.784 -13.760  29.909  1.00  0.00    -0.648 OA
ENDBRANCH  37  38
ENDBRANCH  36  37
ENDBRANCH  35  36
ENDBRANCH  32  35
ENDBRANCH  31  32
ENDBRANCH  28  31
ENDBRANCH  13  28
BRANCH   1  41
HETATM   41  C2  UNL     1      37.658 -25.010  23.118  1.00  0.00     0.286 C 
HETATM   42  O2  UNL     1      37.089 -25.807  22.336  1.00  0.00    -0.262 OA
BRANCH  41  43
HETATM   43  O1  UNL     1      38.793 -24.330  22.706  1.00  0.00    -0.325 OA
HETATM   44  C1  UNL     1      38.967 -23.861  21.389  1.00  0.00     0.213 C 
ENDBRANCH  41  43
ENDBRANCH   1  41
TORSDOF 10
ENDMDL
MODEL 4
REMARK VINA RESULT: -7.664117902      1.227      1.500
REMARK  10 active torsions:
REMARK  status: ('A' for Active; 'I' for Inactive)
REMARK    1  A    between atoms: O1_2  and  C2_3 
REMARK    2  A    between atoms: C2_3  and  C3_5 
REMARK    3  A    between atoms: C15_17  and  C16_18 
REMARK    4  A    between atoms: C16_18  and  O3_19 
REMARK    5  A    between atoms: C16_18  and  C17_21 
REMARK    6  A    between atoms: C17_21  and  N1_22 
REMARK    7  A    between atoms: N1_22  and  C18_25 
REMARK    8  A    between atoms: C18_25  and  C19_26 
REMARK    9  A    between atoms: C19_26  and  C20_27 
REMARK   10  A    between atoms: C20_27  and  C21_28 
ROOT
HETATM    1  C3  UNL     1      40.581 -25.566  25.754  1.00  0.00     0.117 C 
HETATM    2  C4  UNL     1      41.093 -26.878  25.174  1.00  0.00     0.049 C 
HETATM    3  C5  UNL     1      39.129 -25.461  25.472  1.00  0.00     0.041 C 
HETATM    4  C6  UNL     1      38.465 -26.797  25.276  1.00  0.00     0.003 C 
HETATM    5  C7  UNL     1      37.215 -26.682  24.420  1.00  0.00     0.000 C 
HETATM    6  C8  UNL     1      36.334 -25.530  24.762  1.00  0.00     0.000 C 
HETATM    7  C9  UNL     1      35.780 -24.889  23.480  1.00  0.00     0.000 C 
HETATM    8  C10 UNL     1      36.430 -23.559  23.205  1.00  0.00     0.000 C 
HETATM    9  C11 UNL     1      35.489 -22.413  23.069  1.00  0.00     0.000 C 
HETATM   10  C12 UNL     1      35.837 -21.348  24.054  1.00  0.00     0.006 C 
HETATM   11  C13 UNL     1      36.853 -20.339  23.563  1.00  0.00     0.007 C 
HETATM   12  C14 UNL     1      36.349 -19.771  22.229  1.00  0.00     0.012 C 
HETATM   13  C15 UNL     1      36.892 -19.230  24.633  1.00  0.00     0.118 C 
HETATM   14  N2  UNL     1      36.705 -19.805  25.922  1.00  0.00    -0.349 N 
ATOM     15  H2  UNL     1      35.735 -20.068  26.098  1.00  0.00     0.163 HD
HETATM   16  C22 UNL     1      37.534 -20.089  26.990  1.00  0.00     0.260 C 
HETATM   17  O6  UNL     1      37.153 -19.765  28.163  1.00  0.00    -0.267 OA
HETATM   18  C23 UNL     1      38.863 -20.746  26.977  1.00  0.00     0.095 A 
HETATM   19  S1  UNL     1      39.302 -21.980  25.895  1.00  0.00    -0.077 SA
HETATM   20  C24 UNL     1      40.895 -22.281  26.412  1.00  0.00     0.075 A 
HETATM   21  C25 UNL     1      41.041 -21.390  27.435  1.00  0.00     0.050 A 
HETATM   22  C26 UNL     1      39.996 -20.598  27.730  1.00  0.00     0.058 A 
HETATM   23 CL1  UNL     1      40.085 -19.396  29.069  1.00  0.00    -0.083 Cl
HETATM   24  C27 UNL     1      41.790 -23.299  25.804  1.00  0.00     0.259 C 
HETATM   25  O7  UNL     1      43.026 -22.994  25.849  1.00  0.00    -0.267 OA
HETATM   26  N3  UNL     1      41.380 -24.496  25.219  1.00  0.00    -0.338 N 
ATOM     27  H3  UNL     1      41.696 -24.635  24.259  1.00  0.00     0.164 HD
ENDROOT
BRANCH  13  28
HETATM   28  C16 UNL     1      37.944 -18.230  24.409  1.00  0.00     0.167 C 
BRANCH  28  29
HETATM   29  O3  UNL     1      39.253 -18.620  24.399  1.00  0.00    -0.392 OA
ATOM     30  H3  UNL     1      39.848 -18.278  25.055  1.00  0.00     0.210 HD
ENDBRANCH  28  29
BRANCH  28  31
HETATM   31  C17 UNL     1      37.859 -16.969  25.238  1.00  0.00     0.265 C 
BRANCH  31  32
HETATM   32  N1  UNL     1      39.131 -16.710  25.864  1.00  0.00    -0.073 N 
ATOM     33  H12 UNL     1      39.802 -17.444  25.634  1.00  0.00     0.277 HD
ATOM     34  H11 UNL     1      39.594 -15.915  25.425  1.00  0.00     0.277 HD
BRANCH  32  35
HETATM   35  C18 UNL     1      39.045 -16.528  27.279  1.00  0.00     0.233 C 
BRANCH  35  36
HETATM   36  C19 UNL     1      37.622 -16.362  27.771  1.00  0.00     0.038 C 
BRANCH  36  37
HETATM   37  C20 UNL     1      37.431 -15.051  28.507  1.00  0.00     0.115 C 
BRANCH  37  38
HETATM   38  C21 UNL     1      35.977 -14.758  28.601  1.00  0.00     0.172 C 
HETATM   39  O4  UNL     1      35.215 -15.683  28.949  1.00  0.00    -0.648 OA
HETATM   40  O5  UNL     1      35.430 -13.515  28.323  1.00  0.00    -0.648 OA
ENDBRANCH  37  38
ENDBRANCH  36  37
ENDBRANCH  35  36
ENDBRANCH  32  35
ENDBRANCH  31  32
ENDBRANCH  28  31
ENDBRANCH  13  28
BRANCH   1  41
HETATM   41  C2  UNL     1      40.719 -25.712  27.229  1.00  0.00     0.286 C 
HETATM   42  O2  UNL     1      41.619 -26.400  27.763  1.00  0.00    -0.262 OA
BRANCH  41  43
HETATM   43  O1  UNL     1      39.796 -25.048  28.022  1.00  0.00    -0.325 OA
HETATM   44  C1  UNL     1      40.021 -24.764  29.383  1.00  0.00     0.213 C 
ENDBRANCH  41  43
ENDBRANCH   1  41
TORSDOF 10
ENDMDL
MODEL 5
REMARK VINA RESULT: -7.637712678      1.629      2.098
REMARK  10 active torsions:
REMARK  status: ('A' for Active; 'I' for Inactive)
REMARK    1  A    between atoms: O1_2  and  C2_3 
REMARK    2  A    between atoms: C2_3  and  C3_5 
REMARK    3  A    between atoms: C15_17  and  C16_18 
REMARK    4  A    between atoms: C16_18  and  O3_19 
REMARK    5  A    between atoms: C16_18  and  C17_21 
REMARK    6  A    between atoms: C17_21  and  N1_22 
REMARK    7  A    between atoms: N1_22  and  C18_25 
REMARK    8  A    between atoms: C18_25  and  C19_26 
REMARK    9  A    between atoms: C19_26  and  C20_27 
REMARK   10  A    between atoms: C20_27  and  C21_28 
ROOT
HETATM    1  C3  UNL     1      41.324 -25.356  24.290  1.00  0.00     0.117 C 
HETATM    2  C4  UNL     1      41.842 -26.512  23.445  1.00  0.00     0.049 C 
HETATM    3  C5  UNL     1      39.858 -25.508  24.449  1.00  0.00     0.041 C 
HETATM    4  C6  UNL     1      39.389 -26.930  24.302  1.00  0.00     0.003 C 
HETATM    5  C7  UNL     1      37.938 -27.001  23.858  1.00  0.00     0.000 C 
HETATM    6  C8  UNL     1      37.029 -26.057  24.565  1.00  0.00     0.000 C 
HETATM    7  C9  UNL     1      36.018 -25.456  23.575  1.00  0.00     0.000 C 
HETATM    8  C10 UNL     1      36.331 -24.013  23.276  1.00  0.00     0.000 C 
HETATM    9  C11 UNL     1      35.222 -23.058  23.544  1.00  0.00     0.000 C 
HETATM   10  C12 UNL     1      35.674 -22.007  24.502  1.00  0.00     0.006 C 
HETATM   11  C13 UNL     1      36.318 -20.798  23.857  1.00  0.00     0.007 C 
HETATM   12  C14 UNL     1      35.351 -20.256  22.795  1.00  0.00     0.012 C 
HETATM   13  C15 UNL     1      36.499 -19.767  24.988  1.00  0.00     0.118 C 
HETATM   14  N2  UNL     1      36.805 -20.442  26.204  1.00  0.00    -0.349 N 
ATOM     15  H2  UNL     1      35.988 -20.892  26.619  1.00  0.00     0.163 HD
HETATM   16  C22 UNL     1      37.951 -20.628  26.951  1.00  0.00     0.260 C 
HETATM   17  O6  UNL     1      37.894 -20.452  28.212  1.00  0.00    -0.267 OA
HETATM   18  C23 UNL     1      39.301 -21.023  26.485  1.00  0.00     0.095 A 
HETATM   19  S1  UNL     1      39.587 -22.088  25.192  1.00  0.00    -0.077 SA
HETATM   20  C24 UNL     1      41.288 -22.115  25.194  1.00  0.00     0.075 A 
HETATM   21  C25 UNL     1      41.590 -21.275  26.226  1.00  0.00     0.050 A 
HETATM   22  C26 UNL     1      40.570 -20.711  26.894  1.00  0.00     0.058 A 
HETATM   23 CL1  UNL     1      40.863 -19.595  28.277  1.00  0.00    -0.083 Cl
HETATM   24  C27 UNL     1      42.110 -22.909  24.245  1.00  0.00     0.259 C 
HETATM   25  O7  UNL     1      43.236 -22.382  23.969  1.00  0.00    -0.267 OA
HETATM   26  N3  UNL     1      41.741 -24.125  23.673  1.00  0.00    -0.338 N 
ATOM     27  H3  UNL     1      41.771 -24.146  22.653  1.00  0.00     0.164 HD
ENDROOT
BRANCH  13  28
HETATM   28  C16 UNL     1      37.258 -18.577  24.586  1.00  0.00     0.167 C 
BRANCH  28  29
HETATM   29  O3  UNL     1      36.591 -17.466  24.153  1.00  0.00    -0.392 OA
ATOM     30  H3  UNL     1      36.060 -16.971  24.766  1.00  0.00     0.210 HD
ENDBRANCH  28  29
BRANCH  28  31
HETATM   31  C17 UNL     1      38.411 -18.804  23.635  1.00  0.00     0.265 C 
BRANCH  31  32
HETATM   32  N1  UNL     1      39.320 -17.689  23.694  1.00  0.00    -0.073 N 
ATOM     33  H12 UNL     1      39.907 -17.657  22.860  1.00  0.00     0.277 HD
ATOM     34  H11 UNL     1      38.818 -16.808  23.581  1.00  0.00     0.277 HD
BRANCH  32  35
HETATM   35  C18 UNL     1      40.121 -17.667  24.878  1.00  0.00     0.233 C 
BRANCH  35  36
HETATM   36  C19 UNL     1      40.030 -16.357  25.633  1.00  0.00     0.038 C 
BRANCH  36  37
HETATM   37  C20 UNL     1      39.328 -16.524  26.966  1.00  0.00     0.115 C 
BRANCH  37  38
HETATM   38  C21 UNL     1      38.161 -15.605  27.015  1.00  0.00     0.172 C 
HETATM   39  O4  UNL     1      37.855 -15.107  28.118  1.00  0.00    -0.648 OA
HETATM   40  O5  UNL     1      37.402 -15.277  25.904  1.00  0.00    -0.648 OA
ENDBRANCH  37  38
ENDBRANCH  36  37
ENDBRANCH  35  36
ENDBRANCH  32  35
ENDBRANCH  31  32
ENDBRANCH  28  31
ENDBRANCH  13  28
BRANCH   1  41
HETATM   41  C2  UNL     1      41.922 -25.561  25.638  1.00  0.00     0.286 C 
HETATM   42  O2  UNL     1      43.081 -26.006  25.808  1.00  0.00    -0.262 OA
BRANCH  41  43
HETATM   43  O1  UNL     1      41.139 -25.237  26.736  1.00  0.00    -0.325 OA
HETATM   44  C1  UNL     1      41.661 -24.631  27.895  1.00  0.00     0.213 C 
ENDBRANCH  41  43
ENDBRANCH   1  41
TORSDOF 10
ENDMDL
