MODEL 1
REMARK VINA RESULT: -6.711750941      0.000      0.000
REMARK  16 active torsions:
REMARK  status: ('A' for Active; 'I' for Inactive)
REMARK    1  A    between atoms: C2_2  and  C4_4 
REMARK    2  A    between atoms: C9_10  and  O1_11 
REMARK    3  A    between atoms: C12_15  and  O2_16 
REMARK    4  A    between atoms: C15_20  and  O3_21 
REMARK    5  A    between atoms: C16_23  and  O4_24 
REMARK    6  A    between atoms: C16_23  and  C17_26 
REMARK    7  A    between atoms: C20_29  and  C21_30 
REMARK    8  A    between atoms: C22_31  and  C23_32 
REMARK    9  A    between atoms: C23_32  and  O5_33 
REMARK   10  A    between atoms: O5_33  and  C24_34 
REMARK   11  A    between atoms: C24_34  and  C25_36 
REMARK   12  A    between atoms: C26_37  and  C27_38 
REMARK   13  A    between atoms: C27_38  and  C28_39 
REMARK   14  A    between atoms: C30_41  and  C31_42 
REMARK   15  A    between atoms: C31_42  and  O8_44 
REMARK   16  A    between atoms: O8_44  and  O9_45 
ROOT
HETATM    1  C4  UNL     1      41.237 -24.157  28.520  1.00  0.00    -0.050 C 
HETATM    2  C5  UNL     1      41.743 -24.253  29.957  1.00  0.00     0.039 C 
HETATM    3  C6  UNL     1      42.816 -23.368  30.370  1.00  0.00     0.051 C 
HETATM    4  C7  UNL     1      43.548 -22.561  29.346  1.00  0.00     0.132 C 
HETATM    5  C8  UNL     1      44.065 -21.350  30.071  1.00  0.00     0.055 C 
HETATM    6  F1  UNL     1      44.759 -23.296  29.161  1.00  0.00    -0.240 F 
HETATM    7  C9  UNL     1      42.869 -22.378  28.031  1.00  0.00     0.117 C 
HETATM    8  C10 UNL     1      43.233 -20.995  27.526  1.00  0.00     0.046 C 
HETATM    9  C11 UNL     1      43.470 -20.846  26.075  1.00  0.00     0.046 C 
HETATM   10  C12 UNL     1      42.306 -20.768  25.138  1.00  0.00     0.084 C 
HETATM   11  C13 UNL     1      42.130 -22.146  24.562  1.00  0.00     0.046 C 
HETATM   12  C14 UNL     1      41.397 -23.112  25.415  1.00  0.00     0.046 C 
HETATM   13  C15 UNL     1      40.712 -22.571  26.651  1.00  0.00     0.117 C 
HETATM   14  C16 UNL     1      40.072 -21.297  26.228  1.00  0.00     0.119 C 
HETATM   15  C20 UNL     1      41.059 -20.242  25.691  1.00  0.00    -0.009 C 
HETATM   16  C30 UNL     1      41.430 -22.771  27.941  1.00  0.00     0.142 C 
ENDROOT
BRANCH  15  17
HETATM   17  C21 UNL     1      40.431 -19.174  24.937  1.00  0.00     0.007 C 
HETATM   18  C22 UNL     1      40.459 -17.878  24.978  1.00  0.00     0.000 C 
BRANCH  18  19
HETATM   19  C23 UNL     1      39.631 -17.064  23.986  1.00  0.00     0.206 C 
BRANCH  19  20
HETATM   20  O5  UNL     1      39.114 -15.957  24.657  1.00  0.00    -0.314 OA
BRANCH  20  21
HETATM   21  C24 UNL     1      37.993 -16.046  25.430  1.00  0.00     0.282 C 
HETATM   22  O6  UNL     1      37.470 -14.933  25.798  1.00  0.00    -0.260 OA
BRANCH  21  23
HETATM   23  C25 UNL     1      37.339 -17.236  25.876  1.00  0.00     0.078 C 
HETATM   24  C26 UNL     1      37.512 -17.802  27.033  1.00  0.00    -0.021 C 
BRANCH  24  25
HETATM   25  C27 UNL     1      38.362 -17.438  28.168  1.00  0.00     0.027 C 
BRANCH  25  26
HETATM   26  C28 UNL     1      37.486 -16.989  29.355  1.00  0.00    -0.001 C 
HETATM   27  C29 UNL     1      37.120 -15.548  29.149  1.00  0.00     0.005 C 
ENDBRANCH  25  26
ENDBRANCH  24  25
ENDBRANCH  21  23
ENDBRANCH  20  21
ENDBRANCH  19  20
ENDBRANCH  18  19
ENDBRANCH  15  17
BRANCH  10  28
HETATM   28  O2  UNL     1      42.819 -20.032  24.054  1.00  0.00    -0.385 OA
ATOM     29  H2  UNL     1      43.707 -19.835  24.329  1.00  0.00     0.211 HD
ENDBRANCH  10  28
BRANCH  14  30
HETATM   30  O4  UNL     1      39.541 -20.586  27.359  1.00  0.00    -0.382 OA
ATOM     31  H4  UNL     1      39.012 -21.158  27.904  1.00  0.00     0.211 HD
ENDBRANCH  14  30
BRANCH  14  32
HETATM   32  C17 UNL     1      38.784 -21.285  25.497  1.00  0.00     0.020 C 
HETATM   33  C18 UNL     1      37.487 -21.277  26.304  1.00  0.00     0.013 C 
HETATM   34  C19 UNL     1      38.470 -22.283  24.441  1.00  0.00     0.013 C 
ENDBRANCH  14  32
BRANCH  13  35
HETATM   35  O3  UNL     1      39.626 -23.462  26.741  1.00  0.00    -0.385 OA
ATOM     36  H3  UNL     1      39.290 -23.405  25.854  1.00  0.00     0.210 HD
ENDBRANCH  13  35
BRANCH  16  37
HETATM   37  C31 UNL     1      40.736 -21.993  29.053  1.00  0.00     0.308 C 
HETATM   38  O7  UNL     1      39.663 -22.432  29.607  1.00  0.00    -0.261 OA
BRANCH  37  39
HETATM   39  O8  UNL     1      41.096 -20.809  29.603  1.00  0.00    -0.160 OA
BRANCH  39  40
HETATM   40  O9  UNL     1      40.320 -19.832  30.017  1.00  0.00    -0.242 OA
ATOM     41  H9  UNL     1      39.371 -19.796  30.028  1.00  0.00     0.254 HD
ENDBRANCH  39  40
ENDBRANCH  37  39
ENDBRANCH  16  37
BRANCH   7  42
HETATM   42  O1  UNL     1      43.638 -23.107  27.092  1.00  0.00    -0.385 OA
ATOM     43  H1  UNL     1      43.120 -23.872  26.869  1.00  0.00     0.210 HD
ENDBRANCH   7  42
BRANCH   1  44
HETATM   44  C2  UNL     1      41.523 -25.420  27.893  1.00  0.00    -0.068 C 
HETATM   45  C1  UNL     1      40.554 -26.357  27.730  1.00  0.00     0.018 C 
HETATM   46  C3  UNL     1      42.819 -25.977  27.416  1.00  0.00     0.047 C 
ENDBRANCH   1  44
TORSDOF 16
ENDMDL
MODEL 2
REMARK VINA RESULT: -6.674849700      0.819      1.041
REMARK  16 active torsions:
REMARK  status: ('A' for Active; 'I' for Inactive)
REMARK    1  A    between atoms: C2_2  and  C4_4 
REMARK    2  A    between atoms: C9_10  and  O1_11 
REMARK    3  A    between atoms: C12_15  and  O2_16 
REMARK    4  A    between atoms: C15_20  and  O3_21 
REMARK    5  A    between atoms: C16_23  and  O4_24 
REMARK    6  A    between atoms: C16_23  and  C17_26 
REMARK    7  A    between atoms: C20_29  and  C21_30 
REMARK    8  A    between atoms: C22_31  and  C23_32 
REMARK    9  A    between atoms: C23_32  and  O5_33 
REMARK   10  A    between atoms: O5_33  and  C24_34 
REMARK   11  A    between atoms: C24_34  and  C25_36 
REMARK   12  A    between atoms: C26_37  and  C27_38 
REMARK   13  A    between atoms: C27_38  and  C28_39 
REMARK   14  A    between atoms: C30_41  and  C31_42 
REMARK   15  A    between atoms: C31_42  and  O8_44 
REMARK   16  A    between atoms: O8_44  and  O9_45 
ROOT
HETATM    1  C4  UNL     1      41.186 -24.351  28.544  1.00  0.00    -0.050 C 
HETATM    2  C5  UNL     1      41.695 -24.538  29.971  1.00  0.00     0.039 C 
HETATM    3  C6  UNL     1      42.794 -23.707  30.424  1.00  0.00     0.051 C 
HETATM    4  C7  UNL     1      43.544 -22.866  29.440  1.00  0.00     0.132 C 
HETATM    5  C8  UNL     1      44.098 -21.711  30.225  1.00  0.00     0.055 C 
HETATM    6  F1  UNL     1      44.733 -23.624  29.209  1.00  0.00    -0.240 F 
HETATM    7  C9  UNL     1      42.864 -22.594  28.141  1.00  0.00     0.117 C 
HETATM    8  C10 UNL     1      43.264 -21.196  27.708  1.00  0.00     0.046 C 
HETATM    9  C11 UNL     1      43.498 -20.976  26.267  1.00  0.00     0.046 C 
HETATM   10  C12 UNL     1      42.332 -20.816  25.342  1.00  0.00     0.084 C 
HETATM   11  C13 UNL     1      42.115 -22.156  24.695  1.00  0.00     0.046 C 
HETATM   12  C14 UNL     1      41.359 -23.146  25.499  1.00  0.00     0.046 C 
HETATM   13  C15 UNL     1      40.695 -22.654  26.766  1.00  0.00     0.117 C 
HETATM   14  C16 UNL     1      40.089 -21.341  26.417  1.00  0.00     0.119 C 
HETATM   15  C20 UNL     1      41.103 -20.286  25.931  1.00  0.00    -0.009 C 
HETATM   16  C30 UNL     1      41.414 -22.942  28.040  1.00  0.00     0.142 C 
ENDROOT
BRANCH  15  17
HETATM   17  C21 UNL     1      40.501 -19.163  25.239  1.00  0.00     0.007 C 
HETATM   18  C22 UNL     1      40.371 -17.895  25.481  1.00  0.00     0.000 C 
BRANCH  18  19
HETATM   19  C23 UNL     1      39.646 -16.997  24.481  1.00  0.00     0.206 C 
BRANCH  19  20
HETATM   20  O5  UNL     1      38.626 -16.329  25.157  1.00  0.00    -0.314 OA
BRANCH  20  21
HETATM   21  C24 UNL     1      37.551 -16.993  25.671  1.00  0.00     0.282 C 
HETATM   22  O6  UNL     1      36.773 -17.556  24.819  1.00  0.00    -0.260 OA
BRANCH  21  23
HETATM   23  C25 UNL     1      37.195 -17.130  27.048  1.00  0.00     0.078 C 
HETATM   24  C26 UNL     1      37.259 -16.186  27.940  1.00  0.00    -0.021 C 
BRANCH  24  25
HETATM   25  C27 UNL     1      37.680 -14.788  27.838  1.00  0.00     0.027 C 
BRANCH  25  26
HETATM   26  C28 UNL     1      36.462 -13.895  27.528  1.00  0.00    -0.001 C 
HETATM   27  C29 UNL     1      35.439 -14.107  28.606  1.00  0.00     0.005 C 
ENDBRANCH  25  26
ENDBRANCH  24  25
ENDBRANCH  21  23
ENDBRANCH  20  21
ENDBRANCH  19  20
ENDBRANCH  18  19
ENDBRANCH  15  17
BRANCH  10  28
HETATM   28  O2  UNL     1      42.860 -20.038  24.295  1.00  0.00    -0.385 OA
ATOM     29  H2  UNL     1      42.310 -20.269  23.557  1.00  0.00     0.211 HD
ENDBRANCH  10  28
BRANCH  14  30
HETATM   30  O4  UNL     1      39.583 -20.678  27.587  1.00  0.00    -0.382 OA
ATOM     31  H4  UNL     1      38.692 -20.948  27.774  1.00  0.00     0.211 HD
ENDBRANCH  14  30
BRANCH  14  32
HETATM   32  C17 UNL     1      38.798 -21.255  25.695  1.00  0.00     0.020 C 
HETATM   33  C18 UNL     1      37.535 -20.942  26.495  1.00  0.00     0.013 C 
HETATM   34  C19 UNL     1      38.322 -22.343  24.802  1.00  0.00     0.013 C 
ENDBRANCH  14  32
BRANCH  13  35
HETATM   35  O3  UNL     1      39.586 -23.517  26.816  1.00  0.00    -0.385 OA
ATOM     36  H3  UNL     1      38.890 -22.887  26.964  1.00  0.00     0.210 HD
ENDBRANCH  13  35
BRANCH  16  37
HETATM   37  C31 UNL     1      40.748 -22.206  29.196  1.00  0.00     0.308 C 
HETATM   38  O7  UNL     1      39.667 -22.647  29.735  1.00  0.00    -0.261 OA
BRANCH  37  39
HETATM   39  O8  UNL     1      41.140 -21.061  29.803  1.00  0.00    -0.160 OA
BRANCH  39  40
HETATM   40  O9  UNL     1      40.392 -20.083  30.263  1.00  0.00    -0.242 OA
ATOM     41  H9  UNL     1      40.022 -19.982  31.133  1.00  0.00     0.254 HD
ENDBRANCH  39  40
ENDBRANCH  37  39
ENDBRANCH  16  37
BRANCH   7  42
HETATM   42  O1  UNL     1      43.607 -23.292  27.159  1.00  0.00    -0.385 OA
ATOM     43  H1  UNL     1      44.285 -22.693  26.870  1.00  0.00     0.210 HD
ENDBRANCH   7  42
BRANCH   1  44
HETATM   44  C2  UNL     1      41.433 -25.586  27.849  1.00  0.00    -0.068 C 
HETATM   45  C1  UNL     1      40.431 -26.473  27.617  1.00  0.00     0.018 C 
HETATM   46  C3  UNL     1      42.715 -26.166  27.359  1.00  0.00     0.047 C 
ENDBRANCH   1  44
TORSDOF 16
ENDMDL
MODEL 3
REMARK VINA RESULT: -6.650379264      3.650      6.485
REMARK  16 active torsions:
REMARK  status: ('A' for Active; 'I' for Inactive)
REMARK    1  A    between atoms: C2_2  and  C4_4 
REMARK    2  A    between atoms: C9_10  and  O1_11 
REMARK    3  A    between atoms: C12_15  and  O2_16 
REMARK    4  A    between atoms: C15_20  and  O3_21 
REMARK    5  A    between atoms: C16_23  and  O4_24 
REMARK    6  A    between atoms: C16_23  and  C17_26 
REMARK    7  A    between atoms: C20_29  and  C21_30 
REMARK    8  A    between atoms: C22_31  and  C23_32 
REMARK    9  A    between atoms: C23_32  and  O5_33 
REMARK   10  A    between atoms: O5_33  and  C24_34 
REMARK   11  A    between atoms: C24_34  and  C25_36 
REMARK   12  A    between atoms: C26_37  and  C27_38 
REMARK   13  A    between atoms: C27_38  and  C28_39 
REMARK   14  A    between atoms: C30_41  and  C31_42 
REMARK   15  A    between atoms: C31_42  and  O8_44 
REMARK   16  A    between atoms: O8_44  and  O9_45 
ROOT
HETATM    1  C4  UNL     1      38.068 -24.398  22.371  1.00  0.00    -0.050 C 
HETATM    2  C5  UNL     1      37.075 -25.041  21.406  1.00  0.00     0.039 C 
HETATM    3  C6  UNL     1      35.659 -24.817  21.624  1.00  0.00     0.051 C 
HETATM    4  C7  UNL     1      35.196 -24.170  22.890  1.00  0.00     0.132 C 
HETATM    5  C8  UNL     1      33.891 -23.503  22.557  1.00  0.00     0.055 C 
HETATM    6  F1  UNL     1      34.736 -25.276  23.669  1.00  0.00    -0.240 F 
HETATM    7  C9  UNL     1      36.218 -23.407  23.662  1.00  0.00     0.117 C 
HETATM    8  C10 UNL     1      35.511 -22.227  24.301  1.00  0.00     0.046 C 
HETATM    9  C11 UNL     1      35.931 -21.844  25.664  1.00  0.00     0.046 C 
HETATM   10  C12 UNL     1      37.191 -21.061  25.860  1.00  0.00     0.084 C 
HETATM   11  C13 UNL     1      38.255 -22.053  26.241  1.00  0.00     0.046 C 
HETATM   12  C14 UNL     1      38.875 -22.798  25.119  1.00  0.00     0.046 C 
HETATM   13  C15 UNL     1      38.553 -22.337  23.714  1.00  0.00     0.117 C 
HETATM   14  C16 UNL     1      38.607 -20.851  23.759  1.00  0.00     0.119 C 
HETATM   15  C20 UNL     1      37.609 -20.212  24.745  1.00  0.00    -0.009 C 
HETATM   16  C30 UNL     1      37.520 -23.125  22.984  1.00  0.00     0.142 C 
ENDROOT
BRANCH  15  17
HETATM   17  C21 UNL     1      37.908 -18.832  25.076  1.00  0.00     0.007 C 
HETATM   18  C22 UNL     1      37.368 -17.683  24.807  1.00  0.00     0.000 C 
BRANCH  18  19
HETATM   19  C23 UNL     1      37.992 -16.400  25.350  1.00  0.00     0.206 C 
BRANCH  19  20
HETATM   20  O5  UNL     1      37.056 -15.775  26.173  1.00  0.00    -0.314 OA
BRANCH  20  21
HETATM   21  C24 UNL     1      37.248 -15.660  27.519  1.00  0.00     0.282 C 
HETATM   22  O6  UNL     1      37.675 -14.523  27.934  1.00  0.00    -0.260 OA
BRANCH  21  23
HETATM   23  C25 UNL     1      37.028 -16.661  28.514  1.00  0.00     0.078 C 
HETATM   24  C26 UNL     1      37.873 -17.592  28.846  1.00  0.00    -0.021 C 
BRANCH  24  25
HETATM   25  C27 UNL     1      39.216 -17.896  28.351  1.00  0.00     0.027 C 
BRANCH  25  26
HETATM   26  C28 UNL     1      39.681 -19.259  28.903  1.00  0.00    -0.001 C 
HETATM   27  C29 UNL     1      40.676 -19.841  27.942  1.00  0.00     0.005 C 
ENDBRANCH  25  26
ENDBRANCH  24  25
ENDBRANCH  21  23
ENDBRANCH  20  21
ENDBRANCH  19  20
ENDBRANCH  18  19
ENDBRANCH  15  17
BRANCH  10  28
HETATM   28  O2  UNL     1      36.954 -20.370  27.062  1.00  0.00    -0.385 OA
ATOM     29  H2  UNL     1      37.067 -21.043  27.723  1.00  0.00     0.211 HD
ENDBRANCH  10  28
BRANCH  14  30
HETATM   30  O4  UNL     1      38.136 -20.281  22.526  1.00  0.00    -0.382 OA
ATOM     31  H4  UNL     1      38.593 -19.471  22.329  1.00  0.00     0.211 HD
ENDBRANCH  14  30
BRANCH  14  32
HETATM   32  C17 UNL     1      39.897 -20.124  23.713  1.00  0.00     0.020 C 
HETATM   33  C18 UNL     1      40.431 -19.672  22.355  1.00  0.00     0.013 C 
HETATM   34  C19 UNL     1      41.125 -20.661  24.351  1.00  0.00     0.013 C 
ENDBRANCH  14  32
BRANCH  13  35
HETATM   35  O3  UNL     1      39.750 -22.683  23.060  1.00  0.00    -0.385 OA
ATOM     36  H3  UNL     1      39.813 -21.967  22.438  1.00  0.00     0.210 HD
ENDBRANCH  13  35
BRANCH  16  37
HETATM   37  C31 UNL     1      37.147 -22.423  21.684  1.00  0.00     0.308 C 
HETATM   38  O7  UNL     1      37.906 -22.486  20.649  1.00  0.00    -0.261 OA
BRANCH  37  39
HETATM   39  O8  UNL     1      36.050 -21.676  21.415  1.00  0.00    -0.160 OA
BRANCH  39  40
HETATM   40  O9  UNL     1      35.931 -20.674  20.573  1.00  0.00    -0.242 OA
ATOM     41  H9  UNL     1      36.601 -20.068  20.278  1.00  0.00     0.254 HD
ENDBRANCH  39  40
ENDBRANCH  37  39
ENDBRANCH  16  37
BRANCH   7  42
HETATM   42  O1  UNL     1      36.433 -24.139  24.854  1.00  0.00    -0.385 OA
ATOM     43  H1  UNL     1      36.039 -23.626  25.550  1.00  0.00     0.210 HD
ENDBRANCH   7  42
BRANCH   1  44
HETATM   44  C2  UNL     1      38.755 -25.470  23.039  1.00  0.00    -0.068 C 
HETATM   45  C1  UNL     1      40.052 -25.755  22.756  1.00  0.00     0.018 C 
HETATM   46  C3  UNL     1      38.243 -26.472  24.015  1.00  0.00     0.047 C 
ENDBRANCH   1  44
TORSDOF 16
ENDMDL
MODEL 4
REMARK VINA RESULT: -6.645362230      4.259      6.783
REMARK  16 active torsions:
REMARK  status: ('A' for Active; 'I' for Inactive)
REMARK    1  A    between atoms: C2_2  and  C4_4 
REMARK    2  A    between atoms: C9_10  and  O1_11 
REMARK    3  A    between atoms: C12_15  and  O2_16 
REMARK    4  A    between atoms: C15_20  and  O3_21 
REMARK    5  A    between atoms: C16_23  and  O4_24 
REMARK    6  A    between atoms: C16_23  and  C17_26 
REMARK    7  A    between atoms: C20_29  and  C21_30 
REMARK    8  A    between atoms: C22_31  and  C23_32 
REMARK    9  A    between atoms: C23_32  and  O5_33 
REMARK   10  A    between atoms: O5_33  and  C24_34 
REMARK   11  A    between atoms: C24_34  and  C25_36 
REMARK   12  A    between atoms: C26_37  and  C27_38 
REMARK   13  A    between atoms: C27_38  and  C28_39 
REMARK   14  A    between atoms: C30_41  and  C31_42 
REMARK   15  A    between atoms: C31_42  and  O8_44 
REMARK   16  A    between atoms: O8_44  and  O9_45 
ROOT
HETATM    1  C4  UNL     1      35.850 -24.979  21.378  1.00  0.00    -0.050 C 
HETATM    2  C5  UNL     1      35.009 -26.240  21.563  1.00  0.00     0.039 C 
HETATM    3  C6  UNL     1      35.254 -27.065  22.730  1.00  0.00     0.051 C 
HETATM    4  C7  UNL     1      36.450 -26.802  23.589  1.00  0.00     0.132 C 
HETATM    5  C8  UNL     1      36.090 -27.302  24.959  1.00  0.00     0.055 C 
HETATM    6  F1  UNL     1      37.374 -27.810  23.173  1.00  0.00    -0.240 F 
HETATM    7  C9  UNL     1      37.084 -25.459  23.456  1.00  0.00     0.117 C 
HETATM    8  C10 UNL     1      37.603 -25.068  24.826  1.00  0.00     0.046 C 
HETATM    9  C11 UNL     1      38.893 -24.351  24.881  1.00  0.00     0.046 C 
HETATM   10  C12 UNL     1      38.943 -22.890  24.562  1.00  0.00     0.084 C 
HETATM   11  C13 UNL     1      39.400 -22.782  23.133  1.00  0.00     0.046 C 
HETATM   12  C14 UNL     1      38.352 -22.985  22.104  1.00  0.00     0.046 C 
HETATM   13  C15 UNL     1      36.915 -23.051  22.575  1.00  0.00     0.117 C 
HETATM   14  C16 UNL     1      36.779 -21.975  23.593  1.00  0.00     0.119 C 
HETATM   15  C20 UNL     1      37.719 -22.129  24.805  1.00  0.00    -0.009 C 
HETATM   16  C30 UNL     1      36.326 -24.415  22.700  1.00  0.00     0.142 C 
ENDROOT
BRANCH  15  17
HETATM   17  C21 UNL     1      37.870 -20.920  25.593  1.00  0.00     0.007 C 
HETATM   18  C22 UNL     1      37.469 -20.528  26.763  1.00  0.00     0.000 C 
BRANCH  18  19
HETATM   19  C23 UNL     1      37.836 -19.135  27.269  1.00  0.00     0.206 C 
BRANCH  19  20
HETATM   20  O5  UNL     1      37.265 -18.197  26.411  1.00  0.00    -0.314 OA
BRANCH  20  21
HETATM   21  C24 UNL     1      37.509 -16.860  26.545  1.00  0.00     0.282 C 
HETATM   22  O6  UNL     1      37.261 -16.134  25.515  1.00  0.00    -0.260 OA
BRANCH  21  23
HETATM   23  C25 UNL     1      38.009 -16.182  27.698  1.00  0.00     0.078 C 
HETATM   24  C26 UNL     1      37.284 -15.712  28.669  1.00  0.00    -0.021 C 
BRANCH  24  25
HETATM   25  C27 UNL     1      35.836 -15.723  28.885  1.00  0.00     0.027 C 
BRANCH  25  26
HETATM   26  C28 UNL     1      35.294 -14.280  28.878  1.00  0.00    -0.001 C 
HETATM   27  C29 UNL     1      34.011 -14.256  29.656  1.00  0.00     0.005 C 
ENDBRANCH  25  26
ENDBRANCH  24  25
ENDBRANCH  21  23
ENDBRANCH  20  21
ENDBRANCH  19  20
ENDBRANCH  18  19
ENDBRANCH  15  17
BRANCH  10  28
HETATM   28  O2  UNL     1      40.062 -22.443  25.289  1.00  0.00    -0.385 OA
ATOM     29  H2  UNL     1      39.962 -21.499  25.279  1.00  0.00     0.211 HD
ENDBRANCH  10  28
BRANCH  14  30
HETATM   30  O4  UNL     1      35.506 -22.051  24.256  1.00  0.00    -0.382 OA
ATOM     31  H4  UNL     1      35.307 -21.238  24.706  1.00  0.00     0.211 HD
ENDBRANCH  14  30
BRANCH  14  32
HETATM   32  C17 UNL     1      36.595 -20.559  23.199  1.00  0.00     0.020 C 
HETATM   33  C18 UNL     1      35.222 -20.113  22.699  1.00  0.00     0.013 C 
HETATM   34  C19 UNL     1      37.497 -19.890  22.227  1.00  0.00     0.013 C 
ENDBRANCH  14  32
BRANCH  13  35
HETATM   35  O3  UNL     1      36.262 -22.515  21.451  1.00  0.00    -0.385 OA
ATOM     36  H3  UNL     1      35.876 -21.737  21.837  1.00  0.00     0.210 HD
ENDBRANCH  13  35
BRANCH  16  37
HETATM   37  C31 UNL     1      34.967 -24.337  23.385  1.00  0.00     0.308 C 
HETATM   38  O7  UNL     1      34.839 -24.565  24.643  1.00  0.00    -0.261 OA
BRANCH  37  39
HETATM   39  O8  UNL     1      33.764 -24.041  22.838  1.00  0.00    -0.160 OA
BRANCH  39  40
HETATM   40  O9  UNL     1      33.321 -22.876  22.422  1.00  0.00    -0.242 OA
ATOM     41  H9  UNL     1      32.499 -22.448  22.632  1.00  0.00     0.254 HD
ENDBRANCH  39  40
ENDBRANCH  37  39
ENDBRANCH  16  37
BRANCH   7  42
HETATM   42  O1  UNL     1      38.346 -25.681  22.855  1.00  0.00    -0.385 OA
ATOM     43  H1  UNL     1      38.242 -25.457  21.938  1.00  0.00     0.210 HD
ENDBRANCH   7  42
BRANCH   1  44
HETATM   44  C2  UNL     1      36.615 -25.161  20.173  1.00  0.00    -0.068 C 
HETATM   45  C1  UNL     1      36.179 -24.668  18.985  1.00  0.00     0.018 C 
HETATM   46  C3  UNL     1      37.871 -25.929  19.946  1.00  0.00     0.047 C 
ENDBRANCH   1  44
TORSDOF 16
ENDMDL
MODEL 5
REMARK VINA RESULT: -6.474957137      4.338      7.039
REMARK  16 active torsions:
REMARK  status: ('A' for Active; 'I' for Inactive)
REMARK    1  A    between atoms: C2_2  and  C4_4 
REMARK    2  A    between atoms: C9_10  and  O1_11 
REMARK    3  A    between atoms: C12_15  and  O2_16 
REMARK    4  A    between atoms: C15_20  and  O3_21 
REMARK    5  A    between atoms: C16_23  and  O4_24 
REMARK    6  A    between atoms: C16_23  and  C17_26 
REMARK    7  A    between atoms: C20_29  and  C21_30 
REMARK    8  A    between atoms: C22_31  and  C23_32 
REMARK    9  A    between atoms: C23_32  and  O5_33 
REMARK   10  A    between atoms: O5_33  and  C24_34 
REMARK   11  A    between atoms: C24_34  and  C25_36 
REMARK   12  A    between atoms: C26_37  and  C27_38 
REMARK   13  A    between atoms: C27_38  and  C28_39 
REMARK   14  A    between atoms: C30_41  and  C31_42 
REMARK   15  A    between atoms: C31_42  and  O8_44 
REMARK   16  A    between atoms: O8_44  and  O9_45 
ROOT
HETATM    1  C4  UNL     1      35.707 -25.181  21.320  1.00  0.00    -0.050 C 
HETATM    2  C5  UNL     1      34.852 -26.420  21.572  1.00  0.00     0.039 C 
HETATM    3  C6  UNL     1      35.118 -27.211  22.758  1.00  0.00     0.051 C 
HETATM    4  C7  UNL     1      36.344 -26.940  23.572  1.00  0.00     0.132 C 
HETATM    5  C8  UNL     1      36.017 -27.389  24.968  1.00  0.00     0.055 C 
HETATM    6  F1  UNL     1      37.238 -27.977  23.163  1.00  0.00    -0.240 F 
HETATM    7  C9  UNL     1      36.994 -25.613  23.376  1.00  0.00     0.117 C 
HETATM    8  C10 UNL     1      37.561 -25.187  24.717  1.00  0.00     0.046 C 
HETATM    9  C11 UNL     1      38.863 -24.491  24.710  1.00  0.00     0.046 C 
HETATM   10  C12 UNL     1      38.927 -23.042  24.341  1.00  0.00     0.084 C 
HETATM   11  C13 UNL     1      39.342 -22.988  22.897  1.00  0.00     0.046 C 
HETATM   12  C14 UNL     1      38.261 -23.207  21.906  1.00  0.00     0.046 C 
HETATM   13  C15 UNL     1      36.838 -23.233  22.422  1.00  0.00     0.117 C 
HETATM   14  C16 UNL     1      36.749 -22.123  23.406  1.00  0.00     0.119 C 
HETATM   15  C20 UNL     1      37.723 -22.252  24.595  1.00  0.00    -0.009 C 
HETATM   16  C30 UNL     1      36.232 -24.582  22.609  1.00  0.00     0.142 C 
ENDROOT
BRANCH  15  17
HETATM   17  C21 UNL     1      37.916 -21.021  25.337  1.00  0.00     0.007 C 
HETATM   18  C22 UNL     1      37.628 -20.613  26.534  1.00  0.00     0.000 C 
BRANCH  18  19
HETATM   19  C23 UNL     1      38.001 -19.198  26.970  1.00  0.00     0.206 C 
BRANCH  19  20
HETATM   20  O5  UNL     1      37.059 -18.318  26.441  1.00  0.00    -0.314 OA
BRANCH  20  21
HETATM   21  C24 UNL     1      37.413 -17.324  25.575  1.00  0.00     0.282 C 
HETATM   22  O6  UNL     1      37.339 -16.125  26.029  1.00  0.00    -0.260 OA
BRANCH  21  23
HETATM   23  C25 UNL     1      37.855 -17.468  24.224  1.00  0.00     0.078 C 
HETATM   24  C26 UNL     1      39.094 -17.562  23.842  1.00  0.00    -0.021 C 
BRANCH  24  25
HETATM   25  C27 UNL     1      40.342 -17.553  24.606  1.00  0.00     0.027 C 
BRANCH  25  26
HETATM   26  C28 UNL     1      40.925 -18.979  24.673  1.00  0.00    -0.001 C 
HETATM   27  C29 UNL     1      40.794 -19.603  23.315  1.00  0.00     0.005 C 
ENDBRANCH  25  26
ENDBRANCH  24  25
ENDBRANCH  21  23
ENDBRANCH  20  21
ENDBRANCH  19  20
ENDBRANCH  18  19
ENDBRANCH  15  17
BRANCH  10  28
HETATM   28  O2  UNL     1      40.075 -22.591  25.020  1.00  0.00    -0.385 OA
ATOM     29  H2  UNL     1      40.785 -22.908  24.475  1.00  0.00     0.211 HD
ENDBRANCH  10  28
BRANCH  14  30
HETATM   30  O4  UNL     1      35.496 -22.155  24.109  1.00  0.00    -0.382 OA
ATOM     31  H4  UNL     1      35.364 -22.995  24.533  1.00  0.00     0.211 HD
ENDBRANCH  14  30
BRANCH  14  32
HETATM   32  C17 UNL     1      36.577 -20.717  22.971  1.00  0.00     0.020 C 
HETATM   33  C18 UNL     1      35.159 -20.183  22.775  1.00  0.00     0.013 C 
HETATM   34  C19 UNL     1      37.266 -20.175  21.773  1.00  0.00     0.013 C 
ENDBRANCH  14  32
BRANCH  13  35
HETATM   35  O3  UNL     1      36.160 -22.724  21.299  1.00  0.00    -0.385 OA
ATOM     36  H3  UNL     1      35.790 -21.932  21.673  1.00  0.00     0.210 HD
ENDBRANCH  13  35
BRANCH  16  37
HETATM   37  C31 UNL     1      34.895 -24.459  23.330  1.00  0.00     0.308 C 
HETATM   38  O7  UNL     1      34.792 -24.690  24.590  1.00  0.00    -0.261 OA
BRANCH  37  39
HETATM   39  O8  UNL     1      33.690 -24.116  22.817  1.00  0.00    -0.160 OA
BRANCH  39  40
HETATM   40  O9  UNL     1      33.282 -22.935  22.408  1.00  0.00    -0.242 OA
ATOM     41  H9  UNL     1      32.424 -22.686  22.084  1.00  0.00     0.254 HD
ENDBRANCH  39  40
ENDBRANCH  37  39
ENDBRANCH  16  37
BRANCH   7  42
HETATM   42  O1  UNL     1      38.235 -25.877  22.746  1.00  0.00    -0.385 OA
ATOM     43  H1  UNL     1      38.066 -25.842  21.812  1.00  0.00     0.210 HD
ENDBRANCH   7  42
BRANCH   1  44
HETATM   44  C2  UNL     1      36.432 -25.415  20.101  1.00  0.00    -0.068 C 
HETATM   45  C1  UNL     1      36.026 -24.867  18.927  1.00  0.00     0.018 C 
HETATM   46  C3  UNL     1      37.608 -26.293  19.842  1.00  0.00     0.047 C 
ENDBRANCH   1  44
TORSDOF 16
ENDMDL
