MODEL 1
REMARK VINA RESULT: -7.915010445      0.000      0.000
REMARK  11 active torsions:
REMARK  status: ('A' for Active; 'I' for Inactive)
REMARK    1  A    between atoms: C3_3  and  C4_4 
REMARK    2  A    between atoms: C4_4  and  O2_6 
REMARK    3  A    between atoms: O2_6  and  C5_7 
REMARK    4  A    between atoms: C5_7  and  C6_8 
REMARK    5  A    between atoms: C6_8  and  C7_11 
REMARK    6  A    between atoms: C7_11  and  O3_12 
REMARK    7  A    between atoms: C7_11  and  C8_14 
REMARK    8  A    between atoms: C8_14  and  O4_17 
REMARK    9  A    between atoms: C11_19  and  O5_20 
REMARK   10  A    between atoms: C25_36  and  C26_37 
REMARK   11  A    between atoms: C26_37  and  C27_38 
ROOT
HETATM    1  C1  UNL     1      40.786 -18.910  25.812  1.00  0.00     0.050 C 
HETATM    2  C2  UNL     1      39.540 -19.145  25.144  1.00  0.00    -0.031 C 
HETATM    3  C3  UNL     1      39.088 -18.257  24.177  1.00  0.00     0.075 C 
HETATM    4  C11 UNL     1      37.873 -18.393  23.378  1.00  0.00     0.060 C 
HETATM    5  C12 UNL     1      36.577 -18.987  23.643  1.00  0.00     0.070 C 
HETATM    6  C13 UNL     1      36.420 -20.438  23.450  1.00  0.00    -0.004 C 
HETATM    7  C14 UNL     1      35.673 -20.814  22.115  1.00  0.00     0.006 C 
HETATM    8  C15 UNL     1      36.519 -22.013  21.611  1.00  0.00     0.010 C 
HETATM    9  C16 UNL     1      36.591 -23.002  22.687  1.00  0.00    -0.034 C 
HETATM   10  C17 UNL     1      35.765 -24.176  22.035  1.00  0.00     0.016 C 
HETATM   11  C18 UNL     1      35.634 -22.675  23.864  1.00  0.00    -0.001 C 
HETATM   12  C19 UNL     1      35.830 -23.889  24.667  1.00  0.00     0.006 C 
HETATM   13  C20 UNL     1      37.201 -24.487  24.310  1.00  0.00     0.009 C 
HETATM   14  C21 UNL     1      37.788 -23.626  23.210  1.00  0.00     0.028 C 
HETATM   15  C22 UNL     1      39.134 -23.104  23.355  1.00  0.00     0.064 C 
HETATM   16  C23 UNL     1      39.706 -22.851  21.927  1.00  0.00     0.046 C 
HETATM   17  C24 UNL     1      40.013 -24.287  23.812  1.00  0.00     0.046 C 
HETATM   18  O6  UNL     1      39.556 -22.014  23.999  1.00  0.00    -0.343 OA
HETATM   19  C25 UNL     1      39.224 -21.681  25.271  1.00  0.00     0.068 C 
HETATM   20  C28 UNL     1      38.611 -20.317  25.351  1.00  0.00    -0.003 C 
HETATM   21  C29 UNL     1      37.370 -20.129  25.750  1.00  0.00    -0.012 C 
HETATM   22  C30 UNL     1      36.402 -21.317  25.870  1.00  0.00     0.033 C 
HETATM   23  C31 UNL     1      35.778 -21.337  24.450  1.00  0.00    -0.002 C 
ENDROOT
BRANCH   3  24
HETATM   24  C4  UNL     1      39.926 -17.120  23.906  1.00  0.00     0.296 C 
HETATM   25  O1  UNL     1      40.663 -16.867  22.955  1.00  0.00    -0.259 OA
BRANCH  24  26
HETATM   26  O2  UNL     1      39.918 -16.094  24.897  1.00  0.00    -0.311 OA
BRANCH  26  27
HETATM   27  C5  UNL     1      38.720 -15.390  25.208  1.00  0.00     0.261 C 
BRANCH  27  28
HETATM   28  C6  UNL     1      38.151 -15.862  26.504  1.00  0.00     0.293 C 
HETATM   29  F1  UNL     1      37.202 -16.821  26.223  1.00  0.00    -0.201 F 
HETATM   30  F2  UNL     1      39.169 -16.560  27.180  1.00  0.00    -0.201 F 
BRANCH  28  31
HETATM   31  C7  UNL     1      37.682 -14.814  27.440  1.00  0.00     0.226 C 
BRANCH  31  32
HETATM   32  O3  UNL     1      37.086 -13.741  26.784  1.00  0.00    -0.386 OA
ATOM     33  H3  UNL     1      37.718 -13.085  26.514  1.00  0.00     0.210 HD
ENDBRANCH  31  32
BRANCH  31  34
HETATM   34  C8  UNL     1      36.806 -15.243  28.565  1.00  0.00     0.082 C 
HETATM   35  C9  UNL     1      35.634 -14.334  28.704  1.00  0.00     0.048 C 
HETATM   36  C10 UNL     1      36.429 -16.700  28.533  1.00  0.00     0.048 C 
BRANCH  34  37
HETATM   37  O4  UNL     1      37.581 -15.069  29.744  1.00  0.00    -0.388 OA
ATOM     38  H4  UNL     1      38.368 -15.586  29.614  1.00  0.00     0.210 HD
ENDBRANCH  34  37
ENDBRANCH  31  34
ENDBRANCH  28  31
ENDBRANCH  27  28
ENDBRANCH  26  27
ENDBRANCH  24  26
ENDBRANCH   3  24
BRANCH   4  39
HETATM   39  O5  UNL     1      38.231 -18.845  22.050  1.00  0.00    -0.364 OA
ATOM     40  H5  UNL     1      37.516 -19.362  21.696  1.00  0.00     0.217 HD
ENDBRANCH   4  39
BRANCH  19  41
HETATM   41  C26 UNL     1      40.169 -22.133  26.326  1.00  0.00     0.178 C 
BRANCH  41  42
HETATM   42  C27 UNL     1      39.716 -22.405  27.687  1.00  0.00     0.178 C 
HETATM   43  O7  UNL     1      39.772 -23.517  28.236  1.00  0.00    -0.648 OA
HETATM   44  O8  UNL     1      39.168 -21.377  28.489  1.00  0.00    -0.648 OA
ENDBRANCH  41  42
ENDBRANCH  19  41
TORSDOF 11
ENDMDL
MODEL 2
REMARK VINA RESULT: -7.866518580      2.360      4.746
REMARK  11 active torsions:
REMARK  status: ('A' for Active; 'I' for Inactive)
REMARK    1  A    between atoms: C3_3  and  C4_4 
REMARK    2  A    between atoms: C4_4  and  O2_6 
REMARK    3  A    between atoms: O2_6  and  C5_7 
REMARK    4  A    between atoms: C5_7  and  C6_8 
REMARK    5  A    between atoms: C6_8  and  C7_11 
REMARK    6  A    between atoms: C7_11  and  O3_12 
REMARK    7  A    between atoms: C7_11  and  C8_14 
REMARK    8  A    between atoms: C8_14  and  O4_17 
REMARK    9  A    between atoms: C11_19  and  O5_20 
REMARK   10  A    between atoms: C25_36  and  C26_37 
REMARK   11  A    between atoms: C26_37  and  C27_38 
ROOT
HETATM    1  C1  UNL     1      35.603 -21.478  25.455  1.00  0.00     0.050 C 
HETATM    2  C2  UNL     1      36.867 -21.867  24.903  1.00  0.00    -0.031 C 
HETATM    3  C3  UNL     1      38.044 -21.329  25.409  1.00  0.00     0.075 C 
HETATM    4  C11 UNL     1      39.401 -21.669  24.988  1.00  0.00     0.060 C 
HETATM    5  C12 UNL     1      39.968 -22.084  23.720  1.00  0.00     0.070 C 
HETATM    6  C13 UNL     1      39.898 -23.509  23.355  1.00  0.00    -0.004 C 
HETATM    7  C14 UNL     1      41.261 -24.273  23.554  1.00  0.00     0.006 C 
HETATM    8  C15 UNL     1      40.783 -25.607  24.185  1.00  0.00     0.010 C 
HETATM    9  C16 UNL     1      39.767 -26.186  23.306  1.00  0.00    -0.034 C 
HETATM   10  C17 UNL     1      40.533 -27.471  22.812  1.00  0.00     0.016 C 
HETATM   11  C18 UNL     1      39.661 -25.446  21.947  1.00  0.00    -0.001 C 
HETATM   12  C19 UNL     1      38.703 -26.333  21.273  1.00  0.00     0.006 C 
HETATM   13  C20 UNL     1      37.894 -27.075  22.349  1.00  0.00     0.009 C 
HETATM   14  C21 UNL     1      38.452 -26.653  23.694  1.00  0.00     0.028 C 
HETATM   15  C22 UNL     1      37.548 -26.173  24.722  1.00  0.00     0.064 C 
HETATM   16  C23 UNL     1      38.216 -26.433  26.107  1.00  0.00     0.046 C 
HETATM   17  C24 UNL     1      36.377 -27.175  24.774  1.00  0.00     0.046 C 
HETATM   18  O6  UNL     1      37.043 -24.951  24.903  1.00  0.00    -0.343 OA
HETATM   19  C25 UNL     1      36.448 -24.201  23.943  1.00  0.00     0.068 C 
HETATM   20  C28 UNL     1      37.102 -22.861  23.793  1.00  0.00    -0.003 C 
HETATM   21  C29 UNL     1      37.705 -22.498  22.680  1.00  0.00    -0.012 C 
HETATM   22  C30 UNL     1      38.023 -23.535  21.591  1.00  0.00     0.033 C 
HETATM   23  C31 UNL     1      39.439 -23.997  22.024  1.00  0.00    -0.002 C 
ENDROOT
BRANCH   3  24
HETATM   24  C4  UNL     1      37.909 -20.384  26.484  1.00  0.00     0.296 C 
HETATM   25  O1  UNL     1      37.804 -20.551  27.698  1.00  0.00    -0.259 OA
BRANCH  24  26
HETATM   26  O2  UNL     1      37.891 -19.010  26.103  1.00  0.00    -0.311 OA
BRANCH  26  27
HETATM   27  C5  UNL     1      38.857 -18.099  26.616  1.00  0.00     0.261 C 
BRANCH  27  28
HETATM   28  C6  UNL     1      38.268 -16.737  26.771  1.00  0.00     0.293 C 
HETATM   29  F1  UNL     1      39.269 -15.889  27.196  1.00  0.00    -0.201 F 
HETATM   30  F2  UNL     1      37.936 -16.273  25.484  1.00  0.00    -0.201 F 
BRANCH  28  31
HETATM   31  C7  UNL     1      37.025 -16.641  27.572  1.00  0.00     0.226 C 
BRANCH  31  32
HETATM   32  O3  UNL     1      36.864 -17.722  28.434  1.00  0.00    -0.386 OA
ATOM     33  H3  UNL     1      36.340 -17.503  29.196  1.00  0.00     0.210 HD
ENDBRANCH  31  32
BRANCH  31  34
HETATM   34  C8  UNL     1      36.791 -15.379  28.325  1.00  0.00     0.082 C 
HETATM   35  C9  UNL     1      37.133 -14.191  27.493  1.00  0.00     0.048 C 
HETATM   36  C10 UNL     1      35.432 -15.285  28.966  1.00  0.00     0.048 C 
BRANCH  34  37
HETATM   37  O4  UNL     1      37.725 -15.391  29.397  1.00  0.00    -0.388 OA
ATOM     38  H4  UNL     1      38.582 -15.330  28.992  1.00  0.00     0.210 HD
ENDBRANCH  34  37
ENDBRANCH  31  34
ENDBRANCH  28  31
ENDBRANCH  27  28
ENDBRANCH  26  27
ENDBRANCH  24  26
ENDBRANCH   3  24
BRANCH   4  39
HETATM   39  O5  UNL     1      39.993 -22.551  25.972  1.00  0.00    -0.364 OA
ATOM     40  H5  UNL     1      40.883 -22.753  25.711  1.00  0.00     0.217 HD
ENDBRANCH   4  39
BRANCH  19  41
HETATM   41  C26 UNL     1      34.969 -24.319  23.854  1.00  0.00     0.178 C 
BRANCH  41  42
HETATM   42  C27 UNL     1      34.253 -24.001  22.622  1.00  0.00     0.178 C 
HETATM   43  O7  UNL     1      33.298 -23.212  22.549  1.00  0.00    -0.648 OA
HETATM   44  O8  UNL     1      34.621 -24.598  21.393  1.00  0.00    -0.648 OA
ENDBRANCH  41  42
ENDBRANCH  19  41
TORSDOF 11
ENDMDL
MODEL 3
REMARK VINA RESULT: -7.616331282      3.705      6.435
REMARK  11 active torsions:
REMARK  status: ('A' for Active; 'I' for Inactive)
REMARK    1  A    between atoms: C3_3  and  C4_4 
REMARK    2  A    between atoms: C4_4  and  O2_6 
REMARK    3  A    between atoms: O2_6  and  C5_7 
REMARK    4  A    between atoms: C5_7  and  C6_8 
REMARK    5  A    between atoms: C6_8  and  C7_11 
REMARK    6  A    between atoms: C7_11  and  O3_12 
REMARK    7  A    between atoms: C7_11  and  C8_14 
REMARK    8  A    between atoms: C8_14  and  O4_17 
REMARK    9  A    between atoms: C11_19  and  O5_20 
REMARK   10  A    between atoms: C25_36  and  C26_37 
REMARK   11  A    between atoms: C26_37  and  C27_38 
ROOT
HETATM    1  C1  UNL     1      43.743 -22.041  29.634  1.00  0.00     0.050 C 
HETATM    2  C2  UNL     1      42.725 -22.968  29.238  1.00  0.00    -0.031 C 
HETATM    3  C3  UNL     1      41.387 -22.679  29.476  1.00  0.00     0.075 C 
HETATM    4  C11 UNL     1      40.243 -23.497  29.082  1.00  0.00     0.060 C 
HETATM    5  C12 UNL     1      40.054 -24.926  28.930  1.00  0.00     0.070 C 
HETATM    6  C13 UNL     1      40.465 -25.554  27.663  1.00  0.00    -0.004 C 
HETATM    7  C14 UNL     1      39.256 -25.879  26.706  1.00  0.00     0.006 C 
HETATM    8  C15 UNL     1      39.822 -25.444  25.328  1.00  0.00     0.010 C 
HETATM    9  C16 UNL     1      41.096 -26.135  25.123  1.00  0.00    -0.034 C 
HETATM   10  C17 UNL     1      40.708 -27.070  23.916  1.00  0.00     0.016 C 
HETATM   11  C18 UNL     1      41.359 -27.233  26.187  1.00  0.00    -0.001 C 
HETATM   12  C19 UNL     1      42.588 -27.810  25.628  1.00  0.00     0.006 C 
HETATM   13  C20 UNL     1      43.264 -26.745  24.749  1.00  0.00     0.009 C 
HETATM   14  C21 UNL     1      42.357 -25.531  24.745  1.00  0.00     0.028 C 
HETATM   15  C22 UNL     1      42.908 -24.228  25.064  1.00  0.00     0.064 C 
HETATM   16  C23 UNL     1      42.013 -23.149  24.382  1.00  0.00     0.046 C 
HETATM   17  C24 UNL     1      44.204 -24.090  24.239  1.00  0.00     0.046 C 
HETATM   18  O6  UNL     1      43.126 -23.668  26.256  1.00  0.00    -0.343 OA
HETATM   19  C25 UNL     1      43.768 -24.261  27.292  1.00  0.00     0.068 C 
HETATM   20  C28 UNL     1      42.928 -24.286  28.532  1.00  0.00    -0.003 C 
HETATM   21  C29 UNL     1      42.527 -25.413  29.082  1.00  0.00    -0.012 C 
HETATM   22  C30 UNL     1      42.653 -26.742  28.320  1.00  0.00     0.033 C 
HETATM   23  C31 UNL     1      41.286 -26.795  27.587  1.00  0.00    -0.002 C 
ENDROOT
BRANCH   3  24
HETATM   24  C4  UNL     1      41.106 -21.430  30.131  1.00  0.00     0.296 C 
HETATM   25  O1  UNL     1      40.810 -21.177  31.297  1.00  0.00    -0.259 OA
BRANCH  24  26
HETATM   26  O2  UNL     1      41.174 -20.269  29.306  1.00  0.00    -0.311 OA
BRANCH  26  27
HETATM   27  C5  UNL     1      40.018 -19.474  29.069  1.00  0.00     0.261 C 
BRANCH  27  28
HETATM   28  C6  UNL     1      39.866 -19.183  27.613  1.00  0.00     0.293 C 
HETATM   29  F1  UNL     1      40.057 -17.829  27.431  1.00  0.00    -0.201 F 
HETATM   30  F2  UNL     1      40.953 -19.783  26.949  1.00  0.00    -0.201 F 
BRANCH  28  31
HETATM   31  C7  UNL     1      38.646 -19.706  26.957  1.00  0.00     0.226 C 
BRANCH  31  32
HETATM   32  O3  UNL     1      37.893 -20.515  27.803  1.00  0.00    -0.386 OA
ATOM     33  H3  UNL     1      38.267 -21.383  27.902  1.00  0.00     0.210 HD
ENDBRANCH  31  32
BRANCH  31  34
HETATM   34  C8  UNL     1      37.746 -18.722  26.297  1.00  0.00     0.082 C 
HETATM   35  C9  UNL     1      37.304 -17.675  27.261  1.00  0.00     0.048 C 
HETATM   36  C10 UNL     1      38.286 -18.156  25.011  1.00  0.00     0.048 C 
BRANCH  34  37
HETATM   37  O4  UNL     1      36.577 -19.448  25.941  1.00  0.00    -0.388 OA
ATOM     38  H4  UNL     1      36.372 -19.184  25.051  1.00  0.00     0.210 HD
ENDBRANCH  34  37
ENDBRANCH  31  34
ENDBRANCH  28  31
ENDBRANCH  27  28
ENDBRANCH  26  27
ENDBRANCH  24  26
ENDBRANCH   3  24
BRANCH   4  39
HETATM   39  O5  UNL     1      39.623 -22.908  27.914  1.00  0.00    -0.364 OA
ATOM     40  H5  UNL     1      38.680 -22.902  28.033  1.00  0.00     0.217 HD
ENDBRANCH   4  39
BRANCH  19  41
HETATM   41  C26 UNL     1      45.227 -23.990  27.390  1.00  0.00     0.178 C 
BRANCH  41  42
HETATM   42  C27 UNL     1      46.054 -24.633  28.407  1.00  0.00     0.178 C 
HETATM   43  O7  UNL     1      46.154 -25.861  28.556  1.00  0.00    -0.648 OA
HETATM   44  O8  UNL     1      46.818 -23.863  29.315  1.00  0.00    -0.648 OA
ENDBRANCH  41  42
ENDBRANCH  19  41
TORSDOF 11
ENDMDL
MODEL 4
REMARK VINA RESULT: -7.611613632      4.138      6.968
REMARK  11 active torsions:
REMARK  status: ('A' for Active; 'I' for Inactive)
REMARK    1  A    between atoms: C3_3  and  C4_4 
REMARK    2  A    between atoms: C4_4  and  O2_6 
REMARK    3  A    between atoms: O2_6  and  C5_7 
REMARK    4  A    between atoms: C5_7  and  C6_8 
REMARK    5  A    between atoms: C6_8  and  C7_11 
REMARK    6  A    between atoms: C7_11  and  O3_12 
REMARK    7  A    between atoms: C7_11  and  C8_14 
REMARK    8  A    between atoms: C8_14  and  O4_17 
REMARK    9  A    between atoms: C11_19  and  O5_20 
REMARK   10  A    between atoms: C25_36  and  C26_37 
REMARK   11  A    between atoms: C26_37  and  C27_38 
ROOT
HETATM    1  C1  UNL     1      42.927 -20.688  28.390  1.00  0.00     0.050 C 
HETATM    2  C2  UNL     1      42.583 -22.050  28.673  1.00  0.00    -0.031 C 
HETATM    3  C3  UNL     1      41.336 -22.359  29.201  1.00  0.00     0.075 C 
HETATM    4  C11 UNL     1      40.826 -23.697  29.487  1.00  0.00     0.060 C 
HETATM    5  C12 UNL     1      41.464 -24.932  29.900  1.00  0.00     0.070 C 
HETATM    6  C13 UNL     1      42.066 -25.788  28.864  1.00  0.00    -0.004 C 
HETATM    7  C14 UNL     1      41.185 -27.043  28.503  1.00  0.00     0.006 C 
HETATM    8  C15 UNL     1      41.309 -27.077  26.956  1.00  0.00     0.010 C 
HETATM    9  C16 UNL     1      42.732 -27.086  26.615  1.00  0.00    -0.034 C 
HETATM   10  C17 UNL     1      42.853 -28.525  25.986  1.00  0.00     0.016 C 
HETATM   11  C18 UNL     1      43.642 -27.300  27.853  1.00  0.00    -0.001 C 
HETATM   12  C19 UNL     1      44.939 -27.407  27.173  1.00  0.00     0.006 C 
HETATM   13  C20 UNL     1      44.834 -26.686  25.819  1.00  0.00     0.009 C 
HETATM   14  C21 UNL     1      43.403 -26.205  25.682  1.00  0.00     0.028 C 
HETATM   15  C22 UNL     1      43.146 -24.817  25.347  1.00  0.00     0.064 C 
HETATM   16  C23 UNL     1      41.753 -24.742  24.651  1.00  0.00     0.046 C 
HETATM   17  C24 UNL     1      44.077 -24.475  24.166  1.00  0.00     0.046 C 
HETATM   18  O6  UNL     1      43.095 -23.748  26.144  1.00  0.00    -0.343 OA
HETATM   19  C25 UNL     1      44.031 -23.416  27.067  1.00  0.00     0.068 C 
HETATM   20  C28 UNL     1      43.442 -23.268  28.435  1.00  0.00    -0.003 C 
HETATM   21  C29 UNL     1      43.785 -24.055  29.434  1.00  0.00    -0.012 C 
HETATM   22  C30 UNL     1      44.583 -25.343  29.174  1.00  0.00     0.033 C 
HETATM   23  C31 UNL     1      43.435 -26.366  28.967  1.00  0.00    -0.002 C 
ENDROOT
BRANCH   3  24
HETATM   24  C4  UNL     1      40.447 -21.254  29.441  1.00  0.00     0.296 C 
HETATM   25  O1  UNL     1      40.516 -20.320  30.237  1.00  0.00    -0.259 OA
BRANCH  24  26
HETATM   26  O2  UNL     1      39.276 -21.213  28.628  1.00  0.00    -0.311 OA
BRANCH  26  27
HETATM   27  C5  UNL     1      39.371 -21.004  27.223  1.00  0.00     0.261 C 
BRANCH  27  28
HETATM   28  C6  UNL     1      39.260 -19.552  26.897  1.00  0.00     0.293 C 
HETATM   29  F1  UNL     1      40.425 -18.937  27.303  1.00  0.00    -0.201 F 
HETATM   30  F2  UNL     1      39.270 -19.434  25.495  1.00  0.00    -0.201 F 
BRANCH  28  31
HETATM   31  C7  UNL     1      38.031 -18.863  27.356  1.00  0.00     0.226 C 
BRANCH  31  32
HETATM   32  O3  UNL     1      37.131 -19.732  27.967  1.00  0.00    -0.386 OA
ATOM     33  H3  UNL     1      36.879 -19.441  28.836  1.00  0.00     0.210 HD
ENDBRANCH  31  32
BRANCH  31  34
HETATM   34  C8  UNL     1      38.200 -17.657  28.212  1.00  0.00     0.082 C 
HETATM   35  C9  UNL     1      38.908 -16.574  27.472  1.00  0.00     0.048 C 
HETATM   36  C10 UNL     1      36.935 -17.192  28.881  1.00  0.00     0.048 C 
BRANCH  34  37
HETATM   37  O4  UNL     1      39.073 -18.051  29.263  1.00  0.00    -0.388 OA
ATOM     38  H4  UNL     1      38.535 -18.082  30.046  1.00  0.00     0.210 HD
ENDBRANCH  34  37
ENDBRANCH  31  34
ENDBRANCH  28  31
ENDBRANCH  27  28
ENDBRANCH  26  27
ENDBRANCH  24  26
ENDBRANCH   3  24
BRANCH   4  39
HETATM   39  O5  UNL     1      39.900 -24.083  28.442  1.00  0.00    -0.364 OA
ATOM     40  H5  UNL     1      39.127 -23.533  28.495  1.00  0.00     0.217 HD
ENDBRANCH   4  39
BRANCH  19  41
HETATM   41  C26 UNL     1      45.087 -22.475  26.607  1.00  0.00     0.178 C 
BRANCH  41  42
HETATM   42  C27 UNL     1      46.223 -22.132  27.458  1.00  0.00     0.178 C 
HETATM   43  O7  UNL     1      46.986 -22.961  27.978  1.00  0.00    -0.648 OA
HETATM   44  O8  UNL     1      46.531 -20.782  27.748  1.00  0.00    -0.648 OA
ENDBRANCH  41  42
ENDBRANCH  19  41
TORSDOF 11
ENDMDL
MODEL 5
REMARK VINA RESULT: -7.599427953      3.164      6.218
REMARK  11 active torsions:
REMARK  status: ('A' for Active; 'I' for Inactive)
REMARK    1  A    between atoms: C3_3  and  C4_4 
REMARK    2  A    between atoms: C4_4  and  O2_6 
REMARK    3  A    between atoms: O2_6  and  C5_7 
REMARK    4  A    between atoms: C5_7  and  C6_8 
REMARK    5  A    between atoms: C6_8  and  C7_11 
REMARK    6  A    between atoms: C7_11  and  O3_12 
REMARK    7  A    between atoms: C7_11  and  C8_14 
REMARK    8  A    between atoms: C8_14  and  O4_17 
REMARK    9  A    between atoms: C11_19  and  O5_20 
REMARK   10  A    between atoms: C25_36  and  C26_37 
REMARK   11  A    between atoms: C26_37  and  C27_38 
ROOT
HETATM    1  C1  UNL     1      39.944 -22.897  27.801  1.00  0.00     0.050 C 
HETATM    2  C2  UNL     1      39.372 -21.650  27.385  1.00  0.00    -0.031 C 
HETATM    3  C3  UNL     1      39.721 -20.472  28.032  1.00  0.00     0.075 C 
HETATM    4  C11 UNL     1      39.266 -19.128  27.686  1.00  0.00     0.060 C 
HETATM    5  C12 UNL     1      38.034 -18.617  27.117  1.00  0.00     0.070 C 
HETATM    6  C13 UNL     1      37.878 -18.643  25.653  1.00  0.00    -0.004 C 
HETATM    7  C14 UNL     1      38.093 -17.237  24.977  1.00  0.00     0.006 C 
HETATM    8  C15 UNL     1      38.934 -17.615  23.728  1.00  0.00     0.010 C 
HETATM    9  C16 UNL     1      38.212 -18.654  22.993  1.00  0.00    -0.034 C 
HETATM   10  C17 UNL     1      37.854 -17.860  21.680  1.00  0.00     0.016 C 
HETATM   11  C18 UNL     1      36.771 -18.872  23.527  1.00  0.00    -0.001 C 
HETATM   12  C19 UNL     1      36.291 -19.826  22.519  1.00  0.00     0.006 C 
HETATM   13  C20 UNL     1      37.510 -20.536  21.908  1.00  0.00     0.009 C 
HETATM   14  C21 UNL     1      38.744 -19.921  22.537  1.00  0.00     0.028 C 
HETATM   15  C22 UNL     1      39.751 -20.784  23.125  1.00  0.00     0.064 C 
HETATM   16  C23 UNL     1      41.112 -20.026  23.090  1.00  0.00     0.046 C 
HETATM   17  C24 UNL     1      40.018 -21.904  22.098  1.00  0.00     0.046 C 
HETATM   18  O6  UNL     1      39.791 -21.333  24.341  1.00  0.00    -0.343 OA
HETATM   19  C25 UNL     1      38.776 -22.017  24.924  1.00  0.00     0.068 C 
HETATM   20  C28 UNL     1      38.399 -21.435  26.252  1.00  0.00    -0.003 C 
HETATM   21  C29 UNL     1      37.210 -20.915  26.475  1.00  0.00    -0.012 C 
HETATM   22  C30 UNL     1      36.258 -20.614  25.306  1.00  0.00     0.033 C 
HETATM   23  C31 UNL     1      36.660 -19.155  24.964  1.00  0.00    -0.002 C 
ENDROOT
BRANCH   3  24
HETATM   24  C4  UNL     1      40.660 -20.587  29.115  1.00  0.00     0.296 C 
HETATM   25  O1  UNL     1      40.506 -20.927  30.286  1.00  0.00    -0.259 OA
BRANCH  24  26
HETATM   26  O2  UNL     1      42.011 -20.253  28.802  1.00  0.00    -0.311 OA
BRANCH  26  27
HETATM   27  C5  UNL     1      42.911 -21.241  28.312  1.00  0.00     0.261 C 
BRANCH  27  28
HETATM   28  C6  UNL     1      44.130 -21.317  29.171  1.00  0.00     0.293 C 
HETATM   29  F1  UNL     1      45.192 -21.668  28.365  1.00  0.00    -0.201 F 
HETATM   30  F2  UNL     1      44.426 -20.008  29.595  1.00  0.00    -0.201 F 
BRANCH  28  31
HETATM   31  C7  UNL     1      44.021 -22.132  30.403  1.00  0.00     0.226 C 
BRANCH  31  32
HETATM   32  O3  UNL     1      43.037 -21.660  31.267  1.00  0.00    -0.386 OA
ATOM     33  H3  UNL     1      42.214 -22.124  31.168  1.00  0.00     0.210 HD
ENDBRANCH  31  32
BRANCH  31  34
HETATM   34  C8  UNL     1      43.862 -23.602  30.241  1.00  0.00     0.082 C 
HETATM   35  C9  UNL     1      42.424 -23.972  30.112  1.00  0.00     0.048 C 
HETATM   36  C10 UNL     1      44.729 -24.202  29.166  1.00  0.00     0.048 C 
BRANCH  34  37
HETATM   37  O4  UNL     1      44.308 -24.175  31.463  1.00  0.00    -0.388 OA
ATOM     38  H4  UNL     1      43.550 -24.181  32.036  1.00  0.00     0.210 HD
ENDBRANCH  34  37
ENDBRANCH  31  34
ENDBRANCH  28  31
ENDBRANCH  27  28
ENDBRANCH  26  27
ENDBRANCH  24  26
ENDBRANCH   3  24
BRANCH   4  39
HETATM   39  O5  UNL     1      40.324 -18.440  26.976  1.00  0.00    -0.364 OA
ATOM     40  H5  UNL     1      40.026 -17.567  26.746  1.00  0.00     0.217 HD
ENDBRANCH   4  39
BRANCH  19  41
HETATM   41  C26 UNL     1      38.799 -23.492  24.740  1.00  0.00     0.178 C 
BRANCH  41  42
HETATM   42  C27 UNL     1      37.697 -24.334  25.196  1.00  0.00     0.178 C 
HETATM   43  O7  UNL     1      36.501 -24.122  24.942  1.00  0.00    -0.648 OA
HETATM   44  O8  UNL     1      37.940 -25.482  25.985  1.00  0.00    -0.648 OA
ENDBRANCH  41  42
ENDBRANCH  19  41
TORSDOF 11
ENDMDL
