MODEL 1
REMARK VINA RESULT: -6.513879581      0.000      0.000
REMARK  13 active torsions:
REMARK  status: ('A' for Active; 'I' for Inactive)
REMARK    1  A    between atoms: C2_2  and  C3_4 
REMARK    2  A    between atoms: C3_4  and  O3_6 
REMARK    3  A    between atoms: O3_6  and  C4_7 
REMARK    4  A    between atoms: C4_7  and  C5_8 
REMARK    5  A    between atoms: C6_11  and  O6_12 
REMARK    6  A    between atoms: C7_14  and  C8_15 
REMARK    7  A    between atoms: C8_15  and  O7_17 
REMARK    8  A    between atoms: C10_19  and  C11_20 
REMARK    9  A    between atoms: C17_28  and  C19_30 
REMARK   10  A    between atoms: N1_31  and  O8_33 
REMARK   11  A    between atoms: C20_35  and  C21_36 
REMARK   12  A    between atoms: C22_37  and  C23_38 
REMARK   13  A    between atoms: C23_38  and  C26_41 
ROOT
HETATM    1  C4  UNL     1      40.051 -21.256  25.339  1.00  0.00     0.209 C 
HETATM    2  C6  UNL     1      40.388 -20.882  26.728  1.00  0.00     0.176 C 
HETATM    3  C7  UNL     1      39.458 -19.874  27.430  1.00  0.00     0.057 C 
HETATM    4  C10 UNL     1      39.358 -18.670  26.526  1.00  0.00     0.047 C 
HETATM    5  C17 UNL     1      38.651 -19.092  25.245  1.00  0.00     0.025 C 
HETATM    6  C18 UNL     1      38.915 -18.150  24.127  1.00  0.00     0.027 C 
HETATM    7  C20 UNL     1      38.876 -20.541  24.885  1.00  0.00    -0.018 C 
ENDROOT
BRANCH   1   8
HETATM    8  O3  UNL     1      39.842 -22.660  25.196  1.00  0.00    -0.285 OA
BRANCH   8   9
HETATM    9  C3  UNL     1      39.217 -23.543  25.990  1.00  0.00     0.330 C 
HETATM   10  O2  UNL     1      37.990 -23.682  25.863  1.00  0.00    -0.256 OA
BRANCH   9  11
HETATM   11  C2  UNL     1      39.925 -24.354  27.002  1.00  0.00     0.220 C 
HETATM   12  C1  UNL     1      40.316 -25.730  26.641  1.00  0.00     0.103 C 
HETATM   13  O1  UNL     1      40.179 -23.885  28.121  1.00  0.00    -0.287 OA
ENDBRANCH   9  11
ENDBRANCH   8   9
ENDBRANCH   1   8
BRANCH   1  14
HETATM   14  C5  UNL     1      41.314 -21.054  24.566  1.00  0.00     0.217 C 
HETATM   15  O4  UNL     1      41.733 -20.026  24.067  1.00  0.00    -0.645 OA
HETATM   16  O5  UNL     1      42.115 -22.162  24.393  1.00  0.00    -0.645 OA
ENDBRANCH   1  14
BRANCH   2  17
HETATM   17  O6  UNL     1      41.686 -20.426  26.907  1.00  0.00    -0.391 OA
ATOM     18  H6  UNL     1      41.754 -19.525  27.200  1.00  0.00     0.210 HD
ENDBRANCH   2  17
BRANCH   7  19
HETATM   19  C21 UNL     1      38.316 -20.819  23.536  1.00  0.00     0.005 C 
HETATM   20  C22 UNL     1      37.649 -21.840  23.099  1.00  0.00    -0.013 C 
BRANCH  20  21
HETATM   21  C23 UNL     1      37.132 -21.987  21.676  1.00  0.00    -0.012 C 
HETATM   22  C24 UNL     1      36.918 -20.681  21.018  1.00  0.00     0.023 C 
HETATM   23  C25 UNL     1      38.195 -22.734  20.853  1.00  0.00     0.023 C 
BRANCH  21  24
HETATM   24  C26 UNL     1      35.920 -22.806  21.702  1.00  0.00    -0.012 C 
HETATM   25  C27 UNL     1      34.808 -22.501  22.315  1.00  0.00    -0.090 C 
HETATM   26  C28 UNL     1      34.537 -21.276  23.109  1.00  0.00     0.042 C 
HETATM   27  C29 UNL     1      33.681 -23.527  22.171  1.00  0.00     0.042 C 
ENDBRANCH  21  24
ENDBRANCH  20  21
ENDBRANCH   7  19
BRANCH   3  28
HETATM   28  C8  UNL     1      40.213 -19.664  28.710  1.00  0.00     0.121 C 
HETATM   29  C9  UNL     1      39.705 -18.805  29.780  1.00  0.00     0.040 C 
BRANCH  28  30
HETATM   30  O7  UNL     1      40.381 -20.949  29.310  1.00  0.00    -0.395 OA
ATOM     31  H7  UNL     1      41.089 -20.871  29.938  1.00  0.00     0.210 HD
ENDBRANCH  28  30
ENDBRANCH   3  28
BRANCH   5  32
HETATM   32  C19 UNL     1      37.138 -19.050  25.417  1.00  0.00     0.101 C 
HETATM   33  N1  UNL     1      36.367 -19.855  25.905  1.00  0.00    -0.283 N 
ATOM     34  H1  UNL     1      35.414 -19.495  25.852  1.00  0.00     0.192 HD
BRANCH  33  35
HETATM   35  O8  UNL     1      36.362 -21.048  26.482  1.00  0.00    -0.291 OA
ATOM     36  H8  UNL     1      36.773 -21.901  26.409  1.00  0.00     0.244 HD
ENDBRANCH  33  35
ENDBRANCH   5  32
BRANCH   4  37
HETATM   37  C11 UNL     1      38.581 -17.530  27.119  1.00  0.00    -0.030 A 
HETATM   38  C12 UNL     1      37.399 -17.692  27.821  1.00  0.00     0.011 A 
HETATM   39  C13 UNL     1      36.588 -16.657  28.234  1.00  0.00     0.024 A 
HETATM   40  C14 UNL     1      36.939 -15.375  27.950  1.00  0.00     0.035 A 
HETATM   41 CL1  UNL     1      35.962 -13.989  28.439  1.00  0.00    -0.084 Cl
HETATM   42  C15 UNL     1      38.092 -15.141  27.264  1.00  0.00     0.048 A 
HETATM   43  C16 UNL     1      38.896 -16.209  26.860  1.00  0.00     0.042 A 
HETATM   44 CL2  UNL     1      40.426 -15.808  26.105  1.00  0.00    -0.084 Cl
ENDBRANCH   4  37
TORSDOF 13
ENDMDL
MODEL 2
REMARK VINA RESULT: -6.444691333      0.557      1.187
REMARK  13 active torsions:
REMARK  status: ('A' for Active; 'I' for Inactive)
REMARK    1  A    between atoms: C2_2  and  C3_4 
REMARK    2  A    between atoms: C3_4  and  O3_6 
REMARK    3  A    between atoms: O3_6  and  C4_7 
REMARK    4  A    between atoms: C4_7  and  C5_8 
REMARK    5  A    between atoms: C6_11  and  O6_12 
REMARK    6  A    between atoms: C7_14  and  C8_15 
REMARK    7  A    between atoms: C8_15  and  O7_17 
REMARK    8  A    between atoms: C10_19  and  C11_20 
REMARK    9  A    between atoms: C17_28  and  C19_30 
REMARK   10  A    between atoms: N1_31  and  O8_33 
REMARK   11  A    between atoms: C20_35  and  C21_36 
REMARK   12  A    between atoms: C22_37  and  C23_38 
REMARK   13  A    between atoms: C23_38  and  C26_41 
ROOT
HETATM    1  C4  UNL     1      40.097 -21.272  25.339  1.00  0.00     0.209 C 
HETATM    2  C6  UNL     1      40.399 -20.933  26.745  1.00  0.00     0.176 C 
HETATM    3  C7  UNL     1      39.472 -19.914  27.437  1.00  0.00     0.057 C 
HETATM    4  C10 UNL     1      39.432 -18.692  26.554  1.00  0.00     0.047 C 
HETATM    5  C17 UNL     1      38.755 -19.072  25.244  1.00  0.00     0.025 C 
HETATM    6  C18 UNL     1      39.079 -18.116  24.153  1.00  0.00     0.027 C 
HETATM    7  C20 UNL     1      38.955 -20.518  24.862  1.00  0.00    -0.018 C 
ENDROOT
BRANCH   1   8
HETATM    8  O3  UNL     1      39.857 -22.668  25.162  1.00  0.00    -0.285 OA
BRANCH   8   9
HETATM    9  C3  UNL     1      39.171 -23.545  25.911  1.00  0.00     0.330 C 
HETATM   10  O2  UNL     1      37.943 -23.623  25.752  1.00  0.00    -0.256 OA
BRANCH   9  11
HETATM   11  C2  UNL     1      39.816 -24.421  26.912  1.00  0.00     0.220 C 
HETATM   12  C1  UNL     1      40.104 -25.817  26.531  1.00  0.00     0.103 C 
HETATM   13  O1  UNL     1      40.103 -23.989  28.038  1.00  0.00    -0.287 OA
ENDBRANCH   9  11
ENDBRANCH   8   9
ENDBRANCH   1   8
BRANCH   1  14
HETATM   14  C5  UNL     1      41.387 -21.089  24.610  1.00  0.00     0.217 C 
HETATM   15  O4  UNL     1      41.855 -20.061  24.156  1.00  0.00    -0.645 OA
HETATM   16  O5  UNL     1      42.158 -22.217  24.427  1.00  0.00    -0.645 OA
ENDBRANCH   1  14
BRANCH   2  17
HETATM   17  O6  UNL     1      41.701 -20.515  26.973  1.00  0.00    -0.391 OA
ATOM     18  H6  UNL     1      41.954 -20.483  27.888  1.00  0.00     0.210 HD
ENDBRANCH   2  17
BRANCH   7  19
HETATM   19  C21 UNL     1      38.431 -20.757  23.491  1.00  0.00     0.005 C 
HETATM   20  C22 UNL     1      37.585 -21.637  23.058  1.00  0.00    -0.013 C 
BRANCH  20  21
HETATM   21  C23 UNL     1      37.136 -21.761  21.610  1.00  0.00    -0.012 C 
HETATM   22  C24 UNL     1      38.197 -22.304  20.737  1.00  0.00     0.023 C 
HETATM   23  C25 UNL     1      35.961 -22.751  21.555  1.00  0.00     0.023 C 
BRANCH  21  24
HETATM   24  C26 UNL     1      36.652 -20.456  21.158  1.00  0.00    -0.012 C 
HETATM   25  C27 UNL     1      35.647 -19.798  21.670  1.00  0.00    -0.090 C 
HETATM   26  C28 UNL     1      34.787 -20.227  22.802  1.00  0.00     0.042 C 
HETATM   27  C29 UNL     1      35.358 -18.442  21.022  1.00  0.00     0.042 C 
ENDBRANCH  21  24
ENDBRANCH  20  21
ENDBRANCH   7  19
BRANCH   3  28
HETATM   28  C8  UNL     1      40.192 -19.748  28.743  1.00  0.00     0.121 C 
HETATM   29  C9  UNL     1      39.687 -18.873  29.802  1.00  0.00     0.040 C 
BRANCH  28  30
HETATM   30  O7  UNL     1      40.279 -21.044  29.339  1.00  0.00    -0.395 OA
ATOM     31  H7  UNL     1      41.027 -21.030  29.924  1.00  0.00     0.210 HD
ENDBRANCH  28  30
ENDBRANCH   3  28
BRANCH   5  32
HETATM   32  C19 UNL     1      37.239 -18.993  25.370  1.00  0.00     0.101 C 
HETATM   33  N1  UNL     1      36.437 -19.768  25.855  1.00  0.00    -0.283 N 
ATOM     34  H1  UNL     1      35.494 -19.390  25.764  1.00  0.00     0.192 HD
BRANCH  33  35
HETATM   35  O8  UNL     1      36.389 -20.945  26.463  1.00  0.00    -0.291 OA
ATOM     36  H8  UNL     1      35.762 -21.602  26.742  1.00  0.00     0.244 HD
ENDBRANCH  33  35
ENDBRANCH   5  32
BRANCH   4  37
HETATM   37  C11 UNL     1      38.665 -17.543  27.144  1.00  0.00    -0.030 A 
HETATM   38  C12 UNL     1      37.493 -17.695  27.864  1.00  0.00     0.011 A 
HETATM   39  C13 UNL     1      36.690 -16.653  28.276  1.00  0.00     0.024 A 
HETATM   40  C14 UNL     1      37.040 -15.374  27.974  1.00  0.00     0.035 A 
HETATM   41 CL1  UNL     1      36.073 -13.981  28.459  1.00  0.00    -0.084 Cl
HETATM   42  C15 UNL     1      38.184 -15.151  27.269  1.00  0.00     0.048 A 
HETATM   43  C16 UNL     1      38.980 -16.226  26.867  1.00  0.00     0.042 A 
HETATM   44 CL2  UNL     1      40.501 -15.837  26.086  1.00  0.00    -0.084 Cl
ENDBRANCH   4  37
TORSDOF 13
ENDMDL
MODEL 3
REMARK VINA RESULT: -6.359120394      3.323      7.471
REMARK  13 active torsions:
REMARK  status: ('A' for Active; 'I' for Inactive)
REMARK    1  A    between atoms: C2_2  and  C3_4 
REMARK    2  A    between atoms: C3_4  and  O3_6 
REMARK    3  A    between atoms: O3_6  and  C4_7 
REMARK    4  A    between atoms: C4_7  and  C5_8 
REMARK    5  A    between atoms: C6_11  and  O6_12 
REMARK    6  A    between atoms: C7_14  and  C8_15 
REMARK    7  A    between atoms: C8_15  and  O7_17 
REMARK    8  A    between atoms: C10_19  and  C11_20 
REMARK    9  A    between atoms: C17_28  and  C19_30 
REMARK   10  A    between atoms: N1_31  and  O8_33 
REMARK   11  A    between atoms: C20_35  and  C21_36 
REMARK   12  A    between atoms: C22_37  and  C23_38 
REMARK   13  A    between atoms: C23_38  and  C26_41 
ROOT
HETATM    1  C4  UNL     1      39.160 -18.609  25.058  1.00  0.00     0.209 C 
HETATM    2  C6  UNL     1      38.055 -18.287  24.132  1.00  0.00     0.176 C 
HETATM    3  C7  UNL     1      37.119 -19.442  23.726  1.00  0.00     0.057 C 
HETATM    4  C10 UNL     1      37.996 -20.550  23.200  1.00  0.00     0.047 C 
HETATM    5  C17 UNL     1      38.851 -21.069  24.349  1.00  0.00     0.025 C 
HETATM    6  C18 UNL     1      40.050 -21.800  23.864  1.00  0.00     0.027 C 
HETATM    7  C20 UNL     1      39.159 -20.019  25.389  1.00  0.00    -0.018 C 
ENDROOT
BRANCH   1   8
HETATM    8  O3  UNL     1      39.099 -17.836  26.256  1.00  0.00    -0.285 OA
BRANCH   8   9
HETATM    9  C3  UNL     1      38.053 -17.440  26.997  1.00  0.00     0.330 C 
HETATM   10  O2  UNL     1      37.462 -18.288  27.682  1.00  0.00    -0.256 OA
BRANCH   9  11
HETATM   11  C2  UNL     1      37.579 -16.040  27.031  1.00  0.00     0.220 C 
HETATM   12  C1  UNL     1      37.404 -15.398  28.348  1.00  0.00     0.103 C 
HETATM   13  O1  UNL     1      37.336 -15.430  25.980  1.00  0.00    -0.287 OA
ENDBRANCH   9  11
ENDBRANCH   8   9
ENDBRANCH   1   8
BRANCH   1  14
HETATM   14  C5  UNL     1      40.386 -18.062  24.403  1.00  0.00     0.217 C 
HETATM   15  O4  UNL     1      41.156 -18.633  23.653  1.00  0.00    -0.645 OA
HETATM   16  O5  UNL     1      40.693 -16.745  24.670  1.00  0.00    -0.645 OA
ENDBRANCH   1  14
BRANCH   2  17
HETATM   17  O6  UNL     1      38.446 -17.653  22.961  1.00  0.00    -0.391 OA
ATOM     18  H6  UNL     1      38.283 -18.150  22.168  1.00  0.00     0.210 HD
ENDBRANCH   2  17
BRANCH   7  19
HETATM   19  C21 UNL     1      40.146 -20.550  26.366  1.00  0.00     0.005 C 
HETATM   20  C22 UNL     1      40.065 -20.683  27.652  1.00  0.00    -0.013 C 
BRANCH  20  21
HETATM   21  C23 UNL     1      41.168 -21.252  28.532  1.00  0.00    -0.012 C 
HETATM   22  C24 UNL     1      40.999 -20.886  29.952  1.00  0.00     0.023 C 
HETATM   23  C25 UNL     1      41.101 -22.786  28.453  1.00  0.00     0.023 C 
BRANCH  21  24
HETATM   24  C26 UNL     1      42.460 -20.826  27.993  1.00  0.00    -0.012 C 
HETATM   25  C27 UNL     1      43.617 -20.975  28.580  1.00  0.00    -0.090 C 
HETATM   26  C28 UNL     1      43.868 -21.599  29.903  1.00  0.00     0.042 C 
HETATM   27  C29 UNL     1      44.821 -20.456  27.791  1.00  0.00     0.042 C 
ENDBRANCH  21  24
ENDBRANCH  20  21
ENDBRANCH   7  19
BRANCH   3  28
HETATM   28  C8  UNL     1      36.268 -18.746  22.704  1.00  0.00     0.121 C 
HETATM   29  C9  UNL     1      35.164 -19.422  22.022  1.00  0.00     0.040 C 
BRANCH  28  30
HETATM   30  O7  UNL     1      35.674 -17.620  23.353  1.00  0.00    -0.395 OA
ATOM     31  H7  UNL     1      34.743 -17.797  23.417  1.00  0.00     0.210 HD
ENDBRANCH  28  30
ENDBRANCH   3  28
BRANCH   5  32
HETATM   32  C19 UNL     1      38.091 -22.103  25.170  1.00  0.00     0.101 C 
HETATM   33  N1  UNL     1      37.245 -21.970  26.034  1.00  0.00    -0.283 N 
ATOM     34  H1  UNL     1      36.953 -22.887  26.372  1.00  0.00     0.192 HD
BRANCH  33  35
HETATM   35  O8  UNL     1      36.579 -21.023  26.680  1.00  0.00    -0.291 OA
ATOM     36  H8  UNL     1      35.990 -20.298  26.514  1.00  0.00     0.244 HD
ENDBRANCH  33  35
ENDBRANCH   5  32
BRANCH   4  37
HETATM   37  C11 UNL     1      37.232 -21.716  22.641  1.00  0.00    -0.030 A 
HETATM   38  C12 UNL     1      36.166 -22.314  23.291  1.00  0.00     0.011 A 
HETATM   39  C13 UNL     1      35.554 -23.477  22.878  1.00  0.00     0.024 A 
HETATM   40  C14 UNL     1      35.999 -24.111  21.760  1.00  0.00     0.035 A 
HETATM   41 CL1  UNL     1      35.277 -25.604  21.159  1.00  0.00    -0.084 Cl
HETATM   42  C15 UNL     1      37.043 -23.576  21.069  1.00  0.00     0.048 A 
HETATM   43  C16 UNL     1      37.643 -22.394  21.509  1.00  0.00     0.042 A 
HETATM   44 CL2  UNL     1      38.888 -21.706  20.484  1.00  0.00    -0.084 Cl
ENDBRANCH   4  37
TORSDOF 13
ENDMDL
MODEL 4
REMARK VINA RESULT: -6.290261257      3.148      7.111
REMARK  13 active torsions:
REMARK  status: ('A' for Active; 'I' for Inactive)
REMARK    1  A    between atoms: C2_2  and  C3_4 
REMARK    2  A    between atoms: C3_4  and  O3_6 
REMARK    3  A    between atoms: O3_6  and  C4_7 
REMARK    4  A    between atoms: C4_7  and  C5_8 
REMARK    5  A    between atoms: C6_11  and  O6_12 
REMARK    6  A    between atoms: C7_14  and  C8_15 
REMARK    7  A    between atoms: C8_15  and  O7_17 
REMARK    8  A    between atoms: C10_19  and  C11_20 
REMARK    9  A    between atoms: C17_28  and  C19_30 
REMARK   10  A    between atoms: N1_31  and  O8_33 
REMARK   11  A    between atoms: C20_35  and  C21_36 
REMARK   12  A    between atoms: C22_37  and  C23_38 
REMARK   13  A    between atoms: C23_38  and  C26_41 
ROOT
HETATM    1  C4  UNL     1      39.099 -18.765  25.039  1.00  0.00     0.209 C 
HETATM    2  C6  UNL     1      38.028 -18.387  24.095  1.00  0.00     0.176 C 
HETATM    3  C7  UNL     1      37.066 -19.501  23.639  1.00  0.00     0.057 C 
HETATM    4  C10 UNL     1      37.921 -20.624  23.106  1.00  0.00     0.047 C 
HETATM    5  C17 UNL     1      38.730 -21.197  24.262  1.00  0.00     0.025 C 
HETATM    6  C18 UNL     1      39.918 -21.955  23.789  1.00  0.00     0.027 C 
HETATM    7  C20 UNL     1      39.046 -20.183  25.335  1.00  0.00    -0.018 C 
ENDROOT
BRANCH   1   8
HETATM    8  O3  UNL     1      39.033 -18.020  26.254  1.00  0.00    -0.285 OA
BRANCH   8   9
HETATM    9  C3  UNL     1      37.983 -17.625  26.989  1.00  0.00     0.330 C 
HETATM   10  O2  UNL     1      37.378 -18.477  27.658  1.00  0.00    -0.256 OA
BRANCH   9  11
HETATM   11  C2  UNL     1      37.519 -16.223  27.037  1.00  0.00     0.220 C 
HETATM   12  C1  UNL     1      37.371 -15.584  28.359  1.00  0.00     0.103 C 
HETATM   13  O1  UNL     1      37.263 -15.606  25.992  1.00  0.00    -0.287 OA
ENDBRANCH   9  11
ENDBRANCH   8   9
ENDBRANCH   1   8
BRANCH   1  14
HETATM   14  C5  UNL     1      40.357 -18.243  24.427  1.00  0.00     0.217 C 
HETATM   15  O4  UNL     1      41.144 -18.831  23.708  1.00  0.00    -0.645 OA
HETATM   16  O5  UNL     1      40.678 -16.930  24.700  1.00  0.00    -0.645 OA
ENDBRANCH   1  14
BRANCH   2  17
HETATM   17  O6  UNL     1      38.467 -17.738  22.950  1.00  0.00    -0.391 OA
ATOM     18  H6  UNL     1      37.809 -17.642  22.271  1.00  0.00     0.210 HD
ENDBRANCH   2  17
BRANCH   7  19
HETATM   19  C21 UNL     1      39.992 -20.768  26.322  1.00  0.00     0.005 C 
HETATM   20  C22 UNL     1      39.827 -21.052  27.575  1.00  0.00    -0.013 C 
BRANCH  20  21
HETATM   21  C23 UNL     1      40.897 -21.657  28.470  1.00  0.00    -0.012 C 
HETATM   22  C24 UNL     1      42.217 -21.714  27.809  1.00  0.00     0.023 C 
HETATM   23  C25 UNL     1      41.055 -20.758  29.707  1.00  0.00     0.023 C 
BRANCH  21  24
HETATM   24  C26 UNL     1      40.439 -22.972  28.921  1.00  0.00    -0.012 C 
HETATM   25  C27 UNL     1      40.420 -24.060  28.199  1.00  0.00    -0.090 C 
HETATM   26  C28 UNL     1      40.850 -24.197  26.785  1.00  0.00     0.042 C 
HETATM   27  C29 UNL     1      39.908 -25.311  28.918  1.00  0.00     0.042 C 
ENDBRANCH  21  24
ENDBRANCH  20  21
ENDBRANCH   7  19
BRANCH   3  28
HETATM   28  C8  UNL     1      36.264 -18.754  22.614  1.00  0.00     0.121 C 
HETATM   29  C9  UNL     1      35.157 -19.379  21.888  1.00  0.00     0.040 C 
BRANCH  28  30
HETATM   30  O7  UNL     1      35.686 -17.628  23.277  1.00  0.00    -0.395 OA
ATOM     31  H7  UNL     1      35.852 -16.870  22.729  1.00  0.00     0.210 HD
ENDBRANCH  28  30
ENDBRANCH   3  28
BRANCH   5  32
HETATM   32  C19 UNL     1      37.919 -22.225  25.040  1.00  0.00     0.101 C 
HETATM   33  N1  UNL     1      37.054 -22.087  25.884  1.00  0.00    -0.283 N 
ATOM     34  H1  UNL     1      36.726 -23.001  26.193  1.00  0.00     0.192 HD
BRANCH  33  35
HETATM   35  O8  UNL     1      36.399 -21.134  26.533  1.00  0.00    -0.291 OA
ATOM     36  H8  UNL     1      35.517 -20.894  26.789  1.00  0.00     0.244 HD
ENDBRANCH  33  35
ENDBRANCH   5  32
BRANCH   4  37
HETATM   37  C11 UNL     1      37.134 -21.751  22.501  1.00  0.00    -0.030 A 
HETATM   38  C12 UNL     1      36.019 -22.313  23.099  1.00  0.00     0.011 A 
HETATM   39  C13 UNL     1      35.379 -23.445  22.645  1.00  0.00     0.024 A 
HETATM   40  C14 UNL     1      35.844 -24.084  21.539  1.00  0.00     0.035 A 
HETATM   41 CL1  UNL     1      35.088 -25.539  20.888  1.00  0.00    -0.084 Cl
HETATM   42  C15 UNL     1      36.937 -23.583  20.898  1.00  0.00     0.048 A 
HETATM   43  C16 UNL     1      37.565 -22.432  21.379  1.00  0.00     0.042 A 
HETATM   44 CL2  UNL     1      38.878 -21.784  20.414  1.00  0.00    -0.084 Cl
ENDBRANCH   4  37
TORSDOF 13
ENDMDL
MODEL 5
REMARK VINA RESULT: -6.247596295      3.149      5.943
REMARK  13 active torsions:
REMARK  status: ('A' for Active; 'I' for Inactive)
REMARK    1  A    between atoms: C2_2  and  C3_4 
REMARK    2  A    between atoms: C3_4  and  O3_6 
REMARK    3  A    between atoms: O3_6  and  C4_7 
REMARK    4  A    between atoms: C4_7  and  C5_8 
REMARK    5  A    between atoms: C6_11  and  O6_12 
REMARK    6  A    between atoms: C7_14  and  C8_15 
REMARK    7  A    between atoms: C8_15  and  O7_17 
REMARK    8  A    between atoms: C10_19  and  C11_20 
REMARK    9  A    between atoms: C17_28  and  C19_30 
REMARK   10  A    between atoms: N1_31  and  O8_33 
REMARK   11  A    between atoms: C20_35  and  C21_36 
REMARK   12  A    between atoms: C22_37  and  C23_38 
REMARK   13  A    between atoms: C23_38  and  C26_41 
ROOT
HETATM    1  C4  UNL     1      39.627 -22.474  25.030  1.00  0.00     0.209 C 
HETATM    2  C6  UNL     1      39.819 -23.726  25.790  1.00  0.00     0.176 C 
HETATM    3  C7  UNL     1      40.371 -23.601  27.222  1.00  0.00     0.057 C 
HETATM    4  C10 UNL     1      41.642 -22.793  27.131  1.00  0.00     0.047 C 
HETATM    5  C17 UNL     1      41.279 -21.384  26.683  1.00  0.00     0.025 C 
HETATM    6  C18 UNL     1      42.447 -20.663  26.113  1.00  0.00     0.027 C 
HETATM    7  C20 UNL     1      40.048 -21.329  25.811  1.00  0.00    -0.018 C 
ENDROOT
BRANCH   1   8
HETATM    8  O3  UNL     1      38.273 -22.299  24.614  1.00  0.00    -0.285 OA
BRANCH   8   9
HETATM    9  C3  UNL     1      37.121 -22.697  25.176  1.00  0.00     0.330 C 
HETATM   10  O2  UNL     1      36.605 -21.971  26.040  1.00  0.00    -0.256 OA
BRANCH   9  11
HETATM   11  C2  UNL     1      36.443 -23.957  24.808  1.00  0.00     0.220 C 
HETATM   12  C1  UNL     1      35.219 -23.874  23.987  1.00  0.00     0.103 C 
HETATM   13  O1  UNL     1      36.894 -25.049  25.182  1.00  0.00    -0.287 OA
ENDBRANCH   9  11
ENDBRANCH   8   9
ENDBRANCH   1   8
BRANCH   1  14
HETATM   14  C5  UNL     1      40.320 -22.702  23.726  1.00  0.00     0.217 C 
HETATM   15  O4  UNL     1      41.493 -22.523  23.457  1.00  0.00    -0.645 OA
HETATM   16  O5  UNL     1      39.545 -23.179  22.690  1.00  0.00    -0.645 OA
ENDBRANCH   1  14
BRANCH   2  17
HETATM   17  O6  UNL     1      40.585 -24.685  25.143  1.00  0.00    -0.391 OA
ATOM     18  H6  UNL     1      41.021 -25.301  25.720  1.00  0.00     0.210 HD
ENDBRANCH   2  17
BRANCH   7  19
HETATM   19  C21 UNL     1      39.875 -19.957  25.265  1.00  0.00     0.005 C 
HETATM   20  C22 UNL     1      38.805 -19.243  25.114  1.00  0.00    -0.013 C 
BRANCH  20  21
HETATM   21  C23 UNL     1      38.782 -17.835  24.536  1.00  0.00    -0.012 C 
HETATM   22  C24 UNL     1      40.137 -17.263  24.397  1.00  0.00     0.023 C 
HETATM   23  C25 UNL     1      38.178 -17.906  23.124  1.00  0.00     0.023 C 
BRANCH  21  24
HETATM   24  C26 UNL     1      37.906 -17.006  25.364  1.00  0.00    -0.012 C 
HETATM   25  C27 UNL     1      38.130 -16.664  26.604  1.00  0.00    -0.090 C 
HETATM   26  C28 UNL     1      39.304 -17.039  27.432  1.00  0.00     0.042 C 
HETATM   27  C29 UNL     1      37.059 -15.772  27.238  1.00  0.00     0.042 C 
ENDBRANCH  21  24
ENDBRANCH  20  21
ENDBRANCH   7  19
BRANCH   3  28
HETATM   28  C8  UNL     1      40.548 -25.052  27.564  1.00  0.00     0.121 C 
HETATM   29  C9  UNL     1      40.923 -25.493  28.909  1.00  0.00     0.040 C 
BRANCH  28  30
HETATM   30  O7  UNL     1      39.304 -25.699  27.292  1.00  0.00    -0.395 OA
ATOM     31  H7  UNL     1      38.830 -25.745  28.114  1.00  0.00     0.210 HD
ENDBRANCH  28  30
ENDBRANCH   3  28
BRANCH   5  32
HETATM   32  C19 UNL     1      40.856 -20.526  27.868  1.00  0.00     0.101 C 
HETATM   33  N1  UNL     1      39.784 -20.420  28.434  1.00  0.00    -0.283 N 
ATOM     34  H1  UNL     1      39.862 -19.746  29.196  1.00  0.00     0.192 HD
BRANCH  33  35
HETATM   35  O8  UNL     1      38.547 -20.895  28.384  1.00  0.00    -0.291 OA
ATOM     36  H8  UNL     1      37.817 -20.977  27.783  1.00  0.00     0.244 HD
ENDBRANCH  33  35
ENDBRANCH   5  32
BRANCH   4  37
HETATM   37  C11 UNL     1      42.383 -22.679  28.432  1.00  0.00    -0.030 A 
HETATM   38  C12 UNL     1      41.788 -22.287  29.619  1.00  0.00     0.011 A 
HETATM   39  C13 UNL     1      42.474 -22.022  30.785  1.00  0.00     0.024 A 
HETATM   40  C14 UNL     1      43.829 -22.140  30.810  1.00  0.00     0.035 A 
HETATM   41 CL1  UNL     1      44.787 -21.820  32.255  1.00  0.00    -0.084 Cl
HETATM   42  C15 UNL     1      44.479 -22.525  29.676  1.00  0.00     0.048 A 
HETATM   43  C16 UNL     1      43.758 -22.790  28.510  1.00  0.00     0.042 A 
HETATM   44 CL2  UNL     1      44.663 -23.410  27.143  1.00  0.00    -0.084 Cl
ENDBRANCH   4  37
TORSDOF 13
ENDMDL
