MODEL 1
REMARK VINA RESULT: -7.753412861      0.000      0.000
REMARK  14 active torsions:
REMARK  status: ('A' for Active; 'I' for Inactive)
REMARK    1  A    between atoms: C3_3  and  C4_4 
REMARK    2  A    between atoms: C3_3  and  C13_15 
REMARK    3  A    between atoms: C4_4  and  C5_5 
REMARK    4  A    between atoms: C5_5  and  C6_6 
REMARK    5  A    between atoms: C6_6  and  N1_7 
REMARK    6  A    between atoms: N2_10  and  C9_11 
REMARK    7  A    between atoms: C14_16  and  C15_17 
REMARK    8  A    between atoms: C15_17  and  N3_18 
REMARK    9  A    between atoms: N3_18  and  C16_19 
REMARK   10  A    between atoms: N3_18  and  C18_21 
REMARK   11  A    between atoms: C18_21  and  C19_22 
REMARK   12  A    between atoms: C25_30  and  O1_31 
REMARK   13  A    between atoms: C28_36  and  O3_37 
REMARK   14  A    between atoms: C30_40  and  O4_41 
ROOT
HETATM    1  C13 UNL     1      36.817 -21.406  23.944  1.00  0.00     0.019 A 
HETATM    2  C14 UNL     1      37.402 -22.369  24.777  1.00  0.00     0.003 A 
HETATM    3  C25 UNL     1      36.822 -23.613  24.953  1.00  0.00     0.087 A 
HETATM    4  C26 UNL     1      35.632 -23.896  24.274  1.00  0.00     0.038 A 
HETATM    5  C27 UNL     1      34.824 -25.047  24.229  1.00  0.00     0.160 A 
HETATM    6  O2  UNL     1      33.856 -24.776  23.453  1.00  0.00    -0.299 OA
HETATM    7  C28 UNL     1      33.894 -23.583  22.953  1.00  0.00     0.197 A 
HETATM    8  C29 UNL     1      35.014 -22.966  23.437  1.00  0.00     0.071 A 
HETATM    9  C30 UNL     1      35.649 -21.719  23.300  1.00  0.00     0.093 A 
ENDROOT
BRANCH   1  10
HETATM   10  C3  UNL     1      37.330 -20.031  23.880  1.00  0.00    -0.019 C 
HETATM   11  C2  UNL     1      38.072 -19.431  22.996  1.00  0.00    -0.018 C 
HETATM   12  C1  UNL     1      38.806 -19.833  21.821  1.00  0.00     0.037 C 
BRANCH  10  13
HETATM   13  C4  UNL     1      36.789 -19.155  24.943  1.00  0.00     0.064 C 
BRANCH  13  14
HETATM   14  C5  UNL     1      37.418 -18.159  25.526  1.00  0.00    -0.125 C 
BRANCH  14  15
HETATM   15  C6  UNL     1      38.098 -17.061  25.972  1.00  0.00     0.357 C 
BRANCH  15  16
HETATM   16  N1  UNL     1      37.819 -16.313  27.157  1.00  0.00     0.102 N 
HETATM   17  C7  UNL     1      37.837 -14.876  26.975  1.00  0.00     0.303 C 
HETATM   18  C8  UNL     1      36.597 -14.127  27.195  1.00  0.00     0.302 C 
HETATM   19  N2  UNL     1      35.695 -14.637  28.218  1.00  0.00     0.091 N 
HETATM   20  C11 UNL     1      36.351 -15.671  29.011  1.00  0.00     0.302 C 
HETATM   21  C12 UNL     1      36.715 -16.750  27.959  1.00  0.00     0.303 C 
BRANCH  19  22
HETATM   22  C9  UNL     1      35.040 -13.639  28.968  1.00  0.00     0.268 C 
HETATM   23  C10 UNL     1      33.826 -14.171  29.715  1.00  0.00     0.037 C 
ENDBRANCH  19  22
ENDBRANCH  15  16
ENDBRANCH  14  15
ENDBRANCH  13  14
ENDBRANCH  10  13
ENDBRANCH   1  10
BRANCH   2  24
HETATM   24  C15 UNL     1      38.762 -22.152  25.172  1.00  0.00     0.137 C 
BRANCH  24  25
HETATM   25  N3  UNL     1      39.138 -22.301  26.615  1.00  0.00    -0.288 NA
BRANCH  25  26
HETATM   26  C16 UNL     1      39.468 -20.929  27.030  1.00  0.00     0.090 C 
HETATM   27  C17 UNL     1      38.688 -20.265  28.074  1.00  0.00     0.021 C 
ENDBRANCH  25  26
BRANCH  25  28
HETATM   28  C18 UNL     1      40.317 -23.169  26.502  1.00  0.00     0.072 C 
BRANCH  28  29
HETATM   29  C19 UNL     1      40.387 -24.451  27.156  1.00  0.00    -0.008 A 
HETATM   30  C20 UNL     1      40.267 -24.575  28.510  1.00  0.00     0.017 A 
HETATM   31  C21 UNL     1      40.308 -25.820  29.131  1.00  0.00     0.043 A 
HETATM   32  C22 UNL     1      40.470 -26.937  28.339  1.00  0.00     0.117 A 
HETATM   33  F1  UNL     1      40.571 -28.167  28.891  1.00  0.00    -0.206 F 
HETATM   34  C23 UNL     1      40.591 -26.811  26.921  1.00  0.00     0.062 A 
HETATM   35  C24 UNL     1      40.551 -25.603  26.385  1.00  0.00     0.025 A 
HETATM   36 BR1  UNL     1      40.749 -25.285  24.486  1.00  0.00    -0.050 Br
ENDBRANCH  28  29
ENDBRANCH  25  28
ENDBRANCH  24  25
ENDBRANCH   2  24
BRANCH   9  37
HETATM   37  O4  UNL     1      35.017 -20.827  22.460  1.00  0.00    -0.359 OA
ATOM     38  H4  UNL     1      34.453 -21.116  21.751  1.00  0.00     0.217 HD
ENDBRANCH   9  37
BRANCH   3  39
HETATM   39  O1  UNL     1      37.329 -24.616  25.748  1.00  0.00    -0.359 OA
ATOM     40  H1  UNL     1      36.806 -25.220  26.262  1.00  0.00     0.217 HD
ENDBRANCH   3  39
BRANCH   7  41
HETATM   41  O3  UNL     1      32.961 -22.994  22.069  1.00  0.00    -0.340 OA
ATOM     42  H3  UNL     1      32.680 -22.087  22.049  1.00  0.00     0.220 HD
ENDBRANCH   7  41
TORSDOF 14
ENDMDL
MODEL 2
REMARK VINA RESULT: -7.612838557      4.484      8.447
REMARK  14 active torsions:
REMARK  status: ('A' for Active; 'I' for Inactive)
REMARK    1  A    between atoms: C3_3  and  C4_4 
REMARK    2  A    between atoms: C3_3  and  C13_15 
REMARK    3  A    between atoms: C4_4  and  C5_5 
REMARK    4  A    between atoms: C5_5  and  C6_6 
REMARK    5  A    between atoms: C6_6  and  N1_7 
REMARK    6  A    between atoms: N2_10  and  C9_11 
REMARK    7  A    between atoms: C14_16  and  C15_17 
REMARK    8  A    between atoms: C15_17  and  N3_18 
REMARK    9  A    between atoms: N3_18  and  C16_19 
REMARK   10  A    between atoms: N3_18  and  C18_21 
REMARK   11  A    between atoms: C18_21  and  C19_22 
REMARK   12  A    between atoms: C25_30  and  O1_31 
REMARK   13  A    between atoms: C28_36  and  O3_37 
REMARK   14  A    between atoms: C30_40  and  O4_41 
ROOT
HETATM    1  C13 UNL     1      39.265 -19.728  25.629  1.00  0.00     0.019 A 
HETATM    2  C14 UNL     1      38.814 -18.634  24.878  1.00  0.00     0.003 A 
HETATM    3  C25 UNL     1      37.608 -18.678  24.201  1.00  0.00     0.087 A 
HETATM    4  C26 UNL     1      36.838 -19.843  24.284  1.00  0.00     0.038 A 
HETATM    5  C27 UNL     1      35.587 -20.187  23.739  1.00  0.00     0.160 A 
HETATM    6  O2  UNL     1      35.340 -21.371  24.126  1.00  0.00    -0.299 OA
HETATM    7  C28 UNL     1      36.261 -21.888  24.873  1.00  0.00     0.197 A 
HETATM    8  C29 UNL     1      37.251 -20.957  25.017  1.00  0.00     0.071 A 
HETATM    9  C30 UNL     1      38.486 -20.853  25.682  1.00  0.00     0.093 A 
ENDROOT
BRANCH   1  10
HETATM   10  C3  UNL     1      40.614 -19.757  26.212  1.00  0.00    -0.019 C 
HETATM   11  C2  UNL     1      41.783 -19.918  25.666  1.00  0.00    -0.018 C 
HETATM   12  C1  UNL     1      42.269 -20.260  24.351  1.00  0.00     0.037 C 
BRANCH  10  13
HETATM   13  C4  UNL     1      40.636 -19.407  27.650  1.00  0.00     0.064 C 
BRANCH  13  14
HETATM   14  C5  UNL     1      41.001 -20.194  28.636  1.00  0.00    -0.125 C 
BRANCH  14  15
HETATM   15  C6  UNL     1      41.451 -21.114  29.541  1.00  0.00     0.357 C 
BRANCH  15  16
HETATM   16  N1  UNL     1      42.788 -21.606  29.660  1.00  0.00     0.102 N 
HETATM   17  C7  UNL     1      43.755 -20.908  28.838  1.00  0.00     0.303 C 
HETATM   18  C8  UNL     1      44.839 -20.177  29.500  1.00  0.00     0.302 C 
HETATM   19  N2  UNL     1      45.334 -20.728  30.753  1.00  0.00     0.091 N 
HETATM   20  C11 UNL     1      44.809 -22.073  30.963  1.00  0.00     0.302 C 
HETATM   21  C12 UNL     1      43.274 -21.857  30.984  1.00  0.00     0.303 C 
BRANCH  19  22
HETATM   22  C9  UNL     1      46.726 -20.598  30.937  1.00  0.00     0.268 C 
HETATM   23  C10 UNL     1      47.300 -21.683  31.835  1.00  0.00     0.037 C 
ENDBRANCH  19  22
ENDBRANCH  15  16
ENDBRANCH  14  15
ENDBRANCH  13  14
ENDBRANCH  10  13
ENDBRANCH   1  10
BRANCH   2  24
HETATM   24  C15 UNL     1      39.465 -17.378  25.099  1.00  0.00     0.137 C 
BRANCH  24  25
HETATM   25  N3  UNL     1      38.638 -16.132  25.192  1.00  0.00    -0.288 NA
BRANCH  25  26
HETATM   26  C16 UNL     1      39.428 -15.136  24.451  1.00  0.00     0.090 C 
HETATM   27  C17 UNL     1      40.024 -15.478  23.160  1.00  0.00     0.021 C 
ENDBRANCH  25  26
BRANCH  25  28
HETATM   28  C18 UNL     1      38.644 -15.908  26.643  1.00  0.00     0.072 C 
BRANCH  28  29
HETATM   29  C19 UNL     1      37.528 -15.306  27.328  1.00  0.00    -0.008 A 
HETATM   30  C20 UNL     1      37.167 -14.008  27.111  1.00  0.00     0.017 A 
HETATM   31  C21 UNL     1      36.069 -13.443  27.755  1.00  0.00     0.043 A 
HETATM   32  C22 UNL     1      35.347 -14.233  28.623  1.00  0.00     0.117 A 
HETATM   33  F1  UNL     1      34.305 -13.724  29.318  1.00  0.00    -0.206 F 
HETATM   34  C23 UNL     1      35.719 -15.594  28.849  1.00  0.00     0.062 A 
HETATM   35  C24 UNL     1      36.774 -16.076  28.214  1.00  0.00     0.025 A 
HETATM   36 BR1  UNL     1      37.417 -17.885  28.463  1.00  0.00    -0.050 Br
ENDBRANCH  28  29
ENDBRANCH  25  28
ENDBRANCH  24  25
ENDBRANCH   2  24
BRANCH   9  37
HETATM   37  O4  UNL     1      38.859 -21.968  26.403  1.00  0.00    -0.359 OA
ATOM     38  H4  UNL     1      38.220 -22.546  26.803  1.00  0.00     0.217 HD
ENDBRANCH   9  37
BRANCH   3  39
HETATM   39  O1  UNL     1      37.088 -17.651  23.446  1.00  0.00    -0.359 OA
ATOM     40  H1  UNL     1      36.354 -17.732  22.848  1.00  0.00     0.217 HD
ENDBRANCH   3  39
BRANCH   7  41
HETATM   41  O3  UNL     1      36.273 -23.181  25.446  1.00  0.00    -0.340 OA
ATOM     42  H3  UNL     1      37.010 -23.624  25.850  1.00  0.00     0.220 HD
ENDBRANCH   7  41
TORSDOF 14
ENDMDL
MODEL 3
REMARK VINA RESULT: -7.593271015      4.106      7.990
REMARK  14 active torsions:
REMARK  status: ('A' for Active; 'I' for Inactive)
REMARK    1  A    between atoms: C3_3  and  C4_4 
REMARK    2  A    between atoms: C3_3  and  C13_15 
REMARK    3  A    between atoms: C4_4  and  C5_5 
REMARK    4  A    between atoms: C5_5  and  C6_6 
REMARK    5  A    between atoms: C6_6  and  N1_7 
REMARK    6  A    between atoms: N2_10  and  C9_11 
REMARK    7  A    between atoms: C14_16  and  C15_17 
REMARK    8  A    between atoms: C15_17  and  N3_18 
REMARK    9  A    between atoms: N3_18  and  C16_19 
REMARK   10  A    between atoms: N3_18  and  C18_21 
REMARK   11  A    between atoms: C18_21  and  C19_22 
REMARK   12  A    between atoms: C25_30  and  O1_31 
REMARK   13  A    between atoms: C28_36  and  O3_37 
REMARK   14  A    between atoms: C30_40  and  O4_41 
ROOT
HETATM    1  C13 UNL     1      39.051 -19.000  27.160  1.00  0.00     0.019 A 
HETATM    2  C14 UNL     1      38.337 -18.535  26.047  1.00  0.00     0.003 A 
HETATM    3  C25 UNL     1      37.491 -17.443  26.143  1.00  0.00     0.087 A 
HETATM    4  C26 UNL     1      37.364 -16.805  27.381  1.00  0.00     0.038 A 
HETATM    5  C27 UNL     1      36.617 -15.685  27.791  1.00  0.00     0.160 A 
HETATM    6  O2  UNL     1      36.863 -15.522  29.026  1.00  0.00    -0.299 OA
HETATM    7  C28 UNL     1      37.689 -16.386  29.521  1.00  0.00     0.197 A 
HETATM    8  C29 UNL     1      38.053 -17.237  28.515  1.00  0.00     0.071 A 
HETATM    9  C30 UNL     1      38.896 -18.351  28.356  1.00  0.00     0.093 A 
ENDROOT
BRANCH   1  10
HETATM   10  C3  UNL     1      39.819 -20.251  27.112  1.00  0.00    -0.019 C 
HETATM   11  C2  UNL     1      41.039 -20.497  26.737  1.00  0.00    -0.018 C 
HETATM   12  C1  UNL     1      42.095 -19.744  26.104  1.00  0.00     0.037 C 
BRANCH  10  13
HETATM   13  C4  UNL     1      39.110 -21.396  27.727  1.00  0.00     0.064 C 
BRANCH  13  14
HETATM   14  C5  UNL     1      39.654 -22.358  28.437  1.00  0.00    -0.125 C 
BRANCH  14  15
HETATM   15  C6  UNL     1      40.347 -23.247  29.209  1.00  0.00     0.357 C 
BRANCH  15  16
HETATM   16  N1  UNL     1      41.639 -23.044  29.787  1.00  0.00     0.102 N 
HETATM   17  C7  UNL     1      42.743 -23.412  28.924  1.00  0.00     0.303 C 
HETATM   18  C8  UNL     1      43.674 -22.366  28.494  1.00  0.00     0.302 C 
HETATM   19  N2  UNL     1      43.922 -21.281  29.434  1.00  0.00     0.091 N 
HETATM   20  C11 UNL     1      43.374 -21.605  30.747  1.00  0.00     0.302 C 
HETATM   21  C12 UNL     1      41.862 -21.802  30.463  1.00  0.00     0.303 C 
BRANCH  19  22
HETATM   22  C9  UNL     1      45.252 -20.812  29.444  1.00  0.00     0.268 C 
HETATM   23  C10 UNL     1      45.556 -19.946  30.658  1.00  0.00     0.037 C 
ENDBRANCH  19  22
ENDBRANCH  15  16
ENDBRANCH  14  15
ENDBRANCH  13  14
ENDBRANCH  10  13
ENDBRANCH   1  10
BRANCH   2  24
HETATM   24  C15 UNL     1      38.754 -19.005  24.760  1.00  0.00     0.137 C 
BRANCH  24  25
HETATM   25  N3  UNL     1      38.449 -20.417  24.363  1.00  0.00    -0.288 NA
BRANCH  25  26
HETATM   26  C16 UNL     1      38.874 -20.481  22.957  1.00  0.00     0.090 C 
HETATM   27  C17 UNL     1      38.975 -19.260  22.159  1.00  0.00     0.021 C 
ENDBRANCH  25  26
BRANCH  25  28
HETATM   28  C18 UNL     1      36.989 -20.437  24.526  1.00  0.00     0.072 C 
BRANCH  28  29
HETATM   29  C19 UNL     1      36.195 -21.584  24.164  1.00  0.00    -0.008 A 
HETATM   30  C20 UNL     1      36.349 -22.789  24.785  1.00  0.00     0.017 A 
HETATM   31  C21 UNL     1      35.558 -23.885  24.449  1.00  0.00     0.043 A 
HETATM   32  C22 UNL     1      34.604 -23.721  23.467  1.00  0.00     0.117 A 
HETATM   33  F1  UNL     1      33.844 -24.763  23.062  1.00  0.00    -0.206 F 
HETATM   34  C23 UNL     1      34.437 -22.459  22.818  1.00  0.00     0.062 A 
HETATM   35  C24 UNL     1      35.221 -21.455  23.174  1.00  0.00     0.025 A 
HETATM   36 BR1  UNL     1      35.135 -19.708  22.345  1.00  0.00    -0.050 Br
ENDBRANCH  28  29
ENDBRANCH  25  28
ENDBRANCH  24  25
ENDBRANCH   2  24
BRANCH   9  37
HETATM   37  O4  UNL     1      39.568 -18.746  29.494  1.00  0.00    -0.359 OA
ATOM     38  H4  UNL     1      39.998 -18.122  30.067  1.00  0.00     0.217 HD
ENDBRANCH   9  37
BRANCH   3  39
HETATM   39  O1  UNL     1      36.757 -16.919  25.103  1.00  0.00    -0.359 OA
ATOM     40  H1  UNL     1      37.124 -16.557  24.305  1.00  0.00     0.217 HD
ENDBRANCH   3  39
BRANCH   7  41
HETATM   41  O3  UNL     1      38.148 -16.465  30.857  1.00  0.00    -0.340 OA
ATOM     42  H3  UNL     1      38.754 -17.100  31.220  1.00  0.00     0.220 HD
ENDBRANCH   7  41
TORSDOF 14
ENDMDL
MODEL 4
REMARK VINA RESULT: -7.579075196      4.835      8.953
REMARK  14 active torsions:
REMARK  status: ('A' for Active; 'I' for Inactive)
REMARK    1  A    between atoms: C3_3  and  C4_4 
REMARK    2  A    between atoms: C3_3  and  C13_15 
REMARK    3  A    between atoms: C4_4  and  C5_5 
REMARK    4  A    between atoms: C5_5  and  C6_6 
REMARK    5  A    between atoms: C6_6  and  N1_7 
REMARK    6  A    between atoms: N2_10  and  C9_11 
REMARK    7  A    between atoms: C14_16  and  C15_17 
REMARK    8  A    between atoms: C15_17  and  N3_18 
REMARK    9  A    between atoms: N3_18  and  C16_19 
REMARK   10  A    between atoms: N3_18  and  C18_21 
REMARK   11  A    between atoms: C18_21  and  C19_22 
REMARK   12  A    between atoms: C25_30  and  O1_31 
REMARK   13  A    between atoms: C28_36  and  O3_37 
REMARK   14  A    between atoms: C30_40  and  O4_41 
ROOT
HETATM    1  C13 UNL     1      39.088 -18.987  27.253  1.00  0.00     0.019 A 
HETATM    2  C14 UNL     1      38.392 -18.537  26.124  1.00  0.00     0.003 A 
HETATM    3  C25 UNL     1      37.545 -17.444  26.192  1.00  0.00     0.087 A 
HETATM    4  C26 UNL     1      37.398 -16.790  27.420  1.00  0.00     0.038 A 
HETATM    5  C27 UNL     1      36.644 -15.665  27.804  1.00  0.00     0.160 A 
HETATM    6  O2  UNL     1      36.871 -15.486  29.040  1.00  0.00    -0.299 OA
HETATM    7  C28 UNL     1      37.689 -16.343  29.559  1.00  0.00     0.197 A 
HETATM    8  C29 UNL     1      38.069 -17.207  28.570  1.00  0.00     0.071 A 
HETATM    9  C30 UNL     1      38.915 -18.323  28.439  1.00  0.00     0.093 A 
ENDROOT
BRANCH   1  10
HETATM   10  C3  UNL     1      39.857 -20.239  27.234  1.00  0.00    -0.019 C 
HETATM   11  C2  UNL     1      41.080 -20.491  26.873  1.00  0.00    -0.018 C 
HETATM   12  C1  UNL     1      42.141 -19.749  26.236  1.00  0.00     0.037 C 
BRANCH  10  13
HETATM   13  C4  UNL     1      39.143 -21.373  27.863  1.00  0.00     0.064 C 
BRANCH  13  14
HETATM   14  C5  UNL     1      39.687 -22.347  28.557  1.00  0.00    -0.125 C 
BRANCH  14  15
HETATM   15  C6  UNL     1      40.373 -23.244  29.326  1.00  0.00     0.357 C 
BRANCH  15  16
HETATM   16  N1  UNL     1      41.667 -23.056  29.902  1.00  0.00     0.102 N 
HETATM   17  C7  UNL     1      42.765 -23.463  29.049  1.00  0.00     0.303 C 
HETATM   18  C8  UNL     1      43.718 -22.445  28.600  1.00  0.00     0.302 C 
HETATM   19  N2  UNL     1      43.987 -21.347  29.517  1.00  0.00     0.091 N 
HETATM   20  C11 UNL     1      43.430 -21.632  30.835  1.00  0.00     0.302 C 
HETATM   21  C12 UNL     1      41.915 -21.804  30.552  1.00  0.00     0.303 C 
BRANCH  19  22
HETATM   22  C9  UNL     1      45.325 -20.904  29.520  1.00  0.00     0.268 C 
HETATM   23  C10 UNL     1      45.619 -19.939  30.659  1.00  0.00     0.037 C 
ENDBRANCH  19  22
ENDBRANCH  15  16
ENDBRANCH  14  15
ENDBRANCH  13  14
ENDBRANCH  10  13
ENDBRANCH   1  10
BRANCH   2  24
HETATM   24  C15 UNL     1      38.830 -19.024  24.850  1.00  0.00     0.137 C 
BRANCH  24  25
HETATM   25  N3  UNL     1      37.881 -19.819  24.006  1.00  0.00    -0.288 NA
BRANCH  25  26
HETATM   26  C16 UNL     1      38.429 -21.183  24.061  1.00  0.00     0.090 C 
HETATM   27  C17 UNL     1      37.626 -22.281  24.598  1.00  0.00     0.021 C 
ENDBRANCH  25  26
BRANCH  25  28
HETATM   28  C18 UNL     1      38.070 -19.174  22.701  1.00  0.00     0.072 C 
BRANCH  28  29
HETATM   29  C19 UNL     1      36.974 -18.578  21.977  1.00  0.00    -0.008 A 
HETATM   30  C20 UNL     1      35.679 -18.740  22.373  1.00  0.00     0.017 A 
HETATM   31  C21 UNL     1      34.629 -18.138  21.685  1.00  0.00     0.043 A 
HETATM   32  C22 UNL     1      34.932 -17.362  20.586  1.00  0.00     0.117 A 
HETATM   33  F1  UNL     1      33.952 -16.796  19.847  1.00  0.00    -0.206 F 
HETATM   34  C23 UNL     1      36.289 -17.186  20.172  1.00  0.00     0.062 A 
HETATM   35  C24 UNL     1      37.245 -17.787  20.860  1.00  0.00     0.025 A 
HETATM   36 BR1  UNL     1      39.117 -17.673  20.382  1.00  0.00    -0.050 Br
ENDBRANCH  28  29
ENDBRANCH  25  28
ENDBRANCH  24  25
ENDBRANCH   2  24
BRANCH   9  37
HETATM   37  O4  UNL     1      39.568 -18.703  29.592  1.00  0.00    -0.359 OA
ATOM     38  H4  UNL     1      40.154 -18.116  30.056  1.00  0.00     0.217 HD
ENDBRANCH   9  37
BRANCH   3  39
HETATM   39  O1  UNL     1      36.827 -16.934  25.134  1.00  0.00    -0.359 OA
ATOM     40  H1  UNL     1      36.162 -17.407  24.648  1.00  0.00     0.217 HD
ENDBRANCH   3  39
BRANCH   7  41
HETATM   41  O3  UNL     1      38.127 -16.405  30.903  1.00  0.00    -0.340 OA
ATOM     42  H3  UNL     1      37.592 -16.349  31.686  1.00  0.00     0.220 HD
ENDBRANCH   7  41
TORSDOF 14
ENDMDL
MODEL 5
REMARK VINA RESULT: -7.571908861      2.099      2.303
REMARK  14 active torsions:
REMARK  status: ('A' for Active; 'I' for Inactive)
REMARK    1  A    between atoms: C3_3  and  C4_4 
REMARK    2  A    between atoms: C3_3  and  C13_15 
REMARK    3  A    between atoms: C4_4  and  C5_5 
REMARK    4  A    between atoms: C5_5  and  C6_6 
REMARK    5  A    between atoms: C6_6  and  N1_7 
REMARK    6  A    between atoms: N2_10  and  C9_11 
REMARK    7  A    between atoms: C14_16  and  C15_17 
REMARK    8  A    between atoms: C15_17  and  N3_18 
REMARK    9  A    between atoms: N3_18  and  C16_19 
REMARK   10  A    between atoms: N3_18  and  C18_21 
REMARK   11  A    between atoms: C18_21  and  C19_22 
REMARK   12  A    between atoms: C25_30  and  O1_31 
REMARK   13  A    between atoms: C28_36  and  O3_37 
REMARK   14  A    between atoms: C30_40  and  O4_41 
ROOT
HETATM    1  C13 UNL     1      36.739 -20.888  23.790  1.00  0.00     0.019 A 
HETATM    2  C14 UNL     1      37.400 -21.732  24.692  1.00  0.00     0.003 A 
HETATM    3  C25 UNL     1      36.916 -22.997  24.977  1.00  0.00     0.087 A 
HETATM    4  C26 UNL     1      35.746 -23.423  24.338  1.00  0.00     0.038 A 
HETATM    5  C27 UNL     1      35.026 -24.631  24.398  1.00  0.00     0.160 A 
HETATM    6  O2  UNL     1      34.036 -24.497  23.615  1.00  0.00    -0.299 OA
HETATM    7  C28 UNL     1      33.982 -23.350  23.018  1.00  0.00     0.197 A 
HETATM    8  C29 UNL     1      35.054 -22.614  23.436  1.00  0.00     0.071 A 
HETATM    9  C30 UNL     1      35.594 -21.339  23.188  1.00  0.00     0.093 A 
ENDROOT
BRANCH   1  10
HETATM   10  C3  UNL     1      37.147 -19.488  23.607  1.00  0.00    -0.019 C 
HETATM   11  C2  UNL     1      37.784 -18.899  22.638  1.00  0.00    -0.018 C 
HETATM   12  C1  UNL     1      38.465 -19.327  21.440  1.00  0.00     0.037 C 
BRANCH  10  13
HETATM   13  C4  UNL     1      36.617 -18.583  24.651  1.00  0.00     0.064 C 
BRANCH  13  14
HETATM   14  C5  UNL     1      37.178 -17.474  25.077  1.00  0.00    -0.125 C 
BRANCH  14  15
HETATM   15  C6  UNL     1      37.833 -16.417  25.643  1.00  0.00     0.357 C 
BRANCH  15  16
HETATM   16  N1  UNL     1      37.609 -15.879  26.947  1.00  0.00     0.102 N 
HETATM   17  C7  UNL     1      37.556 -14.432  26.995  1.00  0.00     0.303 C 
HETATM   18  C8  UNL     1      36.306 -13.790  27.410  1.00  0.00     0.302 C 
HETATM   19  N2  UNL     1      35.499 -14.499  28.394  1.00  0.00     0.091 N 
HETATM   20  C11 UNL     1      36.251 -15.609  28.969  1.00  0.00     0.302 C 
HETATM   21  C12 UNL     1      36.583 -16.490  27.738  1.00  0.00     0.303 C 
BRANCH  19  22
HETATM   22  C9  UNL     1      34.860 -13.664  29.333  1.00  0.00     0.268 C 
HETATM   23  C10 UNL     1      33.601 -14.293  29.911  1.00  0.00     0.037 C 
ENDBRANCH  19  22
ENDBRANCH  15  16
ENDBRANCH  14  15
ENDBRANCH  13  14
ENDBRANCH  10  13
ENDBRANCH   1  10
BRANCH   2  24
HETATM   24  C15 UNL     1      38.742 -21.383  25.051  1.00  0.00     0.137 C 
BRANCH  24  25
HETATM   25  N3  UNL     1      39.071 -21.124  26.489  1.00  0.00    -0.288 NA
BRANCH  25  26
HETATM   26  C16 UNL     1      39.483 -19.712  26.501  1.00  0.00     0.090 C 
HETATM   27  C17 UNL     1      40.428 -19.210  25.503  1.00  0.00     0.021 C 
ENDBRANCH  25  26
BRANCH  25  28
HETATM   28  C18 UNL     1      40.191 -22.053  26.685  1.00  0.00     0.072 C 
BRANCH  28  29
HETATM   29  C19 UNL     1      40.996 -22.038  27.880  1.00  0.00    -0.008 A 
HETATM   30  C20 UNL     1      40.442 -22.148  29.122  1.00  0.00     0.017 A 
HETATM   31  C21 UNL     1      41.230 -22.162  30.270  1.00  0.00     0.043 A 
HETATM   32  C22 UNL     1      42.597 -22.063  30.121  1.00  0.00     0.117 A 
HETATM   33  F1  UNL     1      43.408 -22.017  31.202  1.00  0.00    -0.206 F 
HETATM   34  C23 UNL     1      43.181 -21.952  28.822  1.00  0.00     0.062 A 
HETATM   35  C24 UNL     1      42.384 -21.939  27.767  1.00  0.00     0.025 A 
HETATM   36 BR1  UNL     1      43.037 -21.746  25.955  1.00  0.00    -0.050 Br
ENDBRANCH  28  29
ENDBRANCH  25  28
ENDBRANCH  24  25
ENDBRANCH   2  24
BRANCH   9  37
HETATM   37  O4  UNL     1      34.891 -20.569  22.286  1.00  0.00    -0.359 OA
ATOM     38  H4  UNL     1      35.323 -19.952  21.706  1.00  0.00     0.217 HD
ENDBRANCH   9  37
BRANCH   3  39
HETATM   39  O1  UNL     1      37.501 -23.890  25.845  1.00  0.00    -0.359 OA
ATOM     40  H1  UNL     1      37.228 -24.792  25.966  1.00  0.00     0.217 HD
ENDBRANCH   3  39
BRANCH   7  41
HETATM   41  O3  UNL     1      33.001 -22.907  22.100  1.00  0.00    -0.340 OA
ATOM     42  H3  UNL     1      32.198 -22.439  22.296  1.00  0.00     0.220 HD
ENDBRANCH   7  41
TORSDOF 14
ENDMDL
