MODEL 1
REMARK VINA RESULT: -8.081023265      0.000      0.000
REMARK  13 active torsions:
REMARK  status: ('A' for Active; 'I' for Inactive)
REMARK    1  A    between atoms: C2_2  and  C3_3 
REMARK    2  A    between atoms: C4_4  and  O1_5 
REMARK    3  A    between atoms: C8_10  and  O3_11 
REMARK    4  A    between atoms: O3_11  and  C9_12 
REMARK    5  A    between atoms: C9_12  and  C10_13 
REMARK    6  A    between atoms: C11_14  and  O4_15 
REMARK    7  A    between atoms: C11_14  and  S1_17 
REMARK    8  A    between atoms: S1_17  and  C12_18 
REMARK    9  A    between atoms: C12_18  and  C13_19 
REMARK   10  A    between atoms: C14_21  and  C15_22 
REMARK   11  A    between atoms: C15_22  and  C16_23 
REMARK   12  A    between atoms: C27_36  and  O6_37 
REMARK   13  A    between atoms: C28_39  and  O7_41 
ROOT
HETATM    1  C10 UNL     1      36.189 -21.166  25.721  1.00  0.00     0.043 C 
HETATM    2  C11 UNL     1      36.743 -20.152  26.398  1.00  0.00     0.101 C 
ENDROOT
BRANCH   2   3
HETATM    3  O4  UNL     1      37.005 -20.410  27.730  1.00  0.00    -0.354 OA
ATOM      4  H4  UNL     1      37.746 -19.941  28.094  1.00  0.00     0.218 HD
ENDBRANCH   2   3
BRANCH   2   5
HETATM    5  S1  UNL     1      37.111 -18.614  25.678  1.00  0.00    -0.103 SA
BRANCH   5   6
HETATM    6  C12 UNL     1      38.795 -18.203  25.312  1.00  0.00     0.118 C 
BRANCH   6   7
HETATM    7  C13 UNL     1      39.686 -17.875  26.478  1.00  0.00     0.161 C 
HETATM    8  O5  UNL     1      39.100 -17.002  27.323  1.00  0.00    -0.375 OA
HETATM    9  C14 UNL     1      38.424 -17.467  28.404  1.00  0.00     0.129 C 
HETATM   10  C18 UNL     1      39.279 -18.298  29.301  1.00  0.00     0.066 C 
HETATM   11  C19 UNL     1      40.074 -19.237  28.463  1.00  0.00    -0.072 C 
HETATM   12  C20 UNL     1      40.264 -19.046  27.167  1.00  0.00    -0.040 C 
HETATM   13  C26 UNL     1      40.616 -20.406  29.222  1.00  0.00     0.034 C 
HETATM   14  C21 UNL     1      41.106 -20.067  26.474  1.00  0.00    -0.021 C 
HETATM   15  C22 UNL     1      40.271 -21.311  26.300  1.00  0.00     0.019 C 
HETATM   16  C23 UNL     1      41.657 -19.660  25.161  1.00  0.00     0.019 C 
HETATM   17  C24 UNL     1      42.312 -20.316  27.394  1.00  0.00     0.013 C 
HETATM   18  C25 UNL     1      41.776 -21.078  28.568  1.00  0.00     0.005 C 
BRANCH   9  19
HETATM   19  C15 UNL     1      37.904 -16.317  29.250  1.00  0.00     0.062 C 
BRANCH  19  20
HETATM   20  C16 UNL     1      37.699 -15.150  28.350  1.00  0.00     0.012 C 
HETATM   21  C17 UNL     1      36.520 -14.581  28.176  1.00  0.00     0.099 C 
HETATM   22 CL1  UNL     1      36.338 -13.218  27.110  1.00  0.00    -0.071 Cl
HETATM   23 CL2  UNL     1      35.115 -15.202  29.030  1.00  0.00    -0.071 Cl
ENDBRANCH  19  20
ENDBRANCH   9  19
ENDBRANCH   6   7
ENDBRANCH   5   6
ENDBRANCH   2   5
BRANCH   1  24
HETATM   24  C9  UNL     1      35.829 -21.108  24.293  1.00  0.00     0.202 C 
BRANCH  24  25
HETATM   25  O3  UNL     1      35.590 -22.340  23.705  1.00  0.00    -0.355 OA
BRANCH  25  26
HETATM   26  C8  UNL     1      35.876 -23.435  24.471  1.00  0.00     0.292 C 
HETATM   27  O2  UNL     1      37.126 -23.986  24.196  1.00  0.00    -0.351 OA
HETATM   28  C6  UNL     1      37.459 -23.964  22.878  1.00  0.00     0.150 C 
HETATM   29  C4  UNL     1      36.615 -24.765  21.959  1.00  0.00     0.160 C 
HETATM   30  C7  UNL     1      38.953 -24.280  22.752  1.00  0.00     0.042 C 
HETATM   31  C3  UNL     1      35.921 -25.960  22.525  1.00  0.00     0.076 C 
HETATM   32  C28 UNL     1      35.463 -25.868  23.931  1.00  0.00     0.094 C 
HETATM   33  C27 UNL     1      34.858 -24.526  24.284  1.00  0.00     0.208 C 
HETATM   34  C29 UNL     1      36.461 -26.345  24.958  1.00  0.00     0.049 C 
BRANCH  29  35
HETATM   35  O1  UNL     1      37.442 -25.231  20.935  1.00  0.00    -0.387 OA
HETATM   36  C5  UNL     1      37.027 -24.792  19.702  1.00  0.00     0.202 C 
ENDBRANCH  29  35
BRANCH  31  37
HETATM   37  C2  UNL     1      36.695 -27.217  22.343  1.00  0.00    -0.027 C 
HETATM   38  C1  UNL     1      36.163 -28.235  21.675  1.00  0.00     0.007 C 
ENDBRANCH  31  37
BRANCH  32  39
HETATM   39  O7  UNL     1      34.369 -26.771  24.057  1.00  0.00    -0.387 OA
ATOM     40  H7  UNL     1      34.030 -26.659  24.937  1.00  0.00     0.210 HD
ENDBRANCH  32  39
BRANCH  33  41
HETATM   41  O6  UNL     1      33.957 -24.172  23.314  1.00  0.00    -0.388 OA
ATOM     42  H6  UNL     1      33.217 -24.767  23.320  1.00  0.00     0.210 HD
ENDBRANCH  33  41
ENDBRANCH  25  26
ENDBRANCH  24  25
ENDBRANCH   1  24
TORSDOF 13
ENDMDL
MODEL 2
REMARK VINA RESULT: -8.072930563      2.915      9.048
REMARK  13 active torsions:
REMARK  status: ('A' for Active; 'I' for Inactive)
REMARK    1  A    between atoms: C2_2  and  C3_3 
REMARK    2  A    between atoms: C4_4  and  O1_5 
REMARK    3  A    between atoms: C8_10  and  O3_11 
REMARK    4  A    between atoms: O3_11  and  C9_12 
REMARK    5  A    between atoms: C9_12  and  C10_13 
REMARK    6  A    between atoms: C11_14  and  O4_15 
REMARK    7  A    between atoms: C11_14  and  S1_17 
REMARK    8  A    between atoms: S1_17  and  C12_18 
REMARK    9  A    between atoms: C12_18  and  C13_19 
REMARK   10  A    between atoms: C14_21  and  C15_22 
REMARK   11  A    between atoms: C15_22  and  C16_23 
REMARK   12  A    between atoms: C27_36  and  O6_37 
REMARK   13  A    between atoms: C28_39  and  O7_41 
ROOT
HETATM    1  C10 UNL     1      38.085 -21.370  26.827  1.00  0.00     0.043 C 
HETATM    2  C11 UNL     1      39.012 -22.204  26.339  1.00  0.00     0.101 C 
ENDROOT
BRANCH   2   3
HETATM    3  O4  UNL     1      39.760 -22.872  27.291  1.00  0.00    -0.354 OA
ATOM      4  H4  UNL     1      39.769 -22.470  28.151  1.00  0.00     0.218 HD
ENDBRANCH   2   3
BRANCH   2   5
HETATM    5  S1  UNL     1      39.276 -22.446  24.638  1.00  0.00    -0.103 SA
BRANCH   5   6
HETATM    6  C12 UNL     1      38.262 -23.596  23.752  1.00  0.00     0.118 C 
BRANCH   6   7
HETATM    7  C13 UNL     1      36.898 -23.880  24.318  1.00  0.00     0.161 C 
HETATM    8  O5  UNL     1      36.012 -22.918  23.991  1.00  0.00    -0.375 OA
HETATM    9  C14 UNL     1      35.222 -23.078  22.899  1.00  0.00     0.129 C 
HETATM   10  C18 UNL     1      34.384 -24.311  22.974  1.00  0.00     0.066 C 
HETATM   11  C19 UNL     1      35.237 -25.437  23.444  1.00  0.00    -0.072 C 
HETATM   12  C20 UNL     1      36.392 -25.244  24.063  1.00  0.00    -0.040 C 
HETATM   13  C26 UNL     1      34.670 -26.787  23.140  1.00  0.00     0.034 C 
HETATM   14  C21 UNL     1      37.116 -26.478  24.493  1.00  0.00    -0.021 C 
HETATM   15  C22 UNL     1      37.729 -27.102  23.266  1.00  0.00     0.019 C 
HETATM   16  C23 UNL     1      38.165 -26.280  25.519  1.00  0.00     0.019 C 
HETATM   17  C24 UNL     1      36.054 -27.391  25.125  1.00  0.00     0.013 C 
HETATM   18  C25 UNL     1      35.215 -27.887  23.987  1.00  0.00     0.005 C 
BRANCH   9  19
HETATM   19  C15 UNL     1      34.258 -21.912  22.755  1.00  0.00     0.062 C 
BRANCH  19  20
HETATM   20  C16 UNL     1      35.058 -20.658  22.787  1.00  0.00     0.012 C 
HETATM   21  C17 UNL     1      35.890 -20.318  21.820  1.00  0.00     0.099 C 
HETATM   22 CL1  UNL     1      36.802 -18.839  21.909  1.00  0.00    -0.071 Cl
HETATM   23 CL2  UNL     1      36.083 -21.367  20.423  1.00  0.00    -0.071 Cl
ENDBRANCH  19  20
ENDBRANCH   9  19
ENDBRANCH   6   7
ENDBRANCH   5   6
ENDBRANCH   2   5
BRANCH   1  24
HETATM   24  C9  UNL     1      37.178 -20.562  25.992  1.00  0.00     0.202 C 
BRANCH  24  25
HETATM   25  O3  UNL     1      37.061 -19.237  26.380  1.00  0.00    -0.355 OA
BRANCH  25  26
HETATM   26  C8  UNL     1      38.159 -18.451  26.168  1.00  0.00     0.292 C 
HETATM   27  O2  UNL     1      38.676 -17.902  27.340  1.00  0.00    -0.351 OA
HETATM   28  C6  UNL     1      37.725 -17.527  28.238  1.00  0.00     0.150 C 
HETATM   29  C4  UNL     1      36.805 -16.439  27.826  1.00  0.00     0.160 C 
HETATM   30  C7  UNL     1      38.410 -17.259  29.582  1.00  0.00     0.042 C 
HETATM   31  C3  UNL     1      37.311 -15.450  26.828  1.00  0.00     0.076 C 
HETATM   32  C28 UNL     1      38.242 -15.954  25.792  1.00  0.00     0.094 C 
HETATM   33  C27 UNL     1      37.854 -17.309  25.239  1.00  0.00     0.208 C 
HETATM   34  C29 UNL     1      39.705 -15.871  26.156  1.00  0.00     0.049 C 
BRANCH  29  35
HETATM   35  O1  UNL     1      36.476 -15.716  28.974  1.00  0.00    -0.387 OA
HETATM   36  C5  UNL     1      35.130 -15.456  29.045  1.00  0.00     0.202 C 
ENDBRANCH  29  35
BRANCH  31  37
HETATM   37  C2  UNL     1      37.893 -14.237  27.462  1.00  0.00    -0.027 C 
HETATM   38  C1  UNL     1      37.303 -13.057  27.309  1.00  0.00     0.007 C 
ENDBRANCH  31  37
BRANCH  32  39
HETATM   39  O7  UNL     1      38.107 -15.085  24.673  1.00  0.00    -0.387 OA
ATOM     40  H7  UNL     1      38.909 -14.578  24.630  1.00  0.00     0.210 HD
ENDBRANCH  32  39
BRANCH  33  41
HETATM   41  O6  UNL     1      36.521 -17.298  24.922  1.00  0.00    -0.388 OA
ATOM     42  H6  UNL     1      35.996 -17.309  25.712  1.00  0.00     0.210 HD
ENDBRANCH  33  41
ENDBRANCH  25  26
ENDBRANCH  24  25
ENDBRANCH   1  24
TORSDOF 13
ENDMDL
MODEL 3
REMARK VINA RESULT: -7.809341593      1.078      1.512
REMARK  13 active torsions:
REMARK  status: ('A' for Active; 'I' for Inactive)
REMARK    1  A    between atoms: C2_2  and  C3_3 
REMARK    2  A    between atoms: C4_4  and  O1_5 
REMARK    3  A    between atoms: C8_10  and  O3_11 
REMARK    4  A    between atoms: O3_11  and  C9_12 
REMARK    5  A    between atoms: C9_12  and  C10_13 
REMARK    6  A    between atoms: C11_14  and  O4_15 
REMARK    7  A    between atoms: C11_14  and  S1_17 
REMARK    8  A    between atoms: S1_17  and  C12_18 
REMARK    9  A    between atoms: C12_18  and  C13_19 
REMARK   10  A    between atoms: C14_21  and  C15_22 
REMARK   11  A    between atoms: C15_22  and  C16_23 
REMARK   12  A    between atoms: C27_36  and  O6_37 
REMARK   13  A    between atoms: C28_39  and  O7_41 
ROOT
HETATM    1  C10 UNL     1      35.584 -19.992  23.418  1.00  0.00     0.043 C 
HETATM    2  C11 UNL     1      36.148 -18.793  23.615  1.00  0.00     0.101 C 
ENDROOT
BRANCH   2   3
HETATM    3  O4  UNL     1      35.852 -17.841  22.657  1.00  0.00    -0.354 OA
ATOM      4  H4  UNL     1      36.400 -17.066  22.677  1.00  0.00     0.218 HD
ENDBRANCH   2   3
BRANCH   2   5
HETATM    5  S1  UNL     1      37.181 -18.437  24.966  1.00  0.00    -0.103 SA
BRANCH   5   6
HETATM    6  C12 UNL     1      38.792 -17.760  24.678  1.00  0.00     0.118 C 
BRANCH   6   7
HETATM    7  C13 UNL     1      39.596 -17.372  25.888  1.00  0.00     0.161 C 
HETATM    8  O5  UNL     1      39.071 -16.298  26.512  1.00  0.00    -0.375 OA
HETATM    9  C14 UNL     1      38.220 -16.478  27.553  1.00  0.00     0.129 C 
HETATM   10  C18 UNL     1      38.832 -17.261  28.666  1.00  0.00     0.066 C 
HETATM   11  C19 UNL     1      39.551 -18.428  28.085  1.00  0.00    -0.072 C 
HETATM   12  C20 UNL     1      39.905 -18.483  26.810  1.00  0.00    -0.040 C 
HETATM   13  C26 UNL     1      39.818 -19.519  29.072  1.00  0.00     0.034 C 
HETATM   14  C21 UNL     1      40.642 -19.712  26.390  1.00  0.00    -0.021 C 
HETATM   15  C22 UNL     1      39.643 -20.837  26.296  1.00  0.00     0.019 C 
HETATM   16  C23 UNL     1      41.385 -19.609  25.114  1.00  0.00     0.019 C 
HETATM   17  C24 UNL     1      41.689 -19.972  27.485  1.00  0.00     0.013 C 
HETATM   18  C25 UNL     1      40.918 -20.447  28.679  1.00  0.00     0.005 C 
BRANCH   9  19
HETATM   19  C15 UNL     1      37.803 -15.142  28.146  1.00  0.00     0.062 C 
BRANCH  19  20
HETATM   20  C16 UNL     1      36.506 -15.343  28.846  1.00  0.00     0.012 C 
HETATM   21  C17 UNL     1      35.482 -14.524  28.700  1.00  0.00     0.099 C 
HETATM   22 CL1  UNL     1      33.986 -14.807  29.544  1.00  0.00    -0.071 Cl
HETATM   23 CL2  UNL     1      35.622 -13.128  27.641  1.00  0.00    -0.071 Cl
ENDBRANCH  19  20
ENDBRANCH   9  19
ENDBRANCH   6   7
ENDBRANCH   5   6
ENDBRANCH   2   5
BRANCH   1  24
HETATM   24  C9  UNL     1      35.764 -21.148  24.314  1.00  0.00     0.202 C 
BRANCH  24  25
HETATM   25  O3  UNL     1      35.514 -22.378  23.730  1.00  0.00    -0.355 OA
BRANCH  25  26
HETATM   26  C8  UNL     1      35.771 -23.475  24.505  1.00  0.00     0.292 C 
HETATM   27  O2  UNL     1      37.042 -24.006  24.299  1.00  0.00    -0.351 OA
HETATM   28  C6  UNL     1      37.450 -23.971  23.002  1.00  0.00     0.150 C 
HETATM   29  C4  UNL     1      36.672 -24.778  22.032  1.00  0.00     0.160 C 
HETATM   30  C7  UNL     1      38.953 -24.266  22.960  1.00  0.00     0.042 C 
HETATM   31  C3  UNL     1      35.963 -25.986  22.551  1.00  0.00     0.076 C 
HETATM   32  C28 UNL     1      35.425 -25.910  23.929  1.00  0.00     0.094 C 
HETATM   33  C27 UNL     1      34.781 -24.578  24.253  1.00  0.00     0.208 C 
HETATM   34  C29 UNL     1      36.369 -26.379  25.009  1.00  0.00     0.049 C 
BRANCH  29  35
HETATM   35  O1  UNL     1      37.563 -25.227  21.055  1.00  0.00    -0.387 OA
HETATM   36  C5  UNL     1      37.212 -24.787  19.802  1.00  0.00     0.202 C 
ENDBRANCH  29  35
BRANCH  31  37
HETATM   37  C2  UNL     1      36.764 -27.232  22.406  1.00  0.00    -0.027 C 
HETATM   38  C1  UNL     1      36.321 -28.223  21.642  1.00  0.00     0.007 C 
ENDBRANCH  31  37
BRANCH  32  39
HETATM   39  O7  UNL     1      34.338 -26.828  23.987  1.00  0.00    -0.387 OA
ATOM     40  H7  UNL     1      34.720 -27.697  23.953  1.00  0.00     0.210 HD
ENDBRANCH  32  39
BRANCH  33  41
HETATM   41  O6  UNL     1      33.933 -24.231  23.235  1.00  0.00    -0.388 OA
ATOM     42  H6  UNL     1      33.330 -24.942  23.053  1.00  0.00     0.210 HD
ENDBRANCH  33  41
ENDBRANCH  25  26
ENDBRANCH  24  25
ENDBRANCH   1  24
TORSDOF 13
ENDMDL
MODEL 4
REMARK VINA RESULT: -7.759115348      1.930      3.329
REMARK  13 active torsions:
REMARK  status: ('A' for Active; 'I' for Inactive)
REMARK    1  A    between atoms: C2_2  and  C3_3 
REMARK    2  A    between atoms: C4_4  and  O1_5 
REMARK    3  A    between atoms: C8_10  and  O3_11 
REMARK    4  A    between atoms: O3_11  and  C9_12 
REMARK    5  A    between atoms: C9_12  and  C10_13 
REMARK    6  A    between atoms: C11_14  and  O4_15 
REMARK    7  A    between atoms: C11_14  and  S1_17 
REMARK    8  A    between atoms: S1_17  and  C12_18 
REMARK    9  A    between atoms: C12_18  and  C13_19 
REMARK   10  A    between atoms: C14_21  and  C15_22 
REMARK   11  A    between atoms: C15_22  and  C16_23 
REMARK   12  A    between atoms: C27_36  and  O6_37 
REMARK   13  A    between atoms: C28_39  and  O7_41 
ROOT
HETATM    1  C10 UNL     1      38.729 -18.503  21.782  1.00  0.00     0.043 C 
HETATM    2  C11 UNL     1      38.653 -17.332  22.428  1.00  0.00     0.101 C 
ENDROOT
BRANCH   2   3
HETATM    3  O4  UNL     1      37.897 -16.362  21.797  1.00  0.00    -0.354 OA
ATOM      4  H4  UNL     1      38.270 -15.489  21.810  1.00  0.00     0.218 HD
ENDBRANCH   2   3
BRANCH   2   5
HETATM    5  S1  UNL     1      39.441 -17.029  23.948  1.00  0.00    -0.103 SA
BRANCH   5   6
HETATM    6  C12 UNL     1      39.066 -18.053  25.344  1.00  0.00     0.118 C 
BRANCH   6   7
HETATM    7  C13 UNL     1      39.877 -17.830  26.591  1.00  0.00     0.161 C 
HETATM    8  O5  UNL     1      39.260 -16.985  27.442  1.00  0.00    -0.375 OA
HETATM    9  C14 UNL     1      38.487 -17.485  28.439  1.00  0.00     0.129 C 
HETATM   10  C18 UNL     1      39.241 -18.401  29.345  1.00  0.00     0.066 C 
HETATM   11  C19 UNL     1      40.064 -19.320  28.512  1.00  0.00    -0.072 C 
HETATM   12  C20 UNL     1      40.359 -19.062  27.247  1.00  0.00    -0.040 C 
HETATM   13  C26 UNL     1      40.505 -20.552  29.235  1.00  0.00     0.034 C 
HETATM   14  C21 UNL     1      41.215 -20.073  26.557  1.00  0.00    -0.021 C 
HETATM   15  C22 UNL     1      40.352 -21.270  26.246  1.00  0.00     0.019 C 
HETATM   16  C23 UNL     1      41.878 -19.611  25.316  1.00  0.00     0.019 C 
HETATM   17  C24 UNL     1      42.337 -20.423  27.547  1.00  0.00     0.013 C 
HETATM   18  C25 UNL     1      41.686 -21.231  28.628  1.00  0.00     0.005 C 
BRANCH   9  19
HETATM   19  C15 UNL     1      37.946 -16.367  29.314  1.00  0.00     0.062 C 
BRANCH  19  20
HETATM   20  C16 UNL     1      37.739 -15.175  28.448  1.00  0.00     0.012 C 
HETATM   21  C17 UNL     1      36.552 -14.629  28.256  1.00  0.00     0.099 C 
HETATM   22 CL1  UNL     1      36.368 -13.235  27.231  1.00  0.00    -0.071 Cl
HETATM   23 CL2  UNL     1      35.137 -15.313  29.044  1.00  0.00    -0.071 Cl
ENDBRANCH  19  20
ENDBRANCH   9  19
ENDBRANCH   6   7
ENDBRANCH   5   6
ENDBRANCH   2   5
BRANCH   1  24
HETATM   24  C9  UNL     1      39.480 -19.672  22.275  1.00  0.00     0.202 C 
BRANCH  24  25
HETATM   25  O3  UNL     1      38.696 -20.678  22.814  1.00  0.00    -0.355 OA
BRANCH  25  26
HETATM   26  C8  UNL     1      37.344 -20.521  22.684  1.00  0.00     0.292 C 
HETATM   27  O2  UNL     1      36.660 -20.625  23.893  1.00  0.00    -0.351 OA
HETATM   28  C6  UNL     1      37.164 -21.572  24.730  1.00  0.00     0.150 C 
HETATM   29  C4  UNL     1      37.094 -22.980  24.270  1.00  0.00     0.160 C 
HETATM   30  C7  UNL     1      36.552 -21.362  26.120  1.00  0.00     0.042 C 
HETATM   31  C3  UNL     1      36.001 -23.341  23.318  1.00  0.00     0.076 C 
HETATM   32  C28 UNL     1      35.591 -22.306  22.341  1.00  0.00     0.094 C 
HETATM   33  C27 UNL     1      36.753 -21.540  21.749  1.00  0.00     0.208 C 
HETATM   34  C29 UNL     1      34.471 -21.404  22.802  1.00  0.00     0.049 C 
BRANCH  29  35
HETATM   35  O1  UNL     1      36.918 -23.779  25.402  1.00  0.00    -0.387 OA
HETATM   36  C5  UNL     1      37.916 -24.714  25.527  1.00  0.00     0.202 C 
ENDBRANCH  29  35
BRANCH  31  37
HETATM   37  C2  UNL     1      34.793 -23.876  24.003  1.00  0.00    -0.027 C 
HETATM   38  C1  UNL     1      34.409 -25.130  23.791  1.00  0.00     0.007 C 
ENDBRANCH  31  37
BRANCH  32  39
HETATM   39  O7  UNL     1      35.046 -23.002  21.225  1.00  0.00    -0.387 OA
ATOM     40  H7  UNL     1      34.242 -22.552  20.995  1.00  0.00     0.210 HD
ENDBRANCH  32  39
BRANCH  33  41
HETATM   41  O6  UNL     1      37.716 -22.427  21.345  1.00  0.00    -0.388 OA
ATOM     42  H6  UNL     1      37.496 -23.304  21.634  1.00  0.00     0.210 HD
ENDBRANCH  33  41
ENDBRANCH  25  26
ENDBRANCH  24  25
ENDBRANCH   1  24
TORSDOF 13
ENDMDL
MODEL 5
REMARK VINA RESULT: -7.753777812      1.804      2.864
REMARK  13 active torsions:
REMARK  status: ('A' for Active; 'I' for Inactive)
REMARK    1  A    between atoms: C2_2  and  C3_3 
REMARK    2  A    between atoms: C4_4  and  O1_5 
REMARK    3  A    between atoms: C8_10  and  O3_11 
REMARK    4  A    between atoms: O3_11  and  C9_12 
REMARK    5  A    between atoms: C9_12  and  C10_13 
REMARK    6  A    between atoms: C11_14  and  O4_15 
REMARK    7  A    between atoms: C11_14  and  S1_17 
REMARK    8  A    between atoms: S1_17  and  C12_18 
REMARK    9  A    between atoms: C12_18  and  C13_19 
REMARK   10  A    between atoms: C14_21  and  C15_22 
REMARK   11  A    between atoms: C15_22  and  C16_23 
REMARK   12  A    between atoms: C27_36  and  O6_37 
REMARK   13  A    between atoms: C28_39  and  O7_41 
ROOT
HETATM    1  C10 UNL     1      35.841 -19.360  21.472  1.00  0.00     0.043 C 
HETATM    2  C11 UNL     1      36.067 -18.540  22.506  1.00  0.00     0.101 C 
ENDROOT
BRANCH   2   3
HETATM    3  O4  UNL     1      35.011 -17.714  22.842  1.00  0.00    -0.354 OA
ATOM      4  H4  UNL     1      35.258 -16.866  23.192  1.00  0.00     0.218 HD
ENDBRANCH   2   3
BRANCH   2   5
HETATM    5  S1  UNL     1      37.570 -18.498  23.378  1.00  0.00    -0.103 SA
BRANCH   5   6
HETATM    6  C12 UNL     1      37.568 -18.734  25.133  1.00  0.00     0.118 C 
BRANCH   6   7
HETATM    7  C13 UNL     1      38.634 -18.022  25.919  1.00  0.00     0.161 C 
HETATM    8  O5  UNL     1      38.199 -16.834  26.387  1.00  0.00    -0.375 OA
HETATM    9  C14 UNL     1      37.693 -16.754  27.644  1.00  0.00     0.129 C 
HETATM   10  C18 UNL     1      38.667 -17.201  28.683  1.00  0.00     0.066 C 
HETATM   11  C19 UNL     1      39.309 -18.462  28.220  1.00  0.00    -0.072 C 
HETATM   12  C20 UNL     1      39.297 -18.843  26.952  1.00  0.00    -0.040 C 
HETATM   13  C26 UNL     1      39.947 -19.249  29.321  1.00  0.00     0.034 C 
HETATM   14  C21 UNL     1      40.007 -20.121  26.648  1.00  0.00    -0.021 C 
HETATM   15  C22 UNL     1      39.139 -21.255  27.131  1.00  0.00     0.019 C 
HETATM   16  C23 UNL     1      40.352 -20.340  25.225  1.00  0.00     0.019 C 
HETATM   17  C24 UNL     1      41.338 -20.058  27.414  1.00  0.00     0.013 C 
HETATM   18  C25 UNL     1      40.981 -20.220  28.860  1.00  0.00     0.005 C 
BRANCH   9  19
HETATM   19  C15 UNL     1      37.327 -15.320  27.987  1.00  0.00     0.062 C 
BRANCH  19  20
HETATM   20  C16 UNL     1      36.095 -15.355  28.820  1.00  0.00     0.012 C 
HETATM   21  C17 UNL     1      35.169 -14.415  28.765  1.00  0.00     0.099 C 
HETATM   22 CL1  UNL     1      33.746 -14.507  29.762  1.00  0.00    -0.071 Cl
HETATM   23 CL2  UNL     1      35.370 -13.053  27.672  1.00  0.00    -0.071 Cl
ENDBRANCH  19  20
ENDBRANCH   9  19
ENDBRANCH   6   7
ENDBRANCH   5   6
ENDBRANCH   2   5
BRANCH   1  24
HETATM   24  C9  UNL     1      36.826 -20.322  20.948  1.00  0.00     0.202 C 
BRANCH  24  25
HETATM   25  O3  UNL     1      36.916 -21.505  21.662  1.00  0.00    -0.355 OA
BRANCH  25  26
HETATM   26  C8  UNL     1      35.739 -22.163  21.885  1.00  0.00     0.292 C 
HETATM   27  O2  UNL     1      35.399 -22.240  23.234  1.00  0.00    -0.351 OA
HETATM   28  C6  UNL     1      36.463 -22.437  24.059  1.00  0.00     0.150 C 
HETATM   29  C4  UNL     1      37.204 -23.713  23.905  1.00  0.00     0.160 C 
HETATM   30  C7  UNL     1      36.012 -22.174  25.499  1.00  0.00     0.042 C 
HETATM   31  C3  UNL     1      36.450 -24.889  23.377  1.00  0.00     0.076 C 
HETATM   32  C28 UNL     1      35.390 -24.616  22.378  1.00  0.00     0.094 C 
HETATM   33  C27 UNL     1      35.779 -23.570  21.355  1.00  0.00     0.208 C 
HETATM   34  C29 UNL     1      34.015 -24.384  22.955  1.00  0.00     0.049 C 
BRANCH  29  35
HETATM   35  O1  UNL     1      37.675 -24.075  25.168  1.00  0.00    -0.387 OA
HETATM   36  C5  UNL     1      39.027 -24.311  25.160  1.00  0.00     0.202 C 
ENDBRANCH  29  35
BRANCH  31  37
HETATM   37  C2  UNL     1      35.895 -25.751  24.456  1.00  0.00    -0.027 C 
HETATM   38  C1  UNL     1      36.290 -27.014  24.567  1.00  0.00     0.007 C 
ENDBRANCH  31  37
BRANCH  32  39
HETATM   39  O7  UNL     1      35.252 -25.803  21.605  1.00  0.00    -0.387 OA
ATOM     40  H7  UNL     1      34.382 -26.141  21.785  1.00  0.00     0.210 HD
ENDBRANCH  32  39
BRANCH  33  41
HETATM   41  O6  UNL     1      37.028 -23.859  20.872  1.00  0.00    -0.388 OA
ATOM     42  H6  UNL     1      37.093 -23.610  19.958  1.00  0.00     0.210 HD
ENDBRANCH  33  41
ENDBRANCH  25  26
ENDBRANCH  24  25
ENDBRANCH   1  24
TORSDOF 13
ENDMDL
