MODEL 1
REMARK VINA RESULT: -9.047107561      0.000      0.000
REMARK  12 active torsions:
REMARK  status: ('A' for Active; 'I' for Inactive)
REMARK    1  A    between atoms: C2_2  and  C4_4 
REMARK    2  A    between atoms: C4_4  and  N1_5 
REMARK    3  A    between atoms: N1_5  and  C5_8 
REMARK    4  A    between atoms: C5_8  and  C6_9 
REMARK    5  A    between atoms: C8_11  and  O1_12 
REMARK    6  A    between atoms: C9_14  and  C10_15 
REMARK    7  A    between atoms: C11_16  and  C12_17 
REMARK    8  A    between atoms: C16_23  and  N3_24 
REMARK    9  A    between atoms: N4_33  and  C24_34 
REMARK   10  A    between atoms: C24_34  and  C25_35 
REMARK   11  A    between atoms: C25_35  and  N5_36 
REMARK   12  A    between atoms: C30_42  and  N7_44 
ROOT
HETATM    1  C12 UNL     1      40.319 -22.670  28.093  1.00  0.00     0.108 A 
HETATM    2  N2  UNL     1      39.297 -22.691  27.211  1.00  0.00    -0.340 N 
ATOM      3  H2  UNL     1      39.018 -23.497  26.651  1.00  0.00     0.167 HD
HETATM    4  C13 UNL     1      38.706 -21.491  27.185  1.00  0.00     0.064 A 
HETATM    5  C14 UNL     1      37.635 -20.979  26.472  1.00  0.00     0.034 A 
HETATM    6  C15 UNL     1      37.267 -19.670  26.682  1.00  0.00     0.035 A 
HETATM    7  C16 UNL     1      37.946 -18.867  27.584  1.00  0.00     0.071 A 
HETATM    8  C22 UNL     1      39.021 -19.416  28.285  1.00  0.00     0.172 A 
HETATM    9  F1  UNL     1      39.703 -18.667  29.165  1.00  0.00    -0.201 F 
HETATM   10  C23 UNL     1      39.393 -20.716  28.083  1.00  0.00     0.104 A 
HETATM   11  N4  UNL     1      40.383 -21.443  28.639  1.00  0.00    -0.327 N 
ENDROOT
BRANCH   1  12
HETATM   12  C11 UNL     1      41.170 -23.815  28.366  1.00  0.00     0.050 C 
HETATM   13  C10 UNL     1      40.754 -25.031  28.135  1.00  0.00     0.025 C 
BRANCH  13  14
HETATM   14  C9  UNL     1      41.649 -26.163  28.425  1.00  0.00     0.038 A 
HETATM   15  C8  UNL     1      41.314 -27.454  28.727  1.00  0.00     0.083 A 
HETATM   16  C7  UNL     1      42.311 -28.316  28.945  1.00  0.00     0.054 A 
HETATM   17  C6  UNL     1      43.592 -27.834  28.843  1.00  0.00     0.011 A 
HETATM   18  S1  UNL     1      43.352 -26.191  28.449  1.00  0.00    -0.090 SA
BRANCH  15  19
HETATM   19  O1  UNL     1      39.948 -27.830  28.801  1.00  0.00    -0.359 OA
ATOM     20  H1  UNL     1      39.322 -27.621  28.117  1.00  0.00     0.217 HD
ENDBRANCH  15  19
BRANCH  17  21
HETATM   21  C5  UNL     1      44.876 -28.604  29.040  1.00  0.00     0.278 C 
BRANCH  21  22
HETATM   22  N1  UNL     1      45.018 -28.849  30.446  1.00  0.00    -0.070 N 
ATOM     23  H12 UNL     1      44.133 -28.708  30.933  1.00  0.00     0.277 HD
ATOM     24  H11 UNL     1      45.570 -28.114  30.890  1.00  0.00     0.277 HD
BRANCH  22  25
HETATM   25  C4  UNL     1      45.561 -30.143  30.732  1.00  0.00     0.236 C 
BRANCH  25  26
HETATM   26  C2  UNL     1      44.481 -31.005  31.340  1.00  0.00     0.003 C 
HETATM   27  C1  UNL     1      43.588 -30.122  32.188  1.00  0.00     0.011 C 
HETATM   28  C3  UNL     1      43.670 -31.591  30.187  1.00  0.00     0.011 C 
ENDBRANCH  25  26
ENDBRANCH  22  25
ENDBRANCH  21  22
ENDBRANCH  17  21
ENDBRANCH  13  14
ENDBRANCH   1  12
BRANCH  11  29
HETATM   29  C24 UNL     1      41.311 -20.972  29.632  1.00  0.00     0.151 C 
BRANCH  29  30
HETATM   30  C25 UNL     1      42.633 -20.745  28.960  1.00  0.00     0.147 C 
BRANCH  30  31
HETATM   31  N5  UNL     1      43.786 -21.162  29.693  1.00  0.00    -0.368 N 
HETATM   32  C26 UNL     1      44.828 -20.251  29.629  1.00  0.00     0.093 C 
HETATM   33  C27 UNL     1      45.691 -20.139  30.859  1.00  0.00     0.316 C 
HETATM   34  N6  UNL     1      46.567 -21.258  30.910  1.00  0.00     0.091 N 
HETATM   35  C28 UNL     1      47.738 -21.136  30.075  1.00  0.00     0.310 C 
HETATM   36  C29 UNL     1      45.969 -22.536  30.688  1.00  0.00     0.316 C 
HETATM   37  C30 UNL     1      44.663 -22.689  31.426  1.00  0.00     0.178 C 
HETATM   38  C31 UNL     1      44.362 -24.178  31.447  1.00  0.00     0.054 C 
HETATM   39  C32 UNL     1      43.531 -21.936  30.809  1.00  0.00     0.103 C 
BRANCH  37  40
HETATM   40  N7  UNL     1      44.877 -22.296  32.806  1.00  0.00    -0.064 N 
ATOM     41  H73 UNL     1      44.022 -22.324  33.361  1.00  0.00     0.275 HD
ATOM     42  H72 UNL     1      45.406 -22.989  33.335  1.00  0.00     0.275 HD
ATOM     43  H71 UNL     1      45.319 -21.376  32.808  1.00  0.00     0.275 HD
ENDBRANCH  37  40
ENDBRANCH  30  31
ENDBRANCH  29  30
ENDBRANCH  11  29
BRANCH   7  44
HETATM   44  N3  UNL     1      37.592 -17.531  27.819  1.00  0.00    -0.378 N 
HETATM   45  C17 UNL     1      36.885 -17.167  29.023  1.00  0.00     0.123 C 
HETATM   46  C18 UNL     1      36.138 -15.863  28.766  1.00  0.00     0.020 C 
HETATM   47  C19 UNL     1      37.151 -14.790  28.489  1.00  0.00     0.003 C 
HETATM   48  C20 UNL     1      38.327 -15.252  27.667  1.00  0.00     0.020 C 
HETATM   49  C21 UNL     1      37.931 -16.498  26.867  1.00  0.00     0.123 C 
ENDBRANCH   7  44
TORSDOF 12
ENDMDL
MODEL 2
REMARK VINA RESULT: -8.796876153      0.715      1.187
REMARK  12 active torsions:
REMARK  status: ('A' for Active; 'I' for Inactive)
REMARK    1  A    between atoms: C2_2  and  C4_4 
REMARK    2  A    between atoms: C4_4  and  N1_5 
REMARK    3  A    between atoms: N1_5  and  C5_8 
REMARK    4  A    between atoms: C5_8  and  C6_9 
REMARK    5  A    between atoms: C8_11  and  O1_12 
REMARK    6  A    between atoms: C9_14  and  C10_15 
REMARK    7  A    between atoms: C11_16  and  C12_17 
REMARK    8  A    between atoms: C16_23  and  N3_24 
REMARK    9  A    between atoms: N4_33  and  C24_34 
REMARK   10  A    between atoms: C24_34  and  C25_35 
REMARK   11  A    between atoms: C25_35  and  N5_36 
REMARK   12  A    between atoms: C30_42  and  N7_44 
ROOT
HETATM    1  C12 UNL     1      40.169 -22.630  27.935  1.00  0.00     0.108 A 
HETATM    2  N2  UNL     1      39.177 -22.546  27.023  1.00  0.00    -0.340 N 
ATOM      3  H2  UNL     1      38.887 -23.297  26.397  1.00  0.00     0.167 HD
HETATM    4  C13 UNL     1      38.633 -21.325  27.068  1.00  0.00     0.064 A 
HETATM    5  C14 UNL     1      37.606 -20.720  26.364  1.00  0.00     0.034 A 
HETATM    6  C15 UNL     1      37.281 -19.416  26.659  1.00  0.00     0.035 A 
HETATM    7  C16 UNL     1      37.959 -18.709  27.639  1.00  0.00     0.071 A 
HETATM    8  C22 UNL     1      38.989 -19.350  28.329  1.00  0.00     0.172 A 
HETATM    9  F1  UNL     1      39.668 -18.695  29.282  1.00  0.00    -0.201 F 
HETATM   10  C23 UNL     1      39.318 -20.645  28.042  1.00  0.00     0.104 A 
HETATM   11  N4  UNL     1      40.261 -21.451  28.572  1.00  0.00    -0.327 N 
ENDROOT
BRANCH   1  12
HETATM   12  C11 UNL     1      40.967 -23.825  28.147  1.00  0.00     0.050 C 
HETATM   13  C10 UNL     1      40.762 -24.905  27.442  1.00  0.00     0.025 C 
BRANCH  13  14
HETATM   14  C9  UNL     1      41.593 -26.093  27.689  1.00  0.00     0.038 A 
HETATM   15  C8  UNL     1      41.252 -27.249  28.335  1.00  0.00     0.083 A 
HETATM   16  C7  UNL     1      42.183 -28.202  28.429  1.00  0.00     0.054 A 
HETATM   17  C6  UNL     1      43.407 -27.943  27.866  1.00  0.00     0.011 A 
HETATM   18  S1  UNL     1      43.209 -26.373  27.227  1.00  0.00    -0.090 SA
BRANCH  15  19
HETATM   19  O1  UNL     1      39.948 -27.397  28.875  1.00  0.00    -0.359 OA
ATOM     20  H1  UNL     1      39.439 -26.660  29.191  1.00  0.00     0.217 HD
ENDBRANCH  15  19
BRANCH  17  21
HETATM   21  C5  UNL     1      44.612 -28.853  27.839  1.00  0.00     0.278 C 
BRANCH  21  22
HETATM   22  N1  UNL     1      44.518 -29.723  28.975  1.00  0.00    -0.070 N 
ATOM     23  H12 UNL     1      44.051 -30.596  28.730  1.00  0.00     0.277 HD
ATOM     24  H11 UNL     1      43.847 -29.364  29.656  1.00  0.00     0.277 HD
BRANCH  22  25
HETATM   25  C4  UNL     1      45.787 -29.974  29.589  1.00  0.00     0.236 C 
BRANCH  25  26
HETATM   26  C2  UNL     1      45.704 -29.617  31.054  1.00  0.00     0.003 C 
HETATM   27  C1  UNL     1      45.892 -28.120  31.190  1.00  0.00     0.011 C 
HETATM   28  C3  UNL     1      44.306 -30.000  31.532  1.00  0.00     0.011 C 
ENDBRANCH  25  26
ENDBRANCH  22  25
ENDBRANCH  21  22
ENDBRANCH  17  21
ENDBRANCH  13  14
ENDBRANCH   1  12
BRANCH  11  29
HETATM   29  C24 UNL     1      41.172 -21.091  29.625  1.00  0.00     0.151 C 
BRANCH  29  30
HETATM   30  C25 UNL     1      42.476 -20.697  28.995  1.00  0.00     0.147 C 
BRANCH  30  31
HETATM   31  N5  UNL     1      43.648 -21.280  29.569  1.00  0.00    -0.368 N 
HETATM   32  C26 UNL     1      44.688 -20.376  29.710  1.00  0.00     0.093 C 
HETATM   33  C27 UNL     1      45.584 -20.574  30.906  1.00  0.00     0.316 C 
HETATM   34  N6  UNL     1      46.460 -21.665  30.649  1.00  0.00     0.091 N 
HETATM   35  C28 UNL     1      47.608 -21.329  29.842  1.00  0.00     0.310 C 
HETATM   36  C29 UNL     1      45.855 -22.849  30.126  1.00  0.00     0.316 C 
HETATM   37  C30 UNL     1      44.569 -23.190  30.836  1.00  0.00     0.178 C 
HETATM   38  C31 UNL     1      44.267 -24.638  30.486  1.00  0.00     0.054 C 
HETATM   39  C32 UNL     1      43.422 -22.312  30.459  1.00  0.00     0.103 C 
BRANCH  37  40
HETATM   40  N7  UNL     1      44.820 -23.158  32.264  1.00  0.00    -0.064 N 
ATOM     41  H73 UNL     1      44.430 -23.965  32.751  1.00  0.00     0.275 HD
ATOM     42  H72 UNL     1      45.800 -23.320  32.495  1.00  0.00     0.275 HD
ATOM     43  H71 UNL     1      44.470 -22.272  32.627  1.00  0.00     0.275 HD
ENDBRANCH  37  40
ENDBRANCH  30  31
ENDBRANCH  29  30
ENDBRANCH  11  29
BRANCH   7  44
HETATM   44  N3  UNL     1      37.648 -17.381  27.961  1.00  0.00    -0.378 N 
HETATM   45  C17 UNL     1      38.087 -16.303  27.107  1.00  0.00     0.123 C 
HETATM   46  C18 UNL     1      38.145 -15.026  27.936  1.00  0.00     0.020 C 
HETATM   47  C19 UNL     1      36.754 -14.704  28.398  1.00  0.00     0.003 C 
HETATM   48  C20 UNL     1      35.940 -15.911  28.786  1.00  0.00     0.020 C 
HETATM   49  C21 UNL     1      36.882 -17.066  29.145  1.00  0.00     0.123 C 
ENDBRANCH   7  44
TORSDOF 12
ENDMDL
MODEL 3
REMARK VINA RESULT: -8.572809983      1.121      1.690
REMARK  12 active torsions:
REMARK  status: ('A' for Active; 'I' for Inactive)
REMARK    1  A    between atoms: C2_2  and  C4_4 
REMARK    2  A    between atoms: C4_4  and  N1_5 
REMARK    3  A    between atoms: N1_5  and  C5_8 
REMARK    4  A    between atoms: C5_8  and  C6_9 
REMARK    5  A    between atoms: C8_11  and  O1_12 
REMARK    6  A    between atoms: C9_14  and  C10_15 
REMARK    7  A    between atoms: C11_16  and  C12_17 
REMARK    8  A    between atoms: C16_23  and  N3_24 
REMARK    9  A    between atoms: N4_33  and  C24_34 
REMARK   10  A    between atoms: C24_34  and  C25_35 
REMARK   11  A    between atoms: C25_35  and  N5_36 
REMARK   12  A    between atoms: C30_42  and  N7_44 
ROOT
HETATM    1  C12 UNL     1      40.318 -22.702  28.056  1.00  0.00     0.108 A 
HETATM    2  N2  UNL     1      39.299 -22.712  27.170  1.00  0.00    -0.340 N 
ATOM      3  H2  UNL     1      39.019 -23.511  26.602  1.00  0.00     0.167 HD
HETATM    4  C13 UNL     1      38.712 -21.510  27.153  1.00  0.00     0.064 A 
HETATM    5  C14 UNL     1      37.645 -20.988  26.442  1.00  0.00     0.034 A 
HETATM    6  C15 UNL     1      37.281 -19.680  26.662  1.00  0.00     0.035 A 
HETATM    7  C16 UNL     1      37.959 -18.888  27.574  1.00  0.00     0.071 A 
HETATM    8  C22 UNL     1      39.030 -19.446  28.272  1.00  0.00     0.172 A 
HETATM    9  F1  UNL     1      39.711 -18.707  29.162  1.00  0.00    -0.201 F 
HETATM   10  C23 UNL     1      39.399 -20.745  28.060  1.00  0.00     0.104 A 
HETATM   11  N4  UNL     1      40.384 -21.481  28.613  1.00  0.00    -0.327 N 
ENDROOT
BRANCH   1  12
HETATM   12  C11 UNL     1      41.165 -23.853  28.321  1.00  0.00     0.050 C 
HETATM   13  C10 UNL     1      40.705 -25.068  28.195  1.00  0.00     0.025 C 
BRANCH  13  14
HETATM   14  C9  UNL     1      41.597 -26.205  28.472  1.00  0.00     0.038 A 
HETATM   15  C8  UNL     1      41.258 -27.491  28.791  1.00  0.00     0.083 A 
HETATM   16  C7  UNL     1      42.252 -28.360  28.993  1.00  0.00     0.054 A 
HETATM   17  C6  UNL     1      43.535 -27.889  28.859  1.00  0.00     0.011 A 
HETATM   18  S1  UNL     1      43.300 -26.247  28.458  1.00  0.00    -0.090 SA
BRANCH  15  19
HETATM   19  O1  UNL     1      39.891 -27.855  28.898  1.00  0.00    -0.359 OA
ATOM     20  H1  UNL     1      39.286 -27.791  28.169  1.00  0.00     0.217 HD
ENDBRANCH  15  19
BRANCH  17  21
HETATM   21  C5  UNL     1      44.817 -28.669  29.033  1.00  0.00     0.278 C 
BRANCH  21  22
HETATM   22  N1  UNL     1      44.789 -29.755  28.097  1.00  0.00    -0.070 N 
ATOM     23  H12 UNL     1      43.874 -30.205  28.087  1.00  0.00     0.277 HD
ATOM     24  H11 UNL     1      45.354 -30.537  28.428  1.00  0.00     0.277 HD
BRANCH  22  25
HETATM   25  C4  UNL     1      45.180 -29.361  26.777  1.00  0.00     0.236 C 
BRANCH  25  26
HETATM   26  C2  UNL     1      44.205 -29.942  25.782  1.00  0.00     0.003 C 
HETATM   27  C1  UNL     1      43.372 -30.991  26.489  1.00  0.00     0.011 C 
HETATM   28  C3  UNL     1      43.302 -28.803  25.317  1.00  0.00     0.011 C 
ENDBRANCH  25  26
ENDBRANCH  22  25
ENDBRANCH  21  22
ENDBRANCH  17  21
ENDBRANCH  13  14
ENDBRANCH   1  12
BRANCH  11  29
HETATM   29  C24 UNL     1      41.310 -21.022  29.613  1.00  0.00     0.151 C 
BRANCH  29  30
HETATM   30  C25 UNL     1      42.629 -20.769  28.943  1.00  0.00     0.147 C 
BRANCH  30  31
HETATM   31  N5  UNL     1      43.788 -21.186  29.667  1.00  0.00    -0.368 N 
HETATM   32  C26 UNL     1      44.821 -20.265  29.612  1.00  0.00     0.093 C 
HETATM   33  C27 UNL     1      45.686 -20.161  30.842  1.00  0.00     0.316 C 
HETATM   34  N6  UNL     1      46.573 -21.273  30.875  1.00  0.00     0.091 N 
HETATM   35  C28 UNL     1      47.740 -21.130  30.038  1.00  0.00     0.310 C 
HETATM   36  C29 UNL     1      45.986 -22.553  30.638  1.00  0.00     0.316 C 
HETATM   37  C30 UNL     1      44.683 -22.727  31.377  1.00  0.00     0.178 C 
HETATM   38  C31 UNL     1      44.395 -24.219  31.379  1.00  0.00     0.054 C 
HETATM   39  C32 UNL     1      43.543 -21.976  30.774  1.00  0.00     0.103 C 
BRANCH  37  40
HETATM   40  N7  UNL     1      44.898 -22.351  32.762  1.00  0.00    -0.064 N 
ATOM     41  H73 UNL     1      45.887 -22.285  33.003  1.00  0.00     0.275 HD
ATOM     42  H72 UNL     1      44.647 -21.380  32.950  1.00  0.00     0.275 HD
ATOM     43  H71 UNL     1      44.391 -23.011  33.351  1.00  0.00     0.275 HD
ENDBRANCH  37  40
ENDBRANCH  30  31
ENDBRANCH  29  30
ENDBRANCH  11  29
BRANCH   7  44
HETATM   44  N3  UNL     1      37.609 -17.553  27.819  1.00  0.00    -0.378 N 
HETATM   45  C17 UNL     1      36.865 -17.202  29.006  1.00  0.00     0.123 C 
HETATM   46  C18 UNL     1      36.138 -15.888  28.746  1.00  0.00     0.020 C 
HETATM   47  C19 UNL     1      37.168 -14.819  28.521  1.00  0.00     0.003 C 
HETATM   48  C20 UNL     1      38.367 -15.278  27.731  1.00  0.00     0.020 C 
HETATM   49  C21 UNL     1      37.987 -16.507  26.897  1.00  0.00     0.123 C 
ENDBRANCH   7  44
TORSDOF 12
ENDMDL
MODEL 4
REMARK VINA RESULT: -8.373527028      2.810      9.982
REMARK  12 active torsions:
REMARK  status: ('A' for Active; 'I' for Inactive)
REMARK    1  A    between atoms: C2_2  and  C4_4 
REMARK    2  A    between atoms: C4_4  and  N1_5 
REMARK    3  A    between atoms: N1_5  and  C5_8 
REMARK    4  A    between atoms: C5_8  and  C6_9 
REMARK    5  A    between atoms: C8_11  and  O1_12 
REMARK    6  A    between atoms: C9_14  and  C10_15 
REMARK    7  A    between atoms: C11_16  and  C12_17 
REMARK    8  A    between atoms: C16_23  and  N3_24 
REMARK    9  A    between atoms: N4_33  and  C24_34 
REMARK   10  A    between atoms: C24_34  and  C25_35 
REMARK   11  A    between atoms: C25_35  and  N5_36 
REMARK   12  A    between atoms: C30_42  and  N7_44 
ROOT
HETATM    1  C12 UNL     1      40.998 -22.939  27.970  1.00  0.00     0.108 A 
HETATM    2  N2  UNL     1      40.183 -23.929  28.394  1.00  0.00    -0.340 N 
ATOM      3  H2  UNL     1      39.176 -23.844  28.533  1.00  0.00     0.167 HD
HETATM    4  C13 UNL     1      40.901 -25.038  28.603  1.00  0.00     0.064 A 
HETATM    5  C14 UNL     1      40.569 -26.312  29.033  1.00  0.00     0.034 A 
HETATM    6  C15 UNL     1      41.568 -27.252  29.145  1.00  0.00     0.035 A 
HETATM    7  C16 UNL     1      42.884 -26.944  28.839  1.00  0.00     0.071 A 
HETATM    8  C22 UNL     1      43.181 -25.650  28.410  1.00  0.00     0.172 A 
HETATM    9  F1  UNL     1      44.445 -25.316  28.107  1.00  0.00    -0.201 F 
HETATM   10  C23 UNL     1      42.195 -24.710  28.295  1.00  0.00     0.104 A 
HETATM   11  N4  UNL     1      42.251 -23.420  27.906  1.00  0.00    -0.327 N 
ENDROOT
BRANCH   1  12
HETATM   12  C11 UNL     1      40.537 -21.599  27.650  1.00  0.00     0.050 C 
HETATM   13  C10 UNL     1      40.054 -20.816  28.575  1.00  0.00     0.025 C 
BRANCH  13  14
HETATM   14  C9  UNL     1      39.599 -19.465  28.208  1.00  0.00     0.038 A 
HETATM   15  C8  UNL     1      39.411 -18.382  29.021  1.00  0.00     0.083 A 
HETATM   16  C7  UNL     1      38.997 -17.247  28.452  1.00  0.00     0.054 A 
HETATM   17  C6  UNL     1      38.798 -17.261  27.094  1.00  0.00     0.011 A 
HETATM   18  S1  UNL     1      39.196 -18.864  26.666  1.00  0.00    -0.090 SA
BRANCH  15  19
HETATM   19  O1  UNL     1      39.653 -18.495  30.414  1.00  0.00    -0.359 OA
ATOM     20  H1  UNL     1      39.542 -17.767  31.014  1.00  0.00     0.217 HD
ENDBRANCH  15  19
BRANCH  17  21
HETATM   21  C5  UNL     1      38.338 -16.113  26.226  1.00  0.00     0.278 C 
BRANCH  21  22
HETATM   22  N1  UNL     1      37.080 -15.661  26.745  1.00  0.00    -0.070 N 
ATOM     23  H12 UNL     1      36.728 -16.299  27.458  1.00  0.00     0.277 HD
ATOM     24  H11 UNL     1      36.341 -15.763  26.050  1.00  0.00     0.277 HD
BRANCH  22  25
HETATM   25  C4  UNL     1      37.136 -14.318  27.242  1.00  0.00     0.236 C 
BRANCH  25  26
HETATM   26  C2  UNL     1      36.303 -14.226  28.498  1.00  0.00     0.003 C 
HETATM   27  C1  UNL     1      35.144 -13.286  28.233  1.00  0.00     0.011 C 
HETATM   28  C3  UNL     1      35.768 -15.625  28.789  1.00  0.00     0.011 C 
ENDBRANCH  25  26
ENDBRANCH  22  25
ENDBRANCH  21  22
ENDBRANCH  17  21
ENDBRANCH  13  14
ENDBRANCH   1  12
BRANCH  11  29
HETATM   29  C24 UNL     1      43.440 -22.720  27.498  1.00  0.00     0.151 C 
BRANCH  29  30
HETATM   30  C25 UNL     1      43.595 -21.517  28.381  1.00  0.00     0.147 C 
BRANCH  30  31
HETATM   31  N5  UNL     1      44.528 -21.646  29.455  1.00  0.00    -0.368 N 
HETATM   32  C26 UNL     1      45.413 -20.583  29.535  1.00  0.00     0.093 C 
HETATM   33  C27 UNL     1      45.855 -20.189  30.920  1.00  0.00     0.316 C 
HETATM   34  N6  UNL     1      46.819 -21.129  31.381  1.00  0.00     0.091 N 
HETATM   35  C28 UNL     1      48.156 -20.903  30.886  1.00  0.00     0.310 C 
HETATM   36  C29 UNL     1      46.486 -22.507  31.206  1.00  0.00     0.316 C 
HETATM   37  C30 UNL     1      45.053 -22.798  31.576  1.00  0.00     0.178 C 
HETATM   38  C31 UNL     1      44.959 -24.305  31.746  1.00  0.00     0.054 C 
HETATM   39  C32 UNL     1      44.062 -22.323  30.566  1.00  0.00     0.103 C 
BRANCH  37  40
HETATM   40  N7  UNL     1      44.802 -22.223  32.884  1.00  0.00    -0.064 N 
ATOM     41  H73 UNL     1      45.656 -22.080  33.423  1.00  0.00     0.275 HD
ATOM     42  H72 UNL     1      44.506 -21.248  32.836  1.00  0.00     0.275 HD
ATOM     43  H71 UNL     1      44.126 -22.817  33.366  1.00  0.00     0.275 HD
ENDBRANCH  37  40
ENDBRANCH  30  31
ENDBRANCH  29  30
ENDBRANCH  11  29
BRANCH   7  44
HETATM   44  N3  UNL     1      43.920 -27.882  28.943  1.00  0.00    -0.378 N 
HETATM   45  C17 UNL     1      44.080 -28.904  27.936  1.00  0.00     0.123 C 
HETATM   46  C18 UNL     1      44.837 -30.073  28.555  1.00  0.00     0.020 C 
HETATM   47  C19 UNL     1      46.206 -29.594  28.940  1.00  0.00     0.003 C 
HETATM   48  C20 UNL     1      46.233 -28.195  29.500  1.00  0.00     0.020 C 
HETATM   49  C21 UNL     1      44.847 -27.840  30.050  1.00  0.00     0.123 C 
ENDBRANCH   7  44
TORSDOF 12
ENDMDL
MODEL 5
REMARK VINA RESULT: -8.282039817      1.371      1.988
REMARK  12 active torsions:
REMARK  status: ('A' for Active; 'I' for Inactive)
REMARK    1  A    between atoms: C2_2  and  C4_4 
REMARK    2  A    between atoms: C4_4  and  N1_5 
REMARK    3  A    between atoms: N1_5  and  C5_8 
REMARK    4  A    between atoms: C5_8  and  C6_9 
REMARK    5  A    between atoms: C8_11  and  O1_12 
REMARK    6  A    between atoms: C9_14  and  C10_15 
REMARK    7  A    between atoms: C11_16  and  C12_17 
REMARK    8  A    between atoms: C16_23  and  N3_24 
REMARK    9  A    between atoms: N4_33  and  C24_34 
REMARK   10  A    between atoms: C24_34  and  C25_35 
REMARK   11  A    between atoms: C25_35  and  N5_36 
REMARK   12  A    between atoms: C30_42  and  N7_44 
ROOT
HETATM    1  C12 UNL     1      39.627 -22.311  27.534  1.00  0.00     0.108 A 
HETATM    2  N2  UNL     1      38.642 -22.230  26.614  1.00  0.00    -0.340 N 
ATOM      3  H2  UNL     1      38.347 -22.987  25.998  1.00  0.00     0.167 HD
HETATM    4  C13 UNL     1      38.112 -21.002  26.636  1.00  0.00     0.064 A 
HETATM    5  C14 UNL     1      37.097 -20.397  25.914  1.00  0.00     0.034 A 
HETATM    6  C15 UNL     1      36.785 -19.085  26.186  1.00  0.00     0.035 A 
HETATM    7  C16 UNL     1      37.465 -18.370  27.159  1.00  0.00     0.071 A 
HETATM    8  C22 UNL     1      38.482 -19.011  27.866  1.00  0.00     0.172 A 
HETATM    9  F1  UNL     1      39.163 -18.349  28.814  1.00  0.00    -0.201 F 
HETATM   10  C23 UNL     1      38.799 -20.314  27.603  1.00  0.00     0.104 A 
HETATM   11  N4  UNL     1      39.728 -21.122  28.153  1.00  0.00    -0.327 N 
ENDROOT
BRANCH   1  12
HETATM   12  C11 UNL     1      40.410 -23.512  27.771  1.00  0.00     0.050 C 
HETATM   13  C10 UNL     1      39.873 -24.696  27.658  1.00  0.00     0.025 C 
BRANCH  13  14
HETATM   14  C9  UNL     1      40.702 -25.886  27.906  1.00  0.00     0.038 A 
HETATM   15  C8  UNL     1      40.968 -26.501  29.098  1.00  0.00     0.083 A 
HETATM   16  C7  UNL     1      41.749 -27.585  29.074  1.00  0.00     0.054 A 
HETATM   17  C6  UNL     1      42.218 -27.994  27.850  1.00  0.00     0.011 A 
HETATM   18  S1  UNL     1      41.549 -26.845  26.781  1.00  0.00    -0.090 SA
BRANCH  15  19
HETATM   19  O1  UNL     1      40.421 -25.981  30.299  1.00  0.00    -0.359 OA
ATOM     20  H1  UNL     1      40.757 -25.196  30.717  1.00  0.00     0.217 HD
ENDBRANCH  15  19
BRANCH  17  21
HETATM   21  C5  UNL     1      43.108 -29.180  27.562  1.00  0.00     0.278 C 
BRANCH  21  22
HETATM   22  N1  UNL     1      43.013 -30.069  28.683  1.00  0.00    -0.070 N 
ATOM     23  H12 UNL     1      42.566 -30.946  28.417  1.00  0.00     0.277 HD
ATOM     24  H11 UNL     1      42.328 -29.732  29.359  1.00  0.00     0.277 HD
BRANCH  22  25
HETATM   25  C4  UNL     1      44.279 -30.309  29.310  1.00  0.00     0.236 C 
BRANCH  25  26
HETATM   26  C2  UNL     1      44.283 -29.657  30.671  1.00  0.00     0.003 C 
HETATM   27  C1  UNL     1      44.113 -30.739  31.718  1.00  0.00     0.011 C 
HETATM   28  C3  UNL     1      45.644 -28.988  30.847  1.00  0.00     0.011 C 
ENDBRANCH  25  26
ENDBRANCH  22  25
ENDBRANCH  21  22
ENDBRANCH  17  21
ENDBRANCH  13  14
ENDBRANCH   1  12
BRANCH  11  29
HETATM   29  C24 UNL     1      40.637 -20.756  29.206  1.00  0.00     0.151 C 
BRANCH  29  30
HETATM   30  C25 UNL     1      41.933 -20.339  28.576  1.00  0.00     0.147 C 
BRANCH  30  31
HETATM   31  N5  UNL     1      43.110 -20.952  29.105  1.00  0.00    -0.368 N 
HETATM   32  C26 UNL     1      42.899 -21.563  30.330  1.00  0.00     0.093 C 
HETATM   33  C27 UNL     1      43.700 -22.810  30.599  1.00  0.00     0.316 C 
HETATM   34  N6  UNL     1      45.034 -22.438  30.924  1.00  0.00     0.091 N 
HETATM   35  C28 UNL     1      45.219 -22.021  32.294  1.00  0.00     0.310 C 
HETATM   36  C29 UNL     1      45.650 -21.482  30.060  1.00  0.00     0.316 C 
HETATM   37  C30 UNL     1      45.384 -21.777  28.605  1.00  0.00     0.178 C 
HETATM   38  C31 UNL     1      46.404 -20.970  27.819  1.00  0.00     0.054 C 
HETATM   39  C32 UNL     1      43.999 -21.439  28.165  1.00  0.00     0.103 C 
BRANCH  37  40
HETATM   40  N7  UNL     1      45.696 -23.173  28.365  1.00  0.00    -0.064 N 
ATOM     41  H73 UNL     1      46.397 -23.301  27.636  1.00  0.00     0.275 HD
ATOM     42  H72 UNL     1      46.218 -23.598  29.132  1.00  0.00     0.275 HD
ATOM     43  H71 UNL     1      44.823 -23.662  28.163  1.00  0.00     0.275 HD
ENDBRANCH  37  40
ENDBRANCH  30  31
ENDBRANCH  29  30
ENDBRANCH  11  29
BRANCH   7  44
HETATM   44  N3  UNL     1      37.167 -17.033  27.457  1.00  0.00    -0.378 N 
HETATM   45  C17 UNL     1      36.540 -16.690  28.712  1.00  0.00     0.123 C 
HETATM   46  C18 UNL     1      35.822 -15.356  28.541  1.00  0.00     0.020 C 
HETATM   47  C19 UNL     1      36.851 -14.305  28.243  1.00  0.00     0.003 C 
HETATM   48  C20 UNL     1      37.964 -14.773  27.340  1.00  0.00     0.020 C 
HETATM   49  C21 UNL     1      37.484 -15.978  26.523  1.00  0.00     0.123 C 
ENDBRANCH   7  44
TORSDOF 12
ENDMDL
