MODEL 1
REMARK VINA RESULT: -7.521050606      0.000      0.000
REMARK  12 active torsions:
REMARK  status: ('A' for Active; 'I' for Inactive)
REMARK    1  A    between atoms: C2_2  and  S1_3 
REMARK    2  A    between atoms: S1_3  and  N1_6 
REMARK    3  A    between atoms: N1_6  and  C3_8 
REMARK    4  A    between atoms: C5_10  and  N2_11 
REMARK    5  A    between atoms: N2_11  and  C6_13 
REMARK    6  A    between atoms: C7_16  and  C8_17 
REMARK    7  A    between atoms: C12_23  and  N5_24 
REMARK    8  A    between atoms: N5_24  and  C13_26 
REMARK    9  A    between atoms: C17_30  and  C18_31 
REMARK   10  A    between atoms: C20_33  and  O3_34 
REMARK   11  A    between atoms: C22_36  and  O4_37 
REMARK   12  A    between atoms: C24_39  and  O5_40 
ROOT
HETATM    1  C6  UNL     1      39.207 -23.451  25.361  1.00  0.00     0.122 A 
HETATM    2  N3  UNL     1      38.366 -24.205  24.661  1.00  0.00    -0.331 N 
ATOM      3  H3  UNL     1      38.070 -23.868  23.746  1.00  0.00     0.168 HD
HETATM    4  C7  UNL     1      37.881 -25.384  25.086  1.00  0.00     0.092 A 
HETATM    5  N4  UNL     1      38.298 -25.784  26.298  1.00  0.00    -0.331 N 
ATOM      6  H4  UNL     1      37.947 -26.675  26.651  1.00  0.00     0.168 HD
HETATM    7  C12 UNL     1      39.148 -25.090  27.081  1.00  0.00     0.117 A 
HETATM    8  C17 UNL     1      39.623 -23.876  26.599  1.00  0.00     0.062 A 
ENDROOT
BRANCH   1   9
HETATM    9  N2  UNL     1      39.667 -22.316  24.927  1.00  0.00    -0.339 N 
ATOM     10  H2  UNL     1      40.666 -22.189  24.763  1.00  0.00     0.167 HD
BRANCH   9  11
HETATM   11  C5  UNL     1      38.739 -21.235  24.681  1.00  0.00     0.075 A 
HETATM   12  C4  UNL     1      38.260 -20.474  25.731  1.00  0.00     0.066 A 
HETATM   13  C3  UNL     1      37.369 -19.453  25.543  1.00  0.00     0.083 A 
HETATM   14  C29 UNL     1      36.948 -19.200  24.227  1.00  0.00     0.146 A 
HETATM   15  C28 UNL     1      37.405 -19.937  23.162  1.00  0.00     0.089 A 
HETATM   16  F2  UNL     1      36.066 -18.197  24.005  1.00  0.00    -0.204 F 
HETATM   17  C27 UNL     1      38.301 -20.951  23.414  1.00  0.00     0.146 A 
HETATM   18  F1  UNL     1      38.766 -21.686  22.347  1.00  0.00    -0.204 F 
BRANCH  13  19
HETATM   19  N1  UNL     1      36.815 -18.638  26.567  1.00  0.00    -0.281 N 
ATOM     20  H1  UNL     1      35.993 -18.988  27.059  1.00  0.00     0.178 HD
BRANCH  19  21
HETATM   21  S1  UNL     1      37.432 -17.107  27.035  1.00  0.00     0.230 S 
HETATM   22  O1  UNL     1      36.918 -16.027  26.088  1.00  0.00    -0.206 OA
HETATM   23  O2  UNL     1      38.947 -17.096  26.949  1.00  0.00    -0.206 OA
BRANCH  21  24
HETATM   24  C2  UNL     1      37.008 -16.607  28.660  1.00  0.00     0.159 C 
HETATM   25  C1  UNL     1      35.896 -15.597  28.733  1.00  0.00     0.023 C 
ENDBRANCH  21  24
ENDBRANCH  19  21
ENDBRANCH  13  19
ENDBRANCH   9  11
ENDBRANCH   1   9
BRANCH   8  26
HETATM   26  C18 UNL     1      40.540 -23.096  27.450  1.00  0.00    -0.013 A 
HETATM   27  C19 UNL     1      40.099 -22.106  28.293  1.00  0.00     0.052 A 
HETATM   28  C20 UNL     1      40.982 -21.380  29.096  1.00  0.00     0.105 A 
HETATM   29  C22 UNL     1      42.337 -21.640  29.065  1.00  0.00     0.135 A 
HETATM   30  C24 UNL     1      42.784 -22.631  28.221  1.00  0.00     0.105 A 
HETATM   31  C26 UNL     1      41.899 -23.354  27.420  1.00  0.00     0.052 A 
BRANCH  28  32
HETATM   32  O3  UNL     1      40.568 -20.375  29.957  1.00  0.00    -0.353 OA
HETATM   33  C21 UNL     1      39.859 -19.281  29.410  1.00  0.00     0.210 C 
ENDBRANCH  28  32
BRANCH  29  34
HETATM   34  O4  UNL     1      43.212 -20.941  29.845  1.00  0.00    -0.351 OA
HETATM   35  C23 UNL     1      43.811 -21.434  31.021  1.00  0.00     0.210 C 
ENDBRANCH  29  34
BRANCH  30  36
HETATM   36  O5  UNL     1      44.154 -22.874  28.208  1.00  0.00    -0.353 OA
HETATM   37  C25 UNL     1      44.571 -24.190  28.550  1.00  0.00     0.210 C 
ENDBRANCH  30  36
ENDBRANCH   8  26
BRANCH   4  38
HETATM   38  C8  UNL     1      36.935 -26.188  24.262  1.00  0.00     0.008 C 
HETATM   39  C9  UNL     1      36.019 -25.221  23.526  1.00  0.00     0.022 C 
HETATM   40  C10 UNL     1      36.158 -27.105  25.144  1.00  0.00     0.022 C 
HETATM   41  C11 UNL     1      37.744 -27.016  23.286  1.00  0.00     0.022 C 
ENDBRANCH   4  38
BRANCH   7  42
HETATM   42  N5  UNL     1      39.557 -25.568  28.359  1.00  0.00    -0.371 N 
ATOM     43  H5  UNL     1      39.302 -25.064  29.210  1.00  0.00     0.161 HD
BRANCH  42  44
HETATM   44  C13 UNL     1      40.337 -26.773  28.427  1.00  0.00     0.083 C 
HETATM   45  C14 UNL     1      41.605 -26.690  29.212  1.00  0.00     0.025 C 
HETATM   46  C15 UNL     1      42.332 -27.367  28.071  1.00  0.00     0.004 C 
HETATM   47  C16 UNL     1      41.165 -27.003  27.176  1.00  0.00     0.025 C 
ENDBRANCH  42  44
ENDBRANCH   7  42
TORSDOF 12
ENDMDL
MODEL 2
REMARK VINA RESULT: -7.517075936      3.302      8.597
REMARK  12 active torsions:
REMARK  status: ('A' for Active; 'I' for Inactive)
REMARK    1  A    between atoms: C2_2  and  S1_3 
REMARK    2  A    between atoms: S1_3  and  N1_6 
REMARK    3  A    between atoms: N1_6  and  C3_8 
REMARK    4  A    between atoms: C5_10  and  N2_11 
REMARK    5  A    between atoms: N2_11  and  C6_13 
REMARK    6  A    between atoms: C7_16  and  C8_17 
REMARK    7  A    between atoms: C12_23  and  N5_24 
REMARK    8  A    between atoms: N5_24  and  C13_26 
REMARK    9  A    between atoms: C17_30  and  C18_31 
REMARK   10  A    between atoms: C20_33  and  O3_34 
REMARK   11  A    between atoms: C22_36  and  O4_37 
REMARK   12  A    between atoms: C24_39  and  O5_40 
ROOT
HETATM    1  C6  UNL     1      36.992 -18.873  26.593  1.00  0.00     0.122 A 
HETATM    2  N3  UNL     1      36.897 -17.958  27.552  1.00  0.00    -0.331 N 
ATOM      3  H3  UNL     1      36.634 -18.270  28.486  1.00  0.00     0.168 HD
HETATM    4  C7  UNL     1      37.125 -16.647  27.367  1.00  0.00     0.092 A 
HETATM    5  N4  UNL     1      37.467 -16.284  26.119  1.00  0.00    -0.331 N 
ATOM      6  H4  UNL     1      37.647 -15.295  25.944  1.00  0.00     0.168 HD
HETATM    7  C12 UNL     1      37.590 -17.137  25.083  1.00  0.00     0.117 A 
HETATM    8  C17 UNL     1      37.343 -18.483  25.323  1.00  0.00     0.062 A 
ENDROOT
BRANCH   1   9
HETATM    9  N2  UNL     1      36.772 -20.137  26.797  1.00  0.00    -0.339 N 
ATOM     10  H2  UNL     1      35.821 -20.485  26.918  1.00  0.00     0.167 HD
BRANCH   9  11
HETATM   11  C5  UNL     1      37.898 -21.041  26.850  1.00  0.00     0.075 A 
HETATM   12  C4  UNL     1      39.040 -20.693  27.547  1.00  0.00     0.066 A 
HETATM   13  C3  UNL     1      40.134 -21.514  27.608  1.00  0.00     0.083 A 
HETATM   14  C29 UNL     1      40.058 -22.741  26.930  1.00  0.00     0.146 A 
HETATM   15  C28 UNL     1      38.937 -23.117  26.229  1.00  0.00     0.089 A 
HETATM   16  F2  UNL     1      41.121 -23.577  26.969  1.00  0.00    -0.204 F 
HETATM   17  C27 UNL     1      37.869 -22.249  26.204  1.00  0.00     0.146 A 
HETATM   18  F1  UNL     1      36.742 -22.628  25.509  1.00  0.00    -0.204 F 
BRANCH  13  19
HETATM   19  N1  UNL     1      41.350 -21.223  28.284  1.00  0.00    -0.281 N 
ATOM     20  H1  UNL     1      42.102 -20.796  27.743  1.00  0.00     0.178 HD
BRANCH  19  21
HETATM   21  S1  UNL     1      41.643 -21.540  29.944  1.00  0.00     0.230 S 
HETATM   22  O1  UNL     1      40.667 -20.746  30.806  1.00  0.00    -0.206 OA
HETATM   23  O2  UNL     1      43.044 -21.100  30.329  1.00  0.00    -0.206 OA
BRANCH  21  24
HETATM   24  C2  UNL     1      41.489 -23.222  30.411  1.00  0.00     0.159 C 
HETATM   25  C1  UNL     1      42.610 -24.106  29.937  1.00  0.00     0.023 C 
ENDBRANCH  21  24
ENDBRANCH  19  21
ENDBRANCH  13  19
ENDBRANCH   9  11
ENDBRANCH   1   9
BRANCH   8  26
HETATM   26  C18 UNL     1      37.456 -19.427  24.196  1.00  0.00    -0.013 A 
HETATM   27  C19 UNL     1      38.668 -19.831  23.693  1.00  0.00     0.052 A 
HETATM   28  C20 UNL     1      38.756 -20.730  22.627  1.00  0.00     0.105 A 
HETATM   29  C22 UNL     1      37.617 -21.243  22.043  1.00  0.00     0.135 A 
HETATM   30  C24 UNL     1      36.399 -20.840  22.543  1.00  0.00     0.105 A 
HETATM   31  C26 UNL     1      36.314 -19.942  23.608  1.00  0.00     0.052 A 
BRANCH  28  32
HETATM   32  O3  UNL     1      39.964 -21.156  22.097  1.00  0.00    -0.353 OA
HETATM   33  C21 UNL     1      40.773 -22.008  22.885  1.00  0.00     0.210 C 
ENDBRANCH  28  32
BRANCH  29  34
HETATM   34  O4  UNL     1      37.686 -22.123  21.003  1.00  0.00    -0.351 OA
HETATM   35  C23 UNL     1      37.716 -23.526  21.137  1.00  0.00     0.210 C 
ENDBRANCH  29  34
BRANCH  30  36
HETATM   36  O5  UNL     1      35.264 -21.372  21.938  1.00  0.00    -0.353 OA
HETATM   37  C25 UNL     1      34.403 -22.144  22.765  1.00  0.00     0.210 C 
ENDBRANCH  30  36
ENDBRANCH   8  26
BRANCH   4  38
HETATM   38  C8  UNL     1      37.000 -15.662  28.478  1.00  0.00     0.008 C 
HETATM   39  C9  UNL     1      37.747 -16.218  29.680  1.00  0.00     0.022 C 
HETATM   40  C10 UNL     1      35.558 -15.443  28.790  1.00  0.00     0.022 C 
HETATM   41  C11 UNL     1      37.606 -14.352  28.021  1.00  0.00     0.022 C 
ENDBRANCH   4  38
BRANCH   7  42
HETATM   42  N5  UNL     1      37.958 -16.693  23.780  1.00  0.00    -0.371 N 
ATOM     43  H5  UNL     1      37.372 -16.905  22.972  1.00  0.00     0.161 HD
BRANCH  42  44
HETATM   44  C13 UNL     1      39.174 -15.941  23.627  1.00  0.00     0.083 C 
HETATM   45  C14 UNL     1      39.763 -15.921  22.254  1.00  0.00     0.025 C 
HETATM   46  C15 UNL     1      41.114 -16.247  22.851  1.00  0.00     0.004 C 
HETATM   47  C16 UNL     1      40.395 -16.704  24.105  1.00  0.00     0.025 C 
ENDBRANCH  42  44
ENDBRANCH   7  42
TORSDOF 12
ENDMDL
MODEL 3
REMARK VINA RESULT: -7.514781910      0.070      1.956
REMARK  12 active torsions:
REMARK  status: ('A' for Active; 'I' for Inactive)
REMARK    1  A    between atoms: C2_2  and  S1_3 
REMARK    2  A    between atoms: S1_3  and  N1_6 
REMARK    3  A    between atoms: N1_6  and  C3_8 
REMARK    4  A    between atoms: C5_10  and  N2_11 
REMARK    5  A    between atoms: N2_11  and  C6_13 
REMARK    6  A    between atoms: C7_16  and  C8_17 
REMARK    7  A    between atoms: C12_23  and  N5_24 
REMARK    8  A    between atoms: N5_24  and  C13_26 
REMARK    9  A    between atoms: C17_30  and  C18_31 
REMARK   10  A    between atoms: C20_33  and  O3_34 
REMARK   11  A    between atoms: C22_36  and  O4_37 
REMARK   12  A    between atoms: C24_39  and  O5_40 
ROOT
HETATM    1  C6  UNL     1      39.175 -23.456  25.378  1.00  0.00     0.122 A 
HETATM    2  N3  UNL     1      38.304 -24.191  24.694  1.00  0.00    -0.331 N 
ATOM      3  H3  UNL     1      37.989 -23.841  23.790  1.00  0.00     0.168 HD
HETATM    4  C7  UNL     1      37.813 -25.367  25.120  1.00  0.00     0.092 A 
HETATM    5  N4  UNL     1      38.257 -25.785  26.318  1.00  0.00    -0.331 N 
ATOM      6  H4  UNL     1      37.903 -26.674  26.671  1.00  0.00     0.168 HD
HETATM    7  C12 UNL     1      39.137 -25.111  27.084  1.00  0.00     0.117 A 
HETATM    8  C17 UNL     1      39.617 -23.900  26.600  1.00  0.00     0.062 A 
ENDROOT
BRANCH   1   9
HETATM    9  N2  UNL     1      39.640 -22.323  24.942  1.00  0.00    -0.339 N 
ATOM     10  H2  UNL     1      40.639 -22.201  24.777  1.00  0.00     0.167 HD
BRANCH   9  11
HETATM   11  C5  UNL     1      38.716 -21.239  24.696  1.00  0.00     0.075 A 
HETATM   12  C4  UNL     1      38.237 -20.478  25.747  1.00  0.00     0.066 A 
HETATM   13  C3  UNL     1      37.349 -19.454  25.558  1.00  0.00     0.083 A 
HETATM   14  C29 UNL     1      36.934 -19.196  24.242  1.00  0.00     0.146 A 
HETATM   15  C28 UNL     1      37.391 -19.932  23.176  1.00  0.00     0.089 A 
HETATM   16  F2  UNL     1      36.056 -18.189  24.019  1.00  0.00    -0.204 F 
HETATM   17  C27 UNL     1      38.283 -20.950  23.429  1.00  0.00     0.146 A 
HETATM   18  F1  UNL     1      38.749 -21.684  22.361  1.00  0.00    -0.204 F 
BRANCH  13  19
HETATM   19  N1  UNL     1      36.795 -18.639  26.583  1.00  0.00    -0.281 N 
ATOM     20  H1  UNL     1      35.971 -18.990  27.072  1.00  0.00     0.178 HD
BRANCH  19  21
HETATM   21  S1  UNL     1      37.412 -17.109  27.053  1.00  0.00     0.230 S 
HETATM   22  O1  UNL     1      36.902 -16.028  26.107  1.00  0.00    -0.206 OA
HETATM   23  O2  UNL     1      38.928 -17.101  26.970  1.00  0.00    -0.206 OA
BRANCH  21  24
HETATM   24  C2  UNL     1      36.986 -16.611  28.678  1.00  0.00     0.159 C 
HETATM   25  C1  UNL     1      35.887 -15.587  28.749  1.00  0.00     0.023 C 
ENDBRANCH  21  24
ENDBRANCH  19  21
ENDBRANCH  13  19
ENDBRANCH   9  11
ENDBRANCH   1   9
BRANCH   8  26
HETATM   26  C18 UNL     1      40.568 -23.141  27.434  1.00  0.00    -0.013 A 
HETATM   27  C19 UNL     1      41.922 -23.370  27.399  1.00  0.00     0.052 A 
HETATM   28  C20 UNL     1      42.809 -22.639  28.193  1.00  0.00     0.105 A 
HETATM   29  C22 UNL     1      42.347 -21.656  29.043  1.00  0.00     0.135 A 
HETATM   30  C24 UNL     1      40.991 -21.424  29.082  1.00  0.00     0.105 A 
HETATM   31  C26 UNL     1      40.107 -22.156  28.288  1.00  0.00     0.052 A 
BRANCH  28  32
HETATM   32  O3  UNL     1      44.180 -22.846  28.180  1.00  0.00    -0.353 OA
HETATM   33  C21 UNL     1      44.661 -24.136  28.500  1.00  0.00     0.210 C 
ENDBRANCH  28  32
BRANCH  29  34
HETATM   34  O4  UNL     1      43.201 -20.931  29.822  1.00  0.00    -0.351 OA
HETATM   35  C23 UNL     1      43.826 -21.410  30.991  1.00  0.00     0.210 C 
ENDBRANCH  29  34
BRANCH  30  36
HETATM   36  O5  UNL     1      40.548 -20.427  29.946  1.00  0.00    -0.353 OA
HETATM   37  C25 UNL     1      39.865 -19.328  29.357  1.00  0.00     0.210 C 
ENDBRANCH  30  36
ENDBRANCH   8  26
BRANCH   4  38
HETATM   38  C8  UNL     1      36.835 -26.149  24.314  1.00  0.00     0.008 C 
HETATM   39  C9  UNL     1      35.848 -25.169  23.699  1.00  0.00     0.022 C 
HETATM   40  C10 UNL     1      36.142 -27.137  25.191  1.00  0.00     0.022 C 
HETATM   41  C11 UNL     1      37.595 -26.897  23.240  1.00  0.00     0.022 C 
ENDBRANCH   4  38
BRANCH   7  42
HETATM   42  N5  UNL     1      39.574 -25.607  28.346  1.00  0.00    -0.371 N 
ATOM     43  H5  UNL     1      39.350 -25.108  29.207  1.00  0.00     0.161 HD
BRANCH  42  44
HETATM   44  C13 UNL     1      40.337 -26.824  28.381  1.00  0.00     0.083 C 
HETATM   45  C14 UNL     1      41.584 -26.792  29.203  1.00  0.00     0.025 C 
HETATM   46  C15 UNL     1      42.334 -27.428  28.054  1.00  0.00     0.004 C 
HETATM   47  C16 UNL     1      41.196 -27.010  27.144  1.00  0.00     0.025 C 
ENDBRANCH  42  44
ENDBRANCH   7  42
TORSDOF 12
ENDMDL
MODEL 4
REMARK VINA RESULT: -7.458857658      2.783      4.750
REMARK  12 active torsions:
REMARK  status: ('A' for Active; 'I' for Inactive)
REMARK    1  A    between atoms: C2_2  and  S1_3 
REMARK    2  A    between atoms: S1_3  and  N1_6 
REMARK    3  A    between atoms: N1_6  and  C3_8 
REMARK    4  A    between atoms: C5_10  and  N2_11 
REMARK    5  A    between atoms: N2_11  and  C6_13 
REMARK    6  A    between atoms: C7_16  and  C8_17 
REMARK    7  A    between atoms: C12_23  and  N5_24 
REMARK    8  A    between atoms: N5_24  and  C13_26 
REMARK    9  A    between atoms: C17_30  and  C18_31 
REMARK   10  A    between atoms: C20_33  and  O3_34 
REMARK   11  A    between atoms: C22_36  and  O4_37 
REMARK   12  A    between atoms: C24_39  and  O5_40 
ROOT
HETATM    1  C6  UNL     1      37.355 -19.943  25.983  1.00  0.00     0.122 A 
HETATM    2  N3  UNL     1      36.489 -19.778  24.989  1.00  0.00    -0.331 N 
ATOM      3  H3  UNL     1      35.761 -19.073  25.101  1.00  0.00     0.168 HD
HETATM    4  C7  UNL     1      36.514 -20.480  23.844  1.00  0.00     0.092 A 
HETATM    5  N4  UNL     1      37.491 -21.397  23.743  1.00  0.00    -0.331 N 
ATOM      6  H4  UNL     1      37.538 -21.949  22.886  1.00  0.00     0.168 HD
HETATM    7  C12 UNL     1      38.413 -21.638  24.695  1.00  0.00     0.117 A 
HETATM    8  C17 UNL     1      38.347 -20.886  25.862  1.00  0.00     0.062 A 
ENDROOT
BRANCH   1   9
HETATM    9  N2  UNL     1      37.314 -19.248  27.080  1.00  0.00    -0.339 N 
ATOM     10  H2  UNL     1      37.209 -19.709  27.983  1.00  0.00     0.167 HD
BRANCH   9  11
HETATM   11  C5  UNL     1      37.420 -17.809  26.996  1.00  0.00     0.075 A 
HETATM   12  C4  UNL     1      37.931 -17.211  25.859  1.00  0.00     0.066 A 
HETATM   13  C3  UNL     1      38.063 -15.853  25.747  1.00  0.00     0.083 A 
HETATM   14  C29 UNL     1      37.657 -15.074  26.842  1.00  0.00     0.146 A 
HETATM   15  C28 UNL     1      37.145 -15.636  27.986  1.00  0.00     0.089 A 
HETATM   16  F2  UNL     1      37.773 -13.728  26.764  1.00  0.00    -0.204 F 
HETATM   17  C27 UNL     1      37.036 -17.007  28.039  1.00  0.00     0.146 A 
HETATM   18  F1  UNL     1      36.515 -17.573  29.182  1.00  0.00    -0.204 F 
BRANCH  13  19
HETATM   19  N1  UNL     1      38.595 -15.164  24.624  1.00  0.00    -0.281 N 
ATOM     20  H1  UNL     1      38.361 -14.177  24.519  1.00  0.00     0.178 HD
BRANCH  19  21
HETATM   21  S1  UNL     1      39.605 -15.874  23.432  1.00  0.00     0.230 S 
HETATM   22  O1  UNL     1      40.795 -16.557  24.097  1.00  0.00    -0.206 OA
HETATM   23  O2  UNL     1      40.158 -14.809  22.502  1.00  0.00    -0.206 OA
BRANCH  21  24
HETATM   24  C2  UNL     1      38.821 -17.075  22.425  1.00  0.00     0.159 C 
HETATM   25  C1  UNL     1      39.313 -18.481  22.634  1.00  0.00     0.023 C 
ENDBRANCH  21  24
ENDBRANCH  19  21
ENDBRANCH  13  19
ENDBRANCH   9  11
ENDBRANCH   1   9
BRANCH   8  26
HETATM   26  C18 UNL     1      39.338 -21.149  26.922  1.00  0.00    -0.013 A 
HETATM   27  C19 UNL     1      39.084 -21.994  27.975  1.00  0.00     0.052 A 
HETATM   28  C20 UNL     1      40.037 -22.235  28.967  1.00  0.00     0.105 A 
HETATM   29  C22 UNL     1      41.274 -21.626  28.918  1.00  0.00     0.135 A 
HETATM   30  C24 UNL     1      41.533 -20.778  27.865  1.00  0.00     0.105 A 
HETATM   31  C26 UNL     1      40.579 -20.539  26.875  1.00  0.00     0.052 A 
BRANCH  28  32
HETATM   32  O3  UNL     1      39.811 -23.081  30.041  1.00  0.00    -0.353 OA
HETATM   33  C21 UNL     1      39.811 -24.475  29.802  1.00  0.00     0.210 C 
ENDBRANCH  28  32
BRANCH  29  34
HETATM   34  O4  UNL     1      42.216 -21.853  29.878  1.00  0.00    -0.351 OA
HETATM   35  C23 UNL     1      43.185 -22.875  29.828  1.00  0.00     0.210 C 
ENDBRANCH  29  34
BRANCH  30  36
HETATM   36  O5  UNL     1      42.787 -20.176  27.837  1.00  0.00    -0.353 OA
HETATM   37  C25 UNL     1      43.697 -20.643  26.849  1.00  0.00     0.210 C 
ENDBRANCH  30  36
ENDBRANCH   8  26
BRANCH   4  38
HETATM   38  C8  UNL     1      35.515 -20.256  22.762  1.00  0.00     0.008 C 
HETATM   39  C9  UNL     1      35.292 -18.757  22.637  1.00  0.00     0.022 C 
HETATM   40  C10 UNL     1      34.248 -20.967  23.097  1.00  0.00     0.022 C 
HETATM   41  C11 UNL     1      36.073 -20.829  21.476  1.00  0.00     0.022 C 
ENDBRANCH   4  38
BRANCH   7  42
HETATM   42  N5  UNL     1      39.429 -22.624  24.531  1.00  0.00    -0.371 N 
ATOM     43  H5  UNL     1      40.393 -22.351  24.339  1.00  0.00     0.161 HD
BRANCH  42  44
HETATM   44  C13 UNL     1      39.067 -24.011  24.641  1.00  0.00     0.083 C 
HETATM   45  C14 UNL     1      37.832 -24.305  25.428  1.00  0.00     0.025 C 
HETATM   46  C15 UNL     1      38.586 -25.384  26.172  1.00  0.00     0.004 C 
HETATM   47  C16 UNL     1      39.875 -24.741  25.699  1.00  0.00     0.025 C 
ENDBRANCH  42  44
ENDBRANCH   7  42
TORSDOF 12
ENDMDL
MODEL 5
REMARK VINA RESULT: -7.416970679      3.362      8.473
REMARK  12 active torsions:
REMARK  status: ('A' for Active; 'I' for Inactive)
REMARK    1  A    between atoms: C2_2  and  S1_3 
REMARK    2  A    between atoms: S1_3  and  N1_6 
REMARK    3  A    between atoms: N1_6  and  C3_8 
REMARK    4  A    between atoms: C5_10  and  N2_11 
REMARK    5  A    between atoms: N2_11  and  C6_13 
REMARK    6  A    between atoms: C7_16  and  C8_17 
REMARK    7  A    between atoms: C12_23  and  N5_24 
REMARK    8  A    between atoms: N5_24  and  C13_26 
REMARK    9  A    between atoms: C17_30  and  C18_31 
REMARK   10  A    between atoms: C20_33  and  O3_34 
REMARK   11  A    between atoms: C22_36  and  O4_37 
REMARK   12  A    between atoms: C24_39  and  O5_40 
ROOT
HETATM    1  C6  UNL     1      37.059 -18.947  26.608  1.00  0.00     0.122 A 
HETATM    2  N3  UNL     1      36.966 -18.030  27.564  1.00  0.00    -0.331 N 
ATOM      3  H3  UNL     1      36.734 -18.343  28.507  1.00  0.00     0.168 HD
HETATM    4  C7  UNL     1      37.159 -16.715  27.367  1.00  0.00     0.092 A 
HETATM    5  N4  UNL     1      37.461 -16.351  26.110  1.00  0.00    -0.331 N 
ATOM      6  H4  UNL     1      37.612 -15.359  25.926  1.00  0.00     0.168 HD
HETATM    7  C12 UNL     1      37.577 -17.206  25.075  1.00  0.00     0.117 A 
HETATM    8  C17 UNL     1      37.369 -18.557  25.328  1.00  0.00     0.062 A 
ENDROOT
BRANCH   1   9
HETATM    9  N2  UNL     1      36.874 -20.215  26.824  1.00  0.00    -0.339 N 
ATOM     10  H2  UNL     1      35.935 -20.586  26.968  1.00  0.00     0.167 HD
BRANCH   9  11
HETATM   11  C5  UNL     1      38.023 -21.092  26.856  1.00  0.00     0.075 A 
HETATM   12  C4  UNL     1      39.189 -20.692  27.482  1.00  0.00     0.066 A 
HETATM   13  C3  UNL     1      40.304 -21.485  27.520  1.00  0.00     0.083 A 
HETATM   14  C29 UNL     1      40.224 -22.739  26.892  1.00  0.00     0.146 A 
HETATM   15  C28 UNL     1      39.081 -23.166  26.262  1.00  0.00     0.089 A 
HETATM   16  F2  UNL     1      41.308 -23.549  26.911  1.00  0.00    -0.204 F 
HETATM   17  C27 UNL     1      37.992 -22.324  26.257  1.00  0.00     0.146 A 
HETATM   18  F1  UNL     1      36.842 -22.754  25.633  1.00  0.00    -0.204 F 
BRANCH  13  19
HETATM   19  N1  UNL     1      41.544 -21.142  28.124  1.00  0.00    -0.281 N 
ATOM     20  H1  UNL     1      42.233 -20.658  27.548  1.00  0.00     0.178 HD
BRANCH  19  21
HETATM   21  S1  UNL     1      41.964 -21.485  29.752  1.00  0.00     0.230 S 
HETATM   22  O1  UNL     1      40.855 -21.012  30.686  1.00  0.00    -0.206 OA
HETATM   23  O2  UNL     1      43.229 -20.742  30.141  1.00  0.00    -0.206 OA
BRANCH  21  24
HETATM   24  C2  UNL     1      42.239 -23.180  30.100  1.00  0.00     0.159 C 
HETATM   25  C1  UNL     1      40.987 -23.986  30.307  1.00  0.00     0.023 C 
ENDBRANCH  21  24
ENDBRANCH  19  21
ENDBRANCH  13  19
ENDBRANCH   9  11
ENDBRANCH   1   9
BRANCH   8  26
HETATM   26  C18 UNL     1      37.476 -19.504  24.203  1.00  0.00    -0.013 A 
HETATM   27  C19 UNL     1      36.374 -20.070  23.609  1.00  0.00     0.052 A 
HETATM   28  C20 UNL     1      36.494 -20.962  22.541  1.00  0.00     0.105 A 
HETATM   29  C22 UNL     1      37.735 -21.304  22.046  1.00  0.00     0.135 A 
HETATM   30  C24 UNL     1      38.843 -20.740  22.638  1.00  0.00     0.105 A 
HETATM   31  C26 UNL     1      38.720 -19.849  23.705  1.00  0.00     0.052 A 
BRANCH  28  32
HETATM   32  O3  UNL     1      35.402 -21.549  21.922  1.00  0.00    -0.353 OA
HETATM   33  C21 UNL     1      34.447 -22.202  22.734  1.00  0.00     0.210 C 
ENDBRANCH  28  32
BRANCH  29  34
HETATM   34  O4  UNL     1      37.869 -22.172  21.002  1.00  0.00    -0.351 OA
HETATM   35  C23 UNL     1      37.913 -21.796  19.644  1.00  0.00     0.210 C 
ENDBRANCH  29  34
BRANCH  30  36
HETATM   36  O5  UNL     1      40.084 -21.100  22.121  1.00  0.00    -0.353 OA
HETATM   37  C25 UNL     1      40.970 -20.038  21.793  1.00  0.00     0.210 C 
ENDBRANCH  30  36
ENDBRANCH   8  26
BRANCH   4  38
HETATM   38  C8  UNL     1      37.037 -15.727  28.476  1.00  0.00     0.008 C 
HETATM   39  C9  UNL     1      35.560 -15.574  28.805  1.00  0.00     0.022 C 
HETATM   40  C10 UNL     1      37.636 -14.428  28.056  1.00  0.00     0.022 C 
HETATM   41  C11 UNL     1      37.805 -16.257  29.669  1.00  0.00     0.022 C 
ENDBRANCH   4  38
BRANCH   7  42
HETATM   42  N5  UNL     1      37.902 -16.761  23.761  1.00  0.00    -0.371 N 
ATOM     43  H5  UNL     1      37.297 -16.984  22.971  1.00  0.00     0.161 HD
BRANCH  42  44
HETATM   44  C13 UNL     1      39.102 -15.992  23.572  1.00  0.00     0.083 C 
HETATM   45  C14 UNL     1      39.678 -16.005  22.194  1.00  0.00     0.025 C 
HETATM   46  C15 UNL     1      41.040 -16.286  22.788  1.00  0.00     0.004 C 
HETATM   47  C16 UNL     1      40.342 -16.716  24.062  1.00  0.00     0.025 C 
ENDBRANCH  42  44
ENDBRANCH   7  42
TORSDOF 12
ENDMDL
