MODEL 1
REMARK VINA RESULT: -8.915315291      0.000      0.000
REMARK  9 active torsions:
REMARK  status: ('A' for Active; 'I' for Inactive)
REMARK    1  A    between atoms: C6_6  and  S1_7 
REMARK    2  A    between atoms: S1_7  and  N1_10 
REMARK    3  A    between atoms: C9_13  and  C11_15 
REMARK       I    between atoms: C11_15  and  N2_17 
REMARK    4  A    between atoms: N2_17  and  C12_19 
REMARK    5  A    between atoms: C12_19  and  C13_20 
REMARK    6  A    between atoms: C12_19  and  C20_27 
REMARK    7  A    between atoms: C13_20  and  C14_21 
REMARK    8  A    between atoms: C20_27  and  N3_29 
REMARK    9  A    between atoms: N3_29  and  C22_31 
ROOT
HETATM    1  C11 UNL     1      31.412 -20.770 -12.022  1.00  0.00     0.245 C 
HETATM    2  O3  UNL     1      31.449 -21.327 -13.152  1.00  0.00    -0.271 OA
HETATM    3  N2  UNL     1      30.871 -21.507 -10.927  1.00  0.00    -0.331 N 
ATOM      4  H2  UNL     1      30.838 -21.059 -10.011  1.00  0.00     0.168 HD
ENDROOT
BRANCH   1   5
HETATM    5  C9  UNL     1      31.931 -19.420 -11.935  1.00  0.00     0.106 C 
HETATM    6  N1  UNL     1      33.231 -19.064 -12.306  1.00  0.00    -0.188 NA
HETATM    7  C7  UNL     1      32.772 -17.802 -12.772  1.00  0.00     0.111 C 
HETATM    8  C8  UNL     1      31.415 -18.468 -13.014  1.00  0.00     0.051 C 
HETATM    9  C10 UNL     1      31.557 -18.828 -10.565  1.00  0.00     0.044 C 
BRANCH   6  10
HETATM   10  S1  UNL     1      34.519 -19.148 -11.220  1.00  0.00     0.245 S 
HETATM   11  O1  UNL     1      35.703 -18.451 -11.833  1.00  0.00    -0.206 OA
HETATM   12  O2  UNL     1      34.198 -18.352  -9.989  1.00  0.00    -0.206 OA
BRANCH  10  13
HETATM   13  C6  UNL     1      35.026 -20.776 -10.814  1.00  0.00     0.086 A 
HETATM   14  C4  UNL     1      35.310 -21.033  -9.493  1.00  0.00    -0.038 A 
HETATM   15  C3  UNL     1      35.729 -22.284  -9.117  1.00  0.00     0.015 A 
HETATM   16  C5  UNL     1      35.165 -19.946  -8.453  1.00  0.00     0.050 C 
HETATM   17  C2  UNL     1      35.868 -23.288 -10.051  1.00  0.00    -0.061 A 
HETATM   18  C1  UNL     1      36.326 -24.636  -9.602  1.00  0.00     0.048 C 
HETATM   19  C27 UNL     1      35.579 -23.011 -11.369  1.00  0.00     0.015 A 
HETATM   20  C25 UNL     1      35.149 -21.741 -11.780  1.00  0.00    -0.038 A 
HETATM   21  C26 UNL     1      34.879 -21.492 -13.221  1.00  0.00     0.050 C 
ENDBRANCH  10  13
ENDBRANCH   6  10
ENDBRANCH   1   5
BRANCH   3  22
HETATM   22  C12 UNL     1      30.370 -22.845 -11.048  1.00  0.00     0.012 C 
BRANCH  22  23
HETATM   23  C13 UNL     1      29.002 -23.117 -10.571  1.00  0.00     0.059 C 
BRANCH  23  24
HETATM   24  C14 UNL     1      28.857 -23.848  -9.270  1.00  0.00    -0.009 C 
HETATM   25  C15 UNL     1      27.615 -24.641  -9.115  1.00  0.00     0.005 C 
HETATM   26  C16 UNL     1      27.508 -25.248  -7.727  1.00  0.00     0.000 C 
HETATM   27  C17 UNL     1      27.546 -24.163  -6.690  1.00  0.00     0.000 C 
HETATM   28  C18 UNL     1      28.953 -23.548  -6.815  1.00  0.00     0.000 C 
HETATM   29  C19 UNL     1      28.960 -22.833  -8.116  1.00  0.00     0.005 C 
ENDBRANCH  23  24
ENDBRANCH  22  23
BRANCH  22  30
HETATM   30  C20 UNL     1      31.370 -23.919 -10.663  1.00  0.00     0.118 C 
HETATM   31  C21 UNL     1      32.021 -24.586 -11.813  1.00  0.00     0.038 C 
BRANCH  30  32
HETATM   32  N3  UNL     1      32.243 -23.543  -9.628  1.00  0.00    -0.409 N 
ATOM     33  H3  UNL     1      32.548 -22.572  -9.558  1.00  0.00     0.154 HD
BRANCH  32  34
HETATM   34  C22 UNL     1      32.705 -24.481  -8.687  1.00  0.00     0.069 C 
HETATM   35  C23 UNL     1      31.750 -25.616  -8.500  1.00  0.00     0.031 C 
HETATM   36  C24 UNL     1      32.822 -23.754  -7.336  1.00  0.00     0.031 C 
ENDBRANCH  32  34
ENDBRANCH  30  32
ENDBRANCH  22  30
ENDBRANCH   3  22
TORSDOF 9
ENDMDL
MODEL 2
REMARK VINA RESULT: -8.878338713      2.781      6.006
REMARK  9 active torsions:
REMARK  status: ('A' for Active; 'I' for Inactive)
REMARK    1  A    between atoms: C6_6  and  S1_7 
REMARK    2  A    between atoms: S1_7  and  N1_10 
REMARK    3  A    between atoms: C9_13  and  C11_15 
REMARK       I    between atoms: C11_15  and  N2_17 
REMARK    4  A    between atoms: N2_17  and  C12_19 
REMARK    5  A    between atoms: C12_19  and  C13_20 
REMARK    6  A    between atoms: C12_19  and  C20_27 
REMARK    7  A    between atoms: C13_20  and  C14_21 
REMARK    8  A    between atoms: C20_27  and  N3_29 
REMARK    9  A    between atoms: N3_29  and  C22_31 
ROOT
HETATM    1  C11 UNL     1      33.348 -20.092 -11.030  1.00  0.00     0.245 C 
HETATM    2  O3  UNL     1      34.214 -20.360 -11.905  1.00  0.00    -0.271 OA
HETATM    3  N2  UNL     1      33.764 -20.043  -9.666  1.00  0.00    -0.331 N 
ATOM      4  H2  UNL     1      33.066 -19.827  -8.954  1.00  0.00     0.168 HD
ENDROOT
BRANCH   1   5
HETATM    5  C9  UNL     1      31.996 -19.852 -11.492  1.00  0.00     0.106 C 
HETATM    6  N1  UNL     1      30.907 -20.663 -11.157  1.00  0.00    -0.188 NA
HETATM    7  C7  UNL     1      30.048 -19.530 -11.138  1.00  0.00     0.111 C 
HETATM    8  C8  UNL     1      31.282 -18.690 -10.801  1.00  0.00     0.051 C 
HETATM    9  C10 UNL     1      32.029 -19.555 -13.002  1.00  0.00     0.044 C 
BRANCH   6  10
HETATM   10  S1  UNL     1      30.497 -22.022 -12.067  1.00  0.00     0.245 S 
HETATM   11  O1  UNL     1      29.570 -22.879 -11.248  1.00  0.00    -0.206 OA
HETATM   12  O2  UNL     1      29.687 -21.609 -13.261  1.00  0.00    -0.206 OA
BRANCH  10  13
HETATM   13  C6  UNL     1      31.858 -23.024 -12.533  1.00  0.00     0.086 A 
HETATM   14  C4  UNL     1      32.560 -23.637 -11.520  1.00  0.00    -0.038 A 
HETATM   15  C3  UNL     1      33.646 -24.420 -11.821  1.00  0.00     0.015 A 
HETATM   16  C5  UNL     1      32.143 -23.453 -10.079  1.00  0.00     0.050 C 
HETATM   17  C2  UNL     1      34.041 -24.598 -13.129  1.00  0.00    -0.061 A 
HETATM   18  C1  UNL     1      35.228 -25.458 -13.416  1.00  0.00     0.048 C 
HETATM   19  C27 UNL     1      33.326 -23.976 -14.129  1.00  0.00     0.015 A 
HETATM   20  C25 UNL     1      32.213 -23.171 -13.848  1.00  0.00    -0.038 A 
HETATM   21  C26 UNL     1      31.496 -22.500 -14.966  1.00  0.00     0.050 C 
ENDBRANCH  10  13
ENDBRANCH   6  10
ENDBRANCH   1   5
BRANCH   3  22
HETATM   22  C12 UNL     1      35.113 -20.280  -9.245  1.00  0.00     0.012 C 
BRANCH  22  23
HETATM   23  C13 UNL     1      35.440 -21.604  -8.683  1.00  0.00     0.059 C 
BRANCH  23  24
HETATM   24  C14 UNL     1      35.843 -22.681  -9.644  1.00  0.00    -0.009 C 
HETATM   25  C15 UNL     1      36.129 -24.004  -9.041  1.00  0.00     0.005 C 
HETATM   26  C16 UNL     1      36.638 -24.993 -10.076  1.00  0.00     0.000 C 
HETATM   27  C17 UNL     1      37.879 -24.458 -10.728  1.00  0.00     0.000 C 
HETATM   28  C18 UNL     1      37.414 -23.199 -11.486  1.00  0.00     0.000 C 
HETATM   29  C19 UNL     1      37.075 -22.205 -10.435  1.00  0.00     0.005 C 
ENDBRANCH  23  24
ENDBRANCH  22  23
BRANCH  22  30
HETATM   30  C20 UNL     1      35.738 -19.128  -8.481  1.00  0.00     0.118 C 
HETATM   31  C21 UNL     1      36.280 -18.051  -9.337  1.00  0.00     0.038 C 
BRANCH  30  32
HETATM   32  N3  UNL     1      34.971 -18.684  -7.389  1.00  0.00    -0.409 N 
ATOM     33  H3  UNL     1      34.076 -18.226  -7.560  1.00  0.00     0.154 HD
BRANCH  32  34
HETATM   34  C22 UNL     1      35.416 -18.860  -6.066  1.00  0.00     0.069 C 
HETATM   35  C23 UNL     1      34.286 -19.081  -5.111  1.00  0.00     0.031 C 
HETATM   36  C24 UNL     1      36.122 -17.560  -5.645  1.00  0.00     0.031 C 
ENDBRANCH  32  34
ENDBRANCH  30  32
ENDBRANCH  22  30
ENDBRANCH   3  22
TORSDOF 9
ENDMDL
MODEL 3
REMARK VINA RESULT: -8.875890099      0.200      1.475
REMARK  9 active torsions:
REMARK  status: ('A' for Active; 'I' for Inactive)
REMARK    1  A    between atoms: C6_6  and  S1_7 
REMARK    2  A    between atoms: S1_7  and  N1_10 
REMARK    3  A    between atoms: C9_13  and  C11_15 
REMARK       I    between atoms: C11_15  and  N2_17 
REMARK    4  A    between atoms: N2_17  and  C12_19 
REMARK    5  A    between atoms: C12_19  and  C13_20 
REMARK    6  A    between atoms: C12_19  and  C20_27 
REMARK    7  A    between atoms: C13_20  and  C14_21 
REMARK    8  A    between atoms: C20_27  and  N3_29 
REMARK    9  A    between atoms: N3_29  and  C22_31 
ROOT
HETATM    1  C11 UNL     1      31.508 -20.735 -11.994  1.00  0.00     0.245 C 
HETATM    2  O3  UNL     1      31.510 -21.275 -13.133  1.00  0.00    -0.271 OA
HETATM    3  N2  UNL     1      30.974 -21.477 -10.899  1.00  0.00    -0.331 N 
ATOM      4  H2  UNL     1      30.969 -21.043  -9.976  1.00  0.00     0.168 HD
ENDROOT
BRANCH   1   5
HETATM    5  C9  UNL     1      32.057 -19.397 -11.898  1.00  0.00     0.106 C 
HETATM    6  N1  UNL     1      33.395 -19.088 -12.159  1.00  0.00    -0.188 NA
HETATM    7  C7  UNL     1      33.017 -17.829 -12.700  1.00  0.00     0.111 C 
HETATM    8  C8  UNL     1      31.668 -18.465 -13.046  1.00  0.00     0.051 C 
HETATM    9  C10 UNL     1      31.578 -18.754 -10.584  1.00  0.00     0.044 C 
BRANCH   6  10
HETATM   10  S1  UNL     1      34.577 -19.173 -10.959  1.00  0.00     0.245 S 
HETATM   11  O1  UNL     1      35.782 -18.402 -11.424  1.00  0.00    -0.206 OA
HETATM   12  O2  UNL     1      34.107 -18.450  -9.730  1.00  0.00    -0.206 OA
BRANCH  10  13
HETATM   13  C6  UNL     1      35.113 -20.798 -10.578  1.00  0.00     0.086 A 
HETATM   14  C4  UNL     1      35.273 -21.668 -11.632  1.00  0.00    -0.038 A 
HETATM   15  C3  UNL     1      35.673 -22.958 -11.396  1.00  0.00     0.015 A 
HETATM   16  C5  UNL     1      35.011 -21.210 -13.049  1.00  0.00     0.050 C 
HETATM   17  C2  UNL     1      35.916 -23.393 -10.111  1.00  0.00    -0.061 A 
HETATM   18  C1  UNL     1      36.351 -24.806  -9.895  1.00  0.00     0.048 C 
HETATM   19  C27 UNL     1      35.750 -22.509  -9.069  1.00  0.00     0.015 A 
HETATM   20  C25 UNL     1      35.341 -21.185  -9.283  1.00  0.00    -0.038 A 
HETATM   21  C26 UNL     1      35.150 -20.281  -8.117  1.00  0.00     0.050 C 
ENDBRANCH  10  13
ENDBRANCH   6  10
ENDBRANCH   1   5
BRANCH   3  22
HETATM   22  C12 UNL     1      30.443 -22.802 -11.030  1.00  0.00     0.012 C 
BRANCH  22  23
HETATM   23  C13 UNL     1      29.065 -23.045 -10.563  1.00  0.00     0.059 C 
BRANCH  23  24
HETATM   24  C14 UNL     1      28.895 -23.806  -9.282  1.00  0.00    -0.009 C 
HETATM   25  C15 UNL     1      27.649 -24.598  -9.168  1.00  0.00     0.005 C 
HETATM   26  C16 UNL     1      27.515 -25.237  -7.797  1.00  0.00     0.000 C 
HETATM   27  C17 UNL     1      27.537 -24.177  -6.734  1.00  0.00     0.000 C 
HETATM   28  C18 UNL     1      28.948 -23.564  -6.819  1.00  0.00     0.000 C 
HETATM   29  C19 UNL     1      28.980 -22.818  -8.103  1.00  0.00     0.005 C 
ENDBRANCH  23  24
ENDBRANCH  22  23
BRANCH  22  30
HETATM   30  C20 UNL     1      31.415 -23.901 -10.645  1.00  0.00     0.118 C 
HETATM   31  C21 UNL     1      32.072 -24.565 -11.793  1.00  0.00     0.038 C 
BRANCH  30  32
HETATM   32  N3  UNL     1      32.278 -23.557  -9.590  1.00  0.00    -0.409 N 
ATOM     33  H3  UNL     1      32.602 -22.594  -9.502  1.00  0.00     0.154 HD
BRANCH  32  34
HETATM   34  C22 UNL     1      32.704 -24.517  -8.654  1.00  0.00     0.069 C 
HETATM   35  C23 UNL     1      31.758 -25.670  -8.551  1.00  0.00     0.031 C 
HETATM   36  C24 UNL     1      32.737 -23.829  -7.277  1.00  0.00     0.031 C 
ENDBRANCH  32  34
ENDBRANCH  30  32
ENDBRANCH  22  30
ENDBRANCH   3  22
TORSDOF 9
ENDMDL
MODEL 4
REMARK VINA RESULT: -8.830293610      0.711      1.011
REMARK  9 active torsions:
REMARK  status: ('A' for Active; 'I' for Inactive)
REMARK    1  A    between atoms: C6_6  and  S1_7 
REMARK    2  A    between atoms: S1_7  and  N1_10 
REMARK    3  A    between atoms: C9_13  and  C11_15 
REMARK       I    between atoms: C11_15  and  N2_17 
REMARK    4  A    between atoms: N2_17  and  C12_19 
REMARK    5  A    between atoms: C12_19  and  C13_20 
REMARK    6  A    between atoms: C12_19  and  C20_27 
REMARK    7  A    between atoms: C13_20  and  C14_21 
REMARK    8  A    between atoms: C20_27  and  N3_29 
REMARK    9  A    between atoms: N3_29  and  C22_31 
ROOT
HETATM    1  C11 UNL     1      31.497 -20.772 -12.021  1.00  0.00     0.245 C 
HETATM    2  O3  UNL     1      31.320 -21.287 -13.158  1.00  0.00    -0.271 OA
HETATM    3  N2  UNL     1      31.052 -21.500 -10.878  1.00  0.00    -0.331 N 
ATOM      4  H2  UNL     1      31.191 -21.086  -9.956  1.00  0.00     0.168 HD
ENDROOT
BRANCH   1   5
HETATM    5  C9  UNL     1      32.145 -19.477 -11.977  1.00  0.00     0.106 C 
HETATM    6  N1  UNL     1      33.174 -19.096 -12.843  1.00  0.00    -0.188 NA
HETATM    7  C7  UNL     1      32.697 -17.756 -12.849  1.00  0.00     0.111 C 
HETATM    8  C8  UNL     1      31.310 -18.327 -12.541  1.00  0.00     0.051 C 
HETATM    9  C10 UNL     1      32.487 -19.139 -10.516  1.00  0.00     0.044 C 
BRANCH   6  10
HETATM   10  S1  UNL     1      34.793 -19.415 -12.494  1.00  0.00     0.245 S 
HETATM   11  O1  UNL     1      35.590 -19.267 -13.761  1.00  0.00    -0.206 OA
HETATM   12  O2  UNL     1      35.333 -18.361 -11.573  1.00  0.00    -0.206 OA
BRANCH  10  13
HETATM   13  C6  UNL     1      35.100 -21.026 -11.871  1.00  0.00     0.086 A 
HETATM   14  C4  UNL     1      35.594 -21.118 -10.591  1.00  0.00    -0.038 A 
HETATM   15  C3  UNL     1      35.871 -22.350 -10.056  1.00  0.00     0.015 A 
HETATM   16  C5  UNL     1      35.835 -19.872  -9.771  1.00  0.00     0.050 C 
HETATM   17  C2  UNL     1      35.658 -23.498 -10.789  1.00  0.00    -0.061 A 
HETATM   18  C1  UNL     1      35.971 -24.821 -10.170  1.00  0.00     0.048 C 
HETATM   19  C27 UNL     1      35.163 -23.385 -12.068  1.00  0.00     0.015 A 
HETATM   20  C25 UNL     1      34.872 -22.138 -12.639  1.00  0.00    -0.038 A 
HETATM   21  C26 UNL     1      34.367 -22.074 -14.037  1.00  0.00     0.050 C 
ENDBRANCH  10  13
ENDBRANCH   6  10
ENDBRANCH   1   5
BRANCH   3  22
HETATM   22  C12 UNL     1      30.418 -22.783 -10.958  1.00  0.00     0.012 C 
BRANCH  22  23
HETATM   23  C13 UNL     1      29.051 -22.915 -10.421  1.00  0.00     0.059 C 
BRANCH  23  24
HETATM   24  C14 UNL     1      28.872 -23.746  -9.186  1.00  0.00    -0.009 C 
HETATM   25  C15 UNL     1      27.652 -24.585  -9.150  1.00  0.00     0.005 C 
HETATM   26  C16 UNL     1      27.503 -25.298  -7.817  1.00  0.00     0.000 C 
HETATM   27  C17 UNL     1      27.458 -24.294  -6.702  1.00  0.00     0.000 C 
HETATM   28  C18 UNL     1      28.848 -23.630  -6.714  1.00  0.00     0.000 C 
HETATM   29  C19 UNL     1      28.890 -22.819  -7.957  1.00  0.00     0.005 C 
ENDBRANCH  23  24
ENDBRANCH  22  23
BRANCH  22  30
HETATM   30  C20 UNL     1      31.324 -23.947 -10.600  1.00  0.00     0.118 C 
HETATM   31  C21 UNL     1      31.750 -24.766 -11.756  1.00  0.00     0.038 C 
BRANCH  30  32
HETATM   32  N3  UNL     1      32.352 -23.614  -9.701  1.00  0.00    -0.409 N 
ATOM     33  H3  UNL     1      33.159 -23.088 -10.036  1.00  0.00     0.154 HD
BRANCH  32  34
HETATM   34  C22 UNL     1      32.289 -23.994  -8.348  1.00  0.00     0.069 C 
HETATM   35  C23 UNL     1      33.501 -23.571  -7.581  1.00  0.00     0.031 C 
HETATM   36  C24 UNL     1      32.236 -25.532  -8.307  1.00  0.00     0.031 C 
ENDBRANCH  32  34
ENDBRANCH  30  32
ENDBRANCH  22  30
ENDBRANCH   3  22
TORSDOF 9
ENDMDL
MODEL 5
REMARK VINA RESULT: -8.769976154      2.803      6.162
REMARK  9 active torsions:
REMARK  status: ('A' for Active; 'I' for Inactive)
REMARK    1  A    between atoms: C6_6  and  S1_7 
REMARK    2  A    between atoms: S1_7  and  N1_10 
REMARK    3  A    between atoms: C9_13  and  C11_15 
REMARK       I    between atoms: C11_15  and  N2_17 
REMARK    4  A    between atoms: N2_17  and  C12_19 
REMARK    5  A    between atoms: C12_19  and  C13_20 
REMARK    6  A    between atoms: C12_19  and  C20_27 
REMARK    7  A    between atoms: C13_20  and  C14_21 
REMARK    8  A    between atoms: C20_27  and  N3_29 
REMARK    9  A    between atoms: N3_29  and  C22_31 
ROOT
HETATM    1  C11 UNL     1      33.408 -20.001 -11.058  1.00  0.00     0.245 C 
HETATM    2  O3  UNL     1      34.306 -20.033 -11.943  1.00  0.00    -0.271 OA
HETATM    3  N2  UNL     1      33.802 -20.156  -9.696  1.00  0.00    -0.331 N 
ATOM      4  H2  UNL     1      33.078 -20.133  -8.977  1.00  0.00     0.168 HD
ENDROOT
BRANCH   1   5
HETATM    5  C9  UNL     1      32.045 -19.806 -11.509  1.00  0.00     0.106 C 
HETATM    6  N1  UNL     1      30.987 -20.655 -11.170  1.00  0.00    -0.188 NA
HETATM    7  C7  UNL     1      30.090 -19.553 -11.139  1.00  0.00     0.111 C 
HETATM    8  C8  UNL     1      31.297 -18.672 -10.807  1.00  0.00     0.051 C 
HETATM    9  C10 UNL     1      32.057 -19.501 -13.017  1.00  0.00     0.044 C 
BRANCH   6  10
HETATM   10  S1  UNL     1      30.617 -22.023 -12.084  1.00  0.00     0.245 S 
HETATM   11  O1  UNL     1      29.625 -22.852 -11.315  1.00  0.00    -0.206 OA
HETATM   12  O2  UNL     1      29.895 -21.618 -13.335  1.00  0.00    -0.206 OA
BRANCH  10  13
HETATM   13  C6  UNL     1      31.990 -23.053 -12.443  1.00  0.00     0.086 A 
HETATM   14  C4  UNL     1      32.311 -23.229 -13.769  1.00  0.00    -0.038 A 
HETATM   15  C3  UNL     1      33.364 -24.037 -14.113  1.00  0.00     0.015 A 
HETATM   16  C5  UNL     1      31.510 -22.538 -14.848  1.00  0.00     0.050 C 
HETATM   17  C2  UNL     1      34.104 -24.677 -13.142  1.00  0.00    -0.061 A 
HETATM   18  C1  UNL     1      35.244 -25.549 -13.557  1.00  0.00     0.048 C 
HETATM   19  C27 UNL     1      33.768 -24.488 -11.820  1.00  0.00     0.015 A 
HETATM   20  C25 UNL     1      32.697 -23.667 -11.441  1.00  0.00    -0.038 A 
HETATM   21  C26 UNL     1      32.360 -23.523  -9.999  1.00  0.00     0.050 C 
ENDBRANCH  10  13
ENDBRANCH   6  10
ENDBRANCH   1   5
BRANCH   3  22
HETATM   22  C12 UNL     1      35.162 -20.343  -9.285  1.00  0.00     0.012 C 
BRANCH  22  23
HETATM   23  C13 UNL     1      35.545 -21.656  -8.734  1.00  0.00     0.059 C 
BRANCH  23  24
HETATM   24  C14 UNL     1      35.937 -22.726  -9.708  1.00  0.00    -0.009 C 
HETATM   25  C15 UNL     1      36.270 -24.042  -9.115  1.00  0.00     0.005 C 
HETATM   26  C16 UNL     1      36.763 -25.021 -10.167  1.00  0.00     0.000 C 
HETATM   27  C17 UNL     1      37.971 -24.461 -10.860  1.00  0.00     0.000 C 
HETATM   28  C18 UNL     1      37.456 -23.212 -11.601  1.00  0.00     0.000 C 
HETATM   29  C19 UNL     1      37.133 -22.225 -10.539  1.00  0.00     0.005 C 
ENDBRANCH  23  24
ENDBRANCH  22  23
BRANCH  22  30
HETATM   30  C20 UNL     1      35.745 -19.171  -8.517  1.00  0.00     0.118 C 
HETATM   31  C21 UNL     1      36.263 -18.080  -9.371  1.00  0.00     0.038 C 
BRANCH  30  32
HETATM   32  N3  UNL     1      34.957 -18.749  -7.433  1.00  0.00    -0.409 N 
ATOM     33  H3  UNL     1      34.063 -18.291  -7.613  1.00  0.00     0.154 HD
BRANCH  32  34
HETATM   34  C22 UNL     1      35.377 -18.947  -6.105  1.00  0.00     0.069 C 
HETATM   35  C23 UNL     1      34.231 -19.203  -5.178  1.00  0.00     0.031 C 
HETATM   36  C24 UNL     1      36.057 -17.646  -5.643  1.00  0.00     0.031 C 
ENDBRANCH  32  34
ENDBRANCH  30  32
ENDBRANCH  22  30
ENDBRANCH   3  22
TORSDOF 9
ENDMDL
