MODEL 1
REMARK VINA RESULT: -8.091002114      0.000      0.000
REMARK  10 active torsions:
REMARK  status: ('A' for Active; 'I' for Inactive)
REMARK    1  A    between atoms: C2_2  and  C3_3 
REMARK    2  A    between atoms: C3_3  and  C4_4 
REMARK    3  A    between atoms: C4_4  and  C5_5 
REMARK    4  A    between atoms: C5_5  and  N1_6 
REMARK    5  A    between atoms: N3_28  and  C24_29 
REMARK    6  A    between atoms: C24_29  and  C25_30 
REMARK    7  A    between atoms: C24_29  and  C26_33 
REMARK    8  A    between atoms: C25_30  and  O2_31 
REMARK    9  A    between atoms: C26_33  and  C27_34 
REMARK   10  A    between atoms: C27_34  and  C28_35 
ROOT
HETATM    1  N1  UNL     1      32.509 -19.030 -11.960  1.00  0.00    -0.378 N 
HETATM    2  C6  UNL     1      31.598 -18.386 -11.003  1.00  0.00     0.128 C 
HETATM    3  C7  UNL     1      30.530 -19.466 -10.867  1.00  0.00     0.061 C 
HETATM    4  C8  UNL     1      31.362 -20.707 -10.942  1.00  0.00    -0.021 A 
HETATM    5  C9  UNL     1      31.089 -22.006 -10.461  1.00  0.00    -0.040 A 
HETATM    6  C10 UNL     1      32.006 -23.014 -10.624  1.00  0.00    -0.036 A 
HETATM    7  C11 UNL     1      33.199 -22.714 -11.270  1.00  0.00     0.012 A 
HETATM    8  C12 UNL     1      33.445 -21.425 -11.734  1.00  0.00     0.072 A 
HETATM    9  N2  UNL     1      34.659 -21.397 -12.299  1.00  0.00    -0.353 N 
ATOM     10  H2  UNL     1      35.107 -20.586 -12.726  1.00  0.00     0.166 HD
HETATM   11  C13 UNL     1      35.188 -22.656 -12.198  1.00  0.00     0.043 A 
HETATM   12  C14 UNL     1      36.428 -23.094 -12.643  1.00  0.00     0.030 A 
HETATM   13  C15 UNL     1      36.826 -24.402 -12.463  1.00  0.00     0.002 A 
HETATM   14  C16 UNL     1      35.930 -25.229 -11.825  1.00  0.00     0.001 A 
HETATM   15  C17 UNL     1      34.683 -24.815 -11.371  1.00  0.00     0.014 A 
HETATM   16  C18 UNL     1      34.313 -23.504 -11.564  1.00  0.00     0.004 A 
HETATM   17  C19 UNL     1      32.528 -20.398 -11.580  1.00  0.00     0.065 A 
HETATM   18  C20 UNL     1      31.767 -24.381 -10.171  1.00  0.00     0.061 C 
HETATM   19  C21 UNL     1      30.411 -24.686  -9.610  1.00  0.00     0.062 C 
HETATM   20  C22 UNL     1      29.882 -26.031 -10.163  1.00  0.00     0.028 C 
HETATM   21  C23 UNL     1      30.283 -24.618  -8.157  1.00  0.00     0.231 C 
HETATM   22  O1  UNL     1      31.027 -25.031  -7.203  1.00  0.00    -0.272 OA
HETATM   23  N3  UNL     1      29.059 -23.941  -8.289  1.00  0.00    -0.338 N 
HETATM   24  C30 UNL     1      29.392 -23.643  -9.673  1.00  0.00     0.109 C 
HETATM   25  C31 UNL     1      29.823 -22.229  -9.770  1.00  0.00     0.066 C 
ENDROOT
BRANCH  23  26
HETATM   26  C24 UNL     1      27.974 -23.657  -7.411  1.00  0.00     0.111 C 
BRANCH  26  27
HETATM   27  C25 UNL     1      28.428 -22.932  -6.138  1.00  0.00     0.189 C 
BRANCH  27  28
HETATM   28  O2  UNL     1      28.760 -23.930  -5.218  1.00  0.00    -0.399 OA
ATOM     29  H2  UNL     1      29.383 -23.540  -4.617  1.00  0.00     0.209 HD
ENDBRANCH  27  28
ENDBRANCH  26  27
BRANCH  26  30
HETATM   30  C26 UNL     1      27.130 -24.813  -6.981  1.00  0.00     0.027 C 
BRANCH  30  31
HETATM   31  C27 UNL     1      26.765 -25.765  -8.064  1.00  0.00     0.002 C 
BRANCH  31  32
HETATM   32  C28 UNL     1      27.400 -27.136  -7.863  1.00  0.00    -0.004 C 
HETATM   33  C29 UNL     1      26.336 -28.214  -7.843  1.00  0.00     0.005 C 
ENDBRANCH  31  32
ENDBRANCH  30  31
ENDBRANCH  26  30
ENDBRANCH  23  26
BRANCH   1  34
HETATM   34  C5  UNL     1      33.181 -18.362 -13.013  1.00  0.00     0.123 C 
BRANCH  34  35
HETATM   35  C4  UNL     1      34.669 -18.179 -12.722  1.00  0.00     0.020 C 
BRANCH  35  36
HETATM   36  C3  UNL     1      34.917 -17.444 -11.452  1.00  0.00     0.001 C 
BRANCH  36  37
HETATM   37  C2  UNL     1      35.902 -18.266 -10.639  1.00  0.00    -0.004 C 
HETATM   38  C1  UNL     1      35.221 -18.971  -9.489  1.00  0.00     0.005 C 
ENDBRANCH  36  37
ENDBRANCH  35  36
ENDBRANCH  34  35
ENDBRANCH   1  34
TORSDOF 10
ENDMDL
MODEL 2
REMARK VINA RESULT: -7.812502371      2.637      6.889
REMARK  10 active torsions:
REMARK  status: ('A' for Active; 'I' for Inactive)
REMARK    1  A    between atoms: C2_2  and  C3_3 
REMARK    2  A    between atoms: C3_3  and  C4_4 
REMARK    3  A    between atoms: C4_4  and  C5_5 
REMARK    4  A    between atoms: C5_5  and  N1_6 
REMARK    5  A    between atoms: N3_28  and  C24_29 
REMARK    6  A    between atoms: C24_29  and  C25_30 
REMARK    7  A    between atoms: C24_29  and  C26_33 
REMARK    8  A    between atoms: C25_30  and  O2_31 
REMARK    9  A    between atoms: C26_33  and  C27_34 
REMARK   10  A    between atoms: C27_34  and  C28_35 
ROOT
HETATM    1  N1  UNL     1      30.043 -21.444 -12.722  1.00  0.00    -0.378 N 
HETATM    2  C6  UNL     1      31.047 -21.455 -13.795  1.00  0.00     0.128 C 
HETATM    3  C7  UNL     1      32.290 -21.039 -13.017  1.00  0.00     0.061 C 
HETATM    4  C8  UNL     1      32.058 -21.728 -11.710  1.00  0.00    -0.021 A 
HETATM    5  C9  UNL     1      32.986 -22.121 -10.720  1.00  0.00    -0.040 A 
HETATM    6  C10 UNL     1      32.560 -22.762  -9.584  1.00  0.00    -0.036 A 
HETATM    7  C11 UNL     1      31.200 -23.010  -9.446  1.00  0.00     0.012 A 
HETATM    8  C12 UNL     1      30.305 -22.614 -10.436  1.00  0.00     0.072 A 
HETATM    9  N2  UNL     1      29.071 -22.981 -10.070  1.00  0.00    -0.353 N 
ATOM     10  H2  UNL     1      28.212 -22.823 -10.599  1.00  0.00     0.166 HD
HETATM   11  C13 UNL     1      29.170 -23.607  -8.855  1.00  0.00     0.043 A 
HETATM   12  C14 UNL     1      28.146 -24.155  -8.096  1.00  0.00     0.030 A 
HETATM   13  C15 UNL     1      28.406 -24.763  -6.886  1.00  0.00     0.002 A 
HETATM   14  C16 UNL     1      29.723 -24.789  -6.488  1.00  0.00     0.001 A 
HETATM   15  C17 UNL     1      30.766 -24.246  -7.229  1.00  0.00     0.014 A 
HETATM   16  C18 UNL     1      30.477 -23.646  -8.434  1.00  0.00     0.004 A 
HETATM   17  C19 UNL     1      30.720 -21.963 -11.586  1.00  0.00     0.065 A 
HETATM   18  C20 UNL     1      33.469 -23.168  -8.517  1.00  0.00     0.061 C 
HETATM   19  C21 UNL     1      34.903 -22.751  -8.649  1.00  0.00     0.062 C 
HETATM   20  C22 UNL     1      35.442 -22.218  -7.299  1.00  0.00     0.028 C 
HETATM   21  C23 UNL     1      35.810 -23.734  -9.236  1.00  0.00     0.231 C 
HETATM   22  O1  UNL     1      35.948 -24.994  -9.064  1.00  0.00    -0.272 OA
HETATM   23  N3  UNL     1      36.409 -22.729 -10.013  1.00  0.00    -0.338 N 
HETATM   24  C30 UNL     1      35.263 -21.870  -9.756  1.00  0.00     0.109 C 
HETATM   25  C31 UNL     1      34.399 -21.846 -10.959  1.00  0.00     0.066 C 
ENDROOT
BRANCH  23  26
HETATM   26  C24 UNL     1      37.620 -22.626 -10.756  1.00  0.00     0.111 C 
BRANCH  26  27
HETATM   27  C25 UNL     1      37.904 -21.191 -11.214  1.00  0.00     0.189 C 
BRANCH  27  28
HETATM   28  O2  UNL     1      38.249 -20.475 -10.065  1.00  0.00    -0.399 OA
ATOM     29  H2  UNL     1      39.195 -20.396 -10.076  1.00  0.00     0.209 HD
ENDBRANCH  27  28
ENDBRANCH  26  27
BRANCH  26  30
HETATM   30  C26 UNL     1      37.753 -23.505 -11.957  1.00  0.00     0.027 C 
BRANCH  30  31
HETATM   31  C27 UNL     1      36.573 -23.516 -12.864  1.00  0.00     0.002 C 
BRANCH  31  32
HETATM   32  C28 UNL     1      35.824 -24.844 -12.816  1.00  0.00    -0.004 C 
HETATM   33  C29 UNL     1      34.374 -24.647 -13.207  1.00  0.00     0.005 C 
ENDBRANCH  31  32
ENDBRANCH  30  31
ENDBRANCH  26  30
ENDBRANCH  23  26
BRANCH   1  34
HETATM   34  C5  UNL     1      28.709 -20.990 -12.866  1.00  0.00     0.123 C 
BRANCH  34  35
HETATM   35  C4  UNL     1      28.471 -19.663 -12.147  1.00  0.00     0.020 C 
BRANCH  35  36
HETATM   36  C3  UNL     1      29.662 -18.771 -12.185  1.00  0.00     0.001 C 
BRANCH  36  37
HETATM   37  C2  UNL     1      30.120 -18.567 -10.751  1.00  0.00    -0.004 C 
HETATM   38  C1  UNL     1      31.585 -18.205 -10.682  1.00  0.00     0.005 C 
ENDBRANCH  36  37
ENDBRANCH  35  36
ENDBRANCH  34  35
ENDBRANCH   1  34
TORSDOF 10
ENDMDL
MODEL 3
REMARK VINA RESULT: -7.798279925     11.505     15.983
REMARK  10 active torsions:
REMARK  status: ('A' for Active; 'I' for Inactive)
REMARK    1  A    between atoms: C2_2  and  C3_3 
REMARK    2  A    between atoms: C3_3  and  C4_4 
REMARK    3  A    between atoms: C4_4  and  C5_5 
REMARK    4  A    between atoms: C5_5  and  N1_6 
REMARK    5  A    between atoms: N3_28  and  C24_29 
REMARK    6  A    between atoms: C24_29  and  C25_30 
REMARK    7  A    between atoms: C24_29  and  C26_33 
REMARK    8  A    between atoms: C25_30  and  O2_31 
REMARK    9  A    between atoms: C26_33  and  C27_34 
REMARK   10  A    between atoms: C27_34  and  C28_35 
ROOT
HETATM    1  N1  UNL     1      20.915 -37.099  -7.218  1.00  0.00    -0.378 N 
HETATM    2  C6  UNL     1      19.832 -36.107  -7.265  1.00  0.00     0.128 C 
HETATM    3  C7  UNL     1      20.542 -34.892  -6.678  1.00  0.00     0.061 C 
HETATM    4  C8  UNL     1      21.917 -35.059  -7.243  1.00  0.00    -0.021 A 
HETATM    5  C9  UNL     1      22.925 -34.095  -7.460  1.00  0.00    -0.040 A 
HETATM    6  C10 UNL     1      24.128 -34.460  -8.011  1.00  0.00    -0.036 A 
HETATM    7  C11 UNL     1      24.315 -35.795  -8.344  1.00  0.00     0.012 A 
HETATM    8  C12 UNL     1      23.305 -36.727  -8.122  1.00  0.00     0.072 A 
HETATM    9  N2  UNL     1      23.727 -37.926  -8.540  1.00  0.00    -0.353 N 
ATOM     10  H2  UNL     1      23.200 -38.799  -8.502  1.00  0.00     0.166 HD
HETATM   11  C13 UNL     1      24.998 -37.768  -9.027  1.00  0.00     0.043 A 
HETATM   12  C14 UNL     1      25.827 -38.740  -9.569  1.00  0.00     0.030 A 
HETATM   13  C15 UNL     1      27.089 -38.423 -10.027  1.00  0.00     0.002 A 
HETATM   14  C16 UNL     1      27.465 -37.105  -9.912  1.00  0.00     0.001 A 
HETATM   15  C17 UNL     1      26.654 -36.113  -9.372  1.00  0.00     0.014 A 
HETATM   16  C18 UNL     1      25.399 -36.458  -8.924  1.00  0.00     0.004 A 
HETATM   17  C19 UNL     1      22.087 -36.374  -7.564  1.00  0.00     0.065 A 
HETATM   18  C20 UNL     1      25.216 -33.512  -8.233  1.00  0.00     0.061 C 
HETATM   19  C21 UNL     1      25.017 -32.116  -7.726  1.00  0.00     0.062 C 
HETATM   20  C22 UNL     1      26.295 -31.606  -7.017  1.00  0.00     0.028 C 
HETATM   21  C23 UNL     1      24.519 -31.142  -8.694  1.00  0.00     0.231 C 
HETATM   22  O1  UNL     1      24.817 -30.906  -9.915  1.00  0.00    -0.272 OA
HETATM   23  N3  UNL     1      23.633 -30.629  -7.732  1.00  0.00    -0.338 N 
HETATM   24  C30 UNL     1      23.820 -31.834  -6.940  1.00  0.00     0.109 C 
HETATM   25  C31 UNL     1      22.636 -32.709  -7.106  1.00  0.00     0.066 C 
ENDROOT
BRANCH  23  26
HETATM   26  C24 UNL     1      22.863 -29.436  -7.617  1.00  0.00     0.111 C 
BRANCH  26  27
HETATM   27  C25 UNL     1      23.484 -28.433  -6.637  1.00  0.00     0.189 C 
BRANCH  27  28
HETATM   28  O2  UNL     1      23.131 -27.164  -7.102  1.00  0.00    -0.399 OA
ATOM     29  H2  UNL     1      22.317 -26.939  -6.669  1.00  0.00     0.209 HD
ENDBRANCH  27  28
ENDBRANCH  26  27
BRANCH  26  30
HETATM   30  C26 UNL     1      21.427 -29.592  -7.233  1.00  0.00     0.027 C 
BRANCH  30  31
HETATM   31  C27 UNL     1      20.484 -29.759  -8.372  1.00  0.00     0.002 C 
BRANCH  31  32
HETATM   32  C28 UNL     1      21.134 -29.422  -9.710  1.00  0.00    -0.004 C 
HETATM   33  C29 UNL     1      20.522 -30.253 -10.819  1.00  0.00     0.005 C 
ENDBRANCH  31  32
ENDBRANCH  30  31
ENDBRANCH  26  30
ENDBRANCH  23  26
BRANCH   1  34
HETATM   34  C5  UNL     1      20.748 -38.465  -6.883  1.00  0.00     0.123 C 
BRANCH  34  35
HETATM   35  C4  UNL     1      21.154 -38.758  -5.440  1.00  0.00     0.020 C 
BRANCH  35  36
HETATM   36  C3  UNL     1      22.631 -38.775  -5.254  1.00  0.00     0.001 C 
BRANCH  36  37
HETATM   37  C2  UNL     1      22.978 -37.650  -4.293  1.00  0.00    -0.004 C 
HETATM   38  C1  UNL     1      24.239 -36.932  -4.713  1.00  0.00     0.005 C 
ENDBRANCH  36  37
ENDBRANCH  35  36
ENDBRANCH  34  35
ENDBRANCH   1  34
TORSDOF 10
ENDMDL
MODEL 4
REMARK VINA RESULT: -7.727656748      3.274      7.951
REMARK  10 active torsions:
REMARK  status: ('A' for Active; 'I' for Inactive)
REMARK    1  A    between atoms: C2_2  and  C3_3 
REMARK    2  A    between atoms: C3_3  and  C4_4 
REMARK    3  A    between atoms: C4_4  and  C5_5 
REMARK    4  A    between atoms: C5_5  and  N1_6 
REMARK    5  A    between atoms: N3_28  and  C24_29 
REMARK    6  A    between atoms: C24_29  and  C25_30 
REMARK    7  A    between atoms: C24_29  and  C26_33 
REMARK    8  A    between atoms: C25_30  and  O2_31 
REMARK    9  A    between atoms: C26_33  and  C27_34 
REMARK   10  A    between atoms: C27_34  and  C28_35 
ROOT
HETATM    1  N1  UNL     1      31.220 -22.217 -13.389  1.00  0.00    -0.378 N 
HETATM    2  C6  UNL     1      31.707 -22.585 -14.726  1.00  0.00     0.128 C 
HETATM    3  C7  UNL     1      33.209 -22.636 -14.470  1.00  0.00     0.061 C 
HETATM    4  C8  UNL     1      33.248 -23.196 -13.083  1.00  0.00    -0.021 A 
HETATM    5  C9  UNL     1      34.284 -23.890 -12.420  1.00  0.00    -0.040 A 
HETATM    6  C10 UNL     1      34.108 -24.337 -11.135  1.00  0.00    -0.036 A 
HETATM    7  C11 UNL     1      32.889 -24.086 -10.517  1.00  0.00     0.012 A 
HETATM    8  C12 UNL     1      31.883 -23.400 -11.192  1.00  0.00     0.072 A 
HETATM    9  N2  UNL     1      30.816 -23.304 -10.390  1.00  0.00    -0.353 N 
ATOM     10  H2  UNL     1      29.929 -22.853 -10.616  1.00  0.00     0.166 HD
HETATM   11  C13 UNL     1      31.132 -23.922  -9.209  1.00  0.00     0.043 A 
HETATM   12  C14 UNL     1      30.330 -24.071  -8.086  1.00  0.00     0.030 A 
HETATM   13  C15 UNL     1      30.791 -24.729  -6.966  1.00  0.00     0.002 A 
HETATM   14  C16 UNL     1      32.074 -25.219  -7.032  1.00  0.00     0.001 A 
HETATM   15  C17 UNL     1      32.898 -25.084  -8.144  1.00  0.00     0.014 A 
HETATM   16  C18 UNL     1      32.411 -24.422  -9.248  1.00  0.00     0.004 A 
HETATM   17  C19 UNL     1      32.048 -22.940 -12.489  1.00  0.00     0.065 A 
HETATM   18  C20 UNL     1      35.151 -25.037 -10.391  1.00  0.00     0.061 C 
HETATM   19  C21 UNL     1      36.493 -25.156 -11.049  1.00  0.00     0.062 C 
HETATM   20  C22 UNL     1      37.624 -24.847 -10.039  1.00  0.00     0.028 C 
HETATM   21  C23 UNL     1      36.748 -26.398 -11.774  1.00  0.00     0.231 C 
HETATM   22  O1  UNL     1      36.514 -27.624 -11.497  1.00  0.00    -0.272 OA
HETATM   23  N3  UNL     1      37.324 -25.671 -12.829  1.00  0.00    -0.338 N 
HETATM   24  C30 UNL     1      36.701 -24.462 -12.316  1.00  0.00     0.109 C 
HETATM   25  C31 UNL     1      35.522 -24.135 -13.152  1.00  0.00     0.066 C 
ENDROOT
BRANCH  23  26
HETATM   26  C24 UNL     1      38.148 -26.007 -13.942  1.00  0.00     0.111 C 
BRANCH  26  27
HETATM   27  C25 UNL     1      37.625 -27.227 -14.708  1.00  0.00     0.189 C 
BRANCH  27  28
HETATM   28  O2  UNL     1      38.091 -27.094 -16.019  1.00  0.00    -0.399 OA
ATOM     29  H2  UNL     1      37.995 -26.177 -16.243  1.00  0.00     0.209 HD
ENDBRANCH  27  28
ENDBRANCH  26  27
BRANCH  26  30
HETATM   30  C26 UNL     1      39.595 -26.252 -13.662  1.00  0.00     0.027 C 
BRANCH  30  31
HETATM   31  C27 UNL     1      40.449 -25.034 -13.641  1.00  0.00     0.002 C 
BRANCH  31  32
HETATM   32  C28 UNL     1      40.651 -24.497 -12.227  1.00  0.00    -0.004 C 
HETATM   33  C29 UNL     1      40.181 -23.060 -12.135  1.00  0.00     0.005 C 
ENDBRANCH  31  32
ENDBRANCH  30  31
ENDBRANCH  26  30
ENDBRANCH  23  26
BRANCH   1  34
HETATM   34  C5  UNL     1      30.154 -21.319 -13.134  1.00  0.00     0.123 C 
BRANCH  34  35
HETATM   35  C4  UNL     1      30.600 -20.113 -12.310  1.00  0.00     0.020 C 
BRANCH  35  36
HETATM   36  C3  UNL     1      31.584 -19.261 -13.032  1.00  0.00     0.001 C 
BRANCH  36  37
HETATM   37  C2  UNL     1      32.835 -19.187 -12.172  1.00  0.00    -0.004 C 
HETATM   38  C1  UNL     1      34.085 -19.404 -12.992  1.00  0.00     0.005 C 
ENDBRANCH  36  37
ENDBRANCH  35  36
ENDBRANCH  34  35
ENDBRANCH   1  34
TORSDOF 10
ENDMDL
MODEL 5
REMARK VINA RESULT: -7.712221321      3.179      7.882
REMARK  10 active torsions:
REMARK  status: ('A' for Active; 'I' for Inactive)
REMARK    1  A    between atoms: C2_2  and  C3_3 
REMARK    2  A    between atoms: C3_3  and  C4_4 
REMARK    3  A    between atoms: C4_4  and  C5_5 
REMARK    4  A    between atoms: C5_5  and  N1_6 
REMARK    5  A    between atoms: N3_28  and  C24_29 
REMARK    6  A    between atoms: C24_29  and  C25_30 
REMARK    7  A    between atoms: C24_29  and  C26_33 
REMARK    8  A    between atoms: C25_30  and  O2_31 
REMARK    9  A    between atoms: C26_33  and  C27_34 
REMARK   10  A    between atoms: C27_34  and  C28_35 
ROOT
HETATM    1  N1  UNL     1      29.808 -25.358  -8.510  1.00  0.00    -0.378 N 
HETATM    2  C6  UNL     1      29.530 -24.729  -7.212  1.00  0.00     0.128 C 
HETATM    3  C7  UNL     1      30.949 -24.454  -6.727  1.00  0.00     0.061 C 
HETATM    4  C8  UNL     1      31.629 -24.094  -8.010  1.00  0.00    -0.021 A 
HETATM    5  C9  UNL     1      32.795 -23.329  -8.228  1.00  0.00    -0.040 A 
HETATM    6  C10 UNL     1      33.249 -23.103  -9.504  1.00  0.00    -0.036 A 
HETATM    7  C11 UNL     1      32.526 -23.645 -10.559  1.00  0.00     0.012 A 
HETATM    8  C12 UNL     1      31.378 -24.395 -10.318  1.00  0.00     0.072 A 
HETATM    9  N2  UNL     1      30.866 -24.785 -11.492  1.00  0.00    -0.353 N 
ATOM     10  H2  UNL     1      30.026 -25.348 -11.627  1.00  0.00     0.166 HD
HETATM   11  C13 UNL     1      31.678 -24.291 -12.479  1.00  0.00     0.043 A 
HETATM   12  C14 UNL     1      31.534 -24.442 -13.851  1.00  0.00     0.030 A 
HETATM   13  C15 UNL     1      32.437 -23.876 -14.727  1.00  0.00     0.002 A 
HETATM   14  C16 UNL     1      33.470 -23.165 -14.161  1.00  0.00     0.001 A 
HETATM   15  C17 UNL     1      33.636 -23.000 -12.791  1.00  0.00     0.014 A 
HETATM   16  C18 UNL     1      32.720 -23.576 -11.941  1.00  0.00     0.004 A 
HETATM   17  C19 UNL     1      30.911 -24.635  -9.036  1.00  0.00     0.065 A 
HETATM   18  C20 UNL     1      34.462 -22.342  -9.788  1.00  0.00     0.061 C 
HETATM   19  C21 UNL     1      35.281 -21.901  -8.613  1.00  0.00     0.062 C 
HETATM   20  C22 UNL     1      36.787 -22.147  -8.875  1.00  0.00     0.028 C 
HETATM   21  C23 UNL     1      35.037 -20.546  -8.128  1.00  0.00     0.231 C 
HETATM   22  O1  UNL     1      34.872 -19.429  -8.728  1.00  0.00    -0.272 OA
HETATM   23  N3  UNL     1      35.066 -21.008  -6.801  1.00  0.00    -0.338 N 
HETATM   24  C30 UNL     1      34.885 -22.366  -7.287  1.00  0.00     0.109 C 
HETATM   25  C31 UNL     1      33.478 -22.774  -7.064  1.00  0.00     0.066 C 
ENDROOT
BRANCH  23  26
HETATM   26  C24 UNL     1      35.194 -20.383  -5.528  1.00  0.00     0.111 C 
BRANCH  26  27
HETATM   27  C25 UNL     1      33.852 -19.866  -4.994  1.00  0.00     0.189 C 
BRANCH  27  28
HETATM   28  O2  UNL     1      33.289 -20.920  -4.268  1.00  0.00    -0.399 OA
ATOM     29  H2  UNL     1      33.720 -20.918  -3.422  1.00  0.00     0.209 HD
ENDBRANCH  27  28
ENDBRANCH  26  27
BRANCH  26  30
HETATM   30  C26 UNL     1      36.171 -19.257  -5.421  1.00  0.00     0.027 C 
BRANCH  30  31
HETATM   31  C27 UNL     1      35.568 -17.897  -5.423  1.00  0.00     0.002 C 
BRANCH  31  32
HETATM   32  C28 UNL     1      36.608 -16.807  -5.661  1.00  0.00    -0.004 C 
HETATM   33  C29 UNL     1      37.032 -16.790  -7.115  1.00  0.00     0.005 C 
ENDBRANCH  31  32
ENDBRANCH  30  31
ENDBRANCH  26  30
ENDBRANCH  23  26
BRANCH   1  34
HETATM   34  C5  UNL     1      29.089 -26.454  -9.050  1.00  0.00     0.123 C 
BRANCH  34  35
HETATM   35  C4  UNL     1      27.634 -26.097  -9.347  1.00  0.00     0.020 C 
BRANCH  35  36
HETATM   36  C3  UNL     1      26.696 -26.617  -8.314  1.00  0.00     0.001 C 
BRANCH  36  37
HETATM   37  C2  UNL     1      27.337 -27.851  -7.703  1.00  0.00    -0.004 C 
HETATM   38  C1  UNL     1      26.348 -28.986  -7.576  1.00  0.00     0.005 C 
ENDBRANCH  36  37
ENDBRANCH  35  36
ENDBRANCH  34  35
ENDBRANCH   1  34
TORSDOF 10
ENDMDL
