MODEL 1
REMARK VINA RESULT: -8.468611274      0.000      0.000
REMARK  9 active torsions:
REMARK  status: ('A' for Active; 'I' for Inactive)
REMARK    1  A    between atoms: C2_2  and  C3_3 
REMARK    2  A    between atoms: C4_4  and  C5_5 
REMARK    3  A    between atoms: C8_8  and  O1_9 
REMARK    4  A    between atoms: C16_18  and  N1_19 
REMARK    5  A    between atoms: N1_19  and  O2_20 
REMARK    6  A    between atoms: N1_19  and  C17_22 
REMARK    7  A    between atoms: C21_26  and  C22_27 
REMARK    8  A    between atoms: C22_27  and  C23_28 
REMARK    9  A    between atoms: C23_28  and  N2_30 
ROOT
HETATM    1  C1  UNL     1      32.750 -17.787 -10.844  1.00  0.00     0.048 C 
HETATM    2  C2  UNL     1      33.381 -19.173 -10.862  1.00  0.00    -0.059 C 
HETATM    3  C11 UNL     1      32.692 -20.258 -11.137  1.00  0.00    -0.059 C 
HETATM    4  C12 UNL     1      31.249 -19.998 -11.398  1.00  0.00     0.021 C 
HETATM    5  C13 UNL     1      30.828 -19.966 -12.817  1.00  0.00     0.041 C 
HETATM    6  C14 UNL     1      30.709 -21.401 -13.344  1.00  0.00     0.125 C 
HETATM    7  C15 UNL     1      32.069 -22.032 -13.293  1.00  0.00     0.066 C 
HETATM    8  C16 UNL     1      32.513 -22.617 -12.004  1.00  0.00     0.070 C 
HETATM    9  C20 UNL     1      31.398 -23.018 -11.061  1.00  0.00     0.072 C 
HETATM   10  C21 UNL     1      30.103 -22.252 -11.303  1.00  0.00     0.066 C 
HETATM   11  C28 UNL     1      30.299 -20.917 -10.635  1.00  0.00     0.047 C 
HETATM   12  O3  UNL     1      29.814 -22.117 -12.623  1.00  0.00    -0.375 OA
HETATM   13  C29 UNL     1      33.395 -21.552 -11.266  1.00  0.00     0.004 C 
HETATM   14  C30 UNL     1      33.866 -22.136  -9.980  1.00  0.00     0.022 C 
HETATM   15  C31 UNL     1      34.591 -21.332 -12.207  1.00  0.00     0.022 C 
ENDROOT
BRANCH   2  16
HETATM   16  C3  UNL     1      34.757 -19.146 -10.373  1.00  0.00     0.003 C 
HETATM   17  C4  UNL     1      35.236 -19.204  -9.177  1.00  0.00    -0.022 C 
BRANCH  17  18
HETATM   18  C5  UNL     1      34.796 -19.312  -7.809  1.00  0.00     0.008 C 
HETATM   19  C6  UNL     1      35.528 -18.248  -6.932  1.00  0.00     0.011 C 
HETATM   20  C7  UNL     1      35.843 -18.799  -5.582  1.00  0.00     0.032 C 
HETATM   21  C8  UNL     1      34.835 -19.757  -5.029  1.00  0.00     0.118 C 
HETATM   22  C9  UNL     1      34.566 -20.910  -5.978  1.00  0.00     0.032 C 
HETATM   23  C10 UNL     1      35.357 -20.636  -7.221  1.00  0.00     0.011 C 
BRANCH  21  24
HETATM   24  O1  UNL     1      35.381 -20.323  -3.867  1.00  0.00    -0.396 OA
ATOM     25  H1  UNL     1      35.671 -21.201  -4.085  1.00  0.00     0.210 HD
ENDBRANCH  21  24
ENDBRANCH  17  18
ENDBRANCH   2  16
BRANCH   8  26
HETATM   26  N1  UNL     1      33.355 -23.737 -12.251  1.00  0.00    -0.281 N 
BRANCH  26  27
HETATM   27  O2  UNL     1      33.307 -24.809 -11.501  1.00  0.00    -0.291 OA
ATOM     28  H2  UNL     1      33.982 -25.477 -11.544  1.00  0.00     0.244 HD
ENDBRANCH  26  27
BRANCH  26  29
HETATM   29  C17 UNL     1      33.989 -23.986 -13.448  1.00  0.00     0.109 A 
HETATM   30  C18 UNL     1      34.615 -25.231 -14.026  1.00  0.00     0.029 A 
HETATM   31  C19 UNL     1      33.239 -24.851 -14.461  1.00  0.00     0.029 A 
ENDBRANCH  26  29
ENDBRANCH   8  26
BRANCH  10  32
HETATM   32  C22 UNL     1      29.029 -23.004 -10.580  1.00  0.00     0.071 C 
BRANCH  32  33
HETATM   33  C23 UNL     1      29.382 -23.539  -9.246  1.00  0.00     0.188 C 
HETATM   34  C24 UNL     1      29.031 -22.683  -8.070  1.00  0.00     0.040 C 
BRANCH  33  35
HETATM   35  N2  UNL     1      28.618 -24.788  -9.087  1.00  0.00    -0.075 N 
HETATM   36  C25 UNL     1      29.460 -25.905  -9.406  1.00  0.00     0.272 C 
HETATM   37  C26 UNL     1      27.449 -24.809  -9.946  1.00  0.00     0.272 C 
HETATM   38  C27 UNL     1      28.117 -24.920  -7.727  1.00  0.00     0.272 C 
ENDBRANCH  33  35
ENDBRANCH  32  33
ENDBRANCH  10  32
TORSDOF 9
ENDMDL
MODEL 2
REMARK VINA RESULT: -8.412749395      3.643      7.347
REMARK  9 active torsions:
REMARK  status: ('A' for Active; 'I' for Inactive)
REMARK    1  A    between atoms: C2_2  and  C3_3 
REMARK    2  A    between atoms: C4_4  and  C5_5 
REMARK    3  A    between atoms: C8_8  and  O1_9 
REMARK    4  A    between atoms: C16_18  and  N1_19 
REMARK    5  A    between atoms: N1_19  and  O2_20 
REMARK    6  A    between atoms: N1_19  and  C17_22 
REMARK    7  A    between atoms: C21_26  and  C22_27 
REMARK    8  A    between atoms: C22_27  and  C23_28 
REMARK    9  A    between atoms: C23_28  and  N2_30 
ROOT
HETATM    1  C1  UNL     1      31.446 -24.652 -11.828  1.00  0.00     0.048 C 
HETATM    2  C2  UNL     1      32.208 -23.466 -11.252  1.00  0.00    -0.059 C 
HETATM    3  C11 UNL     1      33.519 -23.447 -11.162  1.00  0.00    -0.059 C 
HETATM    4  C12 UNL     1      34.169 -24.696 -11.647  1.00  0.00     0.021 C 
HETATM    5  C13 UNL     1      34.755 -24.653 -13.006  1.00  0.00     0.041 C 
HETATM    6  C14 UNL     1      36.101 -23.921 -12.955  1.00  0.00     0.125 C 
HETATM    7  C15 UNL     1      35.848 -22.504 -12.530  1.00  0.00     0.066 C 
HETATM    8  C16 UNL     1      35.724 -22.229 -11.078  1.00  0.00     0.070 C 
HETATM    9  C20 UNL     1      36.396 -23.239 -10.171  1.00  0.00     0.072 C 
HETATM   10  C21 UNL     1      36.558 -24.610 -10.817  1.00  0.00     0.066 C 
HETATM   11  C28 UNL     1      35.211 -25.272 -10.692  1.00  0.00     0.047 C 
HETATM   12  O3  UNL     1      36.964 -24.535 -12.111  1.00  0.00    -0.375 OA
HETATM   13  C29 UNL     1      34.199 -22.211 -10.716  1.00  0.00     0.004 C 
HETATM   14  C30 UNL     1      34.060 -21.914  -9.264  1.00  0.00     0.022 C 
HETATM   15  C31 UNL     1      33.626 -21.050 -11.543  1.00  0.00     0.022 C 
ENDROOT
BRANCH   2  16
HETATM   16  C3  UNL     1      31.306 -22.474 -10.674  1.00  0.00     0.003 C 
HETATM   17  C4  UNL     1      30.405 -22.576  -9.756  1.00  0.00    -0.022 C 
BRANCH  17  18
HETATM   18  C5  UNL     1      29.822 -23.558  -8.878  1.00  0.00     0.008 C 
HETATM   19  C6  UNL     1      28.639 -24.277  -9.600  1.00  0.00     0.011 C 
HETATM   20  C7  UNL     1      27.530 -24.564  -8.644  1.00  0.00     0.032 C 
HETATM   21  C8  UNL     1      27.955 -24.895  -7.249  1.00  0.00     0.118 C 
HETATM   22  C9  UNL     1      28.847 -23.821  -6.656  1.00  0.00     0.032 C 
HETATM   23  C10 UNL     1      29.078 -22.810  -7.738  1.00  0.00     0.011 C 
BRANCH  21  24
HETATM   24  O1  UNL     1      26.801 -24.932  -6.451  1.00  0.00    -0.396 OA
ATOM     25  H1  UNL     1      27.078 -24.890  -5.544  1.00  0.00     0.210 HD
ENDBRANCH  21  24
ENDBRANCH  17  18
ENDBRANCH   2  16
BRANCH   8  26
HETATM   26  N1  UNL     1      36.222 -20.928 -10.792  1.00  0.00    -0.281 N 
BRANCH  26  27
HETATM   27  O2  UNL     1      37.095 -20.721  -9.840  1.00  0.00    -0.291 OA
ATOM     28  H2  UNL     1      37.942 -20.327 -10.017  1.00  0.00     0.244 HD
ENDBRANCH  26  27
BRANCH  26  29
HETATM   29  C17 UNL     1      36.165 -19.864 -11.666  1.00  0.00     0.109 A 
HETATM   30  C18 UNL     1      36.391 -18.384 -11.479  1.00  0.00     0.029 A 
HETATM   31  C19 UNL     1      37.494 -19.213 -12.049  1.00  0.00     0.029 A 
ENDBRANCH  26  29
ENDBRANCH   8  26
BRANCH  10  32
HETATM   32  C22 UNL     1      37.545 -25.357  -9.975  1.00  0.00     0.071 C 
BRANCH  32  33
HETATM   33  C23 UNL     1      38.721 -25.918 -10.678  1.00  0.00     0.188 C 
HETATM   34  C24 UNL     1      40.027 -25.224 -10.451  1.00  0.00     0.040 C 
BRANCH  33  35
HETATM   35  N2  UNL     1      38.891 -27.289 -10.168  1.00  0.00    -0.075 N 
HETATM   36  C25 UNL     1      37.916 -28.148 -10.779  1.00  0.00     0.272 C 
HETATM   37  C26 UNL     1      38.740 -27.343  -8.727  1.00  0.00     0.272 C 
HETATM   38  C27 UNL     1      40.230 -27.785 -10.449  1.00  0.00     0.272 C 
ENDBRANCH  33  35
ENDBRANCH  32  33
ENDBRANCH  10  32
TORSDOF 9
ENDMDL
MODEL 3
REMARK VINA RESULT: -8.402413350      2.806      6.165
REMARK  9 active torsions:
REMARK  status: ('A' for Active; 'I' for Inactive)
REMARK    1  A    between atoms: C2_2  and  C3_3 
REMARK    2  A    between atoms: C4_4  and  C5_5 
REMARK    3  A    between atoms: C8_8  and  O1_9 
REMARK    4  A    between atoms: C16_18  and  N1_19 
REMARK    5  A    between atoms: N1_19  and  O2_20 
REMARK    6  A    between atoms: N1_19  and  C17_22 
REMARK    7  A    between atoms: C21_26  and  C22_27 
REMARK    8  A    between atoms: C22_27  and  C23_28 
REMARK    9  A    between atoms: C23_28  and  N2_30 
ROOT
HETATM    1  C1  UNL     1      33.921 -23.061  -6.808  1.00  0.00     0.048 C 
HETATM    2  C2  UNL     1      33.751 -23.848  -8.100  1.00  0.00    -0.059 C 
HETATM    3  C11 UNL     1      34.029 -23.338  -9.279  1.00  0.00    -0.059 C 
HETATM    4  C12 UNL     1      34.494 -21.924  -9.222  1.00  0.00     0.021 C 
HETATM    5  C13 UNL     1      35.954 -21.701  -9.329  1.00  0.00     0.041 C 
HETATM    6  C14 UNL     1      36.380 -21.827 -10.796  1.00  0.00     0.125 C 
HETATM    7  C15 UNL     1      36.106 -23.233 -11.244  1.00  0.00     0.066 C 
HETATM    8  C16 UNL     1      34.729 -23.562 -11.689  1.00  0.00     0.070 C 
HETATM    9  C20 UNL     1      33.910 -22.383 -12.173  1.00  0.00     0.072 C 
HETATM   10  C21 UNL     1      34.376 -21.052 -11.594  1.00  0.00     0.066 C 
HETATM   11  C28 UNL     1      33.792 -20.993 -10.208  1.00  0.00     0.047 C 
HETATM   12  O3  UNL     1      35.729 -20.933 -11.577  1.00  0.00    -0.375 OA
HETATM   13  C29 UNL     1      33.967 -24.201 -10.478  1.00  0.00     0.004 C 
HETATM   14  C30 UNL     1      32.590 -24.556 -10.918  1.00  0.00     0.022 C 
HETATM   15  C31 UNL     1      34.759 -25.480 -10.163  1.00  0.00     0.022 C 
ENDROOT
BRANCH   2  16
HETATM   16  C3  UNL     1      33.092 -25.130  -7.868  1.00  0.00     0.003 C 
HETATM   17  C4  UNL     1      31.843 -25.453  -7.843  1.00  0.00    -0.022 C 
BRANCH  17  18
HETATM   18  C5  UNL     1      30.540 -24.858  -7.998  1.00  0.00     0.008 C 
HETATM   19  C6  UNL     1      29.767 -24.914  -6.643  1.00  0.00     0.011 C 
HETATM   20  C7  UNL     1      28.317 -25.180  -6.870  1.00  0.00     0.032 C 
HETATM   21  C8  UNL     1      27.741 -24.576  -8.112  1.00  0.00     0.118 C 
HETATM   22  C9  UNL     1      28.513 -24.982  -9.352  1.00  0.00     0.032 C 
HETATM   23  C10 UNL     1      29.678 -25.800  -8.884  1.00  0.00     0.011 C 
BRANCH  21  24
HETATM   24  O1  UNL     1      26.444 -25.088  -8.270  1.00  0.00    -0.396 OA
ATOM     25  H1  UNL     1      25.859 -24.553  -7.747  1.00  0.00     0.210 HD
ENDBRANCH  21  24
ENDBRANCH  17  18
ENDBRANCH   2  16
BRANCH   8  26
HETATM   26  N1  UNL     1      34.778 -24.556 -12.705  1.00  0.00    -0.281 N 
BRANCH  26  27
HETATM   27  O2  UNL     1      33.790 -24.728 -13.546  1.00  0.00    -0.291 OA
ATOM     28  H2  UNL     1      32.987 -25.167 -13.288  1.00  0.00     0.244 HD
ENDBRANCH  26  27
BRANCH  26  29
HETATM   29  C17 UNL     1      35.936 -25.148 -13.160  1.00  0.00     0.109 A 
HETATM   30  C18 UNL     1      36.671 -26.397 -12.739  1.00  0.00     0.029 A 
HETATM   31  C19 UNL     1      35.785 -26.454 -13.939  1.00  0.00     0.029 A 
ENDBRANCH  26  29
ENDBRANCH   8  26
BRANCH  10  32
HETATM   32  C22 UNL     1      33.743 -19.986 -12.433  1.00  0.00     0.071 C 
BRANCH  32  33
HETATM   33  C23 UNL     1      32.840 -19.044 -11.732  1.00  0.00     0.188 C 
HETATM   34  C24 UNL     1      33.073 -17.587 -11.981  1.00  0.00     0.040 C 
BRANCH  33  35
HETATM   35  N2  UNL     1      31.482 -19.333 -12.223  1.00  0.00    -0.075 N 
HETATM   36  C25 UNL     1      30.763 -18.101 -12.385  1.00  0.00     0.272 C 
HETATM   37  C26 UNL     1      30.757 -20.193 -11.308  1.00  0.00     0.272 C 
HETATM   38  C27 UNL     1      31.529 -20.047 -13.491  1.00  0.00     0.272 C 
ENDBRANCH  33  35
ENDBRANCH  32  33
ENDBRANCH  10  32
TORSDOF 9
ENDMDL
MODEL 4
REMARK VINA RESULT: -8.261819455      2.805      5.732
REMARK  9 active torsions:
REMARK  status: ('A' for Active; 'I' for Inactive)
REMARK    1  A    between atoms: C2_2  and  C3_3 
REMARK    2  A    between atoms: C4_4  and  C5_5 
REMARK    3  A    between atoms: C8_8  and  O1_9 
REMARK    4  A    between atoms: C16_18  and  N1_19 
REMARK    5  A    between atoms: N1_19  and  O2_20 
REMARK    6  A    between atoms: N1_19  and  C17_22 
REMARK    7  A    between atoms: C21_26  and  C22_27 
REMARK    8  A    between atoms: C22_27  and  C23_28 
REMARK    9  A    between atoms: C23_28  and  N2_30 
ROOT
HETATM    1  C1  UNL     1      34.952 -22.124  -6.726  1.00  0.00     0.048 C 
HETATM    2  C2  UNL     1      35.072 -23.057  -7.923  1.00  0.00    -0.059 C 
HETATM    3  C11 UNL     1      35.090 -22.617  -9.162  1.00  0.00    -0.059 C 
HETATM    4  C12 UNL     1      34.954 -21.138  -9.271  1.00  0.00     0.021 C 
HETATM    5  C13 UNL     1      36.200 -20.373  -9.504  1.00  0.00     0.041 C 
HETATM    6  C14 UNL     1      36.599 -20.489 -10.979  1.00  0.00     0.125 C 
HETATM    7  C15 UNL     1      36.895 -21.931 -11.273  1.00  0.00     0.066 C 
HETATM    8  C16 UNL     1      35.751 -22.823 -11.585  1.00  0.00     0.070 C 
HETATM    9  C20 UNL     1      34.516 -22.125 -12.116  1.00  0.00     0.072 C 
HETATM   10  C21 UNL     1      34.429 -20.661 -11.701  1.00  0.00     0.066 C 
HETATM   11  C28 UNL     1      33.911 -20.678 -10.287  1.00  0.00     0.047 C 
HETATM   12  O3  UNL     1      35.623 -20.019 -11.792  1.00  0.00    -0.375 OA
HETATM   13  C29 UNL     1      35.342 -23.567 -10.268  1.00  0.00     0.004 C 
HETATM   14  C30 UNL     1      34.209 -24.482 -10.572  1.00  0.00     0.022 C 
HETATM   15  C31 UNL     1      36.587 -24.386  -9.892  1.00  0.00     0.022 C 
ENDROOT
BRANCH   2  16
HETATM   16  C3  UNL     1      34.986 -24.460  -7.525  1.00  0.00     0.003 C 
HETATM   17  C4  UNL     1      33.969 -25.215  -7.287  1.00  0.00    -0.022 C 
BRANCH  17  18
HETATM   18  C5  UNL     1      32.529 -25.163  -7.265  1.00  0.00     0.008 C 
HETATM   19  C6  UNL     1      31.952 -25.952  -8.483  1.00  0.00     0.011 C 
HETATM   20  C7  UNL     1      30.740 -25.273  -9.028  1.00  0.00     0.032 C 
HETATM   21  C8  UNL     1      29.876 -24.592  -8.015  1.00  0.00     0.118 C 
HETATM   22  C9  UNL     1      30.657 -23.599  -7.177  1.00  0.00     0.032 C 
HETATM   23  C10 UNL     1      32.090 -23.711  -7.602  1.00  0.00     0.011 C 
BRANCH  21  24
HETATM   24  O1  UNL     1      28.913 -23.847  -8.712  1.00  0.00    -0.396 OA
ATOM     25  H1  UNL     1      28.655 -24.352  -9.474  1.00  0.00     0.210 HD
ENDBRANCH  21  24
ENDBRANCH  17  18
ENDBRANCH   2  16
BRANCH   8  26
HETATM   26  N1  UNL     1      36.163 -23.827 -12.504  1.00  0.00    -0.281 N 
BRANCH  26  27
HETATM   27  O2  UNL     1      35.295 -24.562 -13.153  1.00  0.00    -0.291 OA
ATOM     28  H2  UNL     1      35.089 -25.448 -12.878  1.00  0.00     0.244 HD
ENDBRANCH  26  27
BRANCH  26  29
HETATM   29  C17 UNL     1      37.409 -23.883 -13.089  1.00  0.00     0.109 A 
HETATM   30  C18 UNL     1      38.763 -24.284 -12.558  1.00  0.00     0.029 A 
HETATM   31  C19 UNL     1      37.983 -25.273 -13.361  1.00  0.00     0.029 A 
ENDBRANCH  26  29
ENDBRANCH   8  26
BRANCH  10  32
HETATM   32  C22 UNL     1      33.399 -20.033 -12.587  1.00  0.00     0.071 C 
BRANCH  32  33
HETATM   33  C23 UNL     1      32.445 -19.107 -11.937  1.00  0.00     0.188 C 
HETATM   34  C24 UNL     1      32.456 -17.691 -12.422  1.00  0.00     0.040 C 
BRANCH  33  35
HETATM   35  N2  UNL     1      31.099 -19.630 -12.228  1.00  0.00    -0.075 N 
HETATM   36  C25 UNL     1      30.200 -18.534 -12.448  1.00  0.00     0.272 C 
HETATM   37  C26 UNL     1      30.600 -20.447 -11.138  1.00  0.00     0.272 C 
HETATM   38  C27 UNL     1      31.120 -20.494 -13.399  1.00  0.00     0.272 C 
ENDBRANCH  33  35
ENDBRANCH  32  33
ENDBRANCH  10  32
TORSDOF 9
ENDMDL
MODEL 5
REMARK VINA RESULT: -8.197584492      1.685      2.483
REMARK  9 active torsions:
REMARK  status: ('A' for Active; 'I' for Inactive)
REMARK    1  A    between atoms: C2_2  and  C3_3 
REMARK    2  A    between atoms: C4_4  and  C5_5 
REMARK    3  A    between atoms: C8_8  and  O1_9 
REMARK    4  A    between atoms: C16_18  and  N1_19 
REMARK    5  A    between atoms: N1_19  and  O2_20 
REMARK    6  A    between atoms: N1_19  and  C17_22 
REMARK    7  A    between atoms: C21_26  and  C22_27 
REMARK    8  A    between atoms: C22_27  and  C23_28 
REMARK    9  A    between atoms: C23_28  and  N2_30 
ROOT
HETATM    1  C1  UNL     1      33.226 -19.431 -12.955  1.00  0.00     0.048 C 
HETATM    2  C2  UNL     1      34.165 -20.551 -12.528  1.00  0.00    -0.059 C 
HETATM    3  C11 UNL     1      33.755 -21.788 -12.358  1.00  0.00    -0.059 C 
HETATM    4  C12 UNL     1      32.296 -21.971 -12.593  1.00  0.00     0.021 C 
HETATM    5  C13 UNL     1      31.902 -22.543 -13.901  1.00  0.00     0.041 C 
HETATM    6  C14 UNL     1      32.132 -24.059 -13.880  1.00  0.00     0.125 C 
HETATM    7  C15 UNL     1      33.602 -24.307 -13.705  1.00  0.00     0.066 C 
HETATM    8  C16 UNL     1      34.150 -24.277 -12.327  1.00  0.00     0.070 C 
HETATM    9  C20 UNL     1      33.144 -24.554 -11.228  1.00  0.00     0.072 C 
HETATM   10  C21 UNL     1      31.710 -24.238 -11.634  1.00  0.00     0.066 C 
HETATM   11  C28 UNL     1      31.575 -22.745 -11.493  1.00  0.00     0.047 C 
HETATM   12  O3  UNL     1      31.419 -24.653 -12.895  1.00  0.00    -0.375 OA
HETATM   13  C29 UNL     1      34.745 -22.849 -12.072  1.00  0.00     0.004 C 
HETATM   14  C30 UNL     1      35.318 -22.813 -10.699  1.00  0.00     0.022 C 
HETATM   15  C31 UNL     1      35.870 -22.717 -13.110  1.00  0.00     0.022 C 
ENDROOT
BRANCH   2  16
HETATM   16  C3  UNL     1      35.488 -20.042 -12.176  1.00  0.00     0.003 C 
HETATM   17  C4  UNL     1      35.926 -19.488 -11.098  1.00  0.00    -0.022 C 
BRANCH  17  18
HETATM   18  C5  UNL     1      35.470 -19.088  -9.791  1.00  0.00     0.008 C 
HETATM   19  C6  UNL     1      36.251 -17.820  -9.322  1.00  0.00     0.011 C 
HETATM   20  C7  UNL     1      36.524 -17.877  -7.857  1.00  0.00     0.032 C 
HETATM   21  C8  UNL     1      35.463 -18.532  -7.031  1.00  0.00     0.118 C 
HETATM   22  C9  UNL     1      35.141 -19.930  -7.523  1.00  0.00     0.032 C 
HETATM   23  C10 UNL     1      35.956 -20.147  -8.762  1.00  0.00     0.011 C 
BRANCH  21  24
HETATM   24  O1  UNL     1      35.969 -18.680  -5.730  1.00  0.00    -0.396 OA
ATOM     25  H1  UNL     1      35.406 -19.292  -5.272  1.00  0.00     0.210 HD
ENDBRANCH  21  24
ENDBRANCH  17  18
ENDBRANCH   2  16
BRANCH   8  26
HETATM   26  N1  UNL     1      35.235 -25.191 -12.222  1.00  0.00    -0.281 N 
BRANCH  26  27
HETATM   27  O2  UNL     1      35.527 -25.781 -11.090  1.00  0.00    -0.291 OA
ATOM     28  H2  UNL     1      36.271 -26.368 -11.013  1.00  0.00     0.244 HD
ENDBRANCH  26  27
BRANCH  26  29
HETATM   29  C17 UNL     1      35.819 -25.831 -13.292  1.00  0.00     0.109 A 
HETATM   30  C18 UNL     1      37.259 -26.105 -13.649  1.00  0.00     0.029 A 
HETATM   31  C19 UNL     1      36.456 -27.194 -13.018  1.00  0.00     0.029 A 
ENDBRANCH  26  29
ENDBRANCH   8  26
BRANCH  10  32
HETATM   32  C22 UNL     1      30.831 -24.903 -10.622  1.00  0.00     0.071 C 
BRANCH  32  33
HETATM   33  C23 UNL     1      29.957 -24.015  -9.822  1.00  0.00     0.188 C 
HETATM   34  C24 UNL     1      28.534 -23.901 -10.270  1.00  0.00     0.040 C 
BRANCH  33  35
HETATM   35  N2  UNL     1      29.915 -24.589  -8.466  1.00  0.00    -0.075 N 
HETATM   36  C25 UNL     1      29.108 -25.776  -8.476  1.00  0.00     0.272 C 
HETATM   37  C26 UNL     1      29.370 -23.647  -7.507  1.00  0.00     0.272 C 
HETATM   38  C27 UNL     1      31.255 -24.907  -7.996  1.00  0.00     0.272 C 
ENDBRANCH  33  35
ENDBRANCH  32  33
ENDBRANCH  10  32
TORSDOF 9
ENDMDL
