MODEL 1
REMARK VINA RESULT: -8.497881112      0.000      0.000
REMARK  7 active torsions:
REMARK  status: ('A' for Active; 'I' for Inactive)
REMARK    1  A    between atoms: O1_2  and  C2_3 
REMARK    2  A    between atoms: C4_5  and  O2_6 
REMARK    3  A    between atoms: N1_16  and  C11_18 
REMARK    4  A    between atoms: C11_18  and  C12_19 
REMARK    5  A    between atoms: C12_19  and  C13_20 
REMARK    6  A    between atoms: C13_20  and  N2_21 
REMARK    7  A    between atoms: N2_21  and  O3_23 
ROOT
HETATM    1  C2  UNL     1      27.619   6.125   4.713  1.00  0.00     0.081 A 
HETATM    2  C3  UNL     1      27.049   4.855   4.747  1.00  0.00     0.075 A 
HETATM    3  C4  UNL     1      26.762   4.221   3.566  1.00  0.00     0.092 A 
HETATM    4  C5  UNL     1      27.050   4.865   2.375  1.00  0.00     0.101 A 
HETATM    5 CL1  UNL     1      26.696   4.083   0.837  1.00  0.00    -0.078 Cl
HETATM    6  C6  UNL     1      27.611   6.116   2.310  1.00  0.00     0.103 A 
HETATM    7  C7  UNL     1      27.904   6.765   3.514  1.00  0.00     0.025 A 
HETATM    8  C8  UNL     1      28.503   8.092   3.657  1.00  0.00     0.102 C 
HETATM    9 BR1  UNL     1      28.420   8.800   5.447  1.00  0.00    -0.086 Br
HETATM   10  C9  UNL     1      27.783   9.108   2.787  1.00  0.00     0.075 C 
HETATM   11  C10 UNL     1      27.971   8.911   1.354  1.00  0.00     0.008 C 
HETATM   12  N1  UNL     1      27.604   9.873   0.609  1.00  0.00    -0.395 N 
ATOM     13  H1  UNL     1      27.726   9.759  -0.396  1.00  0.00     0.159 HD
HETATM   14  C15 UNL     1      28.526   7.750   0.604  1.00  0.00     0.227 C 
HETATM   15  O4  UNL     1      27.814   6.569   1.009  1.00  0.00    -0.343 OA
ENDROOT
BRANCH  12  16
HETATM   16  C11 UNL     1      27.036  11.102   1.065  1.00  0.00     0.120 C 
BRANCH  16  17
HETATM   17  C12 UNL     1      27.572  12.319   0.367  1.00  0.00     0.036 C 
BRANCH  17  18
HETATM   18  C13 UNL     1      28.980  12.644   0.740  1.00  0.00     0.121 C 
BRANCH  18  19
HETATM   19  N2  UNL     1      29.966  11.991  -0.130  1.00  0.00    -0.204 NA
HETATM   20  C14 UNL     1      29.522  12.114  -1.511  1.00  0.00     0.143 C 
BRANCH  19  21
HETATM   21  O3  UNL     1      31.185  12.568   0.033  1.00  0.00    -0.314 OA
ATOM     22  H3  UNL     1      31.689  12.088   0.679  1.00  0.00     0.237 HD
ENDBRANCH  19  21
ENDBRANCH  18  19
ENDBRANCH  17  18
ENDBRANCH  16  17
ENDBRANCH  12  16
BRANCH   1  23
HETATM   23  O1  UNL     1      27.894   6.733   5.912  1.00  0.00    -0.355 OA
HETATM   24  C1  UNL     1      27.986   5.910   7.082  1.00  0.00     0.210 C 
ENDBRANCH   1  23
BRANCH   3  25
HETATM   25  O2  UNL     1      26.189   2.947   3.536  1.00  0.00    -0.359 OA
ATOM     26  H2  UNL     1      26.447   2.270   4.150  1.00  0.00     0.217 HD
ENDBRANCH   3  25
TORSDOF 7
ENDMDL
MODEL 2
REMARK VINA RESULT: -8.382522284      1.076      1.123
REMARK  7 active torsions:
REMARK  status: ('A' for Active; 'I' for Inactive)
REMARK    1  A    between atoms: O1_2  and  C2_3 
REMARK    2  A    between atoms: C4_5  and  O2_6 
REMARK    3  A    between atoms: N1_16  and  C11_18 
REMARK    4  A    between atoms: C11_18  and  C12_19 
REMARK    5  A    between atoms: C12_19  and  C13_20 
REMARK    6  A    between atoms: C13_20  and  N2_21 
REMARK    7  A    between atoms: N2_21  and  O3_23 
ROOT
HETATM    1  C2  UNL     1      27.544   6.109   4.690  1.00  0.00     0.081 A 
HETATM    2  C3  UNL     1      26.968   4.842   4.727  1.00  0.00     0.075 A 
HETATM    3  C4  UNL     1      26.660   4.216   3.547  1.00  0.00     0.092 A 
HETATM    4  C5  UNL     1      26.933   4.864   2.355  1.00  0.00     0.101 A 
HETATM    5 CL1  UNL     1      26.552   4.090   0.819  1.00  0.00    -0.078 Cl
HETATM    6  C6  UNL     1      27.501   6.111   2.287  1.00  0.00     0.103 A 
HETATM    7  C7  UNL     1      27.816   6.753   3.490  1.00  0.00     0.025 A 
HETATM    8  C8  UNL     1      28.424   8.076   3.630  1.00  0.00     0.102 C 
HETATM    9 BR1  UNL     1      28.371   8.776   5.424  1.00  0.00    -0.086 Br
HETATM   10  C9  UNL     1      27.696   9.100   2.776  1.00  0.00     0.075 C 
HETATM   11  C10 UNL     1      27.862   8.909   1.339  1.00  0.00     0.008 C 
HETATM   12  N1  UNL     1      27.489   9.877   0.604  1.00  0.00    -0.395 N 
ATOM     13  H1  UNL     1      27.595   9.767  -0.403  1.00  0.00     0.159 HD
HETATM   14  C15 UNL     1      28.399   7.749   0.576  1.00  0.00     0.227 C 
HETATM   15  O4  UNL     1      27.687   6.570   0.985  1.00  0.00    -0.343 OA
ENDROOT
BRANCH  12  16
HETATM   16  C11 UNL     1      26.935  11.107   1.075  1.00  0.00     0.120 C 
BRANCH  16  17
HETATM   17  C12 UNL     1      27.830  12.296   0.875  1.00  0.00     0.036 C 
BRANCH  17  18
HETATM   18  C13 UNL     1      27.349  13.228  -0.185  1.00  0.00     0.121 C 
BRANCH  18  19
HETATM   19  N2  UNL     1      28.318  13.402  -1.275  1.00  0.00    -0.204 NA
HETATM   20  C14 UNL     1      29.494  12.594  -0.986  1.00  0.00     0.143 C 
BRANCH  19  21
HETATM   21  O3  UNL     1      27.762  13.030  -2.457  1.00  0.00    -0.314 OA
ATOM     22  H3  UNL     1      28.209  12.265  -2.801  1.00  0.00     0.237 HD
ENDBRANCH  19  21
ENDBRANCH  18  19
ENDBRANCH  17  18
ENDBRANCH  16  17
ENDBRANCH  12  16
BRANCH   1  23
HETATM   23  O1  UNL     1      27.841   6.709   5.888  1.00  0.00    -0.355 OA
HETATM   24  C1  UNL     1      27.987   5.876   7.044  1.00  0.00     0.210 C 
ENDBRANCH   1  23
BRANCH   3  25
HETATM   25  O2  UNL     1      26.080   2.945   3.519  1.00  0.00    -0.359 OA
ATOM     26  H2  UNL     1      26.571   2.167   3.753  1.00  0.00     0.217 HD
ENDBRANCH   3  25
TORSDOF 7
ENDMDL
MODEL 3
REMARK VINA RESULT: -8.305132785      1.460      1.469
REMARK  7 active torsions:
REMARK  status: ('A' for Active; 'I' for Inactive)
REMARK    1  A    between atoms: O1_2  and  C2_3 
REMARK    2  A    between atoms: C4_5  and  O2_6 
REMARK    3  A    between atoms: N1_16  and  C11_18 
REMARK    4  A    between atoms: C11_18  and  C12_19 
REMARK    5  A    between atoms: C12_19  and  C13_20 
REMARK    6  A    between atoms: C13_20  and  N2_21 
REMARK    7  A    between atoms: N2_21  and  O3_23 
ROOT
HETATM    1  C2  UNL     1      27.476   5.498   4.817  1.00  0.00     0.081 A 
HETATM    2  C3  UNL     1      26.876   4.248   4.946  1.00  0.00     0.075 A 
HETATM    3  C4  UNL     1      26.496   3.572   3.815  1.00  0.00     0.092 A 
HETATM    4  C5  UNL     1      26.723   4.154   2.580  1.00  0.00     0.101 A 
HETATM    5 CL1  UNL     1      26.249   3.315   1.106  1.00  0.00    -0.078 Cl
HETATM    6  C6  UNL     1      27.312   5.383   2.422  1.00  0.00     0.103 A 
HETATM    7  C7  UNL     1      27.700   6.076   3.574  1.00  0.00     0.025 A 
HETATM    8  C8  UNL     1      28.341   7.390   3.617  1.00  0.00     0.102 C 
HETATM    9 BR1  UNL     1      28.393   8.178   5.374  1.00  0.00    -0.086 Br
HETATM   10  C9  UNL     1      27.593   8.387   2.749  1.00  0.00     0.075 C 
HETATM   11  C10 UNL     1      27.683   8.122   1.318  1.00  0.00     0.008 C 
HETATM   12  N1  UNL     1      27.293   9.061   0.555  1.00  0.00    -0.395 N 
ATOM     13  H1  UNL     1      27.346   8.899  -0.450  1.00  0.00     0.159 HD
HETATM   14  C15 UNL     1      28.156   6.913   0.589  1.00  0.00     0.227 C 
HETATM   15  O4  UNL     1      27.441   5.772   1.091  1.00  0.00    -0.343 OA
ENDROOT
BRANCH  12  16
HETATM   16  C11 UNL     1      26.788  10.324   0.989  1.00  0.00     0.120 C 
BRANCH  16  17
HETATM   17  C12 UNL     1      27.440  11.504   0.324  1.00  0.00     0.036 C 
BRANCH  17  18
HETATM   18  C13 UNL     1      28.577  11.127  -0.565  1.00  0.00     0.121 C 
BRANCH  18  19
HETATM   19  N2  UNL     1      28.202  11.081  -1.984  1.00  0.00    -0.204 NA
HETATM   20  C14 UNL     1      29.369  11.417  -2.786  1.00  0.00     0.143 C 
BRANCH  19  21
HETATM   21  O3  UNL     1      27.742   9.844  -2.304  1.00  0.00    -0.314 OA
ATOM     22  H3  UNL     1      26.867   9.720  -1.955  1.00  0.00     0.237 HD
ENDBRANCH  19  21
ENDBRANCH  18  19
ENDBRANCH  17  18
ENDBRANCH  16  17
ENDBRANCH  12  16
BRANCH   1  23
HETATM   23  O1  UNL     1      27.844   6.150   5.967  1.00  0.00    -0.355 OA
HETATM   24  C1  UNL     1      27.813   5.418   7.199  1.00  0.00     0.210 C 
ENDBRANCH   1  23
BRANCH   3  25
HETATM   25  O2  UNL     1      25.889   2.314   3.880  1.00  0.00    -0.359 OA
ATOM     26  H2  UNL     1      26.276   1.552   3.467  1.00  0.00     0.217 HD
ENDBRANCH   3  25
TORSDOF 7
ENDMDL
MODEL 4
REMARK VINA RESULT: -8.206839464      0.827      1.139
REMARK  7 active torsions:
REMARK  status: ('A' for Active; 'I' for Inactive)
REMARK    1  A    between atoms: O1_2  and  C2_3 
REMARK    2  A    between atoms: C4_5  and  O2_6 
REMARK    3  A    between atoms: N1_16  and  C11_18 
REMARK    4  A    between atoms: C11_18  and  C12_19 
REMARK    5  A    between atoms: C12_19  and  C13_20 
REMARK    6  A    between atoms: C13_20  and  N2_21 
REMARK    7  A    between atoms: N2_21  and  O3_23 
ROOT
HETATM    1  C2  UNL     1      27.574   6.010   4.758  1.00  0.00     0.081 A 
HETATM    2  C3  UNL     1      27.016   4.740   4.880  1.00  0.00     0.075 A 
HETATM    3  C4  UNL     1      26.746   4.020   3.745  1.00  0.00     0.092 A 
HETATM    4  C5  UNL     1      27.038   4.580   2.513  1.00  0.00     0.101 A 
HETATM    5 CL1  UNL     1      26.705   3.685   1.033  1.00  0.00    -0.078 Cl
HETATM    6  C6  UNL     1      27.588   5.828   2.362  1.00  0.00     0.103 A 
HETATM    7  C7  UNL     1      27.864   6.565   3.519  1.00  0.00     0.025 A 
HETATM    8  C8  UNL     1      28.448   7.906   3.571  1.00  0.00     0.102 C 
HETATM    9 BR1  UNL     1      28.342   8.739   5.304  1.00  0.00    -0.086 Br
HETATM   10  C9  UNL     1      27.726   8.848   2.624  1.00  0.00     0.075 C 
HETATM   11  C10 UNL     1      27.928   8.551   1.211  1.00  0.00     0.008 C 
HETATM   12  N1  UNL     1      27.559   9.453   0.395  1.00  0.00    -0.395 N 
ATOM     13  H1  UNL     1      27.690   9.268  -0.598  1.00  0.00     0.159 HD
HETATM   14  C15 UNL     1      28.501   7.345   0.551  1.00  0.00     0.227 C 
HETATM   15  O4  UNL     1      27.797   6.189   1.034  1.00  0.00    -0.343 OA
ENDROOT
BRANCH  12  16
HETATM   16  C11 UNL     1      26.974  10.706   0.757  1.00  0.00     0.120 C 
BRANCH  16  17
HETATM   17  C12 UNL     1      27.577  11.887   0.052  1.00  0.00     0.036 C 
BRANCH  17  18
HETATM   18  C13 UNL     1      28.937  12.244   0.552  1.00  0.00     0.121 C 
BRANCH  18  19
HETATM   19  N2  UNL     1      29.022  13.627   1.037  1.00  0.00    -0.204 NA
HETATM   20  C14 UNL     1      28.530  13.671   2.407  1.00  0.00     0.143 C 
BRANCH  19  21
HETATM   21  O3  UNL     1      30.306  14.064   0.977  1.00  0.00    -0.314 OA
ATOM     22  H3  UNL     1      30.568  14.421   1.817  1.00  0.00     0.237 HD
ENDBRANCH  19  21
ENDBRANCH  18  19
ENDBRANCH  17  18
ENDBRANCH  16  17
ENDBRANCH  12  16
BRANCH   1  23
HETATM   23  O1  UNL     1      27.833   6.705   5.913  1.00  0.00    -0.355 OA
HETATM   24  C1  UNL     1      28.002   5.962   7.127  1.00  0.00     0.210 C 
ENDBRANCH   1  23
BRANCH   3  25
HETATM   25  O2  UNL     1      26.186   2.741   3.802  1.00  0.00    -0.359 OA
ATOM     26  H2  UNL     1      26.141   2.181   3.036  1.00  0.00     0.217 HD
ENDBRANCH   3  25
TORSDOF 7
ENDMDL
MODEL 5
REMARK VINA RESULT: -8.197765957      2.226      2.898
REMARK  7 active torsions:
REMARK  status: ('A' for Active; 'I' for Inactive)
REMARK    1  A    between atoms: O1_2  and  C2_3 
REMARK    2  A    between atoms: C4_5  and  O2_6 
REMARK    3  A    between atoms: N1_16  and  C11_18 
REMARK    4  A    between atoms: C11_18  and  C12_19 
REMARK    5  A    between atoms: C12_19  and  C13_20 
REMARK    6  A    between atoms: C13_20  and  N2_21 
REMARK    7  A    between atoms: N2_21  and  O3_23 
ROOT
HETATM    1  C2  UNL     1      26.659   4.237   2.695  1.00  0.00     0.081 A 
HETATM    2  C3  UNL     1      25.996   3.500   1.717  1.00  0.00     0.075 A 
HETATM    3  C4  UNL     1      26.090   3.896   0.408  1.00  0.00     0.092 A 
HETATM    4  C5  UNL     1      26.841   5.016   0.100  1.00  0.00     0.101 A 
HETATM    5 CL1  UNL     1      26.984   5.554  -1.571  1.00  0.00    -0.078 Cl
HETATM    6  C6  UNL     1      27.506   5.761   1.041  1.00  0.00     0.103 A 
HETATM    7  C7  UNL     1      27.412   5.360   2.378  1.00  0.00     0.025 A 
HETATM    8  C8  UNL     1      28.044   6.016   3.524  1.00  0.00     0.102 C 
HETATM    9 BR1  UNL     1      27.398   5.402   5.232  1.00  0.00    -0.086 Br
HETATM   10  C9  UNL     1      27.780   7.512   3.505  1.00  0.00     0.075 C 
HETATM   11  C10 UNL     1      28.446   8.225   2.422  1.00  0.00     0.008 C 
HETATM   12  N1  UNL     1      28.460   9.492   2.519  1.00  0.00    -0.395 N 
ATOM     13  H1  UNL     1      28.920  10.013   1.772  1.00  0.00     0.159 HD
HETATM   14  C15 UNL     1      29.118   7.710   1.197  1.00  0.00     0.227 C 
HETATM   15  O4  UNL     1      28.199   6.844   0.508  1.00  0.00    -0.343 OA
ENDROOT
BRANCH  12  16
HETATM   16  C11 UNL     1      27.886  10.247   3.587  1.00  0.00     0.120 C 
BRANCH  16  17
HETATM   17  C12 UNL     1      27.492  11.645   3.204  1.00  0.00     0.036 C 
BRANCH  17  18
HETATM   18  C13 UNL     1      28.090  12.096   1.913  1.00  0.00     0.121 C 
BRANCH  18  19
HETATM   19  N2  UNL     1      27.161  11.978   0.782  1.00  0.00    -0.204 NA
HETATM   20  C14 UNL     1      27.904  11.524  -0.384  1.00  0.00     0.143 C 
BRANCH  19  21
HETATM   21  O3  UNL     1      26.167  11.103   1.085  1.00  0.00    -0.314 OA
ATOM     22  H3  UNL     1      25.587  11.482   1.735  1.00  0.00     0.237 HD
ENDBRANCH  19  21
ENDBRANCH  18  19
ENDBRANCH  17  18
ENDBRANCH  16  17
ENDBRANCH  12  16
BRANCH   1  23
HETATM   23  O1  UNL     1      26.547   3.816   3.996  1.00  0.00    -0.355 OA
HETATM   24  C1  UNL     1      25.931   2.546   4.245  1.00  0.00     0.210 C 
ENDBRANCH   1  23
BRANCH   3  25
HETATM   25  O2  UNL     1      25.447   3.198  -0.618  1.00  0.00    -0.359 OA
ATOM     26  H2  UNL     1      24.580   2.827  -0.502  1.00  0.00     0.217 HD
ENDBRANCH   3  25
TORSDOF 7
ENDMDL
