MODEL 1
REMARK VINA RESULT: -8.445626124      0.000      0.000
REMARK  8 active torsions:
REMARK  status: ('A' for Active; 'I' for Inactive)
REMARK    1  A    between atoms: N2_7  and  C4_8 
REMARK    2  A    between atoms: C8_12  and  N3_13 
REMARK    3  A    between atoms: N3_13  and  C9_15 
REMARK    4  A    between atoms: C12_19  and  O1_20 
REMARK    5  A    between atoms: O1_20  and  C13_21 
REMARK    6  A    between atoms: C13_21  and  C14_22 
REMARK    7  A    between atoms: C14_22  and  N4_23 
REMARK    8  A    between atoms: C18_27  and  O2_28 
ROOT
HETATM    1  C9  UNL     1      27.862   7.887   2.382  1.00  0.00     0.069 A 
HETATM    2  C10 UNL     1      27.781   8.996   3.227  1.00  0.00     0.059 A 
HETATM    3  C11 UNL     1      27.478  10.209   2.727  1.00  0.00     0.069 A 
HETATM    4 CL2  UNL     1      27.386  11.592   3.837  1.00  0.00    -0.081 Cl
HETATM    5  C12 UNL     1      27.230  10.439   1.366  1.00  0.00     0.093 A 
HETATM    6  C17 UNL     1      27.314   9.335   0.556  1.00  0.00     0.077 A 
HETATM    7  C18 UNL     1      27.620   8.094   1.042  1.00  0.00     0.095 A 
ENDROOT
BRANCH   1   8
HETATM    8  N3  UNL     1      28.162   6.616   2.900  1.00  0.00    -0.338 N 
ATOM      9  H3  UNL     1      28.786   6.064   2.311  1.00  0.00     0.167 HD
BRANCH   8  10
HETATM   10  C8  UNL     1      27.803   6.032   3.959  1.00  0.00     0.132 A 
HETATM   11  C2  UNL     1      28.113   6.319   5.268  1.00  0.00     0.024 A 
HETATM   12  C1  UNL     1      28.957   7.391   5.842  1.00  0.00     0.056 C 
HETATM   13  C3  UNL     1      27.447   5.352   6.023  1.00  0.00     0.128 A 
HETATM   14 CL1  UNL     1      27.498   5.247   7.765  1.00  0.00    -0.062 Cl
HETATM   15  N1  UNL     1      26.791   4.558   5.165  1.00  0.00    -0.285 N 
HETATM   16  N2  UNL     1      26.971   4.921   3.935  1.00  0.00    -0.266 N 
ATOM     17  H1  UNL     1      26.218   3.763   5.448  1.00  0.00     0.188 HD
BRANCH  16  18
HETATM   18  C4  UNL     1      26.437   4.325   2.725  1.00  0.00     0.044 C 
HETATM   19  C5  UNL     1      25.704   3.062   3.110  1.00  0.00     0.039 C 
HETATM   20  C6  UNL     1      27.521   3.961   1.749  1.00  0.00     0.039 C 
HETATM   21  C7  UNL     1      25.425   5.265   2.078  1.00  0.00     0.039 C 
ENDBRANCH  16  18
ENDBRANCH   8  10
ENDBRANCH   1   8
BRANCH   7  22
HETATM   22  O2  UNL     1      27.697   6.987   0.179  1.00  0.00    -0.358 OA
ATOM     23  H2  UNL     1      27.885   7.149  -0.737  1.00  0.00     0.217 HD
ENDBRANCH   7  22
BRANCH   5  24
HETATM   24  O1  UNL     1      26.938  11.693   1.001  1.00  0.00    -0.348 OA
BRANCH  24  25
HETATM   25  C13 UNL     1      27.636  12.774   0.546  1.00  0.00     0.206 C 
BRANCH  25  26
HETATM   26  C14 UNL     1      27.785  12.921  -0.947  1.00  0.00     0.297 C 
BRANCH  26  27
HETATM   27  N4  UNL     1      29.147  12.535  -1.268  1.00  0.00     0.082 N 
HETATM   28  C15 UNL     1      29.999  12.526  -0.112  1.00  0.00     0.309 C 
HETATM   29  C16 UNL     1      29.238  11.365  -2.080  1.00  0.00     0.309 C 
ENDBRANCH  26  27
ENDBRANCH  25  26
ENDBRANCH  24  25
ENDBRANCH   5  24
TORSDOF 8
ENDMDL
MODEL 2
REMARK VINA RESULT: -8.221734712      4.293      6.811
REMARK  8 active torsions:
REMARK  status: ('A' for Active; 'I' for Inactive)
REMARK    1  A    between atoms: N2_7  and  C4_8 
REMARK    2  A    between atoms: C8_12  and  N3_13 
REMARK    3  A    between atoms: N3_13  and  C9_15 
REMARK    4  A    between atoms: C12_19  and  O1_20 
REMARK    5  A    between atoms: O1_20  and  C13_21 
REMARK    6  A    between atoms: C13_21  and  C14_22 
REMARK    7  A    between atoms: C14_22  and  N4_23 
REMARK    8  A    between atoms: C18_27  and  O2_28 
ROOT
HETATM    1  C9  UNL     1      27.439   5.418   0.663  1.00  0.00     0.069 A 
HETATM    2  C10 UNL     1      26.814   4.186   0.867  1.00  0.00     0.059 A 
HETATM    3  C11 UNL     1      26.162   3.581  -0.143  1.00  0.00     0.069 A 
HETATM    4 CL2  UNL     1      25.381   2.015   0.160  1.00  0.00    -0.081 Cl
HETATM    5  C12 UNL     1      26.065   4.126  -1.432  1.00  0.00     0.093 A 
HETATM    6  C17 UNL     1      26.688   5.336  -1.608  1.00  0.00     0.077 A 
HETATM    7  C18 UNL     1      27.355   5.968  -0.597  1.00  0.00     0.095 A 
ENDROOT
BRANCH   1   8
HETATM    8  N3  UNL     1      28.134   6.047   1.710  1.00  0.00    -0.338 N 
ATOM      9  H3  UNL     1      29.030   6.446   1.433  1.00  0.00     0.167 HD
BRANCH   8  10
HETATM   10  C8  UNL     1      27.853   6.210   2.930  1.00  0.00     0.132 A 
HETATM   11  C2  UNL     1      27.595   5.273   3.903  1.00  0.00     0.024 A 
HETATM   12  C1  UNL     1      27.564   3.795   3.829  1.00  0.00     0.056 C 
HETATM   13  C3  UNL     1      27.345   6.008   5.063  1.00  0.00     0.128 A 
HETATM   14 CL1  UNL     1      26.956   5.309   6.615  1.00  0.00    -0.062 Cl
HETATM   15  N1  UNL     1      27.461   7.305   4.745  1.00  0.00    -0.285 N 
HETATM   16  N2  UNL     1      27.760   7.473   3.496  1.00  0.00    -0.266 N 
ATOM     17  H1  UNL     1      27.329   8.069   5.409  1.00  0.00     0.188 HD
BRANCH  16  18
HETATM   18  C4  UNL     1      27.970   8.712   2.771  1.00  0.00     0.044 C 
HETATM   19  C5  UNL     1      28.049   9.835   3.778  1.00  0.00     0.039 C 
HETATM   20  C6  UNL     1      26.842   9.009   1.823  1.00  0.00     0.039 C 
HETATM   21  C7  UNL     1      29.300   8.667   2.027  1.00  0.00     0.039 C 
ENDBRANCH  16  18
ENDBRANCH   8  10
ENDBRANCH   1   8
BRANCH   7  22
HETATM   22  O2  UNL     1      27.980   7.208  -0.817  1.00  0.00    -0.358 OA
ATOM     23  H2  UNL     1      27.442   7.931  -1.117  1.00  0.00     0.217 HD
ENDBRANCH   7  22
BRANCH   5  24
HETATM   24  O1  UNL     1      25.389   3.421  -2.346  1.00  0.00    -0.348 OA
BRANCH  24  25
HETATM   25  C13 UNL     1      25.693   2.487  -3.292  1.00  0.00     0.206 C 
BRANCH  25  26
HETATM   26  C14 UNL     1      26.121   2.991  -4.647  1.00  0.00     0.297 C 
BRANCH  26  27
HETATM   27  N4  UNL     1      26.150   1.837  -5.530  1.00  0.00     0.082 N 
HETATM   28  C15 UNL     1      25.256   1.981  -6.644  1.00  0.00     0.309 C 
HETATM   29  C16 UNL     1      27.467   1.411  -5.877  1.00  0.00     0.309 C 
ENDBRANCH  26  27
ENDBRANCH  25  26
ENDBRANCH  24  25
ENDBRANCH   5  24
TORSDOF 8
ENDMDL
MODEL 3
REMARK VINA RESULT: -8.097232396      3.211      4.007
REMARK  8 active torsions:
REMARK  status: ('A' for Active; 'I' for Inactive)
REMARK    1  A    between atoms: N2_7  and  C4_8 
REMARK    2  A    between atoms: C8_12  and  N3_13 
REMARK    3  A    between atoms: N3_13  and  C9_15 
REMARK    4  A    between atoms: C12_19  and  O1_20 
REMARK    5  A    between atoms: O1_20  and  C13_21 
REMARK    6  A    between atoms: C13_21  and  C14_22 
REMARK    7  A    between atoms: C14_22  and  N4_23 
REMARK    8  A    between atoms: C18_27  and  O2_28 
ROOT
HETATM    1  C9  UNL     1      28.133   8.370   3.371  1.00  0.00     0.069 A 
HETATM    2  C10 UNL     1      27.708   9.251   2.372  1.00  0.00     0.059 A 
HETATM    3  C11 UNL     1      27.467  10.543   2.665  1.00  0.00     0.069 A 
HETATM    4 CL2  UNL     1      26.928  11.626   1.366  1.00  0.00    -0.081 Cl
HETATM    5  C12 UNL     1      27.620  11.081   3.951  1.00  0.00     0.093 A 
HETATM    6  C17 UNL     1      28.039  10.197   4.914  1.00  0.00     0.077 A 
HETATM    7  C18 UNL     1      28.289   8.882   4.640  1.00  0.00     0.095 A 
ENDROOT
BRANCH   1   8
HETATM    8  N3  UNL     1      28.401   7.025   3.068  1.00  0.00    -0.338 N 
ATOM      9  H3  UNL     1      29.362   6.848   2.778  1.00  0.00     0.167 HD
BRANCH   8  10
HETATM   10  C8  UNL     1      27.670   5.995   3.090  1.00  0.00     0.132 A 
HETATM   11  C2  UNL     1      27.325   5.186   4.147  1.00  0.00     0.024 A 
HETATM   12  C1  UNL     1      27.698   5.264   5.577  1.00  0.00     0.056 C 
HETATM   13  C3  UNL     1      26.503   4.200   3.600  1.00  0.00     0.128 A 
HETATM   14 CL1  UNL     1      25.777   2.898   4.510  1.00  0.00    -0.062 Cl
HETATM   15  N1  UNL     1      26.394   4.453   2.288  1.00  0.00    -0.285 N 
HETATM   16  N2  UNL     1      27.066   5.505   1.941  1.00  0.00    -0.266 N 
ATOM     17  H1  UNL     1      25.846   3.886   1.641  1.00  0.00     0.188 HD
BRANCH  16  18
HETATM   18  C4  UNL     1      27.202   6.102   0.626  1.00  0.00     0.044 C 
HETATM   19  C5  UNL     1      26.843   5.056  -0.403  1.00  0.00     0.039 C 
HETATM   20  C6  UNL     1      28.608   6.563   0.357  1.00  0.00     0.039 C 
HETATM   21  C7  UNL     1      26.219   7.257   0.469  1.00  0.00     0.039 C 
ENDBRANCH  16  18
ENDBRANCH   8  10
ENDBRANCH   1   8
BRANCH   7  22
HETATM   22  O2  UNL     1      28.717   8.008   5.655  1.00  0.00    -0.358 OA
ATOM     23  H2  UNL     1      28.904   8.377   6.509  1.00  0.00     0.217 HD
ENDBRANCH   7  22
BRANCH   5  24
HETATM   24  O1  UNL     1      27.348  12.382   4.106  1.00  0.00    -0.348 OA
BRANCH  24  25
HETATM   25  C13 UNL     1      27.707  13.366   4.980  1.00  0.00     0.206 C 
BRANCH  25  26
HETATM   26  C14 UNL     1      28.463  14.544   4.421  1.00  0.00     0.297 C 
BRANCH  26  27
HETATM   27  N4  UNL     1      29.099  15.202   5.548  1.00  0.00     0.082 N 
HETATM   28  C15 UNL     1      28.869  14.510   6.785  1.00  0.00     0.309 C 
HETATM   29  C16 UNL     1      30.462  15.559   5.313  1.00  0.00     0.309 C 
ENDBRANCH  26  27
ENDBRANCH  25  26
ENDBRANCH  24  25
ENDBRANCH   5  24
TORSDOF 8
ENDMDL
MODEL 4
REMARK VINA RESULT: -7.922421101      2.581      3.486
REMARK  8 active torsions:
REMARK  status: ('A' for Active; 'I' for Inactive)
REMARK    1  A    between atoms: N2_7  and  C4_8 
REMARK    2  A    between atoms: C8_12  and  N3_13 
REMARK    3  A    between atoms: N3_13  and  C9_15 
REMARK    4  A    between atoms: C12_19  and  O1_20 
REMARK    5  A    between atoms: O1_20  and  C13_21 
REMARK    6  A    between atoms: C13_21  and  C14_22 
REMARK    7  A    between atoms: C14_22  and  N4_23 
REMARK    8  A    between atoms: C18_27  and  O2_28 
ROOT
HETATM    1  C9  UNL     1      27.706   9.736   0.691  1.00  0.00     0.069 A 
HETATM    2  C10 UNL     1      28.635  10.736   0.990  1.00  0.00     0.059 A 
HETATM    3  C11 UNL     1      29.219  11.437   0.000  1.00  0.00     0.069 A 
HETATM    4 CL2  UNL     1      30.394  12.698   0.424  1.00  0.00    -0.081 Cl
HETATM    5  C12 UNL     1      28.946  11.221  -1.359  1.00  0.00     0.093 A 
HETATM    6  C17 UNL     1      28.030  10.236  -1.627  1.00  0.00     0.077 A 
HETATM    7  C18 UNL     1      27.425   9.511  -0.638  1.00  0.00     0.095 A 
ENDROOT
BRANCH   1   8
HETATM    8  N3  UNL     1      27.082   9.012   1.721  1.00  0.00    -0.338 N 
ATOM      9  H3  UNL     1      26.081   8.878   1.586  1.00  0.00     0.167 HD
BRANCH   8  10
HETATM   10  C8  UNL     1      27.534   8.496   2.781  1.00  0.00     0.132 A 
HETATM   11  C2  UNL     1      27.894   9.097   3.965  1.00  0.00     0.024 A 
HETATM   12  C1  UNL     1      27.868  10.521   4.365  1.00  0.00     0.056 C 
HETATM   13  C3  UNL     1      28.324   8.055   4.788  1.00  0.00     0.128 A 
HETATM   14 CL1  UNL     1      28.900   8.259   6.424  1.00  0.00    -0.062 Cl
HETATM   15  N1  UNL     1      28.206   6.918   4.089  1.00  0.00    -0.285 N 
HETATM   16  N2  UNL     1      27.742   7.129   2.897  1.00  0.00    -0.266 N 
ATOM     17  H1  UNL     1      28.451   5.997   4.451  1.00  0.00     0.188 HD
BRANCH  16  18
HETATM   18  C4  UNL     1      27.474   6.168   1.844  1.00  0.00     0.044 C 
HETATM   19  C5  UNL     1      27.538   4.784   2.446  1.00  0.00     0.039 C 
HETATM   20  C6  UNL     1      28.487   6.246   0.737  1.00  0.00     0.039 C 
HETATM   21  C7  UNL     1      26.064   6.367   1.298  1.00  0.00     0.039 C 
ENDBRANCH  16  18
ENDBRANCH   8  10
ENDBRANCH   1   8
BRANCH   7  22
HETATM   22  O2  UNL     1      26.492   8.509  -0.954  1.00  0.00    -0.358 OA
ATOM     23  H2  UNL     1      25.834   8.704  -1.610  1.00  0.00     0.217 HD
ENDBRANCH   7  22
BRANCH   5  24
HETATM   24  O1  UNL     1      29.594  11.989  -2.242  1.00  0.00    -0.348 OA
BRANCH  24  25
HETATM   25  C13 UNL     1      30.488  11.787  -3.253  1.00  0.00     0.206 C 
BRANCH  25  26
HETATM   26  C14 UNL     1      31.953  11.836  -2.899  1.00  0.00     0.297 C 
BRANCH  26  27
HETATM   27  N4  UNL     1      32.651  11.068  -3.916  1.00  0.00     0.082 N 
HETATM   28  C15 UNL     1      32.862  11.822  -5.120  1.00  0.00     0.309 C 
HETATM   29  C16 UNL     1      33.810  10.390  -3.430  1.00  0.00     0.309 C 
ENDBRANCH  26  27
ENDBRANCH  25  26
ENDBRANCH  24  25
ENDBRANCH   5  24
TORSDOF 8
ENDMDL
MODEL 5
REMARK VINA RESULT: -7.787177085      1.776      2.172
REMARK  8 active torsions:
REMARK  status: ('A' for Active; 'I' for Inactive)
REMARK    1  A    between atoms: N2_7  and  C4_8 
REMARK    2  A    between atoms: C8_12  and  N3_13 
REMARK    3  A    between atoms: N3_13  and  C9_15 
REMARK    4  A    between atoms: C12_19  and  O1_20 
REMARK    5  A    between atoms: O1_20  and  C13_21 
REMARK    6  A    between atoms: C13_21  and  C14_22 
REMARK    7  A    between atoms: C14_22  and  N4_23 
REMARK    8  A    between atoms: C18_27  and  O2_28 
ROOT
HETATM    1  C9  UNL     1      28.016   7.241   3.583  1.00  0.00     0.069 A 
HETATM    2  C10 UNL     1      27.398   7.424   2.344  1.00  0.00     0.059 A 
HETATM    3  C11 UNL     1      27.258   8.662   1.832  1.00  0.00     0.069 A 
HETATM    4 CL2  UNL     1      26.467   8.850   0.255  1.00  0.00    -0.081 Cl
HETATM    5  C12 UNL     1      27.708   9.819   2.486  1.00  0.00     0.093 A 
HETATM    6  C17 UNL     1      28.312   9.613   3.700  1.00  0.00     0.077 A 
HETATM    7  C18 UNL     1      28.465   8.366   4.239  1.00  0.00     0.095 A 
ENDROOT
BRANCH   1   8
HETATM    8  N3  UNL     1      28.178   5.951   4.115  1.00  0.00    -0.338 N 
ATOM      9  H3  UNL     1      29.030   5.480   3.811  1.00  0.00     0.167 HD
BRANCH   8  10
HETATM   10  C8  UNL     1      27.464   5.267   4.900  1.00  0.00     0.132 A 
HETATM   11  C2  UNL     1      27.379   5.310   6.272  1.00  0.00     0.024 A 
HETATM   12  C1  UNL     1      28.092   6.161   7.252  1.00  0.00     0.056 C 
HETATM   13  C3  UNL     1      26.437   4.339   6.612  1.00  0.00     0.128 A 
HETATM   14 CL1  UNL     1      25.942   3.967   8.245  1.00  0.00    -0.062 Cl
HETATM   15  N1  UNL     1      26.013   3.778   5.471  1.00  0.00    -0.285 N 
HETATM   16  N2  UNL     1      26.591   4.295   4.433  1.00  0.00    -0.266 N 
ATOM     17  H1  UNL     1      25.317   3.033   5.425  1.00  0.00     0.188 HD
BRANCH  16  18
HETATM   18  C4  UNL     1      26.408   3.964   3.033  1.00  0.00     0.044 C 
HETATM   19  C5  UNL     1      25.705   2.629   2.955  1.00  0.00     0.039 C 
HETATM   20  C6  UNL     1      27.717   3.849   2.303  1.00  0.00     0.039 C 
HETATM   21  C7  UNL     1      25.509   4.997   2.362  1.00  0.00     0.039 C 
ENDBRANCH  16  18
ENDBRANCH   8  10
ENDBRANCH   1   8
BRANCH   7  22
HETATM   22  O2  UNL     1      29.089   8.197   5.487  1.00  0.00    -0.358 OA
ATOM     23  H2  UNL     1      30.036   8.128   5.504  1.00  0.00     0.217 HD
ENDBRANCH   7  22
BRANCH   5  24
HETATM   24  O1  UNL     1      27.508  10.988   1.866  1.00  0.00    -0.348 OA
BRANCH  24  25
HETATM   25  C13 UNL     1      28.257  12.090   1.576  1.00  0.00     0.206 C 
BRANCH  25  26
HETATM   26  C14 UNL     1      29.029  12.079   0.281  1.00  0.00     0.297 C 
BRANCH  26  27
HETATM   27  N4  UNL     1      28.051  11.945  -0.784  1.00  0.00     0.082 N 
HETATM   28  C15 UNL     1      27.576  13.216  -1.252  1.00  0.00     0.309 C 
HETATM   29  C16 UNL     1      28.445  11.042  -1.817  1.00  0.00     0.309 C 
ENDBRANCH  26  27
ENDBRANCH  25  26
ENDBRANCH  24  25
ENDBRANCH   5  24
TORSDOF 8
ENDMDL
