MODEL 1
REMARK VINA RESULT: -4.976648426      0.000      0.000
REMARK  1 active torsions:
REMARK  status: ('A' for Active; 'I' for Inactive)
REMARK    1  A    between atoms: C1_4  and  C2_6 
ROOT
HETATM    1  C2  UNL     1       7.366  37.011  27.214  1.00  0.00     0.016 C 
HETATM    2  C3  UNL     1       5.886  36.908  27.207  1.00  0.00     0.021 C 
HETATM    3  C4  UNL     1       5.335  37.403  25.884  1.00  0.00    -0.013 C 
HETATM    4  C5  UNL     1       5.859  36.501  24.799  1.00  0.00     0.009 C 
HETATM    5  C6  UNL     1       7.370  36.619  24.801  1.00  0.00    -0.013 C 
HETATM    6  C7  UNL     1       7.723  38.037  24.518  1.00  0.00     0.009 C 
HETATM    7  C8  UNL     1       7.278  38.933  25.663  1.00  0.00    -0.013 C 
HETATM    8  C9  UNL     1       5.767  38.838  25.721  1.00  0.00     0.009 C 
HETATM    9  C10 UNL     1       7.866  38.415  26.939  1.00  0.00     0.021 C 
HETATM   10  C11 UNL     1       7.919  36.136  26.105  1.00  0.00     0.021 C 
ENDROOT
BRANCH   1  11
HETATM   11  C1  UNL     1       7.904  36.597  28.536  1.00  0.00     0.095 C 
HETATM   12  N1  UNL     1       7.755  37.372  29.535  1.00  0.00    -0.390 N 
ATOM     13  H12 UNL     1       8.124  37.088  30.442  1.00  0.00     0.157 HD
ATOM     14  H11 UNL     1       7.274  38.264  29.419  1.00  0.00     0.157 HD
HETATM   15  N2  UNL     1       8.576  35.348  28.699  1.00  0.00    -0.087 NA
ENDBRANCH   1  11
TORSDOF 1
ENDMDL
MODEL 2
REMARK VINA RESULT: -4.903239593      0.602      2.077
REMARK  1 active torsions:
REMARK  status: ('A' for Active; 'I' for Inactive)
REMARK    1  A    between atoms: C1_4  and  C2_6 
ROOT
HETATM    1  C2  UNL     1       7.837  36.880  27.220  1.00  0.00     0.016 C 
HETATM    2  C3  UNL     1       8.034  38.342  27.065  1.00  0.00     0.021 C 
HETATM    3  C4  UNL     1       7.260  38.847  25.864  1.00  0.00    -0.013 C 
HETATM    4  C5  UNL     1       5.796  38.610  26.124  1.00  0.00     0.009 C 
HETATM    5  C6  UNL     1       5.598  37.114  26.270  1.00  0.00    -0.013 C 
HETATM    6  C7  UNL     1       6.013  36.467  24.995  1.00  0.00     0.009 C 
HETATM    7  C8  UNL     1       7.511  36.625  24.785  1.00  0.00    -0.013 C 
HETATM    8  C9  UNL     1       7.772  38.111  24.651  1.00  0.00     0.009 C 
HETATM    9  C10 UNL     1       8.227  36.092  25.987  1.00  0.00     0.021 C 
HETATM   10  C11 UNL     1       6.362  36.610  27.451  1.00  0.00     0.021 C 
ENDROOT
BRANCH   1  11
HETATM   11  C1  UNL     1       8.654  36.368  28.353  1.00  0.00     0.095 C 
HETATM   12  N1  UNL     1       9.239  37.199  29.119  1.00  0.00    -0.390 N 
ATOM     13  H12 UNL     1       9.800  36.848  29.895  1.00  0.00     0.157 HD
ATOM     14  H11 UNL     1       9.146  38.200  28.948  1.00  0.00     0.157 HD
HETATM   15  N2  UNL     1       8.784  34.967  28.592  1.00  0.00    -0.087 NA
ENDBRANCH   1  11
TORSDOF 1
ENDMDL
MODEL 3
REMARK VINA RESULT: -4.856765050      0.561      2.183
REMARK  1 active torsions:
REMARK  status: ('A' for Active; 'I' for Inactive)
REMARK    1  A    between atoms: C1_4  and  C2_6 
ROOT
HETATM    1  C2  UNL     1       7.816  37.040  27.228  1.00  0.00     0.016 C 
HETATM    2  C3  UNL     1       8.329  36.407  25.989  1.00  0.00     0.021 C 
HETATM    3  C4  UNL     1       7.515  36.865  24.794  1.00  0.00    -0.013 C 
HETATM    4  C5  UNL     1       7.696  38.353  24.654  1.00  0.00     0.009 C 
HETATM    5  C6  UNL     1       7.159  38.996  25.918  1.00  0.00    -0.013 C 
HETATM    6  C7  UNL     1       5.715  38.655  26.033  1.00  0.00     0.009 C 
HETATM    7  C8  UNL     1       5.541  37.163  26.272  1.00  0.00    -0.013 C 
HETATM    8  C9  UNL     1       6.082  36.465  25.041  1.00  0.00     0.009 C 
HETATM    9  C10 UNL     1       6.345  36.768  27.472  1.00  0.00     0.021 C 
HETATM   10  C11 UNL     1       7.957  38.545  27.100  1.00  0.00     0.021 C 
ENDROOT
BRANCH   1  11
HETATM   11  C1  UNL     1       8.564  36.536  28.411  1.00  0.00     0.095 C 
HETATM   12  N1  UNL     1       9.125  37.371  29.190  1.00  0.00    -0.390 N 
ATOM     13  H12 UNL     1       9.638  37.025  30.001  1.00  0.00     0.157 HD
ATOM     14  H11 UNL     1       9.061  38.370  28.996  1.00  0.00     0.157 HD
HETATM   15  N2  UNL     1       8.654  35.137  28.683  1.00  0.00    -0.087 NA
ENDBRANCH   1  11
TORSDOF 1
ENDMDL
MODEL 4
REMARK VINA RESULT: -4.776965488      1.526      2.980
REMARK  1 active torsions:
REMARK  status: ('A' for Active; 'I' for Inactive)
REMARK    1  A    between atoms: C1_4  and  C2_6 
ROOT
HETATM    1  C2  UNL     1       7.970  36.981  26.894  1.00  0.00     0.016 C 
HETATM    2  C3  UNL     1       7.991  37.797  25.656  1.00  0.00     0.021 C 
HETATM    3  C4  UNL     1       7.047  38.975  25.792  1.00  0.00    -0.013 C 
HETATM    4  C5  UNL     1       7.548  39.842  26.917  1.00  0.00     0.009 C 
HETATM    5  C6  UNL     1       7.514  39.007  28.182  1.00  0.00    -0.013 C 
HETATM    6  C7  UNL     1       6.104  38.597  28.428  1.00  0.00     0.009 C 
HETATM    7  C8  UNL     1       5.632  37.644  27.340  1.00  0.00    -0.013 C 
HETATM    8  C9  UNL     1       5.666  38.424  26.042  1.00  0.00     0.009 C 
HETATM    9  C10 UNL     1       6.584  36.491  27.262  1.00  0.00     0.021 C 
HETATM   10  C11 UNL     1       8.441  37.841  28.051  1.00  0.00     0.021 C 
ENDROOT
BRANCH   1  11
HETATM   11  C1  UNL     1       8.838  35.783  26.735  1.00  0.00     0.095 C 
HETATM   12  N1  UNL     1       8.788  35.123  25.648  1.00  0.00    -0.390 N 
ATOM     13  H12 UNL     1       9.383  34.302  25.540  1.00  0.00     0.157 HD
ATOM     14  H11 UNL     1       8.156  35.416  24.904  1.00  0.00     0.157 HD
HETATM   15  N2  UNL     1       9.724  35.373  27.777  1.00  0.00    -0.087 NA
ENDBRANCH   1  11
TORSDOF 1
ENDMDL
MODEL 5
REMARK VINA RESULT: -4.775341730      1.315      2.737
REMARK  1 active torsions:
REMARK  status: ('A' for Active; 'I' for Inactive)
REMARK    1  A    between atoms: C1_4  and  C2_6 
ROOT
HETATM    1  C2  UNL     1       7.837  36.937  26.370  1.00  0.00     0.016 C 
HETATM    2  C3  UNL     1       7.962  37.342  24.949  1.00  0.00     0.021 C 
HETATM    3  C4  UNL     1       6.917  38.388  24.611  1.00  0.00    -0.013 C 
HETATM    4  C5  UNL     1       7.189  39.603  25.457  1.00  0.00     0.009 C 
HETATM    5  C6  UNL     1       7.048  39.186  26.908  1.00  0.00    -0.013 C 
HETATM    6  C7  UNL     1       5.655  38.706  27.118  1.00  0.00     0.009 C 
HETATM    7  C8  UNL     1       5.415  37.422  26.337  1.00  0.00    -0.013 C 
HETATM    8  C9  UNL     1       5.563  37.777  24.872  1.00  0.00     0.009 C 
HETATM    9  C10 UNL     1       6.457  36.419  26.723  1.00  0.00     0.021 C 
HETATM   10  C11 UNL     1       8.074  38.153  27.246  1.00  0.00     0.021 C 
ENDROOT
BRANCH   1  11
HETATM   11  C1  UNL     1       8.811  35.858  26.685  1.00  0.00     0.095 C 
HETATM   12  N1  UNL     1       9.017  34.941  25.827  1.00  0.00    -0.390 N 
ATOM     13  H12 UNL     1       9.685  34.201  26.043  1.00  0.00     0.157 HD
ATOM     14  H11 UNL     1       8.513  34.952  24.940  1.00  0.00     0.157 HD
HETATM   15  N2  UNL     1       9.517  35.842  27.926  1.00  0.00    -0.087 NA
ENDBRANCH   1  11
TORSDOF 1
ENDMDL
