MODEL 1
REMARK VINA RESULT: -4.362973443      0.000      0.000
REMARK  1 active torsions:
REMARK  status: ('A' for Active; 'I' for Inactive)
REMARK    1  A    between atoms: N1_1  and  C1_5 
ROOT
HETATM    1  C1  UNL     1       7.993  35.880  26.085  1.00  0.00     0.191 C 
HETATM    2  C2  UNL     1       7.633  36.675  27.316  1.00  0.00     0.018 C 
HETATM    3  C3  UNL     1       8.063  38.104  27.253  1.00  0.00     0.011 C 
HETATM    4  C4  UNL     1       7.412  38.772  26.041  1.00  0.00    -0.012 C 
HETATM    5  C5  UNL     1       7.942  38.055  24.828  1.00  0.00     0.011 C 
HETATM    6  C6  UNL     1       7.530  36.613  24.862  1.00  0.00     0.018 C 
HETATM    7  C7  UNL     1       5.994  36.605  24.915  1.00  0.00     0.032 C 
HETATM    8  C8  UNL     1       5.511  37.212  26.195  1.00  0.00     0.038 C 
HETATM    9 CL1  UNL     1       3.754  37.034  26.270  1.00  0.00    -0.119 Cl
HETATM   10  C9  UNL     1       5.925  38.686  26.176  1.00  0.00     0.030 C 
HETATM   11  C10 UNL     1       6.104  36.608  27.427  1.00  0.00     0.032 C 
ENDROOT
BRANCH   1  12
HETATM   12  N1  UNL     1       9.357  35.463  26.044  1.00  0.00    -0.074 N 
ATOM     13  H13 UNL     1       9.694  35.435  25.081  1.00  0.00     0.274 HD
ATOM     14  H12 UNL     1       9.966  36.191  26.419  1.00  0.00     0.274 HD
ATOM     15  H11 UNL     1       9.532  34.575  26.511  1.00  0.00     0.274 HD
ENDBRANCH   1  12
TORSDOF 1
ENDMDL
MODEL 2
REMARK VINA RESULT: -4.272843792      1.552      2.881
REMARK  1 active torsions:
REMARK  status: ('A' for Active; 'I' for Inactive)
REMARK    1  A    between atoms: N1_1  and  C1_5 
ROOT
HETATM    1  C1  UNL     1       8.399  36.555  25.821  1.00  0.00     0.191 C 
HETATM    2  C2  UNL     1       7.385  36.951  24.777  1.00  0.00     0.018 C 
HETATM    3  C3  UNL     1       5.995  36.507  25.093  1.00  0.00     0.011 C 
HETATM    4  C4  UNL     1       5.567  37.109  26.432  1.00  0.00    -0.012 C 
HETATM    5  C5  UNL     1       6.502  36.543  27.468  1.00  0.00     0.011 C 
HETATM    6  C6  UNL     1       7.911  36.969  27.177  1.00  0.00     0.018 C 
HETATM    7  C7  UNL     1       7.905  38.506  27.178  1.00  0.00     0.032 C 
HETATM    8  C8  UNL     1       7.066  39.028  26.055  1.00  0.00     0.038 C 
HETATM    9 CL1  UNL     1       7.224  40.788  26.011  1.00  0.00    -0.119 Cl
HETATM   10  C9  UNL     1       5.623  38.600  26.338  1.00  0.00     0.030 C 
HETATM   11  C10 UNL     1       7.428  38.484  24.710  1.00  0.00     0.032 C 
ENDROOT
BRANCH   1  12
HETATM   12  N1  UNL     1       8.819  35.194  25.733  1.00  0.00    -0.074 N 
ATOM     13  H13 UNL     1       8.015  34.578  25.614  1.00  0.00     0.274 HD
ATOM     14  H12 UNL     1       9.301  35.024  24.850  1.00  0.00     0.274 HD
ATOM     15  H11 UNL     1       9.392  34.887  26.519  1.00  0.00     0.274 HD
ENDBRANCH   1  12
TORSDOF 1
ENDMDL
MODEL 3
REMARK VINA RESULT: -4.204592424      2.120      3.042
REMARK  1 active torsions:
REMARK  status: ('A' for Active; 'I' for Inactive)
REMARK    1  A    between atoms: N1_1  and  C1_5 
ROOT
HETATM    1  C1  UNL     1       5.879  36.421  25.178  1.00  0.00     0.191 C 
HETATM    2  C2  UNL     1       7.342  36.639  24.883  1.00  0.00     0.018 C 
HETATM    3  C3  UNL     1       7.726  38.079  24.788  1.00  0.00     0.011 C 
HETATM    4  C4  UNL     1       7.393  38.777  26.107  1.00  0.00    -0.012 C 
HETATM    5  C5  UNL     1       5.898  38.686  26.267  1.00  0.00     0.011 C 
HETATM    6  C6  UNL     1       5.478  37.248  26.363  1.00  0.00     0.018 C 
HETATM    7  C7  UNL     1       6.228  36.660  27.568  1.00  0.00     0.032 C 
HETATM    8  C8  UNL     1       7.703  36.652  27.315  1.00  0.00     0.038 C 
HETATM    9 CL1  UNL     1       8.496  35.824  28.661  1.00  0.00    -0.119 Cl
HETATM   10  C9  UNL     1       8.147  38.114  27.214  1.00  0.00     0.030 C 
HETATM   11  C10 UNL     1       8.106  35.983  26.041  1.00  0.00     0.032 C 
ENDROOT
BRANCH   1  12
HETATM   12  N1  UNL     1       5.030  36.567  24.041  1.00  0.00    -0.074 N 
ATOM     13  H13 UNL     1       5.567  36.475  23.178  1.00  0.00     0.274 HD
ATOM     14  H12 UNL     1       4.413  35.761  23.948  1.00  0.00     0.274 HD
ATOM     15  H11 UNL     1       4.492  37.433  24.036  1.00  0.00     0.274 HD
ENDBRANCH   1  12
TORSDOF 1
ENDMDL
MODEL 4
REMARK VINA RESULT: -4.202310605      1.053      2.252
REMARK  1 active torsions:
REMARK  status: ('A' for Active; 'I' for Inactive)
REMARK    1  A    between atoms: N1_1  and  C1_5 
ROOT
HETATM    1  C1  UNL     1       7.505  37.871  24.508  1.00  0.00     0.191 C 
HETATM    2  C2  UNL     1       7.218  36.453  24.935  1.00  0.00     0.018 C 
HETATM    3  C3  UNL     1       7.919  36.053  26.192  1.00  0.00     0.011 C 
HETATM    4  C4  UNL     1       7.497  36.992  27.324  1.00  0.00    -0.012 C 
HETATM    5  C5  UNL     1       7.965  38.368  26.927  1.00  0.00     0.011 C 
HETATM    6  C6  UNL     1       7.281  38.799  25.664  1.00  0.00     0.018 C 
HETATM    7  C7  UNL     1       5.773  38.760  25.955  1.00  0.00     0.032 C 
HETATM    8  C8  UNL     1       5.325  37.357  26.219  1.00  0.00     0.038 C 
HETATM    9 CL1  UNL     1       3.566  37.355  26.391  1.00  0.00    -0.119 Cl
HETATM   10  C9  UNL     1       6.016  36.902  27.507  1.00  0.00     0.030 C 
HETATM   11  C10 UNL     1       5.701  36.379  25.152  1.00  0.00     0.032 C 
ENDROOT
BRANCH   1  12
HETATM   12  N1  UNL     1       8.763  38.034  23.853  1.00  0.00    -0.074 N 
ATOM     13  H13 UNL     1       9.052  37.163  23.409  1.00  0.00     0.274 HD
ATOM     14  H12 UNL     1       8.664  38.625  23.028  1.00  0.00     0.274 HD
ATOM     15  H11 UNL     1       9.502  38.388  24.460  1.00  0.00     0.274 HD
ENDBRANCH   1  12
TORSDOF 1
ENDMDL
MODEL 5
REMARK VINA RESULT: -4.102330351      1.979      2.905
REMARK  1 active torsions:
REMARK  status: ('A' for Active; 'I' for Inactive)
REMARK    1  A    between atoms: N1_1  and  C1_5 
ROOT
HETATM    1  C1  UNL     1       8.042  38.007  24.858  1.00  0.00     0.191 C 
HETATM    2  C2  UNL     1       7.432  38.779  26.001  1.00  0.00     0.018 C 
HETATM    3  C3  UNL     1       5.942  38.704  26.048  1.00  0.00     0.011 C 
HETATM    4  C4  UNL     1       5.515  37.241  26.175  1.00  0.00    -0.012 C 
HETATM    5  C5  UNL     1       5.994  36.551  24.924  1.00  0.00     0.011 C 
HETATM    6  C6  UNL     1       7.491  36.612  24.845  1.00  0.00     0.018 C 
HETATM    7  C7  UNL     1       8.018  35.934  26.120  1.00  0.00     0.032 C 
HETATM    8  C8  UNL     1       7.628  36.720  27.332  1.00  0.00     0.038 C 
HETATM    9 CL1  UNL     1       8.390  35.983  28.745  1.00  0.00    -0.119 Cl
HETATM   10  C9  UNL     1       6.100  36.668  27.426  1.00  0.00     0.030 C 
HETATM   11  C10 UNL     1       8.014  38.164  27.281  1.00  0.00     0.032 C 
ENDROOT
BRANCH   1  12
HETATM   12  N1  UNL     1       7.973  38.681  23.602  1.00  0.00    -0.074 N 
ATOM     13  H13 UNL     1       8.892  39.029  23.331  1.00  0.00     0.274 HD
ATOM     14  H12 UNL     1       7.811  38.015  22.846  1.00  0.00     0.274 HD
ATOM     15  H11 UNL     1       7.283  39.430  23.573  1.00  0.00     0.274 HD
ENDBRANCH   1  12
TORSDOF 1
ENDMDL
