MODEL 1
REMARK VINA RESULT: -5.321782028      0.000      0.000
REMARK  1 active torsions:
REMARK  status: ('A' for Active; 'I' for Inactive)
REMARK    1  A    between atoms: C10_15  and  C11_16 
ROOT
HETATM    1  N1  UNL     1       9.235  34.613  25.733  1.00  0.00    -0.389 N 
ATOM      2  H11 UNL     1       8.987  34.382  24.771  1.00  0.00     0.157 HD
ATOM      3  H12 UNL     1       9.843  34.097  26.369  1.00  0.00     0.157 HD
HETATM    4  C1  UNL     1       8.708  35.683  26.165  1.00  0.00     0.074 C 
HETATM    5  N2  UNL     1       9.063  36.012  27.537  1.00  0.00    -0.380 N 
ATOM      6  H2  UNL     1      10.056  35.822  27.672  1.00  0.00     0.160 HD
HETATM    7  C2  UNL     1       8.527  36.501  28.749  1.00  0.00     0.121 C 
HETATM    8  C3  UNL     1       7.797  37.837  28.760  1.00  0.00     0.024 C 
HETATM    9  C4  UNL     1       7.376  38.017  27.339  1.00  0.00    -0.007 C 
HETATM   10  C5  UNL     1       7.075  39.249  26.662  1.00  0.00     0.005 C 
HETATM   11  C6  UNL     1       7.192  38.930  25.160  1.00  0.00     0.001 C 
HETATM   12  C7  UNL     1       8.168  37.806  24.839  1.00  0.00     0.012 C 
HETATM   13  C8  UNL     1       7.813  36.444  25.227  1.00  0.00     0.053 C 
HETATM   14  C9  UNL     1       6.369  36.373  25.706  1.00  0.00     0.019 C 
HETATM   15  C10 UNL     1       6.441  36.947  27.101  1.00  0.00     0.019 C 
ENDROOT
BRANCH  15  16
HETATM   16  C11 UNL     1       5.030  37.288  27.502  1.00  0.00     0.227 C 
HETATM   17  F1  UNL     1       4.121  36.298  27.493  1.00  0.00    -0.255 F 
ENDBRANCH  15  16
TORSDOF 1
ENDMDL
MODEL 2
REMARK VINA RESULT: -5.276175466      1.481      2.007
REMARK  1 active torsions:
REMARK  status: ('A' for Active; 'I' for Inactive)
REMARK    1  A    between atoms: C10_15  and  C11_16 
ROOT
HETATM    1  N1  UNL     1       8.933  35.335  29.224  1.00  0.00    -0.389 N 
ATOM      2  H11 UNL     1       8.655  34.422  28.864  1.00  0.00     0.157 HD
ATOM      3  H12 UNL     1       9.436  35.547  30.086  1.00  0.00     0.157 HD
HETATM    4  C1  UNL     1       8.597  36.310  28.487  1.00  0.00     0.074 C 
HETATM    5  N2  UNL     1       8.994  37.612  29.000  1.00  0.00    -0.380 N 
ATOM      6  H2  UNL     1       9.938  37.539  29.381  1.00  0.00     0.160 HD
HETATM    7  C2  UNL     1       8.542  38.941  29.161  1.00  0.00     0.121 C 
HETATM    8  C3  UNL     1       8.056  39.720  27.947  1.00  0.00     0.024 C 
HETATM    9  C4  UNL     1       7.684  38.651  26.973  1.00  0.00    -0.007 C 
HETATM   10  C5  UNL     1       7.608  38.755  25.542  1.00  0.00     0.005 C 
HETATM   11  C6  UNL     1       7.678  37.308  25.021  1.00  0.00     0.001 C 
HETATM   12  C7  UNL     1       8.446  36.358  25.931  1.00  0.00     0.012 C 
HETATM   13  C8  UNL     1       7.856  35.998  27.217  1.00  0.00     0.053 C 
HETATM   14  C9  UNL     1       6.418  36.490  27.313  1.00  0.00     0.019 C 
HETATM   15  C10 UNL     1       6.578  37.965  27.594  1.00  0.00     0.019 C 
ENDROOT
BRANCH  15  16
HETATM   16  C11 UNL     1       5.246  38.607  27.311  1.00  0.00     0.227 C 
HETATM   17  F1  UNL     1       4.438  38.005  26.422  1.00  0.00    -0.255 F 
ENDBRANCH  15  16
TORSDOF 1
ENDMDL
MODEL 3
REMARK VINA RESULT: -4.938472894      2.043      3.336
REMARK  1 active torsions:
REMARK  status: ('A' for Active; 'I' for Inactive)
REMARK    1  A    between atoms: C10_15  and  C11_16 
ROOT
HETATM    1  N1  UNL     1       8.773  35.122  25.809  1.00  0.00    -0.389 N 
ATOM      2  H11 UNL     1       8.748  34.543  26.649  1.00  0.00     0.157 HD
ATOM      3  H12 UNL     1       9.289  34.957  24.945  1.00  0.00     0.157 HD
HETATM    4  C1  UNL     1       8.064  36.171  25.877  1.00  0.00     0.074 C 
HETATM    5  N2  UNL     1       8.100  36.996  24.679  1.00  0.00    -0.380 N 
ATOM      6  H2  UNL     1       8.062  36.386  23.862  1.00  0.00     0.160 HD
HETATM    7  C2  UNL     1       8.168  38.337  24.241  1.00  0.00     0.121 C 
HETATM    8  C3  UNL     1       7.136  39.340  24.736  1.00  0.00     0.024 C 
HETATM    9  C4  UNL     1       6.635  38.730  26.002  1.00  0.00    -0.007 C 
HETATM   10  C5  UNL     1       5.374  38.963  26.650  1.00  0.00     0.005 C 
HETATM   11  C6  UNL     1       5.167  37.760  27.590  1.00  0.00     0.001 C 
HETATM   12  C7  UNL     1       5.846  36.481  27.118  1.00  0.00     0.012 C 
HETATM   13  C8  UNL     1       7.304  36.414  27.151  1.00  0.00     0.053 C 
HETATM   14  C9  UNL     1       7.887  37.611  27.891  1.00  0.00     0.019 C 
HETATM   15  C10 UNL     1       7.779  38.726  26.879  1.00  0.00     0.019 C 
ENDROOT
BRANCH  15  16
HETATM   16  C11 UNL     1       7.953  40.016  27.636  1.00  0.00     0.227 C 
HETATM   17  F1  UNL     1       8.952  40.085  28.533  1.00  0.00    -0.255 F 
ENDBRANCH  15  16
TORSDOF 1
ENDMDL
MODEL 4
REMARK VINA RESULT: -4.919040773      4.683      6.106
REMARK  1 active torsions:
REMARK  status: ('A' for Active; 'I' for Inactive)
REMARK    1  A    between atoms: C10_15  and  C11_16 
ROOT
HETATM    1  N1  UNL     1       3.002  34.200  22.720  1.00  0.00    -0.389 N 
ATOM      2  H11 UNL     1       3.566  33.607  23.330  1.00  0.00     0.157 HD
ATOM      3  H12 UNL     1       2.510  33.939  21.865  1.00  0.00     0.157 HD
HETATM    4  C1  UNL     1       2.920  35.408  23.098  1.00  0.00     0.074 C 
HETATM    5  N2  UNL     1       2.116  36.253  22.229  1.00  0.00    -0.380 N 
ATOM      6  H2  UNL     1       1.286  35.732  21.944  1.00  0.00     0.160 HD
HETATM    7  C2  UNL     1       2.071  37.535  21.637  1.00  0.00     0.121 C 
HETATM    8  C3  UNL     1       2.169  38.771  22.520  1.00  0.00     0.024 C 
HETATM    9  C4  UNL     1       2.839  38.265  23.755  1.00  0.00    -0.007 C 
HETATM   10  C5  UNL     1       2.785  38.828  25.076  1.00  0.00     0.005 C 
HETATM   11  C6  UNL     1       3.206  37.690  26.024  1.00  0.00     0.001 C 
HETATM   12  C7  UNL     1       2.887  36.296  25.499  1.00  0.00     0.012 C 
HETATM   13  C8  UNL     1       3.645  35.792  24.358  1.00  0.00     0.053 C 
HETATM   14  C9  UNL     1       4.814  36.712  24.031  1.00  0.00     0.019 C 
HETATM   15  C10 UNL     1       4.153  37.866  23.316  1.00  0.00     0.019 C 
ENDROOT
BRANCH  15  16
HETATM   16  C11 UNL     1       5.147  38.997  23.309  1.00  0.00     0.227 C 
HETATM   17  F1  UNL     1       6.026  39.063  24.322  1.00  0.00    -0.255 F 
ENDBRANCH  15  16
TORSDOF 1
ENDMDL
MODEL 5
REMARK VINA RESULT: -4.823557196      2.286      3.716
REMARK  1 active torsions:
REMARK  status: ('A' for Active; 'I' for Inactive)
REMARK    1  A    between atoms: C10_15  and  C11_16 
ROOT
HETATM    1  N1  UNL     1       8.808  39.844  29.691  1.00  0.00    -0.389 N 
ATOM      2  H11 UNL     1       8.382  40.764  29.587  1.00  0.00     0.157 HD
ATOM      3  H12 UNL     1       9.617  39.583  30.256  1.00  0.00     0.157 HD
HETATM    4  C1  UNL     1       8.241  38.928  29.021  1.00  0.00     0.074 C 
HETATM    5  N2  UNL     1       8.850  37.615  29.169  1.00  0.00    -0.380 N 
ATOM      6  H2  UNL     1       9.094  37.477  30.150  1.00  0.00     0.160 HD
HETATM    7  C2  UNL     1       9.225  36.463  28.443  1.00  0.00     0.121 C 
HETATM    8  C3  UNL     1       8.184  35.735  27.603  1.00  0.00     0.024 C 
HETATM    9  C4  UNL     1       7.147  36.779  27.351  1.00  0.00    -0.007 C 
HETATM   10  C5  UNL     1       5.760  36.580  27.032  1.00  0.00     0.005 C 
HETATM   11  C6  UNL     1       5.066  37.914  27.365  1.00  0.00     0.001 C 
HETATM   12  C7  UNL     1       5.750  38.709  28.469  1.00  0.00     0.012 C 
HETATM   13  C8  UNL     1       7.050  39.312  28.189  1.00  0.00     0.053 C 
HETATM   14  C9  UNL     1       7.389  39.211  26.707  1.00  0.00     0.019 C 
HETATM   15  C10 UNL     1       7.820  37.772  26.552  1.00  0.00     0.019 C 
ENDROOT
BRANCH  15  16
HETATM   16  C11 UNL     1       7.790  37.469  25.077  1.00  0.00     0.227 C 
HETATM   17  F1  UNL     1       8.758  37.998  24.311  1.00  0.00    -0.255 F 
ENDBRANCH  15  16
TORSDOF 1
ENDMDL
