MODEL 1
REMARK VINA RESULT: -7.516402904      0.000      0.000
REMARK  13 active torsions:
REMARK  status: ('A' for Active; 'I' for Inactive)
REMARK    1  A    between atoms: C2_2  and  C3_3 
REMARK    2  A    between atoms: C12_13  and  O2_14 
REMARK    3  A    between atoms: C13_16  and  O3_18 
REMARK    4  A    between atoms: C15_20  and  O4_21 
REMARK    5  A    between atoms: C22_29  and  C24_31 
REMARK    6  A    between atoms: C24_31  and  O5_32 
REMARK    7  A    between atoms: O5_32  and  C25_33 
REMARK    8  A    between atoms: C28_37  and  N1_38 
REMARK    9  A    between atoms: N1_38  and  C30_40 
REMARK   10  A    between atoms: C30_40  and  C31_41 
REMARK   11  A    between atoms: C31_41  and  N2_42 
REMARK   12  A    between atoms: N2_42  and  C32_43 
REMARK   13  A    between atoms: N2_42  and  C34_45 
ROOT
HETATM    1  C3  UNL     1       0.363  37.416  28.097  1.00  0.00    -0.020 C 
HETATM    2  C4  UNL     1      -1.154  37.218  28.259  1.00  0.00     0.020 C 
HETATM    3  C5  UNL     1       0.818  36.248  27.249  1.00  0.00     0.016 C 
HETATM    4  C6  UNL     1       0.495  36.601  25.829  1.00  0.00     0.037 C 
HETATM    5  C7  UNL     1       1.613  37.554  25.380  1.00  0.00     0.152 C 
HETATM    6  O1  UNL     1       1.513  37.695  24.058  1.00  0.00    -0.370 OA
HETATM    7  C8  UNL     1       2.508  37.424  23.178  1.00  0.00     0.071 A 
HETATM    8  C9  UNL     1       2.632  35.867  23.299  1.00  0.00     0.047 C 
HETATM    9  C10 UNL     1       2.509  38.037  21.836  1.00  0.00     0.053 A 
HETATM   10  C11 UNL     1       1.777  39.116  21.242  1.00  0.00     0.017 C 
HETATM   11  C12 UNL     1       1.268  40.350  21.796  1.00  0.00     0.076 C 
HETATM   12  C13 UNL     1       2.014  41.467  22.324  1.00  0.00     0.128 C 
HETATM   13  C14 UNL     1       0.857  42.298  22.990  1.00  0.00     0.056 C 
HETATM   14  C15 UNL     1       3.180  41.593  23.133  1.00  0.00     0.167 C 
HETATM   15  C16 UNL     1       3.818  40.475  23.936  1.00  0.00     0.051 C 
HETATM   16  C17 UNL     1       3.057  39.810  24.925  1.00  0.00    -0.018 C 
HETATM   17  C18 UNL     1       2.235  39.885  26.047  1.00  0.00     0.002 C 
HETATM   18  C19 UNL     1       1.494  38.743  26.287  1.00  0.00    -0.047 C 
HETATM   19  C20 UNL     1       0.568  38.747  27.487  1.00  0.00     0.025 C 
HETATM   20  C21 UNL     1       1.034  39.799  28.451  1.00  0.00     0.016 C 
HETATM   21  C22 UNL     1       4.345  39.349  23.036  1.00  0.00    -0.006 C 
HETATM   22  C23 UNL     1       4.931  39.878  21.750  1.00  0.00     0.018 C 
HETATM   23  C38 UNL     1       3.623  38.141  22.769  1.00  0.00     0.042 A 
ENDROOT
BRANCH  21  24
HETATM   24  C24 UNL     1       5.663  38.967  23.786  1.00  0.00     0.183 C 
BRANCH  24  25
HETATM   25  O5  UNL     1       5.753  37.602  23.948  1.00  0.00    -0.338 OA
BRANCH  25  26
HETATM   26  C25 UNL     1       6.024  37.199  25.241  1.00  0.00     0.413 C 
HETATM   27  O6  UNL     1       5.128  37.713  26.163  1.00  0.00    -0.332 OA
HETATM   28  C26 UNL     1       5.326  37.224  27.415  1.00  0.00     0.158 C 
HETATM   29  C27 UNL     1       4.160  36.261  27.695  1.00  0.00     0.042 C 
HETATM   30  C28 UNL     1       6.648  36.643  27.744  1.00  0.00     0.279 C 
HETATM   31  C36 UNL     1       7.697  36.826  26.685  1.00  0.00     0.158 C 
HETATM   32  C37 UNL     1       8.115  35.514  26.059  1.00  0.00     0.042 C 
HETATM   33  O7  UNL     1       7.294  37.672  25.661  1.00  0.00    -0.332 OA
BRANCH  30  34
HETATM   34  N1  UNL     1       7.162  37.070  29.031  1.00  0.00     0.095 N 
HETATM   35  C29 UNL     1       6.982  38.468  29.281  1.00  0.00     0.310 C 
BRANCH  34  36
HETATM   36  C30 UNL     1       8.462  36.570  29.332  1.00  0.00     0.302 C 
BRANCH  36  37
HETATM   37  C31 UNL     1       8.490  35.562  30.440  1.00  0.00     0.302 C 
BRANCH  37  38
HETATM   38  N2  UNL     1       8.973  34.263  30.071  1.00  0.00     0.089 N 
BRANCH  38  39
HETATM   39  C32 UNL     1       9.749  33.775  31.226  1.00  0.00     0.268 C 
HETATM   40  C33 UNL     1       8.865  32.893  32.110  1.00  0.00     0.037 C 
ENDBRANCH  38  39
BRANCH  38  41
HETATM   41  C34 UNL     1       9.989  34.466  29.025  1.00  0.00     0.268 C 
HETATM   42  C35 UNL     1      10.110  33.195  28.231  1.00  0.00     0.037 C 
ENDBRANCH  38  41
ENDBRANCH  37  38
ENDBRANCH  36  37
ENDBRANCH  34  36
ENDBRANCH  30  34
ENDBRANCH  25  26
ENDBRANCH  24  25
ENDBRANCH  21  24
BRANCH  14  43
HETATM   43  O4  UNL     1       4.287  42.281  22.542  1.00  0.00    -0.391 OA
ATOM     44  H4  UNL     1       4.997  41.737  22.223  1.00  0.00     0.210 HD
ENDBRANCH  14  43
BRANCH  12  45
HETATM   45  O3  UNL     1       2.278  42.395  21.243  1.00  0.00    -0.381 OA
ATOM     46  H3  UNL     1       1.503  42.445  20.695  1.00  0.00     0.211 HD
ENDBRANCH  12  45
BRANCH  11  47
HETATM   47  O2  UNL     1       0.021  40.059  22.460  1.00  0.00    -0.362 OA
ATOM     48  H2  UNL     1      -0.674  40.504  21.988  1.00  0.00     0.217 HD
ENDBRANCH  11  47
BRANCH   1  49
HETATM   49  C2  UNL     1       0.933  37.300  29.475  1.00  0.00    -0.027 C 
HETATM   50  C1  UNL     1       1.001  36.064  29.982  1.00  0.00     0.007 C 
ENDBRANCH   1  49
TORSDOF 13
ENDMDL
MODEL 2
REMARK VINA RESULT: -7.359390755      2.502      5.974
REMARK  13 active torsions:
REMARK  status: ('A' for Active; 'I' for Inactive)
REMARK    1  A    between atoms: C2_2  and  C3_3 
REMARK    2  A    between atoms: C12_13  and  O2_14 
REMARK    3  A    between atoms: C13_16  and  O3_18 
REMARK    4  A    between atoms: C15_20  and  O4_21 
REMARK    5  A    between atoms: C22_29  and  C24_31 
REMARK    6  A    between atoms: C24_31  and  O5_32 
REMARK    7  A    between atoms: O5_32  and  C25_33 
REMARK    8  A    between atoms: C28_37  and  N1_38 
REMARK    9  A    between atoms: N1_38  and  C30_40 
REMARK   10  A    between atoms: C30_40  and  C31_41 
REMARK   11  A    between atoms: C31_41  and  N2_42 
REMARK   12  A    between atoms: N2_42  and  C32_43 
REMARK   13  A    between atoms: N2_42  and  C34_45 
ROOT
HETATM    1  C3  UNL     1       2.440  37.717  23.678  1.00  0.00    -0.020 C 
HETATM    2  C4  UNL     1       1.593  38.025  22.430  1.00  0.00     0.020 C 
HETATM    3  C5  UNL     1       2.976  39.060  24.123  1.00  0.00     0.016 C 
HETATM    4  C6  UNL     1       1.871  39.728  24.885  1.00  0.00     0.037 C 
HETATM    5  C7  UNL     1       1.893  39.089  26.282  1.00  0.00     0.152 C 
HETATM    6  O1  UNL     1       1.105  39.821  27.070  1.00  0.00    -0.370 OA
HETATM    7  C8  UNL     1       1.503  40.406  28.226  1.00  0.00     0.071 A 
HETATM    8  C9  UNL     1       2.497  41.500  27.710  1.00  0.00     0.047 C 
HETATM    9  C10 UNL     1       0.514  40.771  29.259  1.00  0.00     0.053 A 
HETATM   10  C11 UNL     1      -0.864  40.440  29.470  1.00  0.00     0.017 C 
HETATM   11  C12 UNL     1      -1.616  39.239  29.188  1.00  0.00     0.076 C 
HETATM   12  C13 UNL     1      -1.461  37.929  29.777  1.00  0.00     0.128 C 
HETATM   13  C14 UNL     1      -2.380  37.077  28.827  1.00  0.00     0.056 C 
HETATM   14  C15 UNL     1      -0.342  37.133  30.154  1.00  0.00     0.167 C 
HETATM   15  C16 UNL     1       1.094  37.380  29.734  1.00  0.00     0.051 C 
HETATM   16  C17 UNL     1       1.421  37.402  28.359  1.00  0.00    -0.018 C 
HETATM   17  C18 UNL     1       1.367  36.787  27.111  1.00  0.00     0.002 C 
HETATM   18  C19 UNL     1       1.603  37.636  26.046  1.00  0.00    -0.047 C 
HETATM   19  C20 UNL     1       1.555  37.045  24.651  1.00  0.00     0.025 C 
HETATM   20  C21 UNL     1       1.765  35.561  24.751  1.00  0.00     0.016 C 
HETATM   21  C22 UNL     1       1.631  38.712  30.278  1.00  0.00    -0.006 C 
HETATM   22  C23 UNL     1       1.115  39.007  31.665  1.00  0.00     0.018 C 
HETATM   23  C38 UNL     1       1.670  39.923  29.515  1.00  0.00     0.042 A 
ENDROOT
BRANCH  21  24
HETATM   24  C24 UNL     1       3.103  38.313  30.626  1.00  0.00     0.183 C 
BRANCH  24  25
HETATM   25  O5  UNL     1       3.955  39.377  30.429  1.00  0.00    -0.338 OA
BRANCH  25  26
HETATM   26  C25 UNL     1       5.065  39.082  29.660  1.00  0.00     0.413 C 
HETATM   27  O6  UNL     1       4.741  38.487  28.453  1.00  0.00    -0.332 OA
HETATM   28  C26 UNL     1       5.822  38.304  27.652  1.00  0.00     0.158 C 
HETATM   29  C27 UNL     1       5.696  39.327  26.511  1.00  0.00     0.042 C 
HETATM   30  C28 UNL     1       7.166  38.293  28.274  1.00  0.00     0.279 C 
HETATM   31  C36 UNL     1       7.165  38.310  29.776  1.00  0.00     0.158 C 
HETATM   32  C37 UNL     1       7.742  39.592  30.335  1.00  0.00     0.042 C 
HETATM   33  O7  UNL     1       5.899  38.144  30.320  1.00  0.00    -0.332 OA
BRANCH  30  34
HETATM   34  N1  UNL     1       8.017  37.224  27.789  1.00  0.00     0.095 N 
HETATM   35  C29 UNL     1       7.352  36.327  26.894  1.00  0.00     0.310 C 
BRANCH  34  36
HETATM   36  C30 UNL     1       8.790  36.590  28.806  1.00  0.00     0.302 C 
BRANCH  36  37
HETATM   37  C31 UNL     1       9.244  35.206  28.457  1.00  0.00     0.302 C 
BRANCH  37  38
HETATM   38  N2  UNL     1      10.038  34.554  29.459  1.00  0.00     0.089 N 
BRANCH  38  39
HETATM   39  C32 UNL     1      10.031  33.121  29.112  1.00  0.00     0.268 C 
HETATM   40  C33 UNL     1       9.785  32.952  27.611  1.00  0.00     0.037 C 
ENDBRANCH  38  39
BRANCH  38  41
HETATM   41  C34 UNL     1       9.274  34.615  30.716  1.00  0.00     0.268 C 
HETATM   42  C35 UNL     1       9.319  33.258  31.362  1.00  0.00     0.037 C 
ENDBRANCH  38  41
ENDBRANCH  37  38
ENDBRANCH  36  37
ENDBRANCH  34  36
ENDBRANCH  30  34
ENDBRANCH  25  26
ENDBRANCH  24  25
ENDBRANCH  21  24
BRANCH  14  43
HETATM   43  O4  UNL     1      -0.253  36.786  31.539  1.00  0.00    -0.391 OA
ATOM     44  H4  UNL     1       0.571  36.407  31.824  1.00  0.00     0.210 HD
ENDBRANCH  14  43
BRANCH  12  45
HETATM   45  O3  UNL     1      -2.316  37.848  30.944  1.00  0.00    -0.381 OA
ATOM     46  H3  UNL     1      -2.497  38.730  31.246  1.00  0.00     0.211 HD
ENDBRANCH  12  45
BRANCH  11  47
HETATM   47  O2  UNL     1      -1.982  39.260  27.794  1.00  0.00    -0.362 OA
ATOM     48  H2  UNL     1      -2.926  39.358  27.740  1.00  0.00     0.217 HD
ENDBRANCH  11  47
BRANCH   1  49
HETATM   49  C2  UNL     1       3.562  36.852  23.199  1.00  0.00    -0.027 C 
HETATM   50  C1  UNL     1       4.676  36.868  23.940  1.00  0.00     0.007 C 
ENDBRANCH   1  49
TORSDOF 13
ENDMDL
MODEL 3
REMARK VINA RESULT: -7.114696882      3.583      5.887
REMARK  13 active torsions:
REMARK  status: ('A' for Active; 'I' for Inactive)
REMARK    1  A    between atoms: C2_2  and  C3_3 
REMARK    2  A    between atoms: C12_13  and  O2_14 
REMARK    3  A    between atoms: C13_16  and  O3_18 
REMARK    4  A    between atoms: C15_20  and  O4_21 
REMARK    5  A    between atoms: C22_29  and  C24_31 
REMARK    6  A    between atoms: C24_31  and  O5_32 
REMARK    7  A    between atoms: O5_32  and  C25_33 
REMARK    8  A    between atoms: C28_37  and  N1_38 
REMARK    9  A    between atoms: N1_38  and  C30_40 
REMARK   10  A    between atoms: C30_40  and  C31_41 
REMARK   11  A    between atoms: C31_41  and  N2_42 
REMARK   12  A    between atoms: N2_42  and  C32_43 
REMARK   13  A    between atoms: N2_42  and  C34_45 
ROOT
HETATM    1  C3  UNL     1       4.320  43.771  25.428  1.00  0.00    -0.020 C 
HETATM    2  C4  UNL     1       3.575  45.097  25.197  1.00  0.00     0.020 C 
HETATM    3  C5  UNL     1       3.676  42.792  24.471  1.00  0.00     0.016 C 
HETATM    4  C6  UNL     1       4.287  43.045  23.126  1.00  0.00     0.037 C 
HETATM    5  C7  UNL     1       5.653  42.342  23.159  1.00  0.00     0.152 C 
HETATM    6  O1  UNL     1       6.123  42.321  21.912  1.00  0.00    -0.370 OA
HETATM    7  C8  UNL     1       6.475  41.196  21.242  1.00  0.00     0.071 A 
HETATM    8  C9  UNL     1       5.092  40.490  21.045  1.00  0.00     0.047 C 
HETATM    9  C10 UNL     1       7.409  41.266  20.101  1.00  0.00     0.053 A 
HETATM   10  C11 UNL     1       8.292  42.280  19.607  1.00  0.00     0.017 C 
HETATM   11  C12 UNL     1       9.061  43.297  20.287  1.00  0.00     0.076 C 
HETATM   12  C13 UNL     1      10.166  43.120  21.200  1.00  0.00     0.128 C 
HETATM   13  C14 UNL     1      10.319  44.585  21.752  1.00  0.00     0.056 C 
HETATM   14  C15 UNL     1      10.447  42.209  22.258  1.00  0.00     0.167 C 
HETATM   15  C16 UNL     1       9.436  41.292  22.921  1.00  0.00     0.051 C 
HETATM   16  C17 UNL     1       8.297  41.851  23.544  1.00  0.00    -0.018 C 
HETATM   17  C18 UNL     1       7.760  42.771  24.440  1.00  0.00     0.002 C 
HETATM   18  C19 UNL     1       6.415  43.030  24.253  1.00  0.00    -0.047 C 
HETATM   19  C20 UNL     1       5.755  44.027  25.185  1.00  0.00     0.025 C 
HETATM   20  C21 UNL     1       6.581  44.136  26.434  1.00  0.00     0.016 C 
HETATM   21  C22 UNL     1       8.869  40.257  21.939  1.00  0.00    -0.006 C 
HETATM   22  C23 UNL     1       9.913  39.767  20.965  1.00  0.00     0.018 C 
HETATM   23  C38 UNL     1       7.617  40.409  21.261  1.00  0.00     0.042 A 
ENDROOT
BRANCH  21  24
HETATM   24  C24 UNL     1       8.766  39.001  22.865  1.00  0.00     0.183 C 
BRANCH  24  25
HETATM   25  O5  UNL     1       7.477  38.517  22.888  1.00  0.00    -0.338 OA
BRANCH  25  26
HETATM   26  C25 UNL     1       6.985  38.265  24.154  1.00  0.00     0.413 C 
HETATM   27  O6  UNL     1       7.466  39.150  25.104  1.00  0.00    -0.332 OA
HETATM   28  C26 UNL     1       6.894  38.974  26.322  1.00  0.00     0.158 C 
HETATM   29  C27 UNL     1       5.951  40.169  26.538  1.00  0.00     0.042 C 
HETATM   30  C28 UNL     1       6.255  37.671  26.618  1.00  0.00     0.279 C 
HETATM   31  C36 UNL     1       6.472  36.612  25.577  1.00  0.00     0.158 C 
HETATM   32  C37 UNL     1       5.190  36.230  24.871  1.00  0.00     0.042 C 
HETATM   33  O7  UNL     1       7.393  36.985  24.607  1.00  0.00    -0.332 OA
BRANCH  30  34
HETATM   34  N1  UNL     1       6.583  37.152  27.932  1.00  0.00     0.095 N 
HETATM   35  C29 UNL     1       5.807  37.734  28.985  1.00  0.00     0.310 C 
BRANCH  34  36
HETATM   36  C30 UNL     1       7.983  37.076  28.193  1.00  0.00     0.302 C 
BRANCH  36  37
HETATM   37  C31 UNL     1       8.372  35.972  29.128  1.00  0.00     0.302 C 
BRANCH  37  38
HETATM   38  N2  UNL     1       9.526  35.217  28.733  1.00  0.00     0.089 N 
BRANCH  38  39
HETATM   39  C32 UNL     1       9.245  34.729  27.371  1.00  0.00     0.268 C 
HETATM   40  C33 UNL     1       9.685  33.269  27.242  1.00  0.00     0.037 C 
ENDBRANCH  38  39
BRANCH  38  41
HETATM   41  C34 UNL     1       9.536  33.992  29.550  1.00  0.00     0.268 C 
HETATM   42  C35 UNL     1       9.404  34.388  30.995  1.00  0.00     0.037 C 
ENDBRANCH  38  41
ENDBRANCH  37  38
ENDBRANCH  36  37
ENDBRANCH  34  36
ENDBRANCH  30  34
ENDBRANCH  25  26
ENDBRANCH  24  25
ENDBRANCH  21  24
BRANCH  14  43
HETATM   43  O4  UNL     1      11.613  41.395  22.096  1.00  0.00    -0.391 OA
ATOM     44  H4  UNL     1      11.583  40.756  21.394  1.00  0.00     0.210 HD
ENDBRANCH  14  43
BRANCH  12  45
HETATM   45  O3  UNL     1      11.396  43.107  20.435  1.00  0.00    -0.381 OA
ATOM     46  H3  UNL     1      11.768  43.981  20.449  1.00  0.00     0.211 HD
ENDBRANCH  12  45
BRANCH  11  47
HETATM   47  O2  UNL     1       8.182  44.404  20.574  1.00  0.00    -0.362 OA
ATOM     48  H2  UNL     1       8.714  45.131  20.876  1.00  0.00     0.217 HD
ENDBRANCH  11  47
BRANCH   1  49
HETATM   49  C2  UNL     1       4.018  43.380  26.840  1.00  0.00    -0.027 C 
HETATM   50  C1  UNL     1       3.067  42.453  27.003  1.00  0.00     0.007 C 
ENDBRANCH   1  49
TORSDOF 13
ENDMDL
MODEL 4
REMARK VINA RESULT: -7.110953350      2.443      4.340
REMARK  13 active torsions:
REMARK  status: ('A' for Active; 'I' for Inactive)
REMARK    1  A    between atoms: C2_2  and  C3_3 
REMARK    2  A    between atoms: C12_13  and  O2_14 
REMARK    3  A    between atoms: C13_16  and  O3_18 
REMARK    4  A    between atoms: C15_20  and  O4_21 
REMARK    5  A    between atoms: C22_29  and  C24_31 
REMARK    6  A    between atoms: C24_31  and  O5_32 
REMARK    7  A    between atoms: O5_32  and  C25_33 
REMARK    8  A    between atoms: C28_37  and  N1_38 
REMARK    9  A    between atoms: N1_38  and  C30_40 
REMARK   10  A    between atoms: C30_40  and  C31_41 
REMARK   11  A    between atoms: C31_41  and  N2_42 
REMARK   12  A    between atoms: N2_42  and  C32_43 
REMARK   13  A    between atoms: N2_42  and  C34_45 
ROOT
HETATM    1  C3  UNL     1       2.646  40.063  31.757  1.00  0.00    -0.020 C 
HETATM    2  C4  UNL     1       1.862  40.263  33.065  1.00  0.00     0.020 C 
HETATM    3  C5  UNL     1       2.839  38.567  31.645  1.00  0.00     0.016 C 
HETATM    4  C6  UNL     1       1.556  38.010  31.105  1.00  0.00     0.037 C 
HETATM    5  C7  UNL     1       1.598  38.278  29.593  1.00  0.00     0.152 C 
HETATM    6  O1  UNL     1       0.607  37.583  29.036  1.00  0.00    -0.370 OA
HETATM    7  C8  UNL     1       0.769  36.665  28.051  1.00  0.00     0.071 A 
HETATM    8  C9  UNL     1       1.543  35.526  28.796  1.00  0.00     0.047 C 
HETATM    9  C10 UNL     1      -0.359  36.304  27.170  1.00  0.00     0.053 A 
HETATM   10  C11 UNL     1      -1.644  36.885  26.922  1.00  0.00     0.017 C 
HETATM   11  C12 UNL     1      -2.092  38.259  26.917  1.00  0.00     0.076 C 
HETATM   12  C13 UNL     1      -1.707  39.320  26.016  1.00  0.00     0.128 C 
HETATM   13  C14 UNL     1      -2.336  40.561  26.748  1.00  0.00     0.056 C 
HETATM   14  C15 UNL     1      -0.478  39.724  25.420  1.00  0.00     0.167 C 
HETATM   15  C16 UNL     1       0.901  39.259  25.848  1.00  0.00     0.051 C 
HETATM   16  C17 UNL     1       1.330  39.488  27.175  1.00  0.00    -0.018 C 
HETATM   17  C18 UNL     1       1.515  40.377  28.231  1.00  0.00     0.002 C 
HETATM   18  C19 UNL     1       1.651  39.772  29.467  1.00  0.00    -0.047 C 
HETATM   19  C20 UNL     1       1.849  40.672  30.671  1.00  0.00     0.025 C 
HETATM   20  C21 UNL     1       2.367  41.999  30.199  1.00  0.00     0.016 C 
HETATM   21  C22 UNL     1       1.089  37.750  25.639  1.00  0.00    -0.006 C 
HETATM   22  C23 UNL     1       0.406  37.262  24.384  1.00  0.00     0.018 C 
HETATM   23  C38 UNL     1       0.929  36.778  26.678  1.00  0.00     0.042 A 
ENDROOT
BRANCH  21  24
HETATM   24  C24 UNL     1       2.577  37.703  25.161  1.00  0.00     0.183 C 
BRANCH  24  25
HETATM   25  O5  UNL     1       3.233  36.626  25.713  1.00  0.00    -0.338 OA
BRANCH  25  26
HETATM   26  C25 UNL     1       4.464  36.929  26.263  1.00  0.00     0.413 C 
HETATM   27  O6  UNL     1       5.488  36.152  25.751  1.00  0.00    -0.332 OA
HETATM   28  C26 UNL     1       6.711  36.529  26.206  1.00  0.00     0.158 C 
HETATM   29  C27 UNL     1       7.425  37.209  25.027  1.00  0.00     0.042 C 
HETATM   30  C28 UNL     1       6.783  37.317  27.459  1.00  0.00     0.279 C 
HETATM   31  C36 UNL     1       5.479  37.460  28.189  1.00  0.00     0.158 C 
HETATM   32  C37 UNL     1       4.984  38.889  28.204  1.00  0.00     0.042 C 
HETATM   33  O7  UNL     1       4.469  36.670  27.658  1.00  0.00    -0.332 OA
BRANCH  30  34
HETATM   34  N1  UNL     1       7.815  36.859  28.369  1.00  0.00     0.095 N 
HETATM   35  C29 UNL     1       8.617  37.920  28.900  1.00  0.00     0.310 C 
BRANCH  34  36
HETATM   36  C30 UNL     1       8.550  35.733  27.896  1.00  0.00     0.302 C 
BRANCH  36  37
HETATM   37  C31 UNL     1       9.384  35.062  28.944  1.00  0.00     0.302 C 
BRANCH  37  38
HETATM   38  N2  UNL     1       9.276  33.632  28.985  1.00  0.00     0.089 N 
BRANCH  38  39
HETATM   39  C32 UNL     1       9.976  33.207  30.211  1.00  0.00     0.268 C 
HETATM   40  C33 UNL     1       9.393  33.941  31.421  1.00  0.00     0.037 C 
ENDBRANCH  38  39
BRANCH  38  41
HETATM   41  C34 UNL     1      10.121  33.108  27.899  1.00  0.00     0.268 C 
HETATM   42  C35 UNL     1       9.747  31.671  27.661  1.00  0.00     0.037 C 
ENDBRANCH  38  41
ENDBRANCH  37  38
ENDBRANCH  36  37
ENDBRANCH  34  36
ENDBRANCH  30  34
ENDBRANCH  25  26
ENDBRANCH  24  25
ENDBRANCH  21  24
BRANCH  14  43
HETATM   43  O4  UNL     1      -0.432  39.703  23.991  1.00  0.00    -0.391 OA
ATOM     44  H4  UNL     1       0.403  39.924  23.595  1.00  0.00     0.210 HD
ENDBRANCH  14  43
BRANCH  12  45
HETATM   45  O3  UNL     1      -2.619  39.318  24.889  1.00  0.00    -0.381 OA
ATOM     46  H3  UNL     1      -3.480  39.572  25.200  1.00  0.00     0.211 HD
ENDBRANCH  12  45
BRANCH  11  47
HETATM   47  O2  UNL     1      -2.335  38.654  28.282  1.00  0.00    -0.362 OA
ATOM     48  H2  UNL     1      -2.954  39.375  28.273  1.00  0.00     0.217 HD
ENDBRANCH  11  47
BRANCH   1  49
HETATM   49  C2  UNL     1       3.966  40.733  31.973  1.00  0.00    -0.027 C 
HETATM   50  C1  UNL     1       5.051  39.974  31.781  1.00  0.00     0.007 C 
ENDBRANCH   1  49
TORSDOF 13
ENDMDL
MODEL 5
REMARK VINA RESULT: -7.040567643      1.201      2.667
REMARK  13 active torsions:
REMARK  status: ('A' for Active; 'I' for Inactive)
REMARK    1  A    between atoms: C2_2  and  C3_3 
REMARK    2  A    between atoms: C12_13  and  O2_14 
REMARK    3  A    between atoms: C13_16  and  O3_18 
REMARK    4  A    between atoms: C15_20  and  O4_21 
REMARK    5  A    between atoms: C22_29  and  C24_31 
REMARK    6  A    between atoms: C24_31  and  O5_32 
REMARK    7  A    between atoms: O5_32  and  C25_33 
REMARK    8  A    between atoms: C28_37  and  N1_38 
REMARK    9  A    between atoms: N1_38  and  C30_40 
REMARK   10  A    between atoms: C30_40  and  C31_41 
REMARK   11  A    between atoms: C31_41  and  N2_42 
REMARK   12  A    between atoms: N2_42  and  C32_43 
REMARK   13  A    between atoms: N2_42  and  C34_45 
ROOT
HETATM    1  C3  UNL     1       0.464  37.408  28.306  1.00  0.00    -0.020 C 
HETATM    2  C4  UNL     1      -1.050  37.225  28.512  1.00  0.00     0.020 C 
HETATM    3  C5  UNL     1       0.886  36.226  27.461  1.00  0.00     0.016 C 
HETATM    4  C6  UNL     1       0.527  36.564  26.046  1.00  0.00     0.037 C 
HETATM    5  C7  UNL     1       1.640  37.501  25.554  1.00  0.00     0.152 C 
HETATM    6  O1  UNL     1       1.505  37.627  24.234  1.00  0.00    -0.370 OA
HETATM    7  C8  UNL     1       2.474  37.336  23.331  1.00  0.00     0.071 A 
HETATM    8  C9  UNL     1       2.588  35.780  23.467  1.00  0.00     0.047 C 
HETATM    9  C10 UNL     1       2.442  37.933  21.981  1.00  0.00     0.053 A 
HETATM   10  C11 UNL     1       1.703  39.011  21.394  1.00  0.00     0.017 C 
HETATM   11  C12 UNL     1       1.220  40.256  21.946  1.00  0.00     0.076 C 
HETATM   12  C13 UNL     1       1.990  41.373  22.440  1.00  0.00     0.128 C 
HETATM   13  C14 UNL     1       0.859  42.222  23.126  1.00  0.00     0.056 C 
HETATM   14  C15 UNL     1       3.179  41.498  23.215  1.00  0.00     0.167 C 
HETATM   15  C16 UNL     1       3.829  40.385  24.014  1.00  0.00     0.051 C 
HETATM   16  C17 UNL     1       3.090  39.739  25.032  1.00  0.00    -0.018 C 
HETATM   17  C18 UNL     1       2.300  39.835  26.175  1.00  0.00     0.002 C 
HETATM   18  C19 UNL     1       1.557  38.703  26.449  1.00  0.00    -0.047 C 
HETATM   19  C20 UNL     1       0.663  38.729  27.674  1.00  0.00     0.025 C 
HETATM   20  C21 UNL     1       1.165  39.789  28.612  1.00  0.00     0.016 C 
HETATM   21  C22 UNL     1       4.321  39.243  23.114  1.00  0.00    -0.006 C 
HETATM   22  C23 UNL     1       4.877  39.751  21.806  1.00  0.00     0.018 C 
HETATM   23  C38 UNL     1       3.582  38.038  22.883  1.00  0.00     0.042 A 
ENDROOT
BRANCH  21  24
HETATM   24  C24 UNL     1       5.656  38.859  23.832  1.00  0.00     0.183 C 
BRANCH  24  25
HETATM   25  O5  UNL     1       5.699  37.507  24.092  1.00  0.00    -0.338 OA
BRANCH  25  26
HETATM   26  C25 UNL     1       6.023  37.188  25.396  1.00  0.00     0.413 C 
HETATM   27  O6  UNL     1       5.143  37.729  26.318  1.00  0.00    -0.332 OA
HETATM   28  C26 UNL     1       5.396  37.319  27.588  1.00  0.00     0.158 C 
HETATM   29  C27 UNL     1       4.269  36.343  27.962  1.00  0.00     0.042 C 
HETATM   30  C28 UNL     1       6.745  36.796  27.903  1.00  0.00     0.279 C 
HETATM   31  C36 UNL     1       7.752  36.945  26.801  1.00  0.00     0.158 C 
HETATM   32  C37 UNL     1       8.188  35.611  26.237  1.00  0.00     0.042 C 
HETATM   33  O7  UNL     1       7.291  37.719  25.744  1.00  0.00    -0.332 OA
BRANCH  30  34
HETATM   34  N1  UNL     1       7.287  37.310  29.146  1.00  0.00     0.095 N 
HETATM   35  C29 UNL     1       7.889  36.302  29.965  1.00  0.00     0.310 C 
BRANCH  34  36
HETATM   36  C30 UNL     1       6.414  38.200  29.837  1.00  0.00     0.302 C 
BRANCH  36  37
HETATM   37  C31 UNL     1       7.012  39.542  30.129  1.00  0.00     0.302 C 
BRANCH  37  38
HETATM   38  N2  UNL     1       7.494  40.257  28.983  1.00  0.00     0.089 N 
BRANCH  38  39
HETATM   39  C32 UNL     1       8.216  41.429  29.510  1.00  0.00     0.268 C 
HETATM   40  C33 UNL     1       9.515  40.979  30.183  1.00  0.00     0.037 C 
ENDBRANCH  38  39
BRANCH  38  41
HETATM   41  C34 UNL     1       6.317  40.839  28.316  1.00  0.00     0.268 C 
HETATM   42  C35 UNL     1       6.619  40.958  26.848  1.00  0.00     0.037 C 
ENDBRANCH  38  41
ENDBRANCH  37  38
ENDBRANCH  36  37
ENDBRANCH  34  36
ENDBRANCH  30  34
ENDBRANCH  25  26
ENDBRANCH  24  25
ENDBRANCH  21  24
BRANCH  14  43
HETATM   43  O4  UNL     1       4.274  42.170  22.586  1.00  0.00    -0.391 OA
ATOM     44  H4  UNL     1       4.418  43.072  22.846  1.00  0.00     0.210 HD
ENDBRANCH  14  43
BRANCH  12  45
HETATM   45  O3  UNL     1       2.232  42.285  21.340  1.00  0.00    -0.381 OA
ATOM     46  H3  UNL     1       1.916  41.881  20.540  1.00  0.00     0.211 HD
ENDBRANCH  12  45
BRANCH  11  47
HETATM   47  O2  UNL     1      -0.010  39.984  22.648  1.00  0.00    -0.362 OA
ATOM     48  H2  UNL     1      -0.055  39.048  22.809  1.00  0.00     0.217 HD
ENDBRANCH  11  47
BRANCH   1  49
HETATM   49  C2  UNL     1       1.071  37.304  29.669  1.00  0.00    -0.027 C 
HETATM   50  C1  UNL     1       1.081  36.084  30.218  1.00  0.00     0.007 C 
ENDBRANCH   1  49
TORSDOF 13
ENDMDL
