MODEL 1
REMARK VINA RESULT: -7.022684165      0.000      0.000
REMARK  13 active torsions:
REMARK  status: ('A' for Active; 'I' for Inactive)
REMARK    1  A    between atoms: C2_2  and  C3_3 
REMARK    2  A    between atoms: C3_3  and  C5_5 
REMARK    3  A    between atoms: C5_5  and  O2_7 
REMARK    4  A    between atoms: O2_7  and  C6_8 
REMARK    5  A    between atoms: C14_16  and  O3_17 
REMARK    6  A    between atoms: O3_17  and  C15_18 
REMARK    7  A    between atoms: C19_23  and  N1_24 
REMARK    8  A    between atoms: C22_27  and  O5_28 
REMARK    9  A    between atoms: C23_30  and  C24_31 
REMARK   10  A    between atoms: C26_33  and  O6_34 
REMARK   11  A    between atoms: C31_40  and  O7_41 
REMARK   12  A    between atoms: C36_47  and  C37_48 
REMARK   13  A    between atoms: C37_48  and  C38_49 
ROOT
HETATM    1  C6  UNL     1       3.760  39.695  21.411  1.00  0.00     0.141 C 
HETATM    2  C7  UNL     1       3.589  38.206  21.420  1.00  0.00     0.067 C 
HETATM    3  C8  UNL     1       3.294  37.593  22.731  1.00  0.00    -0.077 C 
HETATM    4  C9  UNL     1       2.038  36.704  22.682  1.00  0.00     0.044 C 
HETATM    5  C10 UNL     1       3.395  38.429  24.007  1.00  0.00    -0.058 C 
HETATM    6  C11 UNL     1       4.562  37.982  24.867  1.00  0.00     0.004 C 
HETATM    7  C12 UNL     1       4.677  36.447  24.614  1.00  0.00     0.022 C 
HETATM    8  C13 UNL     1       5.911  38.419  24.326  1.00  0.00     0.022 C 
HETATM    9  C14 UNL     1       4.551  38.006  26.359  1.00  0.00     0.143 C 
HETATM   10  C23 UNL     1       3.289  37.875  27.090  1.00  0.00     0.048 C 
HETATM   11  C26 UNL     1       3.185  38.622  28.400  1.00  0.00     0.153 C 
HETATM   12  C27 UNL     1       2.143  39.732  28.431  1.00  0.00    -0.055 C 
HETATM   13  C28 UNL     1       0.742  39.318  28.288  1.00  0.00     0.046 C 
HETATM   14  C29 UNL     1       2.625  40.940  27.738  1.00  0.00     0.003 C 
HETATM   15  C30 UNL     1       2.354  41.495  26.597  1.00  0.00     0.005 C 
HETATM   16  C31 UNL     1       1.538  41.333  25.441  1.00  0.00     0.145 C 
HETATM   17  C32 UNL     1       1.658  40.337  24.366  1.00  0.00     0.027 C 
HETATM   18  C33 UNL     1       0.529  39.294  24.318  1.00  0.00     0.014 C 
HETATM   19  C34 UNL     1       2.991  39.848  23.845  1.00  0.00    -0.007 C 
HETATM   20  C35 UNL     1       4.024  40.872  24.263  1.00  0.00     0.021 C 
HETATM   21  C36 UNL     1       2.862  40.274  22.350  1.00  0.00     0.038 C 
ENDROOT
BRANCH   9  22
HETATM   22  O3  UNL     1       5.546  38.808  26.974  1.00  0.00    -0.352 OA
BRANCH  22  23
HETATM   23  C15 UNL     1       6.635  38.234  27.502  1.00  0.00     0.291 C 
HETATM   24  O4  UNL     1       6.649  38.512  28.882  1.00  0.00    -0.354 OA
HETATM   25  C16 UNL     1       7.762  38.134  29.549  1.00  0.00     0.122 C 
HETATM   26  C17 UNL     1       8.399  39.396  30.150  1.00  0.00     0.040 C 
HETATM   27  C18 UNL     1       8.808  37.375  28.817  1.00  0.00     0.070 C 
HETATM   28  C19 UNL     1       8.277  36.470  27.740  1.00  0.00     0.257 C 
HETATM   29  C22 UNL     1       6.803  36.740  27.494  1.00  0.00     0.206 C 
BRANCH  28  30
HETATM   30  N1  UNL     1       8.615  35.097  27.857  1.00  0.00     0.087 N 
HETATM   31  C20 UNL     1       9.316  34.689  29.024  1.00  0.00     0.310 C 
HETATM   32  C21 UNL     1       9.246  34.570  26.658  1.00  0.00     0.310 C 
ENDBRANCH  28  30
BRANCH  29  33
HETATM   33  O5  UNL     1       6.101  36.160  28.573  1.00  0.00    -0.388 OA
ATOM     34  H5  UNL     1       6.707  35.760  29.185  1.00  0.00     0.210 HD
ENDBRANCH  29  33
ENDBRANCH  22  23
ENDBRANCH   9  22
BRANCH  10  35
HETATM   35  C24 UNL     1       2.844  36.440  27.424  1.00  0.00     0.006 C 
HETATM   36  C25 UNL     1       1.630  35.968  26.767  1.00  0.00     0.006 C 
ENDBRANCH  10  35
BRANCH  11  37
HETATM   37  O6  UNL     1       2.940  37.799  29.491  1.00  0.00    -0.391 OA
ATOM     38  H6  UNL     1       3.482  37.019  29.509  1.00  0.00     0.210 HD
ENDBRANCH  11  37
BRANCH  21  39
HETATM   39  C37 UNL     1       2.718  41.712  22.122  1.00  0.00     0.121 C 
BRANCH  39  40
HETATM   40  C38 UNL     1       1.526  42.154  21.359  1.00  0.00     0.173 C 
HETATM   41  O8  UNL     1       1.324  43.312  20.942  1.00  0.00    -0.648 OA
HETATM   42  O9  UNL     1       0.506  41.228  21.050  1.00  0.00    -0.648 OA
ENDBRANCH  39  40
ENDBRANCH  21  39
BRANCH   1  43
HETATM   43  O2  UNL     1       3.944  40.259  20.187  1.00  0.00    -0.315 OA
BRANCH  43  44
HETATM   44  C5  UNL     1       5.128  40.504  19.510  1.00  0.00     0.263 C 
HETATM   45  O1  UNL     1       4.908  40.795  18.287  1.00  0.00    -0.265 OA
BRANCH  44  46
HETATM   46  C3  UNL     1       6.487  40.466  20.032  1.00  0.00     0.081 C 
HETATM   47  C4  UNL     1       7.505  40.105  18.939  1.00  0.00     0.020 C 
BRANCH  46  48
HETATM   48  C2  UNL     1       6.973  41.693  20.744  1.00  0.00     0.010 C 
HETATM   49  C1  UNL     1       7.018  41.361  22.226  1.00  0.00     0.006 C 
ENDBRANCH  46  48
ENDBRANCH  44  46
ENDBRANCH  43  44
ENDBRANCH   1  43
BRANCH  16  50
HETATM   50  O7  UNL     1       0.180  41.245  25.876  1.00  0.00    -0.391 OA
ATOM     51  H7  UNL     1      -0.090  40.338  25.799  1.00  0.00     0.210 HD
ENDBRANCH  16  50
TORSDOF 13
ENDMDL
MODEL 2
REMARK VINA RESULT: -6.707650231      2.600      7.822
REMARK  13 active torsions:
REMARK  status: ('A' for Active; 'I' for Inactive)
REMARK    1  A    between atoms: C2_2  and  C3_3 
REMARK    2  A    between atoms: C3_3  and  C5_5 
REMARK    3  A    between atoms: C5_5  and  O2_7 
REMARK    4  A    between atoms: O2_7  and  C6_8 
REMARK    5  A    between atoms: C14_16  and  O3_17 
REMARK    6  A    between atoms: O3_17  and  C15_18 
REMARK    7  A    between atoms: C19_23  and  N1_24 
REMARK    8  A    between atoms: C22_27  and  O5_28 
REMARK    9  A    between atoms: C23_30  and  C24_31 
REMARK   10  A    between atoms: C26_33  and  O6_34 
REMARK   11  A    between atoms: C31_40  and  O7_41 
REMARK   12  A    between atoms: C36_47  and  C37_48 
REMARK   13  A    between atoms: C37_48  and  C38_49 
ROOT
HETATM    1  C6  UNL     1       5.525  38.295  27.703  1.00  0.00     0.141 C 
HETATM    2  C7  UNL     1       5.573  39.781  27.895  1.00  0.00     0.067 C 
HETATM    3  C8  UNL     1       5.087  40.600  26.765  1.00  0.00    -0.077 C 
HETATM    4  C9  UNL     1       4.014  41.611  27.206  1.00  0.00     0.044 C 
HETATM    5  C10 UNL     1       4.782  39.941  25.419  1.00  0.00    -0.058 C 
HETATM    6  C11 UNL     1       5.783  40.366  24.361  1.00  0.00     0.004 C 
HETATM    7  C12 UNL     1       6.170  41.828  24.742  1.00  0.00     0.022 C 
HETATM    8  C13 UNL     1       7.140  39.706  24.516  1.00  0.00     0.022 C 
HETATM    9  C14 UNL     1       5.438  40.549  22.919  1.00  0.00     0.143 C 
HETATM   10  C23 UNL     1       4.079  40.924  22.527  1.00  0.00     0.048 C 
HETATM   11  C26 UNL     1       3.582  40.382  21.207  1.00  0.00     0.153 C 
HETATM   12  C27 UNL     1       2.411  39.414  21.304  1.00  0.00    -0.055 C 
HETATM   13  C28 UNL     1       1.150  39.962  21.819  1.00  0.00     0.046 C 
HETATM   14  C29 UNL     1       2.855  38.074  21.729  1.00  0.00     0.003 C 
HETATM   15  C30 UNL     1       2.765  37.402  22.835  1.00  0.00     0.005 C 
HETATM   16  C31 UNL     1       2.256  37.496  24.162  1.00  0.00     0.145 C 
HETATM   17  C32 UNL     1       2.753  38.313  25.279  1.00  0.00     0.027 C 
HETATM   18  C33 UNL     1       1.824  39.463  25.705  1.00  0.00     0.014 C 
HETATM   19  C34 UNL     1       4.224  38.570  25.518  1.00  0.00    -0.007 C 
HETATM   20  C35 UNL     1       4.981  37.501  24.760  1.00  0.00     0.021 C 
HETATM   21  C36 UNL     1       4.368  37.959  26.947  1.00  0.00     0.038 C 
ENDROOT
BRANCH   9  22
HETATM   22  O3  UNL     1       6.147  39.730  22.004  1.00  0.00    -0.352 OA
BRANCH  22  23
HETATM   23  C15 UNL     1       7.111  40.262  21.240  1.00  0.00     0.291 C 
HETATM   24  O4  UNL     1       8.284  39.507  21.430  1.00  0.00    -0.354 OA
HETATM   25  C16 UNL     1       9.401  39.997  20.847  1.00  0.00     0.122 C 
HETATM   26  C17 UNL     1      10.421  40.287  21.958  1.00  0.00     0.040 C 
HETATM   27  C18 UNL     1       9.285  41.199  19.981  1.00  0.00     0.070 C 
HETATM   28  C19 UNL     1       7.984  41.302  19.235  1.00  0.00     0.257 C 
HETATM   29  C22 UNL     1       6.995  40.267  19.741  1.00  0.00     0.206 C 
BRANCH  28  30
HETATM   30  N1  UNL     1       8.081  41.384  17.822  1.00  0.00     0.087 N 
HETATM   31  C20 UNL     1       8.645  42.567  17.268  1.00  0.00     0.310 C 
HETATM   32  C21 UNL     1       6.839  41.036  17.152  1.00  0.00     0.310 C 
ENDBRANCH  28  30
BRANCH  29  33
HETATM   33  O5  UNL     1       7.404  39.024  19.212  1.00  0.00    -0.388 OA
ATOM     34  H5  UNL     1       8.091  39.149  18.568  1.00  0.00     0.210 HD
ENDBRANCH  29  33
ENDBRANCH  22  23
ENDBRANCH   9  22
BRANCH  10  35
HETATM   35  C24 UNL     1       3.782  42.433  22.465  1.00  0.00     0.006 C 
HETATM   36  C25 UNL     1       2.851  42.952  23.460  1.00  0.00     0.006 C 
ENDBRANCH  10  35
BRANCH  11  37
HETATM   37  O6  UNL     1       3.222  41.371  20.300  1.00  0.00    -0.391 OA
ATOM     38  H6  UNL     1       3.592  41.244  19.434  1.00  0.00     0.210 HD
ENDBRANCH  11  37
BRANCH  21  39
HETATM   39  C37 UNL     1       4.073  36.529  27.046  1.00  0.00     0.121 C 
BRANCH  39  40
HETATM   40  C38 UNL     1       2.781  36.153  27.669  1.00  0.00     0.173 C 
HETATM   41  O8  UNL     1       2.016  35.257  27.261  1.00  0.00    -0.648 OA
HETATM   42  O9  UNL     1       2.334  36.833  28.824  1.00  0.00    -0.648 OA
ENDBRANCH  39  40
ENDBRANCH  21  39
BRANCH   1  43
HETATM   43  O2  UNL     1       5.892  37.551  28.780  1.00  0.00    -0.315 OA
BRANCH  43  44
HETATM   44  C5  UNL     1       7.134  37.021  29.090  1.00  0.00     0.263 C 
HETATM   45  O1  UNL     1       7.283  36.904  30.353  1.00  0.00    -0.265 OA
BRANCH  44  46
HETATM   46  C3  UNL     1       8.194  36.618  28.178  1.00  0.00     0.081 C 
HETATM   47  C4  UNL     1       9.205  35.682  28.858  1.00  0.00     0.020 C 
BRANCH  46  48
HETATM   48  C2  UNL     1       7.770  35.993  26.882  1.00  0.00     0.010 C 
HETATM   49  C1  UNL     1       8.877  35.041  26.461  1.00  0.00     0.006 C 
ENDBRANCH  46  48
ENDBRANCH  44  46
ENDBRANCH  43  44
ENDBRANCH   1  43
BRANCH  16  50
HETATM   50  O7  UNL     1       0.863  37.799  24.073  1.00  0.00    -0.391 OA
ATOM     51  H7  UNL     1       0.535  37.913  24.957  1.00  0.00     0.210 HD
ENDBRANCH  16  50
TORSDOF 13
ENDMDL
MODEL 3
REMARK VINA RESULT: -6.656661998      2.951      6.545
REMARK  13 active torsions:
REMARK  status: ('A' for Active; 'I' for Inactive)
REMARK    1  A    between atoms: C2_2  and  C3_3 
REMARK    2  A    between atoms: C3_3  and  C5_5 
REMARK    3  A    between atoms: C5_5  and  O2_7 
REMARK    4  A    between atoms: O2_7  and  C6_8 
REMARK    5  A    between atoms: C14_16  and  O3_17 
REMARK    6  A    between atoms: O3_17  and  C15_18 
REMARK    7  A    between atoms: C19_23  and  N1_24 
REMARK    8  A    between atoms: C22_27  and  O5_28 
REMARK    9  A    between atoms: C23_30  and  C24_31 
REMARK   10  A    between atoms: C26_33  and  O6_34 
REMARK   11  A    between atoms: C31_40  and  O7_41 
REMARK   12  A    between atoms: C36_47  and  C37_48 
REMARK   13  A    between atoms: C37_48  and  C38_49 
ROOT
HETATM    1  C6  UNL     1       6.439  36.634  25.411  1.00  0.00     0.141 C 
HETATM    2  C7  UNL     1       5.326  35.729  24.978  1.00  0.00     0.067 C 
HETATM    3  C8  UNL     1       3.964  36.298  25.039  1.00  0.00    -0.077 C 
HETATM    4  C9  UNL     1       3.219  36.158  23.699  1.00  0.00     0.044 C 
HETATM    5  C10 UNL     1       3.728  37.645  25.725  1.00  0.00    -0.058 C 
HETATM    6  C11 UNL     1       2.938  37.476  27.010  1.00  0.00     0.004 C 
HETATM    7  C12 UNL     1       1.995  36.263  26.741  1.00  0.00     0.022 C 
HETATM    8  C13 UNL     1       3.759  36.900  28.149  1.00  0.00     0.022 C 
HETATM    9  C14 UNL     1       1.950  38.475  27.514  1.00  0.00     0.143 C 
HETATM   10  C23 UNL     1       1.234  39.343  26.577  1.00  0.00     0.048 C 
HETATM   11  C26 UNL     1       0.889  40.730  27.068  1.00  0.00     0.153 C 
HETATM   12  C27 UNL     1       1.577  41.869  26.328  1.00  0.00    -0.055 C 
HETATM   13  C28 UNL     1       1.229  42.032  24.911  1.00  0.00     0.046 C 
HETATM   14  C29 UNL     1       2.977  42.024  26.761  1.00  0.00     0.003 C 
HETATM   15  C30 UNL     1       4.124  41.741  26.226  1.00  0.00     0.005 C 
HETATM   16  C31 UNL     1       4.701  41.185  25.048  1.00  0.00     0.145 C 
HETATM   17  C32 UNL     1       4.708  39.783  24.605  1.00  0.00     0.027 C 
HETATM   18  C33 UNL     1       3.862  39.494  23.354  1.00  0.00     0.014 C 
HETATM   19  C34 UNL     1       4.834  38.619  25.563  1.00  0.00    -0.007 C 
HETATM   20  C35 UNL     1       5.407  39.174  26.849  1.00  0.00     0.021 C 
HETATM   21  C36 UNL     1       6.141  37.966  25.013  1.00  0.00     0.038 C 
ENDROOT
BRANCH   9  22
HETATM   22  O3  UNL     1       2.224  39.028  28.790  1.00  0.00    -0.352 OA
BRANCH  22  23
HETATM   23  C15 UNL     1       1.331  38.897  29.781  1.00  0.00     0.291 C 
HETATM   24  O4  UNL     1       0.623  37.698  29.575  1.00  0.00    -0.354 OA
HETATM   25  C16 UNL     1      -0.425  37.483  30.401  1.00  0.00     0.122 C 
HETATM   26  C17 UNL     1      -1.691  37.388  29.537  1.00  0.00     0.040 C 
HETATM   27  C18 UNL     1      -0.672  38.446  31.505  1.00  0.00     0.070 C 
HETATM   28  C19 UNL     1       0.572  39.069  32.074  1.00  0.00     0.257 C 
HETATM   29  C22 UNL     1       1.776  38.743  31.208  1.00  0.00     0.206 C 
BRANCH  28  30
HETATM   30  N1  UNL     1       0.780  38.888  33.466  1.00  0.00     0.087 N 
HETATM   31  C20 UNL     1      -0.366  38.887  34.308  1.00  0.00     0.310 C 
HETATM   32  C21 UNL     1       1.817  39.757  33.997  1.00  0.00     0.310 C 
ENDBRANCH  28  30
BRANCH  29  33
HETATM   33  O5  UNL     1       2.114  37.399  31.475  1.00  0.00    -0.388 OA
ATOM     34  H5  UNL     1       2.325  37.287  32.395  1.00  0.00     0.210 HD
ENDBRANCH  29  33
ENDBRANCH  22  23
ENDBRANCH   9  22
BRANCH  10  35
HETATM   35  C24 UNL     1      -0.086  38.790  26.012  1.00  0.00     0.006 C 
HETATM   36  C25 UNL     1      -0.076  38.394  24.608  1.00  0.00     0.006 C 
ENDBRANCH  10  35
BRANCH  11  37
HETATM   37  O6  UNL     1      -0.474  40.999  27.061  1.00  0.00    -0.391 OA
ATOM     38  H6  UNL     1      -1.011  40.241  27.258  1.00  0.00     0.210 HD
ENDBRANCH  11  37
BRANCH  21  39
HETATM   39  C37 UNL     1       7.333  38.813  25.073  1.00  0.00     0.121 C 
BRANCH  39  40
HETATM   40  C38 UNL     1       7.972  39.162  23.781  1.00  0.00     0.173 C 
HETATM   41  O8  UNL     1       8.076  40.314  23.315  1.00  0.00    -0.648 OA
HETATM   42  O9  UNL     1       8.524  38.145  22.972  1.00  0.00    -0.648 OA
ENDBRANCH  39  40
ENDBRANCH  21  39
BRANCH   1  43
HETATM   43  O2  UNL     1       7.695  36.131  25.269  1.00  0.00    -0.315 OA
BRANCH  43  44
HETATM   44  C5  UNL     1       8.490  35.493  26.207  1.00  0.00     0.263 C 
HETATM   45  O1  UNL     1       9.403  34.801  25.644  1.00  0.00    -0.265 OA
BRANCH  44  46
HETATM   46  C3  UNL     1       8.384  35.543  27.659  1.00  0.00     0.081 C 
HETATM   47  C4  UNL     1       9.397  34.606  28.335  1.00  0.00     0.020 C 
BRANCH  46  48
HETATM   48  C2  UNL     1       8.489  36.894  28.299  1.00  0.00     0.010 C 
HETATM   49  C1  UNL     1       7.335  37.016  29.279  1.00  0.00     0.006 C 
ENDBRANCH  46  48
ENDBRANCH  44  46
ENDBRANCH  43  44
ENDBRANCH   1  43
BRANCH  16  50
HETATM   50  O7  UNL     1       4.207  41.923  23.930  1.00  0.00    -0.391 OA
ATOM     51  H7  UNL     1       4.936  42.077  23.341  1.00  0.00     0.210 HD
ENDBRANCH  16  50
TORSDOF 13
ENDMDL
MODEL 4
REMARK VINA RESULT: -6.609076235      2.426      7.818
REMARK  13 active torsions:
REMARK  status: ('A' for Active; 'I' for Inactive)
REMARK    1  A    between atoms: C2_2  and  C3_3 
REMARK    2  A    between atoms: C3_3  and  C5_5 
REMARK    3  A    between atoms: C5_5  and  O2_7 
REMARK    4  A    between atoms: O2_7  and  C6_8 
REMARK    5  A    between atoms: C14_16  and  O3_17 
REMARK    6  A    between atoms: O3_17  and  C15_18 
REMARK    7  A    between atoms: C19_23  and  N1_24 
REMARK    8  A    between atoms: C22_27  and  O5_28 
REMARK    9  A    between atoms: C23_30  and  C24_31 
REMARK   10  A    between atoms: C26_33  and  O6_34 
REMARK   11  A    between atoms: C31_40  and  O7_41 
REMARK   12  A    between atoms: C36_47  and  C37_48 
REMARK   13  A    between atoms: C37_48  and  C38_49 
ROOT
HETATM    1  C6  UNL     1       5.776  37.897  27.489  1.00  0.00     0.141 C 
HETATM    2  C7  UNL     1       5.960  39.372  27.676  1.00  0.00     0.067 C 
HETATM    3  C8  UNL     1       5.498  40.232  26.568  1.00  0.00    -0.077 C 
HETATM    4  C9  UNL     1       4.536  41.332  27.054  1.00  0.00     0.044 C 
HETATM    5  C10 UNL     1       5.078  39.605  25.238  1.00  0.00    -0.058 C 
HETATM    6  C11 UNL     1       6.064  39.944  24.135  1.00  0.00     0.004 C 
HETATM    7  C12 UNL     1       6.592  41.367  24.497  1.00  0.00     0.022 C 
HETATM    8  C13 UNL     1       7.365  39.169  24.231  1.00  0.00     0.022 C 
HETATM    9  C14 UNL     1       5.673  40.159  22.710  1.00  0.00     0.143 C 
HETATM   10  C23 UNL     1       4.335  40.651  22.377  1.00  0.00     0.048 C 
HETATM   11  C26 UNL     1       3.735  40.157  21.082  1.00  0.00     0.153 C 
HETATM   12  C27 UNL     1       2.490  39.293  21.233  1.00  0.00    -0.055 C 
HETATM   13  C28 UNL     1       1.305  39.947  21.801  1.00  0.00     0.046 C 
HETATM   14  C29 UNL     1       2.835  37.919  21.640  1.00  0.00     0.003 C 
HETATM   15  C30 UNL     1       2.737  37.255  22.750  1.00  0.00     0.005 C 
HETATM   16  C31 UNL     1       2.297  37.390  24.098  1.00  0.00     0.145 C 
HETATM   17  C32 UNL     1       2.912  38.159  25.190  1.00  0.00     0.027 C 
HETATM   18  C33 UNL     1       2.105  39.383  25.654  1.00  0.00     0.014 C 
HETATM   19  C34 UNL     1       4.408  38.287  25.364  1.00  0.00    -0.007 C 
HETATM   20  C35 UNL     1       5.036  37.159  24.574  1.00  0.00     0.021 C 
HETATM   21  C36 UNL     1       4.562  37.663  26.786  1.00  0.00     0.038 C 
ENDROOT
BRANCH   9  22
HETATM   22  O3  UNL     1       6.268  39.285  21.766  1.00  0.00    -0.352 OA
BRANCH  22  23
HETATM   23  C15 UNL     1       7.143  39.762  20.872  1.00  0.00     0.291 C 
HETATM   24  O4  UNL     1       6.467  40.679  20.045  1.00  0.00    -0.354 OA
HETATM   25  C16 UNL     1       7.166  41.146  18.986  1.00  0.00     0.122 C 
HETATM   26  C17 UNL     1       6.414  40.739  17.711  1.00  0.00     0.040 C 
HETATM   27  C18 UNL     1       8.592  40.754  18.845  1.00  0.00     0.070 C 
HETATM   28  C19 UNL     1       9.314  40.558  20.149  1.00  0.00     0.257 C 
HETATM   29  C22 UNL     1       8.333  40.571  21.309  1.00  0.00     0.206 C 
BRANCH  28  30
HETATM   30  N1  UNL     1      10.471  41.354  20.346  1.00  0.00     0.087 N 
HETATM   31  C20 UNL     1      11.108  41.887  19.192  1.00  0.00     0.310 C 
HETATM   32  C21 UNL     1      11.439  40.728  21.233  1.00  0.00     0.310 C 
ENDBRANCH  28  30
BRANCH  29  33
HETATM   33  O5  UNL     1       7.965  41.918  21.512  1.00  0.00    -0.388 OA
ATOM     34  H5  UNL     1       7.704  42.317  20.690  1.00  0.00     0.210 HD
ENDBRANCH  29  33
ENDBRANCH  22  23
ENDBRANCH   9  22
BRANCH  10  35
HETATM   35  C24 UNL     1       4.167  42.180  22.326  1.00  0.00     0.006 C 
HETATM   36  C25 UNL     1       3.331  42.776  23.363  1.00  0.00     0.006 C 
ENDBRANCH  10  35
BRANCH  11  37
HETATM   37  O6  UNL     1       3.423  41.175  20.190  1.00  0.00    -0.391 OA
ATOM     38  H6  UNL     1       3.640  40.970  19.288  1.00  0.00     0.210 HD
ENDBRANCH  11  37
BRANCH  21  39
HETATM   39  C37 UNL     1       4.149  36.264  26.900  1.00  0.00     0.121 C 
BRANCH  39  40
HETATM   40  C38 UNL     1       2.857  36.000  27.577  1.00  0.00     0.173 C 
HETATM   41  O8  UNL     1       2.024  35.137  27.233  1.00  0.00    -0.648 OA
HETATM   42  O9  UNL     1       2.489  36.758  28.710  1.00  0.00    -0.648 OA
ENDBRANCH  39  40
ENDBRANCH  21  39
BRANCH   1  43
HETATM   43  O2  UNL     1       6.125  37.121  28.550  1.00  0.00    -0.315 OA
BRANCH  43  44
HETATM   44  C5  UNL     1       7.389  36.752  28.981  1.00  0.00     0.263 C 
HETATM   45  O1  UNL     1       7.526  36.954  30.235  1.00  0.00    -0.265 OA
BRANCH  44  46
HETATM   46  C3  UNL     1       8.482  36.197  28.195  1.00  0.00     0.081 C 
HETATM   47  C4  UNL     1       9.276  35.147  28.987  1.00  0.00     0.020 C 
BRANCH  46  48
HETATM   48  C2  UNL     1       8.126  35.613  26.861  1.00  0.00     0.010 C 
HETATM   49  C1  UNL     1       9.240  34.650  26.483  1.00  0.00     0.006 C 
ENDBRANCH  46  48
ENDBRANCH  44  46
ENDBRANCH  43  44
ENDBRANCH   1  43
BRANCH  16  50
HETATM   50  O7  UNL     1       0.933  37.812  24.070  1.00  0.00    -0.391 OA
ATOM     51  H7  UNL     1       0.487  37.306  23.402  1.00  0.00     0.210 HD
ENDBRANCH  16  50
TORSDOF 13
ENDMDL
MODEL 5
REMARK VINA RESULT: -6.537696109      3.552      8.436
REMARK  13 active torsions:
REMARK  status: ('A' for Active; 'I' for Inactive)
REMARK    1  A    between atoms: C2_2  and  C3_3 
REMARK    2  A    between atoms: C3_3  and  C5_5 
REMARK    3  A    between atoms: C5_5  and  O2_7 
REMARK    4  A    between atoms: O2_7  and  C6_8 
REMARK    5  A    between atoms: C14_16  and  O3_17 
REMARK    6  A    between atoms: O3_17  and  C15_18 
REMARK    7  A    between atoms: C19_23  and  N1_24 
REMARK    8  A    between atoms: C22_27  and  O5_28 
REMARK    9  A    between atoms: C23_30  and  C24_31 
REMARK   10  A    between atoms: C26_33  and  O6_34 
REMARK   11  A    between atoms: C31_40  and  O7_41 
REMARK   12  A    between atoms: C36_47  and  C37_48 
REMARK   13  A    between atoms: C37_48  and  C38_49 
ROOT
HETATM    1  C6  UNL     1       1.763  40.672  32.170  1.00  0.00     0.141 C 
HETATM    2  C7  UNL     1       2.099  41.791  31.231  1.00  0.00     0.067 C 
HETATM    3  C8  UNL     1       2.307  41.416  29.818  1.00  0.00    -0.077 C 
HETATM    4  C9  UNL     1       1.433  42.252  28.865  1.00  0.00     0.044 C 
HETATM    5  C10 UNL     1       2.394  39.941  29.424  1.00  0.00    -0.058 C 
HETATM    6  C11 UNL     1       3.798  39.573  28.980  1.00  0.00     0.004 C 
HETATM    7  C12 UNL     1       4.355  40.867  28.310  1.00  0.00     0.022 C 
HETATM    8  C13 UNL     1       4.780  39.451  30.130  1.00  0.00     0.022 C 
HETATM    9  C14 UNL     1       4.095  38.571  27.914  1.00  0.00     0.143 C 
HETATM   10  C23 UNL     1       3.132  38.331  26.837  1.00  0.00     0.048 C 
HETATM   11  C26 UNL     1       3.067  36.924  26.289  1.00  0.00     0.153 C 
HETATM   12  C27 UNL     1       1.749  36.198  26.524  1.00  0.00    -0.055 C 
HETATM   13  C28 UNL     1       0.566  36.759  25.861  1.00  0.00     0.046 C 
HETATM   14  C29 UNL     1       1.648  35.703  27.909  1.00  0.00     0.003 C 
HETATM   15  C30 UNL     1       0.974  36.074  28.953  1.00  0.00     0.005 C 
HETATM   16  C31 UNL     1       0.032  37.050  29.386  1.00  0.00     0.145 C 
HETATM   17  C32 UNL     1       0.243  38.486  29.626  1.00  0.00     0.027 C 
HETATM   18  C33 UNL     1      -0.462  39.421  28.629  1.00  0.00     0.014 C 
HETATM   19  C34 UNL     1       1.520  39.041  30.215  1.00  0.00    -0.007 C 
HETATM   20  C35 UNL     1       2.222  37.887  30.898  1.00  0.00     0.021 C 
HETATM   21  C36 UNL     1       0.944  39.725  31.494  1.00  0.00     0.038 C 
ENDROOT
BRANCH   9  22
HETATM   22  O3  UNL     1       4.876  37.457  28.311  1.00  0.00    -0.352 OA
BRANCH  22  23
HETATM   23  C15 UNL     1       5.855  37.009  27.514  1.00  0.00     0.291 C 
HETATM   24  O4  UNL     1       6.337  38.096  26.760  1.00  0.00    -0.354 OA
HETATM   25  C16 UNL     1       7.229  37.793  25.790  1.00  0.00     0.122 C 
HETATM   26  C17 UNL     1       6.624  38.222  24.446  1.00  0.00     0.040 C 
HETATM   27  C18 UNL     1       7.705  36.390  25.673  1.00  0.00     0.070 C 
HETATM   28  C19 UNL     1       7.790  35.653  26.981  1.00  0.00     0.257 C 
HETATM   29  C22 UNL     1       7.128  36.453  28.089  1.00  0.00     0.206 C 
BRANCH  28  30
HETATM   30  N1  UNL     1       9.062  35.123  27.315  1.00  0.00     0.087 N 
HETATM   31  C20 UNL     1       9.599  34.115  26.468  1.00  0.00     0.310 C 
HETATM   32  C21 UNL     1       9.159  34.734  28.713  1.00  0.00     0.310 C 
ENDBRANCH  28  30
BRANCH  29  33
HETATM   33  O5  UNL     1       8.017  37.499  28.418  1.00  0.00    -0.388 OA
ATOM     34  H5  UNL     1       8.917  37.205  28.344  1.00  0.00     0.210 HD
ENDBRANCH  29  33
ENDBRANCH  22  23
ENDBRANCH   9  22
BRANCH  10  35
HETATM   35  C24 UNL     1       3.266  39.227  25.594  1.00  0.00     0.006 C 
HETATM   36  C25 UNL     1       2.184  40.178  25.360  1.00  0.00     0.006 C 
ENDBRANCH  10  35
BRANCH  11  37
HETATM   37  O6  UNL     1       3.344  36.843  24.931  1.00  0.00    -0.391 OA
ATOM     38  H6  UNL     1       2.570  36.890  24.382  1.00  0.00     0.210 HD
ENDBRANCH  11  37
BRANCH  21  39
HETATM   39  C37 UNL     1       0.290  38.824  32.442  1.00  0.00     0.121 C 
BRANCH  39  40
HETATM   40  C38 UNL     1      -1.168  39.006  32.643  1.00  0.00     0.173 C 
HETATM   41  O8  UNL     1      -1.953  38.133  33.063  1.00  0.00    -0.648 OA
HETATM   42  O9  UNL     1      -1.768  40.250  32.351  1.00  0.00    -0.648 OA
ENDBRANCH  39  40
ENDBRANCH  21  39
BRANCH   1  43
HETATM   43  O2  UNL     1       1.488  41.040  33.450  1.00  0.00    -0.315 OA
BRANCH  43  44
HETATM   44  C5  UNL     1       2.235  40.828  34.597  1.00  0.00     0.263 C 
HETATM   45  O1  UNL     1       3.237  41.618  34.648  1.00  0.00    -0.265 OA
BRANCH  44  46
HETATM   46  C3  UNL     1       1.996  39.864  35.662  1.00  0.00     0.081 C 
HETATM   47  C4  UNL     1       0.511  39.806  36.052  1.00  0.00     0.020 C 
BRANCH  46  48
HETATM   48  C2  UNL     1       2.478  38.464  35.429  1.00  0.00     0.010 C 
HETATM   49  C1  UNL     1       2.352  37.722  36.748  1.00  0.00     0.006 C 
ENDBRANCH  46  48
ENDBRANCH  44  46
ENDBRANCH  43  44
ENDBRANCH   1  43
BRANCH  16  50
HETATM   50  O7  UNL     1      -1.096  36.984  28.513  1.00  0.00    -0.391 OA
ATOM     51  H7  UNL     1      -1.826  36.634  29.009  1.00  0.00     0.210 HD
ENDBRANCH  16  50
TORSDOF 13
ENDMDL
