MODEL 1
REMARK VINA RESULT: -8.209980388      0.000      0.000
REMARK  13 active torsions:
REMARK  status: ('A' for Active; 'I' for Inactive)
REMARK    1  A    between atoms: O1_2  and  C2_3 
REMARK    2  A    between atoms: C8_9  and  O2_10 
REMARK    3  A    between atoms: O2_10  and  C9_11 
REMARK    4  A    between atoms: C9_11  and  C10_12 
REMARK    5  A    between atoms: C10_12  and  C11_13 
REMARK    6  A    between atoms: C11_13  and  N1_14 
REMARK    7  A    between atoms: C24_27  and  C25_28 
REMARK    8  A    between atoms: C25_28  and  S1_29 
REMARK    9  A    between atoms: S1_29  and  C26_30 
REMARK   10  A    between atoms: C27_32  and  C28_33 
REMARK   11  A    between atoms: C28_33  and  O4_34 
REMARK   12  A    between atoms: C29_36  and  O5_37 
REMARK   13  A    between atoms: C32_42  and  O6_43 
ROOT
HETATM    1  C2  UNL     1       6.371  41.956  24.833  1.00  0.00     0.126 C 
HETATM    2  C3  UNL     1       7.688  42.533  24.236  1.00  0.00     0.038 C 
HETATM    3  C4  UNL     1       7.772  41.889  22.882  1.00  0.00     0.007 C 
HETATM    4  C5  UNL     1       9.113  42.333  22.318  1.00  0.00    -0.017 C 
HETATM    5  C6  UNL     1      10.298  41.844  23.057  1.00  0.00     0.018 C 
HETATM    6  C7  UNL     1       9.131  43.838  22.369  1.00  0.00     0.018 C 
HETATM    7  C8  UNL     1       9.058  41.904  20.858  1.00  0.00     0.129 C 
HETATM    8  C16 UNL     1       9.119  40.446  20.822  1.00  0.00     0.033 C 
HETATM    9  C17 UNL     1       8.652  39.721  22.063  1.00  0.00     0.012 C 
HETATM   10  C18 UNL     1       7.541  40.418  22.832  1.00  0.00    -0.035 C 
HETATM   11  C19 UNL     1       6.302  40.095  22.001  1.00  0.00     0.016 C 
HETATM   12  C20 UNL     1       7.433  39.776  24.205  1.00  0.00     0.001 C 
HETATM   13  C21 UNL     1       6.770  38.428  24.025  1.00  0.00     0.006 C 
HETATM   14  C22 UNL     1       6.613  37.685  25.335  1.00  0.00     0.006 C 
HETATM   15  C23 UNL     1       6.304  38.523  26.513  1.00  0.00    -0.001 C 
HETATM   16  C24 UNL     1       5.313  37.773  27.391  1.00  0.00     0.002 C 
HETATM   17  C31 UNL     1       3.973  37.634  26.773  1.00  0.00     0.037 C 
HETATM   18  C32 UNL     1       3.647  38.648  25.728  1.00  0.00     0.119 C 
HETATM   19  C33 UNL     1       4.405  39.912  25.713  1.00  0.00     0.041 C 
HETATM   20  C34 UNL     1       5.821  39.898  26.190  1.00  0.00    -0.031 C 
HETATM   21  C35 UNL     1       5.844  40.715  27.498  1.00  0.00     0.016 C 
HETATM   22  C36 UNL     1       6.803  40.597  25.275  1.00  0.00     0.028 C 
ENDROOT
BRANCH  16  23
HETATM   23  C25 UNL     1       5.972  36.526  27.885  1.00  0.00     0.082 C 
BRANCH  23  24
HETATM   24  S1  UNL     1       7.415  36.665  28.884  1.00  0.00    -0.126 SA
BRANCH  24  25
HETATM   25  C26 UNL     1       8.968  36.207  28.178  1.00  0.00     0.246 C 
HETATM   26  O3  UNL     1       9.804  35.678  29.200  1.00  0.00    -0.356 OA
HETATM   27  C27 UNL     1       9.263  34.421  29.497  1.00  0.00     0.177 C 
HETATM   28  C29 UNL     1       9.997  33.368  28.736  1.00  0.00     0.158 C 
HETATM   29  C30 UNL     1       9.673  33.449  27.249  1.00  0.00     0.111 C 
HETATM   30  S2  UNL     1       8.848  35.009  26.852  1.00  0.00    -0.124 SA
BRANCH  27  31
HETATM   31  C28 UNL     1       9.336  34.138  30.973  1.00  0.00     0.198 C 
BRANCH  31  32
HETATM   32  O4  UNL     1      10.627  33.750  31.347  1.00  0.00    -0.398 OA
ATOM     33  H4  UNL     1      11.190  34.507  31.465  1.00  0.00     0.209 HD
ENDBRANCH  31  32
ENDBRANCH  27  31
BRANCH  28  34
HETATM   34  O5  UNL     1       9.564  32.113  29.205  1.00  0.00    -0.392 OA
ATOM     35  H5  UNL     1       9.377  31.568  28.450  1.00  0.00     0.210 HD
ENDBRANCH  28  34
ENDBRANCH  24  25
ENDBRANCH  23  24
ENDBRANCH  16  23
BRANCH  18  36
HETATM   36  O6  UNL     1       2.280  38.974  25.851  1.00  0.00    -0.396 OA
ATOM     37  H6  UNL     1       1.887  38.914  24.988  1.00  0.00     0.210 HD
ENDBRANCH  18  36
BRANCH   1  38
HETATM   38  O1  UNL     1       6.031  42.847  25.803  1.00  0.00    -0.390 OA
HETATM   39  C1  UNL     1       5.067  43.717  25.356  1.00  0.00     0.202 C 
ENDBRANCH   1  38
BRANCH   7  40
HETATM   40  O2  UNL     1       9.910  42.663  20.079  1.00  0.00    -0.385 OA
BRANCH  40  41
HETATM   41  C9  UNL     1      10.839  41.920  19.414  1.00  0.00     0.170 C 
BRANCH  41  42
HETATM   42  C10 UNL     1      12.265  42.368  19.382  1.00  0.00     0.056 C 
BRANCH  42  43
HETATM   43  C11 UNL     1      12.959  42.402  20.668  1.00  0.00     0.274 C 
BRANCH  43  44
HETATM   44  N1  UNL     1      13.665  41.374  21.258  1.00  0.00     0.088 N 
HETATM   45  C12 UNL     1      14.989  41.055  20.920  1.00  0.00     0.272 C 
HETATM   46  C13 UNL     1      15.751  42.318  21.291  1.00  0.00     0.032 C 
HETATM   47  C14 UNL     1      15.009  42.741  22.547  1.00  0.00     0.032 C 
HETATM   48  C15 UNL     1      13.847  41.776  22.683  1.00  0.00     0.272 C 
ENDBRANCH  43  44
ENDBRANCH  42  43
ENDBRANCH  41  42
ENDBRANCH  40  41
ENDBRANCH   7  40
TORSDOF 13
ENDMDL
MODEL 2
REMARK VINA RESULT: -8.064929817      2.269      3.311
REMARK  13 active torsions:
REMARK  status: ('A' for Active; 'I' for Inactive)
REMARK    1  A    between atoms: O1_2  and  C2_3 
REMARK    2  A    between atoms: C8_9  and  O2_10 
REMARK    3  A    between atoms: O2_10  and  C9_11 
REMARK    4  A    between atoms: C9_11  and  C10_12 
REMARK    5  A    between atoms: C10_12  and  C11_13 
REMARK    6  A    between atoms: C11_13  and  N1_14 
REMARK    7  A    between atoms: C24_27  and  C25_28 
REMARK    8  A    between atoms: C25_28  and  S1_29 
REMARK    9  A    between atoms: S1_29  and  C26_30 
REMARK   10  A    between atoms: C27_32  and  C28_33 
REMARK   11  A    between atoms: C28_33  and  O4_34 
REMARK   12  A    between atoms: C29_36  and  O5_37 
REMARK   13  A    between atoms: C32_42  and  O6_43 
ROOT
HETATM    1  C2  UNL     1       6.836  41.861  25.028  1.00  0.00     0.126 C 
HETATM    2  C3  UNL     1       8.031  42.182  24.082  1.00  0.00     0.038 C 
HETATM    3  C4  UNL     1       7.606  41.595  22.766  1.00  0.00     0.007 C 
HETATM    4  C5  UNL     1       8.804  41.778  21.848  1.00  0.00    -0.017 C 
HETATM    5  C6  UNL     1      10.016  41.024  22.239  1.00  0.00     0.018 C 
HETATM    6  C7  UNL     1       9.151  43.244  21.872  1.00  0.00     0.018 C 
HETATM    7  C8  UNL     1       8.265  41.435  20.467  1.00  0.00     0.129 C 
HETATM    8  C16 UNL     1       8.006  39.999  20.436  1.00  0.00     0.033 C 
HETATM    9  C17 UNL     1       7.754  39.330  21.767  1.00  0.00     0.012 C 
HETATM   10  C18 UNL     1       7.067  40.206  22.804  1.00  0.00    -0.035 C 
HETATM   11  C19 UNL     1       5.609  40.182  22.352  1.00  0.00     0.016 C 
HETATM   12  C20 UNL     1       7.205  39.539  24.162  1.00  0.00     0.001 C 
HETATM   13  C21 UNL     1       6.251  38.366  24.191  1.00  0.00     0.006 C 
HETATM   14  C22 UNL     1       6.306  37.613  25.504  1.00  0.00     0.006 C 
HETATM   15  C23 UNL     1       6.512  38.444  26.710  1.00  0.00    -0.001 C 
HETATM   16  C24 UNL     1       5.663  37.874  27.837  1.00  0.00     0.002 C 
HETATM   17  C31 UNL     1       4.207  38.041  27.615  1.00  0.00     0.037 C 
HETATM   18  C32 UNL     1       3.829  39.147  26.686  1.00  0.00     0.119 C 
HETATM   19  C33 UNL     1       4.801  40.227  26.445  1.00  0.00     0.041 C 
HETATM   20  C34 UNL     1       6.259  39.902  26.512  1.00  0.00    -0.031 C 
HETATM   21  C35 UNL     1       6.808  40.637  27.751  1.00  0.00     0.016 C 
HETATM   22  C36 UNL     1       7.078  40.424  25.352  1.00  0.00     0.028 C 
ENDROOT
BRANCH  16  23
HETATM   23  C25 UNL     1       6.155  36.498  28.147  1.00  0.00     0.082 C 
BRANCH  23  24
HETATM   24  S1  UNL     1       7.635  36.314  29.084  1.00  0.00    -0.126 SA
BRANCH  24  25
HETATM   25  C26 UNL     1       9.142  36.005  28.213  1.00  0.00     0.246 C 
HETATM   26  O3  UNL     1       9.984  35.192  29.021  1.00  0.00    -0.356 OA
HETATM   27  C27 UNL     1       9.395  33.922  28.996  1.00  0.00     0.177 C 
HETATM   28  C29 UNL     1      10.053  33.085  27.951  1.00  0.00     0.158 C 
HETATM   29  C30 UNL     1       9.685  33.573  26.555  1.00  0.00     0.111 C 
HETATM   30  S2  UNL     1       8.922  35.211  26.624  1.00  0.00    -0.124 SA
BRANCH  27  31
HETATM   31  C28 UNL     1       9.502  33.252  30.339  1.00  0.00     0.198 C 
BRANCH  31  32
HETATM   32  O4  UNL     1      10.687  32.515  30.439  1.00  0.00    -0.398 OA
ATOM     33  H4  UNL     1      11.291  32.744  29.742  1.00  0.00     0.209 HD
ENDBRANCH  31  32
ENDBRANCH  27  31
BRANCH  28  34
HETATM   34  O5  UNL     1       9.578  31.767  28.088  1.00  0.00    -0.392 OA
ATOM     35  H5  UNL     1      10.198  31.187  27.664  1.00  0.00     0.210 HD
ENDBRANCH  28  34
ENDBRANCH  24  25
ENDBRANCH  23  24
ENDBRANCH  16  23
BRANCH  18  36
HETATM   36  O6  UNL     1       2.647  39.740  27.177  1.00  0.00    -0.396 OA
ATOM     37  H6  UNL     1       2.756  39.878  28.111  1.00  0.00     0.210 HD
ENDBRANCH  18  36
BRANCH   1  38
HETATM   38  O1  UNL     1       6.969  42.759  26.041  1.00  0.00    -0.390 OA
HETATM   39  C1  UNL     1       6.724  44.036  25.601  1.00  0.00     0.202 C 
ENDBRANCH   1  38
BRANCH   7  40
HETATM   40  O2  UNL     1       9.012  42.037  19.472  1.00  0.00    -0.385 OA
BRANCH  40  41
HETATM   41  C9  UNL     1       8.897  41.420  18.263  1.00  0.00     0.170 C 
BRANCH  41  42
HETATM   42  C10 UNL     1       7.850  41.872  17.295  1.00  0.00     0.056 C 
BRANCH  42  43
HETATM   43  C11 UNL     1       8.273  42.858  16.302  1.00  0.00     0.274 C 
BRANCH  43  44
HETATM   44  N1  UNL     1       9.233  43.835  16.459  1.00  0.00     0.088 N 
HETATM   45  C12 UNL     1      10.136  44.197  15.448  1.00  0.00     0.272 C 
HETATM   46  C13 UNL     1       9.225  44.716  14.345  1.00  0.00     0.032 C 
HETATM   47  C14 UNL     1       8.154  45.415  15.164  1.00  0.00     0.032 C 
HETATM   48  C15 UNL     1       8.484  45.116  16.615  1.00  0.00     0.272 C 
ENDBRANCH  43  44
ENDBRANCH  42  43
ENDBRANCH  41  42
ENDBRANCH  40  41
ENDBRANCH   7  40
TORSDOF 13
ENDMDL
MODEL 3
REMARK VINA RESULT: -7.783623228      5.250     10.214
REMARK  13 active torsions:
REMARK  status: ('A' for Active; 'I' for Inactive)
REMARK    1  A    between atoms: O1_2  and  C2_3 
REMARK    2  A    between atoms: C8_9  and  O2_10 
REMARK    3  A    between atoms: O2_10  and  C9_11 
REMARK    4  A    between atoms: C9_11  and  C10_12 
REMARK    5  A    between atoms: C10_12  and  C11_13 
REMARK    6  A    between atoms: C11_13  and  N1_14 
REMARK    7  A    between atoms: C24_27  and  C25_28 
REMARK    8  A    between atoms: C25_28  and  S1_29 
REMARK    9  A    between atoms: S1_29  and  C26_30 
REMARK   10  A    between atoms: C27_32  and  C28_33 
REMARK   11  A    between atoms: C28_33  and  O4_34 
REMARK   12  A    between atoms: C29_36  and  O5_37 
REMARK   13  A    between atoms: C32_42  and  O6_43 
ROOT
HETATM    1  C2  UNL     1       2.230  36.946  25.684  1.00  0.00     0.126 C 
HETATM    2  C3  UNL     1       1.264  36.507  26.824  1.00  0.00     0.038 C 
HETATM    3  C4  UNL     1       1.231  37.700  27.736  1.00  0.00     0.007 C 
HETATM    4  C5  UNL     1       0.395  37.261  28.928  1.00  0.00    -0.017 C 
HETATM    5  C6  UNL     1       0.979  36.167  29.736  1.00  0.00     0.018 C 
HETATM    6  C7  UNL     1      -0.921  36.772  28.381  1.00  0.00     0.018 C 
HETATM    7  C8  UNL     1       0.145  38.550  29.697  1.00  0.00     0.129 C 
HETATM    8  C16 UNL     1       1.414  38.969  30.285  1.00  0.00     0.033 C 
HETATM    9  C17 UNL     1       2.669  38.477  29.601  1.00  0.00     0.012 C 
HETATM   10  C18 UNL     1       2.549  38.296  28.096  1.00  0.00    -0.035 C 
HETATM   11  C19 UNL     1       2.653  39.727  27.575  1.00  0.00     0.016 C 
HETATM   12  C20 UNL     1       3.735  37.476  27.616  1.00  0.00     0.001 C 
HETATM   13  C21 UNL     1       4.949  38.378  27.638  1.00  0.00     0.006 C 
HETATM   14  C22 UNL     1       6.204  37.664  27.183  1.00  0.00     0.006 C 
HETATM   15  C23 UNL     1       6.021  36.677  26.097  1.00  0.00    -0.001 C 
HETATM   16  C24 UNL     1       7.216  36.767  25.159  1.00  0.00     0.002 C 
HETATM   17  C31 UNL     1       7.265  38.036  24.394  1.00  0.00     0.037 C 
HETATM   18  C32 UNL     1       5.955  38.734  24.238  1.00  0.00     0.119 C 
HETATM   19  C33 UNL     1       4.717  37.955  24.411  1.00  0.00     0.041 C 
HETATM   20  C34 UNL     1       4.730  36.798  25.357  1.00  0.00    -0.031 C 
HETATM   21  C35 UNL     1       4.574  35.531  24.492  1.00  0.00     0.016 C 
HETATM   22  C36 UNL     1       3.566  36.757  26.323  1.00  0.00     0.028 C 
ENDROOT
BRANCH  16  23
HETATM   23  C25 UNL     1       8.442  36.379  25.920  1.00  0.00     0.082 C 
BRANCH  23  24
HETATM   24  S1  UNL     1       8.471  34.827  26.751  1.00  0.00    -0.126 SA
BRANCH  24  25
HETATM   25  C26 UNL     1       9.865  34.451  27.770  1.00  0.00     0.246 C 
HETATM   26  O3  UNL     1      10.000  35.461  28.762  1.00  0.00    -0.356 OA
HETATM   27  C27 UNL     1       8.945  35.234  29.656  1.00  0.00     0.177 C 
HETATM   28  C29 UNL     1       9.433  34.423  30.810  1.00  0.00     0.158 C 
HETATM   29  C30 UNL     1       9.727  32.990  30.380  1.00  0.00     0.111 C 
HETATM   30  S2  UNL     1       9.777  32.855  28.576  1.00  0.00    -0.124 SA
BRANCH  27  31
HETATM   31  C28 UNL     1       8.365  36.533  30.145  1.00  0.00     0.198 C 
BRANCH  31  32
HETATM   32  O4  UNL     1       6.967  36.484  30.159  1.00  0.00    -0.398 OA
ATOM     33  H4  UNL     1       6.600  37.303  30.473  1.00  0.00     0.209 HD
ENDBRANCH  31  32
ENDBRANCH  27  31
BRANCH  28  34
HETATM   34  O5  UNL     1       8.410  34.384  31.775  1.00  0.00    -0.392 OA
ATOM     35  H5  UNL     1       8.243  35.274  32.060  1.00  0.00     0.210 HD
ENDBRANCH  28  34
ENDBRANCH  24  25
ENDBRANCH  23  24
ENDBRANCH  16  23
BRANCH  18  36
HETATM   36  O6  UNL     1       5.920  39.307  22.949  1.00  0.00    -0.396 OA
ATOM     37  H6  UNL     1       5.765  38.608  22.323  1.00  0.00     0.210 HD
ENDBRANCH  18  36
BRANCH   1  38
HETATM   38  O1  UNL     1       1.914  36.122  24.649  1.00  0.00    -0.390 OA
HETATM   39  C1  UNL     1       0.947  36.684  23.852  1.00  0.00     0.202 C 
ENDBRANCH   1  38
BRANCH   7  40
HETATM   40  O2  UNL     1      -0.994  38.458  30.474  1.00  0.00    -0.385 OA
BRANCH  40  41
HETATM   41  C9  UNL     1      -1.091  39.448  31.407  1.00  0.00     0.170 C 
BRANCH  41  42
HETATM   42  C10 UNL     1      -1.397  39.101  32.829  1.00  0.00     0.056 C 
BRANCH  42  43
HETATM   43  C11 UNL     1      -0.244  38.878  33.700  1.00  0.00     0.274 C 
BRANCH  43  44
HETATM   44  N1  UNL     1       0.395  39.813  34.486  1.00  0.00     0.088 N 
HETATM   45  C12 UNL     1       0.774  39.572  35.816  1.00  0.00     0.272 C 
HETATM   46  C13 UNL     1       1.766  38.425  35.686  1.00  0.00     0.032 C 
HETATM   47  C14 UNL     1       2.469  38.799  34.393  1.00  0.00     0.032 C 
HETATM   48  C15 UNL     1       1.735  40.017  33.863  1.00  0.00     0.272 C 
ENDBRANCH  43  44
ENDBRANCH  42  43
ENDBRANCH  41  42
ENDBRANCH  40  41
ENDBRANCH   7  40
TORSDOF 13
ENDMDL
MODEL 4
REMARK VINA RESULT: -7.525816416      6.064      8.612
REMARK  13 active torsions:
REMARK  status: ('A' for Active; 'I' for Inactive)
REMARK    1  A    between atoms: O1_2  and  C2_3 
REMARK    2  A    between atoms: C8_9  and  O2_10 
REMARK    3  A    between atoms: O2_10  and  C9_11 
REMARK    4  A    between atoms: C9_11  and  C10_12 
REMARK    5  A    between atoms: C10_12  and  C11_13 
REMARK    6  A    between atoms: C11_13  and  N1_14 
REMARK    7  A    between atoms: C24_27  and  C25_28 
REMARK    8  A    between atoms: C25_28  and  S1_29 
REMARK    9  A    between atoms: S1_29  and  C26_30 
REMARK   10  A    between atoms: C27_32  and  C28_33 
REMARK   11  A    between atoms: C28_33  and  O4_34 
REMARK   12  A    between atoms: C29_36  and  O5_37 
REMARK   13  A    between atoms: C32_42  and  O6_43 
ROOT
HETATM    1  C2  UNL     1       0.461  37.439  25.563  1.00  0.00     0.126 C 
HETATM    2  C3  UNL     1      -0.620  38.505  25.910  1.00  0.00     0.038 C 
HETATM    3  C4  UNL     1      -0.354  39.610  24.928  1.00  0.00     0.007 C 
HETATM    4  C5  UNL     1      -1.312  40.724  25.321  1.00  0.00    -0.017 C 
HETATM    5  C6  UNL     1      -1.071  41.319  26.654  1.00  0.00     0.018 C 
HETATM    6  C7  UNL     1      -2.695  40.126  25.331  1.00  0.00     0.018 C 
HETATM    7  C8  UNL     1      -1.224  41.709  24.164  1.00  0.00     0.129 C 
HETATM    8  C16 UNL     1       0.094  42.336  24.214  1.00  0.00     0.033 C 
HETATM    9  C17 UNL     1       1.186  41.553  24.905  1.00  0.00     0.012 C 
HETATM   10  C18 UNL     1       1.065  40.042  24.786  1.00  0.00    -0.035 C 
HETATM   11  C19 UNL     1       1.569  39.775  23.370  1.00  0.00     0.016 C 
HETATM   12  C20 UNL     1       1.998  39.405  25.802  1.00  0.00     0.001 C 
HETATM   13  C21 UNL     1       3.410  39.558  25.283  1.00  0.00     0.006 C 
HETATM   14  C22 UNL     1       4.436  38.963  26.224  1.00  0.00     0.006 C 
HETATM   15  C23 UNL     1       4.023  37.727  26.921  1.00  0.00    -0.001 C 
HETATM   16  C24 UNL     1       5.224  36.795  27.001  1.00  0.00     0.002 C 
HETATM   17  C31 UNL     1       5.638  36.260  25.682  1.00  0.00     0.037 C 
HETATM   18  C32 UNL     1       4.572  36.253  24.637  1.00  0.00     0.119 C 
HETATM   19  C33 UNL     1       3.164  36.313  25.067  1.00  0.00     0.041 C 
HETATM   20  C34 UNL     1       2.835  37.044  26.328  1.00  0.00    -0.031 C 
HETATM   21  C35 UNL     1       2.366  35.976  27.337  1.00  0.00     0.016 C 
HETATM   22  C36 UNL     1       1.677  38.010  26.215  1.00  0.00     0.028 C 
ENDROOT
BRANCH  16  23
HETATM   23  C25 UNL     1       6.276  37.454  27.834  1.00  0.00     0.082 C 
BRANCH  23  24
HETATM   24  S1  UNL     1       7.360  36.447  28.787  1.00  0.00    -0.126 SA
BRANCH  24  25
HETATM   25  C26 UNL     1       8.951  36.066  28.118  1.00  0.00     0.246 C 
HETATM   26  O3  UNL     1       9.785  35.572  29.160  1.00  0.00    -0.356 OA
HETATM   27  C27 UNL     1       9.297  34.289  29.437  1.00  0.00     0.177 C 
HETATM   28  C29 UNL     1      10.099  33.276  28.691  1.00  0.00     0.158 C 
HETATM   29  C30 UNL     1       9.809  33.350  27.196  1.00  0.00     0.111 C 
HETATM   30  S2  UNL     1       8.921  34.872  26.785  1.00  0.00    -0.124 SA
BRANCH  27  31
HETATM   31  C28 UNL     1       9.346  34.002  30.913  1.00  0.00     0.198 C 
BRANCH  31  32
HETATM   32  O4  UNL     1      10.648  33.693  31.322  1.00  0.00    -0.398 OA
ATOM     33  H4  UNL     1      10.833  32.769  31.197  1.00  0.00     0.209 HD
ENDBRANCH  31  32
ENDBRANCH  27  31
BRANCH  28  34
HETATM   34  O5  UNL     1       9.714  32.000  29.144  1.00  0.00    -0.392 OA
ATOM     35  H5  UNL     1      10.495  31.547  29.438  1.00  0.00     0.210 HD
ENDBRANCH  28  34
ENDBRANCH  24  25
ENDBRANCH  23  24
ENDBRANCH  16  23
BRANCH  18  36
HETATM   36  O6  UNL     1       4.731  35.083  23.864  1.00  0.00    -0.396 OA
ATOM     37  H6  UNL     1       5.152  35.327  23.049  1.00  0.00     0.210 HD
ENDBRANCH  18  36
BRANCH   1  38
HETATM   38  O1  UNL     1      -0.037  36.284  26.078  1.00  0.00    -0.390 OA
HETATM   39  C1  UNL     1      -1.409  36.313  26.114  1.00  0.00     0.202 C 
ENDBRANCH   1  38
BRANCH   7  40
HETATM   40  O2  UNL     1      -2.367  42.480  24.074  1.00  0.00    -0.385 OA
BRANCH  40  41
HETATM   41  C9  UNL     1      -2.798  42.657  22.793  1.00  0.00     0.170 C 
BRANCH  41  42
HETATM   42  C10 UNL     1      -2.645  41.551  21.798  1.00  0.00     0.056 C 
BRANCH  42  43
HETATM   43  C11 UNL     1      -2.063  41.919  20.509  1.00  0.00     0.274 C 
BRANCH  43  44
HETATM   44  N1  UNL     1      -0.964  42.724  20.294  1.00  0.00     0.088 N 
HETATM   45  C12 UNL     1       0.342  42.357  20.652  1.00  0.00     0.272 C 
HETATM   46  C13 UNL     1       0.593  41.117  19.807  1.00  0.00     0.032 C 
HETATM   47  C14 UNL     1      -0.131  41.493  18.526  1.00  0.00     0.032 C 
HETATM   48  C15 UNL     1      -0.815  42.816  18.812  1.00  0.00     0.272 C 
ENDBRANCH  43  44
ENDBRANCH  42  43
ENDBRANCH  41  42
ENDBRANCH  40  41
ENDBRANCH   7  40
TORSDOF 13
ENDMDL
MODEL 5
REMARK VINA RESULT: -7.379984682      3.447      6.280
REMARK  13 active torsions:
REMARK  status: ('A' for Active; 'I' for Inactive)
REMARK    1  A    between atoms: O1_2  and  C2_3 
REMARK    2  A    between atoms: C8_9  and  O2_10 
REMARK    3  A    between atoms: O2_10  and  C9_11 
REMARK    4  A    between atoms: C9_11  and  C10_12 
REMARK    5  A    between atoms: C10_12  and  C11_13 
REMARK    6  A    between atoms: C11_13  and  N1_14 
REMARK    7  A    between atoms: C24_27  and  C25_28 
REMARK    8  A    between atoms: C25_28  and  S1_29 
REMARK    9  A    between atoms: S1_29  and  C26_30 
REMARK   10  A    between atoms: C27_32  and  C28_33 
REMARK   11  A    between atoms: C28_33  and  O4_34 
REMARK   12  A    between atoms: C29_36  and  O5_37 
REMARK   13  A    between atoms: C32_42  and  O6_43 
ROOT
HETATM    1  C2  UNL     1       4.636  37.210  24.615  1.00  0.00     0.126 C 
HETATM    2  C3  UNL     1       4.000  38.029  23.454  1.00  0.00     0.038 C 
HETATM    3  C4  UNL     1       5.139  38.868  22.950  1.00  0.00     0.007 C 
HETATM    4  C5  UNL     1       4.522  39.775  21.896  1.00  0.00    -0.017 C 
HETATM    5  C6  UNL     1       3.521  40.739  22.404  1.00  0.00     0.018 C 
HETATM    6  C7  UNL     1       3.830  38.880  20.901  1.00  0.00     0.018 C 
HETATM    7  C8  UNL     1       5.723  40.413  21.212  1.00  0.00     0.129 C 
HETATM    8  C16 UNL     1       6.337  41.335  22.163  1.00  0.00     0.033 C 
HETATM    9  C17 UNL     1       6.093  41.054  23.628  1.00  0.00     0.012 C 
HETATM   10  C18 UNL     1       5.942  39.583  23.982  1.00  0.00    -0.035 C 
HETATM   11  C19 UNL     1       7.386  39.086  23.978  1.00  0.00     0.016 C 
HETATM   12  C20 UNL     1       5.358  39.484  25.380  1.00  0.00     0.001 C 
HETATM   13  C21 UNL     1       6.456  39.839  26.358  1.00  0.00     0.006 C 
HETATM   14  C22 UNL     1       5.986  39.782  27.796  1.00  0.00     0.006 C 
HETATM   15  C23 UNL     1       5.018  38.710  28.111  1.00  0.00    -0.001 C 
HETATM   16  C24 UNL     1       5.344  38.156  29.491  1.00  0.00     0.002 C 
HETATM   17  C31 UNL     1       6.626  37.413  29.534  1.00  0.00     0.037 C 
HETATM   18  C32 UNL     1       7.090  36.870  28.224  1.00  0.00     0.119 C 
HETATM   19  C33 UNL     1       6.103  36.693  27.145  1.00  0.00     0.041 C 
HETATM   20  C34 UNL     1       4.936  37.625  27.088  1.00  0.00    -0.031 C 
HETATM   21  C35 UNL     1       3.689  36.777  27.414  1.00  0.00     0.016 C 
HETATM   22  C36 UNL     1       4.662  38.212  25.721  1.00  0.00     0.028 C 
ENDROOT
BRANCH  16  23
HETATM   23  C25 UNL     1       5.150  39.248  30.493  1.00  0.00     0.082 C 
BRANCH  23  24
HETATM   24  S1  UNL     1       3.784  39.154  31.599  1.00  0.00    -0.126 SA
BRANCH  24  25
HETATM   25  C26 UNL     1       2.275  39.947  31.133  1.00  0.00     0.246 C 
HETATM   26  O3  UNL     1       1.598  39.132  30.184  1.00  0.00    -0.356 OA
HETATM   27  C27 UNL     1       1.113  38.044  30.921  1.00  0.00     0.177 C 
HETATM   28  C29 UNL     1      -0.306  38.294  31.307  1.00  0.00     0.158 C 
HETATM   29  C30 UNL     1      -0.396  39.388  32.364  1.00  0.00     0.111 C 
HETATM   30  S2  UNL     1       1.170  40.284  32.500  1.00  0.00    -0.124 SA
BRANCH  27  31
HETATM   31  C28 UNL     1       1.218  36.769  30.130  1.00  0.00     0.198 C 
BRANCH  31  32
HETATM   32  O4  UNL     1       1.612  35.703  30.946  1.00  0.00    -0.398 OA
ATOM     33  H4  UNL     1       0.861  35.194  31.229  1.00  0.00     0.209 HD
ENDBRANCH  31  32
ENDBRANCH  27  31
BRANCH  28  34
HETATM   34  O5  UNL     1      -0.818  37.109  31.867  1.00  0.00    -0.392 OA
ATOM     35  H5  UNL     1      -1.498  37.347  32.486  1.00  0.00     0.210 HD
ENDBRANCH  28  34
ENDBRANCH  24  25
ENDBRANCH  23  24
ENDBRANCH  16  23
BRANCH  18  36
HETATM   36  O6  UNL     1       7.689  35.615  28.463  1.00  0.00    -0.396 OA
ATOM     37  H6  UNL     1       8.201  35.385  27.696  1.00  0.00     0.210 HD
ENDBRANCH  18  36
BRANCH   1  38
HETATM   38  O1  UNL     1       3.804  36.144  24.761  1.00  0.00    -0.390 OA
HETATM   39  C1  UNL     1       4.041  35.199  23.793  1.00  0.00     0.202 C 
ENDBRANCH   1  38
BRANCH   7  40
HETATM   40  O2  UNL     1       5.410  40.828  19.932  1.00  0.00    -0.385 OA
BRANCH  40  41
HETATM   41  C9  UNL     1       6.504  41.155  19.188  1.00  0.00     0.170 C 
BRANCH  41  42
HETATM   42  C10 UNL     1       7.374  40.075  18.631  1.00  0.00     0.056 C 
BRANCH  42  43
HETATM   43  C11 UNL     1       8.387  39.532  19.534  1.00  0.00     0.274 C 
BRANCH  43  44
HETATM   44  N1  UNL     1       9.743  39.778  19.505  1.00  0.00     0.088 N 
HETATM   45  C12 UNL     1      10.295  41.067  19.563  1.00  0.00     0.272 C 
HETATM   46  C13 UNL     1       9.833  41.576  20.921  1.00  0.00     0.032 C 
HETATM   47  C14 UNL     1       9.922  40.304  21.747  1.00  0.00     0.032 C 
HETATM   48  C15 UNL     1      10.286  39.203  20.770  1.00  0.00     0.272 C 
ENDBRANCH  43  44
ENDBRANCH  42  43
ENDBRANCH  41  42
ENDBRANCH  40  41
ENDBRANCH   7  40
TORSDOF 13
ENDMDL
