MODEL 1
REMARK VINA RESULT: -6.297999604      0.000      0.000
REMARK  4 active torsions:
REMARK  status: ('A' for Active; 'I' for Inactive)
REMARK    1  A    between atoms: C2_2  and  C3_3 
REMARK    2  A    between atoms: C3_3  and  N1_4 
REMARK    3  A    between atoms: N1_4  and  C4_6 
REMARK    4  A    between atoms: C7_11  and  N3_12 
ROOT
HETATM    1  C4  UNL     1      -8.512  34.959  27.657  1.00  0.00     0.693 A 
HETATM    2  N2  UNL     1      -8.235  35.904  28.561  1.00  0.00    -0.191 N 
ATOM      3  H2  UNL     1      -8.946  36.139  29.253  1.00  0.00     0.184 HD
HETATM    4  C5  UNL     1      -7.042  36.570  28.601  1.00  0.00     0.067 A 
HETATM    5  C6  UNL     1      -6.873  37.589  29.652  1.00  0.00     0.073 C 
HETATM    6  C7  UNL     1      -6.091  36.253  27.673  1.00  0.00     0.139 A 
HETATM    7  N4  UNL     1      -6.402  35.291  26.769  1.00  0.00    -0.270 N 
ATOM      8  H4  UNL     1      -5.704  35.042  26.069  1.00  0.00     0.189 HD
HETATM    9  N5  UNL     1      -7.549  34.665  26.748  1.00  0.00    -0.131 N 
ATOM     10  H5  UNL     1      -7.721  33.950  26.041  1.00  0.00     0.205 HD
ENDROOT
BRANCH   1  11
HETATM   11  N1  UNL     1      -9.653  34.335  27.632  1.00  0.00    -0.221 N 
ATOM     12  H1  UNL     1     -10.243  34.377  26.801  1.00  0.00     0.178 HD
BRANCH  11  13
HETATM   13  C3  UNL     1     -10.078  33.584  28.787  1.00  0.00     0.164 C 
BRANCH  13  14
HETATM   14  C2  UNL     1      -8.941  32.828  29.339  1.00  0.00    -0.017 C 
HETATM   15  C1  UNL     1      -8.566  32.990  30.600  1.00  0.00     0.008 C 
ENDBRANCH  13  14
ENDBRANCH  11  13
ENDBRANCH   1  11
BRANCH   6  16
HETATM   16  N3  UNL     1      -4.963  36.762  27.581  1.00  0.00    -0.378 N 
HETATM   17  C8  UNL     1      -3.786  36.821  28.327  1.00  0.00     0.147 C 
ATOM     18  H3  UNL     1      -4.871  37.289  26.712  1.00  0.00     0.160 HD
ENDBRANCH   6  16
TORSDOF 4
ENDMDL
MODEL 2
REMARK VINA RESULT: -6.159928326      1.168      4.972
REMARK  4 active torsions:
REMARK  status: ('A' for Active; 'I' for Inactive)
REMARK    1  A    between atoms: C2_2  and  C3_3 
REMARK    2  A    between atoms: C3_3  and  N1_4 
REMARK    3  A    between atoms: N1_4  and  C4_6 
REMARK    4  A    between atoms: C7_11  and  N3_12 
ROOT
HETATM    1  C4  UNL     1      -5.983  36.134  27.655  1.00  0.00     0.693 A 
HETATM    2  N2  UNL     1      -6.648  36.481  28.761  1.00  0.00    -0.191 N 
ATOM      3  H2  UNL     1      -6.200  37.119  29.419  1.00  0.00     0.184 HD
HETATM    4  C5  UNL     1      -7.902  36.021  29.053  1.00  0.00     0.067 A 
HETATM    5  C6  UNL     1      -8.517  36.485  30.309  1.00  0.00     0.073 C 
HETATM    6  C7  UNL     1      -8.500  35.167  28.170  1.00  0.00     0.139 A 
HETATM    7  N4  UNL     1      -7.800  34.834  27.058  1.00  0.00    -0.270 N 
ATOM      8  H4  UNL     1      -8.232  34.197  26.389  1.00  0.00     0.189 HD
HETATM    9  N5  UNL     1      -6.602  35.285  26.797  1.00  0.00    -0.131 N 
ATOM     10  H5  UNL     1      -6.128  34.996  25.941  1.00  0.00     0.205 HD
ENDROOT
BRANCH   1  11
HETATM   11  N1  UNL     1      -4.791  36.581  27.393  1.00  0.00    -0.221 N 
ATOM     12  H1  UNL     1      -4.450  36.602  26.432  1.00  0.00     0.178 HD
BRANCH  11  13
HETATM   13  C3  UNL     1      -3.953  37.046  28.470  1.00  0.00     0.164 C 
BRANCH  13  14
HETATM   14  C2  UNL     1      -2.536  36.949  28.081  1.00  0.00    -0.017 C 
HETATM   15  C1  UNL     1      -1.720  37.984  28.221  1.00  0.00     0.008 C 
ENDBRANCH  13  14
ENDBRANCH  11  13
ENDBRANCH   1  11
BRANCH   6  16
HETATM   16  N3  UNL     1      -9.630  34.668  28.291  1.00  0.00    -0.378 N 
HETATM   17  C8  UNL     1     -10.207  33.523  28.840  1.00  0.00     0.147 C 
ATOM     18  H3  UNL     1     -10.340  35.266  27.867  1.00  0.00     0.160 HD
ENDBRANCH   6  16
TORSDOF 4
ENDMDL
MODEL 3
REMARK VINA RESULT: -6.021933845      2.068      4.155
REMARK  4 active torsions:
REMARK  status: ('A' for Active; 'I' for Inactive)
REMARK    1  A    between atoms: C2_2  and  C3_3 
REMARK    2  A    between atoms: C3_3  and  N1_4 
REMARK    3  A    between atoms: N1_4  and  C4_6 
REMARK    4  A    between atoms: C7_11  and  N3_12 
ROOT
HETATM    1  C4  UNL     1      -8.906  34.821  27.952  1.00  0.00     0.693 A 
HETATM    2  N2  UNL     1      -8.688  35.631  28.992  1.00  0.00    -0.191 N 
ATOM      3  H2  UNL     1      -8.691  36.639  28.833  1.00  0.00     0.184 HD
HETATM    4  C5  UNL     1      -8.462  35.173  30.260  1.00  0.00     0.067 A 
HETATM    5  C6  UNL     1      -8.235  36.179  31.312  1.00  0.00     0.073 C 
HETATM    6  C7  UNL     1      -8.458  33.823  30.469  1.00  0.00     0.139 A 
HETATM    7  N4  UNL     1      -8.682  33.027  29.394  1.00  0.00    -0.270 N 
ATOM      8  H4  UNL     1      -8.682  32.017  29.533  1.00  0.00     0.189 HD
HETATM    9  N5  UNL     1      -8.896  33.485  28.190  1.00  0.00    -0.131 N 
ATOM     10  H5  UNL     1      -9.059  32.833  27.423  1.00  0.00     0.205 HD
ENDROOT
BRANCH   1  11
HETATM   11  N1  UNL     1      -9.119  35.274  26.752  1.00  0.00    -0.221 N 
ATOM     12  H1  UNL     1      -9.913  34.934  26.209  1.00  0.00     0.178 HD
BRANCH  11  13
HETATM   13  C3  UNL     1      -8.226  36.258  26.194  1.00  0.00     0.164 C 
BRANCH  13  14
HETATM   14  C2  UNL     1      -6.873  35.692  26.065  1.00  0.00    -0.017 C 
HETATM   15  C1  UNL     1      -5.886  36.103  26.848  1.00  0.00     0.008 C 
ENDBRANCH  13  14
ENDBRANCH  11  13
ENDBRANCH   1  11
BRANCH   6  16
HETATM   16  N3  UNL     1      -8.272  33.254  31.557  1.00  0.00    -0.378 N 
HETATM   17  C8  UNL     1      -8.104  31.954  32.034  1.00  0.00     0.147 C 
ATOM     18  H3  UNL     1      -8.231  33.930  32.320  1.00  0.00     0.160 HD
ENDBRANCH   6  16
TORSDOF 4
ENDMDL
MODEL 4
REMARK VINA RESULT: -5.916262726      2.052      3.040
REMARK  4 active torsions:
REMARK  status: ('A' for Active; 'I' for Inactive)
REMARK    1  A    between atoms: C2_2  and  C3_3 
REMARK    2  A    between atoms: C3_3  and  N1_4 
REMARK    3  A    between atoms: N1_4  and  C4_6 
REMARK    4  A    between atoms: C7_11  and  N3_12 
ROOT
HETATM    1  C4  UNL     1      -8.433  33.873  30.221  1.00  0.00     0.693 A 
HETATM    2  N2  UNL     1      -8.089  35.159  30.113  1.00  0.00    -0.191 N 
ATOM      3  H2  UNL     1      -7.992  35.710  30.966  1.00  0.00     0.184 HD
HETATM    4  C5  UNL     1      -7.859  35.772  28.913  1.00  0.00     0.067 A 
HETATM    5  C6  UNL     1      -7.488  37.197  28.943  1.00  0.00     0.073 C 
HETATM    6  C7  UNL     1      -7.989  35.032  27.773  1.00  0.00     0.139 A 
HETATM    7  N4  UNL     1      -8.340  33.729  27.914  1.00  0.00    -0.270 N 
ATOM      8  H4  UNL     1      -8.441  33.162  27.073  1.00  0.00     0.189 HD
HETATM    9  N5  UNL     1      -8.554  33.162  29.071  1.00  0.00    -0.131 N 
ATOM     10  H5  UNL     1      -8.815  32.177  29.111  1.00  0.00     0.205 HD
ENDROOT
BRANCH   1  11
HETATM   11  N1  UNL     1      -8.648  33.305  31.371  1.00  0.00    -0.221 N 
ATOM     12  H1  UNL     1      -9.238  33.762  32.066  1.00  0.00     0.178 HD
BRANCH  11  13
HETATM   13  C3  UNL     1      -8.046  32.026  31.657  1.00  0.00     0.164 C 
BRANCH  13  14
HETATM   14  C2  UNL     1      -8.079  31.770  33.106  1.00  0.00    -0.017 C 
HETATM   15  C1  UNL     1      -8.505  32.697  33.951  1.00  0.00     0.008 C 
ENDBRANCH  13  14
ENDBRANCH  11  13
ENDBRANCH   1  11
BRANCH   6  16
HETATM   16  N3  UNL     1      -7.812  35.440  26.614  1.00  0.00    -0.378 N 
HETATM   17  C8  UNL     1      -6.744  35.696  25.755  1.00  0.00     0.147 C 
ATOM     18  H3  UNL     1      -8.702  35.648  26.161  1.00  0.00     0.160 HD
ENDBRANCH   6  16
TORSDOF 4
ENDMDL
MODEL 5
REMARK VINA RESULT: -5.814557279      1.924      5.612
REMARK  4 active torsions:
REMARK  status: ('A' for Active; 'I' for Inactive)
REMARK    1  A    between atoms: C2_2  and  C3_3 
REMARK    2  A    between atoms: C3_3  and  N1_4 
REMARK    3  A    between atoms: N1_4  and  C4_6 
REMARK    4  A    between atoms: C7_11  and  N3_12 
ROOT
HETATM    1  C4  UNL     1      -5.072  37.141  28.617  1.00  0.00     0.693 A 
HETATM    2  N2  UNL     1      -5.440  36.483  27.514  1.00  0.00    -0.191 N 
ATOM      3  H2  UNL     1      -4.719  36.215  26.844  1.00  0.00     0.184 HD
HETATM    4  C5  UNL     1      -6.738  36.152  27.241  1.00  0.00     0.067 A 
HETATM    5  C6  UNL     1      -7.001  35.427  25.986  1.00  0.00     0.073 C 
HETATM    6  C7  UNL     1      -7.701  36.513  28.140  1.00  0.00     0.139 A 
HETATM    7  N4  UNL     1      -7.296  37.180  29.249  1.00  0.00    -0.270 N 
ATOM      8  H4  UNL     1      -8.003  37.457  29.931  1.00  0.00     0.189 HD
HETATM    9  N5  UNL     1      -6.050  37.486  29.492  1.00  0.00    -0.131 N 
ATOM     10  H5  UNL     1      -5.810  37.990  30.346  1.00  0.00     0.205 HD
ENDROOT
BRANCH   1  11
HETATM   11  N1  UNL     1      -3.833  37.449  28.861  1.00  0.00    -0.221 N 
ATOM     12  H1  UNL     1      -3.604  38.107  29.607  1.00  0.00     0.178 HD
BRANCH  11  13
HETATM   13  C3  UNL     1      -2.783  36.855  28.071  1.00  0.00     0.164 C 
BRANCH  13  14
HETATM   14  C2  UNL     1      -1.657  37.795  27.946  1.00  0.00    -0.017 C 
HETATM   15  C1  UNL     1      -1.602  38.892  28.685  1.00  0.00     0.008 C 
ENDBRANCH  13  14
ENDBRANCH  11  13
ENDBRANCH   1  11
BRANCH   6  16
HETATM   16  N3  UNL     1      -8.917  36.283  28.038  1.00  0.00    -0.378 N 
HETATM   17  C8  UNL     1      -9.877  35.482  28.654  1.00  0.00     0.147 C 
ATOM     18  H3  UNL     1      -9.331  36.840  27.290  1.00  0.00     0.160 HD
ENDBRANCH   6  16
TORSDOF 4
ENDMDL
