MODEL 1
REMARK VINA RESULT: -5.923673186      0.000      0.000
REMARK  4 active torsions:
REMARK  status: ('A' for Active; 'I' for Inactive)
REMARK    1  A    between atoms: C3_5  and  N2_6 
REMARK    2  A    between atoms: C5_12  and  N4_13 
REMARK    3  A    between atoms: N4_13  and  C6_14 
REMARK    4  A    between atoms: N4_13  and  C8_16 
ROOT
HETATM    1  C1  UNL     1      -6.858  37.569  29.475  1.00  0.00     0.046 C 
HETATM    2  C2  UNL     1      -6.953  36.578  28.637  1.00  0.00     0.068 A 
HETATM    3  N1  UNL     1      -6.502  36.636  27.368  1.00  0.00    -0.191 N 
ATOM      4  H1  UNL     1      -6.045  37.434  26.927  1.00  0.00     0.184 HD
HETATM    5  C3  UNL     1      -6.764  35.460  26.793  1.00  0.00     0.676 A 
HETATM    6  N3  UNL     1      -7.381  34.662  27.711  1.00  0.00    -0.189 N 
ATOM      7  H3  UNL     1      -7.694  33.705  27.544  1.00  0.00     0.184 HD
HETATM    8  C4  UNL     1      -7.511  35.319  28.849  1.00  0.00     0.090 A 
HETATM    9  C5  UNL     1      -8.041  34.954  29.996  1.00  0.00     0.118 C 
ENDROOT
BRANCH   9  10
HETATM   10  N4  UNL     1      -8.631  33.745  30.351  1.00  0.00    -0.389 N 
BRANCH  10  11
HETATM   11  C6  UNL     1      -9.384  32.884  29.507  1.00  0.00     0.118 C 
HETATM   12  C7  UNL     1     -10.521  33.567  28.760  1.00  0.00     0.026 C 
ENDBRANCH  10  11
BRANCH  10  13
HETATM   13  C8  UNL     1      -8.414  33.286  31.742  1.00  0.00     0.118 C 
HETATM   14  C9  UNL     1      -8.046  31.836  31.793  1.00  0.00     0.026 C 
ENDBRANCH  10  13
ENDBRANCH   9  10
BRANCH   5  15
HETATM   15  N2  UNL     1      -6.505  35.078  25.575  1.00  0.00    -0.234 N 
ATOM     16  H22 UNL     1      -5.988  34.227  25.354  1.00  0.00     0.174 HD
ATOM     17  H21 UNL     1      -6.761  35.535  24.700  1.00  0.00     0.174 HD
ENDBRANCH   5  15
TORSDOF 4
ENDMDL
MODEL 2
REMARK VINA RESULT: -5.784801055      0.185      1.929
REMARK  4 active torsions:
REMARK  status: ('A' for Active; 'I' for Inactive)
REMARK    1  A    between atoms: C3_5  and  N2_6 
REMARK    2  A    between atoms: C5_12  and  N4_13 
REMARK    3  A    between atoms: N4_13  and  C6_14 
REMARK    4  A    between atoms: N4_13  and  C8_16 
ROOT
HETATM    1  C1  UNL     1      -7.218  37.670  29.429  1.00  0.00     0.046 C 
HETATM    2  C2  UNL     1      -7.177  36.635  28.640  1.00  0.00     0.068 A 
HETATM    3  N1  UNL     1      -6.714  36.685  27.376  1.00  0.00    -0.191 N 
ATOM      4  H1  UNL     1      -6.350  37.511  26.900  1.00  0.00     0.184 HD
HETATM    5  C3  UNL     1      -6.820  35.459  26.858  1.00  0.00     0.676 A 
HETATM    6  N3  UNL     1      -7.351  34.637  27.808  1.00  0.00    -0.189 N 
ATOM      7  H3  UNL     1      -7.542  33.643  27.685  1.00  0.00     0.184 HD
HETATM    8  C4  UNL     1      -7.580  35.329  28.909  1.00  0.00     0.090 A 
HETATM    9  C5  UNL     1      -8.082  34.957  30.067  1.00  0.00     0.118 C 
ENDROOT
BRANCH   9  10
HETATM   10  N4  UNL     1      -8.526  33.703  30.476  1.00  0.00    -0.389 N 
BRANCH  10  11
HETATM   11  C6  UNL     1      -8.461  33.162  31.788  1.00  0.00     0.118 C 
HETATM   12  C7  UNL     1      -8.018  31.707  31.850  1.00  0.00     0.026 C 
ENDBRANCH  10  11
BRANCH  10  13
HETATM   13  C8  UNL     1      -9.176  32.864  29.444  1.00  0.00     0.118 C 
HETATM   14  C9  UNL     1     -10.437  33.490  28.938  1.00  0.00     0.026 C 
ENDBRANCH  10  13
ENDBRANCH   9  10
BRANCH   5  15
HETATM   15  N2  UNL     1      -6.494  35.054  25.664  1.00  0.00    -0.234 N 
ATOM     16  H22 UNL     1      -5.768  35.497  25.102  1.00  0.00     0.174 HD
ATOM     17  H21 UNL     1      -6.884  34.277  25.131  1.00  0.00     0.174 HD
ENDBRANCH   5  15
TORSDOF 4
ENDMDL
MODEL 3
REMARK VINA RESULT: -5.069487842      1.333      4.906
REMARK  4 active torsions:
REMARK  status: ('A' for Active; 'I' for Inactive)
REMARK    1  A    between atoms: C3_5  and  N2_6 
REMARK    2  A    between atoms: C5_12  and  N4_13 
REMARK    3  A    between atoms: N4_13  and  C6_14 
REMARK    4  A    between atoms: N4_13  and  C8_16 
ROOT
HETATM    1  C1  UNL     1     -10.339  33.726  28.012  1.00  0.00     0.046 C 
HETATM    2  C2  UNL     1      -9.394  33.633  28.903  1.00  0.00     0.068 A 
HETATM    3  N1  UNL     1      -9.405  32.728  29.902  1.00  0.00    -0.191 N 
ATOM      4  H1  UNL     1     -10.127  32.029  30.073  1.00  0.00     0.184 HD
HETATM    5  C3  UNL     1      -8.299  32.914  30.626  1.00  0.00     0.676 A 
HETATM    6  N3  UNL     1      -7.592  33.942  30.074  1.00  0.00    -0.189 N 
ATOM      7  H3  UNL     1      -6.703  34.299  30.424  1.00  0.00     0.184 HD
HETATM    8  C4  UNL     1      -8.238  34.402  29.018  1.00  0.00     0.090 A 
HETATM    9  C5  UNL     1      -7.939  35.376  28.186  1.00  0.00     0.118 C 
ENDROOT
BRANCH   9  10
HETATM   10  N4  UNL     1      -6.834  36.222  28.178  1.00  0.00    -0.389 N 
BRANCH  10  11
HETATM   11  C6  UNL     1      -6.462  37.148  29.190  1.00  0.00     0.118 C 
HETATM   12  C7  UNL     1      -7.627  37.709  29.993  1.00  0.00     0.026 C 
ENDBRANCH  10  11
BRANCH  10  13
HETATM   13  C8  UNL     1      -5.928  36.114  27.012  1.00  0.00     0.118 C 
HETATM   14  C9  UNL     1      -6.663  35.682  25.782  1.00  0.00     0.026 C 
ENDBRANCH  10  13
ENDBRANCH   9  10
BRANCH   5  15
HETATM   15  N2  UNL     1      -7.907  32.266  31.685  1.00  0.00    -0.234 N 
ATOM     16  H22 UNL     1      -8.329  32.390  32.605  1.00  0.00     0.174 HD
ATOM     17  H21 UNL     1      -7.164  31.572  31.764  1.00  0.00     0.174 HD
ENDBRANCH   5  15
TORSDOF 4
ENDMDL
MODEL 4
REMARK VINA RESULT: -4.955548592      1.304      4.688
REMARK  4 active torsions:
REMARK  status: ('A' for Active; 'I' for Inactive)
REMARK    1  A    between atoms: C3_5  and  N2_6 
REMARK    2  A    between atoms: C5_12  and  N4_13 
REMARK    3  A    between atoms: N4_13  and  C6_14 
REMARK    4  A    between atoms: N4_13  and  C8_16 
ROOT
HETATM    1  C1  UNL     1     -10.656  34.145  28.607  1.00  0.00     0.046 C 
HETATM    2  C2  UNL     1      -9.561  33.843  29.242  1.00  0.00     0.068 A 
HETATM    3  N1  UNL     1      -9.479  32.844  30.143  1.00  0.00    -0.191 N 
ATOM      4  H1  UNL     1     -10.238  32.223  30.425  1.00  0.00     0.184 HD
HETATM    5  C3  UNL     1      -8.225  32.815  30.601  1.00  0.00     0.676 A 
HETATM    6  N3  UNL     1      -7.519  33.802  29.980  1.00  0.00    -0.189 N 
ATOM      7  H3  UNL     1      -6.533  34.009  30.137  1.00  0.00     0.184 HD
HETATM    8  C4  UNL     1      -8.310  34.448  29.142  1.00  0.00     0.090 A 
HETATM    9  C5  UNL     1      -8.067  35.463  28.341  1.00  0.00     0.118 C 
ENDROOT
BRANCH   9  10
HETATM   10  N4  UNL     1      -6.881  36.164  28.139  1.00  0.00    -0.389 N 
BRANCH  10  11
HETATM   11  C6  UNL     1      -6.014  36.066  27.017  1.00  0.00     0.118 C 
HETATM   12  C7  UNL     1      -6.710  35.718  25.709  1.00  0.00     0.026 C 
ENDBRANCH  10  11
BRANCH  10  13
HETATM   13  C8  UNL     1      -6.509  37.146  29.182  1.00  0.00     0.118 C 
HETATM   14  C9  UNL     1      -7.716  37.713  29.861  1.00  0.00     0.026 C 
ENDBRANCH  10  13
ENDBRANCH   9  10
BRANCH   5  15
HETATM   15  N2  UNL     1      -7.705  32.014  31.486  1.00  0.00    -0.234 N 
ATOM     16  H22 UNL     1      -8.176  31.757  32.354  1.00  0.00     0.174 HD
ATOM     17  H21 UNL     1      -6.802  31.540  31.459  1.00  0.00     0.174 HD
ENDBRANCH   5  15
TORSDOF 4
ENDMDL
MODEL 5
REMARK VINA RESULT: -4.821910664      1.544      4.867
REMARK  4 active torsions:
REMARK  status: ('A' for Active; 'I' for Inactive)
REMARK    1  A    between atoms: C3_5  and  N2_6 
REMARK    2  A    between atoms: C5_12  and  N4_13 
REMARK    3  A    between atoms: N4_13  and  C6_14 
REMARK    4  A    between atoms: N4_13  and  C8_16 
ROOT
HETATM    1  C1  UNL     1      -9.954  34.025  27.571  1.00  0.00     0.046 C 
HETATM    2  C2  UNL     1      -9.147  33.859  28.577  1.00  0.00     0.068 A 
HETATM    3  N1  UNL     1      -9.328  32.919  29.525  1.00  0.00    -0.191 N 
ATOM      4  H1  UNL     1     -10.092  32.244  29.566  1.00  0.00     0.184 HD
HETATM    5  C3  UNL     1      -8.327  33.031  30.402  1.00  0.00     0.676 A 
HETATM    6  N3  UNL     1      -7.514  34.048  29.997  1.00  0.00    -0.189 N 
ATOM      7  H3  UNL     1      -6.670  34.355  30.480  1.00  0.00     0.184 HD
HETATM    8  C4  UNL     1      -7.991  34.575  28.883  1.00  0.00     0.090 A 
HETATM    9  C5  UNL     1      -7.545  35.567  28.143  1.00  0.00     0.118 C 
ENDROOT
BRANCH   9  10
HETATM   10  N4  UNL     1      -6.419  36.366  28.323  1.00  0.00    -0.389 N 
BRANCH  10  11
HETATM   11  C6  UNL     1      -5.227  36.344  27.550  1.00  0.00     0.118 C 
HETATM   12  C7  UNL     1      -4.011  36.937  28.247  1.00  0.00     0.026 C 
ENDBRANCH  10  11
BRANCH  10  13
HETATM   13  C8  UNL     1      -6.491  37.374  29.404  1.00  0.00     0.118 C 
HETATM   14  C9  UNL     1      -7.906  37.660  29.798  1.00  0.00     0.026 C 
ENDBRANCH  10  13
ENDBRANCH   9  10
BRANCH   5  15
HETATM   15  N2  UNL     1      -8.109  32.327  31.476  1.00  0.00    -0.234 N 
ATOM     16  H22 UNL     1      -7.561  31.467  31.478  1.00  0.00     0.174 HD
ATOM     17  H21 UNL     1      -8.426  32.509  32.428  1.00  0.00     0.174 HD
ENDBRANCH   5  15
TORSDOF 4
ENDMDL
