MODEL 1
REMARK VINA RESULT: -6.653600490      0.000      0.000
REMARK  4 active torsions:
REMARK  status: ('A' for Active; 'I' for Inactive)
REMARK    1  A    between atoms: C3_3  and  C4_4 
REMARK    2  A    between atoms: C4_4  and  N1_5 
REMARK    3  A    between atoms: N2_7  and  O1_8 
REMARK    4  A    between atoms: C6_10  and  N3_11 
ROOT
HETATM    1  N1  UNL     1      -5.828  36.799  28.139  1.00  0.00    -0.327 N 
HETATM    2  C5  UNL     1      -5.752  36.296  26.875  1.00  0.00     0.236 A 
HETATM    3  N2  UNL     1      -6.847  35.982  26.179  1.00  0.00    -0.048 N 
HETATM    4  C6  UNL     1      -8.060  36.151  26.698  1.00  0.00     0.704 A 
HETATM    5  N4  UNL     1      -8.148  36.646  27.946  1.00  0.00    -0.179 N 
ATOM      6  H4  UNL     1      -9.067  36.785  28.366  1.00  0.00     0.185 HD
HETATM    7  C7  UNL     1      -7.047  36.963  28.650  1.00  0.00     0.097 A 
HETATM    8  C8  UNL     1      -7.229  37.505  30.019  1.00  0.00     0.090 C 
ENDROOT
BRANCH   1   9
HETATM    9  C4  UNL     1      -4.627  37.129  28.869  1.00  0.00     0.158 C 
BRANCH   9  10
HETATM   10  C3  UNL     1      -3.403  36.713  28.135  1.00  0.00    -0.011 C 
HETATM   11  C2  UNL     1      -2.293  37.432  28.109  1.00  0.00    -0.033 C 
HETATM   12  C1  UNL     1      -2.138  38.729  28.803  1.00  0.00     0.036 C 
ENDBRANCH   9  10
ENDBRANCH   1   9
BRANCH   3  13
HETATM   13  O1  UNL     1      -6.707  35.477  24.904  1.00  0.00    -0.269 OA
ATOM     14  H1  UNL     1      -7.474  35.142  24.454  1.00  0.00     0.246 HD
ENDBRANCH   3  13
BRANCH   4  15
HETATM   15  N3  UNL     1      -9.095  35.840  26.004  1.00  0.00    -0.232 N 
ATOM     16  H32 UNL     1      -9.058  35.173  25.233  1.00  0.00     0.174 HD
ATOM     17  H31 UNL     1      -9.995  36.269  26.222  1.00  0.00     0.174 HD
ENDBRANCH   4  15
TORSDOF 4
ENDMDL
MODEL 2
REMARK VINA RESULT: -6.301459512      3.384      4.879
REMARK  4 active torsions:
REMARK  status: ('A' for Active; 'I' for Inactive)
REMARK    1  A    between atoms: C3_3  and  C4_4 
REMARK    2  A    between atoms: C4_4  and  N1_5 
REMARK    3  A    between atoms: N2_7  and  O1_8 
REMARK    4  A    between atoms: C6_10  and  N3_11 
ROOT
HETATM    1  N1  UNL     1      -8.180  34.577  29.196  1.00  0.00    -0.327 N 
HETATM    2  C5  UNL     1      -7.025  35.143  28.747  1.00  0.00     0.236 A 
HETATM    3  N2  UNL     1      -6.907  35.596  27.497  1.00  0.00    -0.048 N 
HETATM    4  C6  UNL     1      -7.921  35.512  26.639  1.00  0.00     0.704 A 
HETATM    5  N4  UNL     1      -9.067  34.954  27.071  1.00  0.00    -0.179 N 
ATOM      6  H4  UNL     1      -9.859  34.878  26.432  1.00  0.00     0.185 HD
HETATM    7  C7  UNL     1      -9.188  34.496  28.329  1.00  0.00     0.097 A 
HETATM    8  C8  UNL     1     -10.485  33.895  28.729  1.00  0.00     0.090 C 
ENDROOT
BRANCH   1   9
HETATM    9  C4  UNL     1      -8.279  34.094  30.552  1.00  0.00     0.158 C 
BRANCH   9  10
HETATM   10  C3  UNL     1      -7.927  32.653  30.652  1.00  0.00    -0.011 C 
HETATM   11  C2  UNL     1      -7.986  31.968  31.782  1.00  0.00    -0.033 C 
HETATM   12  C1  UNL     1      -8.407  32.551  33.076  1.00  0.00     0.036 C 
ENDBRANCH   9  10
ENDBRANCH   1   9
BRANCH   3  13
HETATM   13  O1  UNL     1      -5.714  36.160  27.099  1.00  0.00    -0.269 OA
ATOM     14  H1  UNL     1      -5.720  37.029  26.713  1.00  0.00     0.246 HD
ENDBRANCH   3  13
BRANCH   4  15
HETATM   15  N3  UNL     1      -7.778  35.958  25.443  1.00  0.00    -0.232 N 
ATOM     16  H32 UNL     1      -8.569  36.236  24.863  1.00  0.00     0.174 HD
ATOM     17  H31 UNL     1      -6.841  36.042  25.046  1.00  0.00     0.174 HD
ENDBRANCH   4  15
TORSDOF 4
ENDMDL
MODEL 3
REMARK VINA RESULT: -6.115562216      2.196      2.938
REMARK  4 active torsions:
REMARK  status: ('A' for Active; 'I' for Inactive)
REMARK    1  A    between atoms: C3_3  and  C4_4 
REMARK    2  A    between atoms: C4_4  and  N1_5 
REMARK    3  A    between atoms: N2_7  and  O1_8 
REMARK    4  A    between atoms: C6_10  and  N3_11 
ROOT
HETATM    1  N1  UNL     1      -6.521  36.319  27.978  1.00  0.00    -0.327 N 
HETATM    2  C5  UNL     1      -7.005  36.457  29.244  1.00  0.00     0.236 A 
HETATM    3  N2  UNL     1      -8.295  36.263  29.525  1.00  0.00    -0.048 N 
HETATM    4  C6  UNL     1      -9.160  35.925  28.572  1.00  0.00     0.704 A 
HETATM    5  N4  UNL     1      -8.694  35.786  27.318  1.00  0.00    -0.179 N 
ATOM      6  H4  UNL     1      -9.338  35.527  26.570  1.00  0.00     0.185 HD
HETATM    7  C7  UNL     1      -7.395  35.981  27.031  1.00  0.00     0.097 A 
HETATM    8  C8  UNL     1      -6.959  35.808  25.624  1.00  0.00     0.090 C 
ENDROOT
BRANCH   1   9
HETATM    9  C4  UNL     1      -5.121  36.536  27.702  1.00  0.00     0.158 C 
BRANCH   9  10
HETATM   10  C3  UNL     1      -4.459  37.313  28.783  1.00  0.00    -0.011 C 
HETATM   11  C2  UNL     1      -3.164  37.582  28.796  1.00  0.00    -0.033 C 
HETATM   12  C1  UNL     1      -2.223  37.144  27.742  1.00  0.00     0.036 C 
ENDBRANCH   9  10
ENDBRANCH   1   9
BRANCH   3  13
HETATM   13  O1  UNL     1      -8.727  36.416  30.825  1.00  0.00    -0.269 OA
ATOM     14  H1  UNL     1      -9.645  36.602  30.987  1.00  0.00     0.246 HD
ENDBRANCH   3  13
BRANCH   4  15
HETATM   15  N3  UNL     1     -10.396  35.744  28.873  1.00  0.00    -0.232 N 
ATOM     16  H32 UNL     1     -11.135  35.731  28.171  1.00  0.00     0.174 HD
ATOM     17  H31 UNL     1     -10.661  35.606  29.849  1.00  0.00     0.174 HD
ENDBRANCH   4  15
TORSDOF 4
ENDMDL
MODEL 4
REMARK VINA RESULT: -6.066360598      2.401      4.616
REMARK  4 active torsions:
REMARK  status: ('A' for Active; 'I' for Inactive)
REMARK    1  A    between atoms: C3_3  and  C4_4 
REMARK    2  A    between atoms: C4_4  and  N1_5 
REMARK    3  A    between atoms: N2_7  and  O1_8 
REMARK    4  A    between atoms: C6_10  and  N3_11 
ROOT
HETATM    1  N1  UNL     1      -8.356  35.608  28.564  1.00  0.00    -0.327 N 
HETATM    2  C5  UNL     1      -7.809  35.185  27.391  1.00  0.00     0.236 A 
HETATM    3  N2  UNL     1      -6.582  35.555  27.016  1.00  0.00    -0.048 N 
HETATM    4  C6  UNL     1      -5.845  36.356  27.780  1.00  0.00     0.704 A 
HETATM    5  N4  UNL     1      -6.375  36.782  28.942  1.00  0.00    -0.179 N 
ATOM      6  H4  UNL     1      -5.829  37.397  29.545  1.00  0.00     0.185 HD
HETATM    7  C7  UNL     1      -7.610  36.411  29.322  1.00  0.00     0.097 A 
HETATM    8  C8  UNL     1      -8.122  36.922  30.617  1.00  0.00     0.090 C 
ENDROOT
BRANCH   1   9
HETATM    9  C4  UNL     1      -9.685  35.193  28.944  1.00  0.00     0.158 C 
BRANCH   9  10
HETATM   10  C3  UNL     1      -9.859  33.722  28.822  1.00  0.00    -0.011 C 
HETATM   11  C2  UNL     1      -9.283  32.852  29.635  1.00  0.00    -0.033 C 
HETATM   12  C1  UNL     1      -8.399  33.237  30.757  1.00  0.00     0.036 C 
ENDBRANCH   9  10
ENDBRANCH   1   9
BRANCH   3  13
HETATM   13  O1  UNL     1      -6.081  35.093  25.817  1.00  0.00    -0.269 OA
ATOM     14  H1  UNL     1      -5.142  34.975  25.724  1.00  0.00     0.246 HD
ENDBRANCH   3  13
BRANCH   4  15
HETATM   15  N3  UNL     1      -4.667  36.695  27.393  1.00  0.00    -0.232 N 
ATOM     16  H32 UNL     1      -4.067  36.071  26.855  1.00  0.00     0.174 HD
ATOM     17  H31 UNL     1      -4.308  37.621  27.627  1.00  0.00     0.174 HD
ENDBRANCH   4  15
TORSDOF 4
ENDMDL
MODEL 5
REMARK VINA RESULT: -5.944343168      2.653      3.363
REMARK  4 active torsions:
REMARK  status: ('A' for Active; 'I' for Inactive)
REMARK    1  A    between atoms: C3_3  and  C4_4 
REMARK    2  A    between atoms: C4_4  and  N1_5 
REMARK    3  A    between atoms: N2_7  and  O1_8 
REMARK    4  A    between atoms: C6_10  and  N3_11 
ROOT
HETATM    1  N1  UNL     1      -7.195  35.346  27.893  1.00  0.00    -0.327 N 
HETATM    2  C5  UNL     1      -7.233  34.531  28.984  1.00  0.00     0.236 A 
HETATM    3  N2  UNL     1      -8.337  33.860  29.319  1.00  0.00    -0.048 N 
HETATM    4  C6  UNL     1      -9.448  33.964  28.595  1.00  0.00     0.704 A 
HETATM    5  N4  UNL     1      -9.423  34.767  27.515  1.00  0.00    -0.179 N 
ATOM      6  H4  UNL     1     -10.263  34.863  26.943  1.00  0.00     0.185 HD
HETATM    7  C7  UNL     1      -8.312  35.444  27.175  1.00  0.00     0.097 A 
HETATM    8  C8  UNL     1      -8.366  36.307  25.970  1.00  0.00     0.090 C 
ENDROOT
BRANCH   1   9
HETATM    9  C4  UNL     1      -5.987  36.059  27.554  1.00  0.00     0.158 C 
BRANCH   9  10
HETATM   10  C3  UNL     1      -5.589  37.011  28.625  1.00  0.00    -0.011 C 
HETATM   11  C2  UNL     1      -4.335  37.358  28.859  1.00  0.00    -0.033 C 
HETATM   12  C1  UNL     1      -3.182  36.842  28.087  1.00  0.00     0.036 C 
ENDBRANCH   9  10
ENDBRANCH   1   9
BRANCH   3  13
HETATM   13  O1  UNL     1      -8.315  33.049  30.434  1.00  0.00    -0.269 OA
ATOM     14  H1  UNL     1      -8.587  33.408  31.271  1.00  0.00     0.246 HD
ENDBRANCH   3  13
BRANCH   4  15
HETATM   15  N3  UNL     1     -10.496  33.306  28.942  1.00  0.00    -0.232 N 
ATOM     16  H32 UNL     1     -10.881  32.551  28.376  1.00  0.00     0.174 HD
ATOM     17  H31 UNL     1     -10.969  33.538  29.816  1.00  0.00     0.174 HD
ENDBRANCH   4  15
TORSDOF 4
ENDMDL
