MODEL 1
REMARK VINA RESULT: -6.093038465      0.000      0.000
REMARK  5 active torsions:
REMARK  status: ('A' for Active; 'I' for Inactive)
REMARK    1  A    between atoms: N1_2  and  C2_4 
REMARK    2  A    between atoms: C4_8  and  C5_9 
REMARK    3  A    between atoms: C5_9  and  N3_10 
REMARK    4  A    between atoms: N3_10  and  O1_12 
REMARK    5  A    between atoms: C7_14  and  N4_15 
ROOT
HETATM    1  C2  UNL     1      50.475 -27.010  12.105  1.00  0.00     0.679 A 
HETATM    2  N2  UNL     1      49.514 -26.703  11.215  1.00  0.00    -0.201 N 
ATOM      3  H2  UNL     1      48.560 -27.031  11.362  1.00  0.00     0.183 HD
HETATM    4  C3  UNL     1      49.817 -25.953  10.115  1.00  0.00     0.122 A 
HETATM    5  C4  UNL     1      51.073 -25.489   9.874  1.00  0.00     0.041 A 
HETATM    6  C7  UNL     1      52.049 -25.815  10.803  1.00  0.00     0.127 A 
HETATM    7  N5  UNL     1      51.714 -26.555  11.870  1.00  0.00    -0.176 N 
ATOM      8  H5  UNL     1      52.445 -26.786  12.543  1.00  0.00     0.186 HD
ENDROOT
BRANCH   5   9
HETATM    9  C5  UNL     1      51.512 -24.685   8.728  1.00  0.00     0.132 C 
BRANCH   9  10
HETATM   10  N3  UNL     1      50.989 -25.030   7.471  1.00  0.00    -0.276 N 
HETATM   11  C6  UNL     1      51.342 -26.239   6.791  1.00  0.00     0.184 C 
BRANCH  10  12
HETATM   12  O1  UNL     1      50.216 -24.302   6.929  1.00  0.00    -0.288 OA
ATOM     13  H1  UNL     1      49.960 -24.468   6.030  1.00  0.00     0.244 HD
ENDBRANCH  10  12
ENDBRANCH   9  10
ENDBRANCH   5   9
BRANCH   6  14
HETATM   14  N4  UNL     1      53.279 -25.434  10.682  1.00  0.00    -0.384 N 
ATOM     15  H42 UNL     1      53.544 -24.911   9.848  1.00  0.00     0.157 HD
ATOM     16  H41 UNL     1      53.988 -25.636  11.388  1.00  0.00     0.157 HD
ENDBRANCH   6  14
BRANCH   1  17
HETATM   17  N1  UNL     1      50.177 -27.721  13.143  1.00  0.00    -0.230 N 
HETATM   18  C1  UNL     1      49.305 -28.873  13.067  1.00  0.00     0.165 C 
ATOM     19  H1  UNL     1      50.571 -27.461  14.047  1.00  0.00     0.177 HD
ENDBRANCH   1  17
TORSDOF 5
ENDMDL
MODEL 2
REMARK VINA RESULT: -5.934605329      0.780      1.879
REMARK  5 active torsions:
REMARK  status: ('A' for Active; 'I' for Inactive)
REMARK    1  A    between atoms: N1_2  and  C2_4 
REMARK    2  A    between atoms: C4_8  and  C5_9 
REMARK    3  A    between atoms: C5_9  and  N3_10 
REMARK    4  A    between atoms: N3_10  and  O1_12 
REMARK    5  A    between atoms: C7_14  and  N4_15 
ROOT
HETATM    1  C2  UNL     1      50.381 -26.930  12.015  1.00  0.00     0.679 A 
HETATM    2  N2  UNL     1      51.645 -26.500  11.844  1.00  0.00    -0.201 N 
ATOM      3  H2  UNL     1      52.354 -26.711  12.546  1.00  0.00     0.183 HD
HETATM    4  C3  UNL     1      51.976 -25.780  10.732  1.00  0.00     0.122 A 
HETATM    5  C4  UNL     1      51.069 -25.474   9.766  1.00  0.00     0.041 A 
HETATM    6  C7  UNL     1      49.772 -25.926   9.960  1.00  0.00     0.127 A 
HETATM    7  N5  UNL     1      49.484 -26.628  11.066  1.00  0.00    -0.176 N 
ATOM      8  H5  UNL     1      48.526 -26.952  11.192  1.00  0.00     0.186 HD
ENDROOT
BRANCH   5   9
HETATM    9  C5  UNL     1      51.310 -24.705   8.539  1.00  0.00     0.132 C 
BRANCH   9  10
HETATM   10  N3  UNL     1      51.256 -25.409   7.326  1.00  0.00    -0.276 N 
HETATM   11  C6  UNL     1      52.025 -26.592   7.083  1.00  0.00     0.184 C 
BRANCH  10  12
HETATM   12  O1  UNL     1      50.547 -25.026   6.448  1.00  0.00    -0.288 OA
ATOM     13  H1  UNL     1      49.757 -25.508   6.233  1.00  0.00     0.244 HD
ENDBRANCH  10  12
ENDBRANCH   9  10
ENDBRANCH   5   9
BRANCH   6  14
HETATM   14  N4  UNL     1      48.822 -25.696   9.114  1.00  0.00    -0.384 N 
ATOM     15  H42 UNL     1      48.701 -24.744   8.768  1.00  0.00     0.157 HD
ATOM     16  H41 UNL     1      48.194 -26.428   8.782  1.00  0.00     0.157 HD
ENDBRANCH   6  14
BRANCH   1  17
HETATM   17  N1  UNL     1      50.078 -27.609  13.072  1.00  0.00    -0.230 N 
HETATM   18  C1  UNL     1      49.304 -28.830  13.011  1.00  0.00     0.165 C 
ATOM     19  H1  UNL     1      50.396 -27.273  13.980  1.00  0.00     0.177 HD
ENDBRANCH   1  17
TORSDOF 5
ENDMDL
MODEL 3
REMARK VINA RESULT: -5.899574292      2.575      4.542
REMARK  5 active torsions:
REMARK  status: ('A' for Active; 'I' for Inactive)
REMARK    1  A    between atoms: N1_2  and  C2_4 
REMARK    2  A    between atoms: C4_8  and  C5_9 
REMARK    3  A    between atoms: C5_9  and  N3_10 
REMARK    4  A    between atoms: N3_10  and  O1_12 
REMARK    5  A    between atoms: C7_14  and  N4_15 
ROOT
HETATM    1  C2  UNL     1      53.956 -27.007   8.541  1.00  0.00     0.679 A 
HETATM    2  N2  UNL     1      53.776 -26.206   9.607  1.00  0.00    -0.201 N 
ATOM      3  H2  UNL     1      54.534 -26.070  10.276  1.00  0.00     0.183 HD
HETATM    4  C3  UNL     1      52.579 -25.576   9.793  1.00  0.00     0.122 A 
HETATM    5  C4  UNL     1      51.537 -25.723   8.929  1.00  0.00     0.041 A 
HETATM    6  C7  UNL     1      51.743 -26.551   7.837  1.00  0.00     0.127 A 
HETATM    7  N5  UNL     1      52.932 -27.154   7.689  1.00  0.00    -0.176 N 
ATOM      8  H5  UNL     1      53.065 -27.761   6.880  1.00  0.00     0.186 HD
ENDROOT
BRANCH   5   9
HETATM    9  C5  UNL     1      50.211 -25.104   9.033  1.00  0.00     0.132 C 
BRANCH   9  10
HETATM   10  N3  UNL     1      49.656 -25.000  10.319  1.00  0.00    -0.276 N 
HETATM   11  C6  UNL     1      49.036 -26.106  10.985  1.00  0.00     0.184 C 
BRANCH  10  12
HETATM   12  O1  UNL     1      49.691 -23.960  10.899  1.00  0.00    -0.288 OA
ATOM     13  H1  UNL     1      49.105 -23.257  10.646  1.00  0.00     0.244 HD
ENDBRANCH  10  12
ENDBRANCH   9  10
ENDBRANCH   5   9
BRANCH   6  14
HETATM   14  N4  UNL     1      50.829 -26.770   6.949  1.00  0.00    -0.384 N 
ATOM     15  H42 UNL     1      49.852 -26.659   7.221  1.00  0.00     0.157 HD
ATOM     16  H41 UNL     1      51.049 -27.047   5.992  1.00  0.00     0.157 HD
ENDBRANCH   6  14
BRANCH   1  17
HETATM   17  N1  UNL     1      55.093 -27.599   8.375  1.00  0.00    -0.230 N 
HETATM   18  C1  UNL     1      55.228 -28.812   7.599  1.00  0.00     0.165 C 
ATOM     19  H1  UNL     1      55.925 -27.196   8.806  1.00  0.00     0.177 HD
ENDBRANCH   1  17
TORSDOF 5
ENDMDL
MODEL 4
REMARK VINA RESULT: -5.865488524      1.448      1.606
REMARK  5 active torsions:
REMARK  status: ('A' for Active; 'I' for Inactive)
REMARK    1  A    between atoms: N1_2  and  C2_4 
REMARK    2  A    between atoms: C4_8  and  C5_9 
REMARK    3  A    between atoms: C5_9  and  N3_10 
REMARK    4  A    between atoms: N3_10  and  O1_12 
REMARK    5  A    between atoms: C7_14  and  N4_15 
ROOT
HETATM    1  C2  UNL     1      49.470 -27.410  11.603  1.00  0.00     0.679 A 
HETATM    2  N2  UNL     1      50.232 -28.067  10.710  1.00  0.00    -0.201 N 
ATOM      3  H2  UNL     1      50.296 -29.084  10.745  1.00  0.00     0.183 HD
HETATM    4  C3  UNL     1      50.918 -27.372   9.756  1.00  0.00     0.122 A 
HETATM    5  C4  UNL     1      50.865 -26.015   9.664  1.00  0.00     0.041 A 
HETATM    6  C7  UNL     1      50.074 -25.357  10.594  1.00  0.00     0.127 A 
HETATM    7  N5  UNL     1      49.416 -26.074  11.516  1.00  0.00    -0.176 N 
ATOM      8  H5  UNL     1      48.840 -25.572  12.192  1.00  0.00     0.186 HD
ENDROOT
BRANCH   5   9
HETATM    9  C5  UNL     1      51.563 -25.168   8.690  1.00  0.00     0.132 C 
BRANCH   9  10
HETATM   10  N3  UNL     1      51.052 -25.151   7.382  1.00  0.00    -0.276 N 
HETATM   11  C6  UNL     1      51.363 -26.162   6.417  1.00  0.00     0.184 C 
BRANCH  10  12
HETATM   12  O1  UNL     1      50.329 -24.269   7.038  1.00  0.00    -0.288 OA
ATOM     13  H1  UNL     1      50.358 -23.954   6.142  1.00  0.00     0.244 HD
ENDBRANCH  10  12
ENDBRANCH   9  10
ENDBRANCH   5   9
BRANCH   6  14
HETATM   14  N4  UNL     1      49.945 -24.070  10.609  1.00  0.00    -0.384 N 
ATOM     15  H42 UNL     1      50.337 -23.535   9.834  1.00  0.00     0.157 HD
ATOM     16  H41 UNL     1      49.468 -23.576  11.363  1.00  0.00     0.157 HD
ENDBRANCH   6  14
BRANCH   1  17
HETATM   17  N1  UNL     1      48.825 -28.078  12.503  1.00  0.00    -0.230 N 
HETATM   18  C1  UNL     1      49.489 -28.969  13.429  1.00  0.00     0.165 C 
ATOM     19  H1  UNL     1      47.813 -27.974  12.560  1.00  0.00     0.177 HD
ENDBRANCH   1  17
TORSDOF 5
ENDMDL
MODEL 5
REMARK VINA RESULT: -5.542934403      1.695      2.355
REMARK  5 active torsions:
REMARK  status: ('A' for Active; 'I' for Inactive)
REMARK    1  A    between atoms: N1_2  and  C2_4 
REMARK    2  A    between atoms: C4_8  and  C5_9 
REMARK    3  A    between atoms: C5_9  and  N3_10 
REMARK    4  A    between atoms: N3_10  and  O1_12 
REMARK    5  A    between atoms: C7_14  and  N4_15 
ROOT
HETATM    1  C2  UNL     1      49.737 -27.259  11.761  1.00  0.00     0.679 A 
HETATM    2  N2  UNL     1      50.965 -26.794  12.054  1.00  0.00    -0.201 N 
ATOM      3  H2  UNL     1      51.310 -26.835  13.013  1.00  0.00     0.183 HD
HETATM    4  C3  UNL     1      51.749 -26.268  11.067  1.00  0.00     0.122 A 
HETATM    5  C4  UNL     1      51.337 -26.193   9.773  1.00  0.00     0.041 A 
HETATM    6  C7  UNL     1      50.069 -26.678   9.491  1.00  0.00     0.127 A 
HETATM    7  N5  UNL     1      49.328 -27.186  10.487  1.00  0.00    -0.176 N 
ATOM      8  H5  UNL     1      48.397 -27.536  10.261  1.00  0.00     0.186 HD
ENDROOT
BRANCH   5   9
HETATM    9  C5  UNL     1      52.088 -25.644   8.638  1.00  0.00     0.132 C 
BRANCH   9  10
HETATM   10  N3  UNL     1      52.700 -26.567   7.774  1.00  0.00    -0.276 N 
HETATM   11  C6  UNL     1      53.850 -27.333   8.149  1.00  0.00     0.184 C 
BRANCH  10  12
HETATM   12  O1  UNL     1      52.262 -26.737   6.679  1.00  0.00    -0.288 OA
ATOM     13  H1  UNL     1      52.841 -26.995   5.972  1.00  0.00     0.244 HD
ENDBRANCH  10  12
ENDBRANCH   9  10
ENDBRANCH   5   9
BRANCH   6  14
HETATM   14  N4  UNL     1      49.567 -26.659   8.300  1.00  0.00    -0.384 N 
ATOM     15  H42 UNL     1      48.933 -25.899   8.053  1.00  0.00     0.157 HD
ATOM     16  H41 UNL     1      49.781 -27.372   7.603  1.00  0.00     0.157 HD
ENDBRANCH   6  14
BRANCH   1  17
HETATM   17  N1  UNL     1      49.003 -27.755  12.703  1.00  0.00    -0.230 N 
HETATM   18  C1  UNL     1      49.380 -28.945  13.433  1.00  0.00     0.165 C 
ATOM     19  H1  UNL     1      48.127 -27.290  12.939  1.00  0.00     0.177 HD
ENDBRANCH   1  17
TORSDOF 5
ENDMDL
