MODEL 1
REMARK VINA RESULT: -7.051301659      0.000      0.000
REMARK  3 active torsions:
REMARK  status: ('A' for Active; 'I' for Inactive)
REMARK    1  A    between atoms: N2_7  and  C5_9 
REMARK    2  A    between atoms: C5_9  and  C6_10 
REMARK    3  A    between atoms: N3_11  and  C7_13 
ROOT
HETATM    1  C1  UNL     1      49.071 -28.908  13.062  1.00  0.00     0.070 C 
HETATM    2  C2  UNL     1      49.966 -27.980  12.322  1.00  0.00     0.024 A 
HETATM    3  C3  UNL     1      49.959 -27.891  10.947  1.00  0.00     0.114 A 
HETATM    4  N1  UNL     1      50.789 -27.034  10.311  1.00  0.00    -0.346 N 
ATOM      5  H1  UNL     1      50.755 -26.995   9.292  1.00  0.00     0.167 HD
HETATM    6  C4  UNL     1      51.656 -26.231  10.948  1.00  0.00     0.171 A 
HETATM    7  N2  UNL     1      52.454 -25.409  10.354  1.00  0.00    -0.367 N 
ATOM      8  H2  UNL     1      53.085 -24.830  10.910  1.00  0.00     0.161 HD
HETATM    9  C8  UNL     1      51.653 -26.331  12.345  1.00  0.00     0.289 A 
HETATM   10  O1  UNL     1      52.465 -25.580  12.952  1.00  0.00    -0.264 OA
HETATM   11  N5  UNL     1      50.829 -27.181  12.974  1.00  0.00    -0.323 N 
ATOM     12  H5  UNL     1      50.857 -27.223  13.993  1.00  0.00     0.169 HD
ENDROOT
BRANCH   7  13
HETATM   13  C5  UNL     1      52.465 -25.297   8.934  1.00  0.00     0.165 C 
BRANCH  13  14
HETATM   14  C6  UNL     1      51.270 -24.531   8.506  1.00  0.00     0.081 C 
HETATM   15  N3  UNL     1      50.729 -24.778   7.372  1.00  0.00    -0.365 N 
ATOM     16  H3  UNL     1      49.906 -24.257   7.069  1.00  0.00     0.165 HD
BRANCH  15  17
HETATM   17  C7  UNL     1      51.284 -25.780   6.546  1.00  0.00     0.172 C 
HETATM   18  N4  UNL     1      50.725 -26.931   6.484  1.00  0.00    -0.395 N 
ATOM     19  H42 UNL     1      49.885 -27.107   7.035  1.00  0.00     0.156 HD
ATOM     20  H41 UNL     1      51.126 -27.654   5.887  1.00  0.00     0.156 HD
ENDBRANCH  15  17
ENDBRANCH  13  14
ENDBRANCH   7  13
TORSDOF 3
ENDMDL
MODEL 2
REMARK VINA RESULT: -6.115410384      2.251      2.632
REMARK  3 active torsions:
REMARK  status: ('A' for Active; 'I' for Inactive)
REMARK    1  A    between atoms: N2_7  and  C5_9 
REMARK    2  A    between atoms: C5_9  and  C6_10 
REMARK    3  A    between atoms: N3_11  and  C7_13 
ROOT
HETATM    1  C1  UNL     1      49.904 -28.180  13.585  1.00  0.00     0.070 C 
HETATM    2  C2  UNL     1      49.889 -27.384  12.330  1.00  0.00     0.024 A 
HETATM    3  C3  UNL     1      51.043 -27.070  11.644  1.00  0.00     0.114 A 
HETATM    4  N1  UNL     1      50.987 -26.343  10.505  1.00  0.00    -0.346 N 
ATOM      5  H1  UNL     1      51.862 -26.130  10.025  1.00  0.00     0.167 HD
HETATM    6  C4  UNL     1      49.842 -25.886   9.972  1.00  0.00     0.171 A 
HETATM    7  N2  UNL     1      49.774 -25.191   8.887  1.00  0.00    -0.367 N 
ATOM      8  H2  UNL     1      48.865 -24.880   8.545  1.00  0.00     0.161 HD
HETATM    9  C8  UNL     1      48.678 -26.212  10.678  1.00  0.00     0.289 A 
HETATM   10  O1  UNL     1      47.598 -25.787  10.184  1.00  0.00    -0.264 OA
HETATM   11  N5  UNL     1      48.735 -26.934  11.808  1.00  0.00    -0.323 N 
ATOM     12  H5  UNL     1      47.864 -27.151  12.292  1.00  0.00     0.169 HD
ENDROOT
BRANCH   7  13
HETATM   13  C5  UNL     1      50.952 -24.853   8.160  1.00  0.00     0.165 C 
BRANCH  13  14
HETATM   14  C6  UNL     1      51.040 -25.725   6.963  1.00  0.00     0.081 C 
HETATM   15  N3  UNL     1      51.940 -26.633   6.902  1.00  0.00    -0.365 N 
ATOM     16  H3  UNL     1      52.008 -27.238   6.084  1.00  0.00     0.165 HD
BRANCH  15  17
HETATM   17  C7  UNL     1      52.837 -26.790   7.982  1.00  0.00     0.172 C 
HETATM   18  N4  UNL     1      53.860 -27.549   7.850  1.00  0.00    -0.395 N 
ATOM     19  H42 UNL     1      54.012 -28.031   6.964  1.00  0.00     0.156 HD
ATOM     20  H41 UNL     1      54.507 -27.662   8.630  1.00  0.00     0.156 HD
ENDBRANCH  15  17
ENDBRANCH  13  14
ENDBRANCH   7  13
TORSDOF 3
ENDMDL
MODEL 3
REMARK VINA RESULT: -6.038754478      2.369      5.919
REMARK  3 active torsions:
REMARK  status: ('A' for Active; 'I' for Inactive)
REMARK    1  A    between atoms: N2_7  and  C5_9 
REMARK    2  A    between atoms: C5_9  and  C6_10 
REMARK    3  A    between atoms: N3_11  and  C7_13 
ROOT
HETATM    1  C1  UNL     1      51.055 -25.520   6.738  1.00  0.00     0.070 C 
HETATM    2  C2  UNL     1      50.685 -25.852   8.139  1.00  0.00     0.024 A 
HETATM    3  C3  UNL     1      51.563 -26.468   9.005  1.00  0.00     0.114 A 
HETATM    4  N1  UNL     1      51.189 -26.753  10.273  1.00  0.00    -0.346 N 
ATOM      5  H1  UNL     1      51.866 -27.208  10.885  1.00  0.00     0.167 HD
HETATM    6  C4  UNL     1      49.974 -26.468  10.769  1.00  0.00     0.171 A 
HETATM    7  N2  UNL     1      49.604 -26.735  11.976  1.00  0.00    -0.367 N 
ATOM      8  H2  UNL     1      48.662 -26.487  12.280  1.00  0.00     0.161 HD
HETATM    9  C8  UNL     1      49.092 -25.843   9.879  1.00  0.00     0.289 A 
HETATM   10  O1  UNL     1      47.949 -25.572  10.338  1.00  0.00    -0.264 OA
HETATM   11  N5  UNL     1      49.465 -25.560   8.622  1.00  0.00    -0.323 N 
ATOM     12  H5  UNL     1      48.793 -25.103   8.006  1.00  0.00     0.169 HD
ENDROOT
BRANCH   7  13
HETATM   13  C5  UNL     1      50.492 -27.370  12.891  1.00  0.00     0.165 C 
BRANCH  13  14
HETATM   14  C6  UNL     1      49.804 -28.541  13.489  1.00  0.00     0.081 C 
HETATM   15  N3  UNL     1      49.928 -28.780  14.740  1.00  0.00    -0.365 N 
ATOM     16  H3  UNL     1      49.459 -29.582  15.161  1.00  0.00     0.165 HD
BRANCH  15  17
HETATM   17  C7  UNL     1      50.721 -27.921  15.533  1.00  0.00     0.172 C 
HETATM   18  N4  UNL     1      51.506 -28.418  16.414  1.00  0.00    -0.395 N 
ATOM     19  H42 UNL     1      51.547 -29.431  16.530  1.00  0.00     0.156 HD
ATOM     20  H41 UNL     1      52.079 -27.798  16.986  1.00  0.00     0.156 HD
ENDBRANCH  15  17
ENDBRANCH  13  14
ENDBRANCH   7  13
TORSDOF 3
ENDMDL
MODEL 4
REMARK VINA RESULT: -5.975999145      4.239      5.380
REMARK  3 active torsions:
REMARK  status: ('A' for Active; 'I' for Inactive)
REMARK    1  A    between atoms: N2_7  and  C5_9 
REMARK    2  A    between atoms: C5_9  and  C6_10 
REMARK    3  A    between atoms: N3_11  and  C7_13 
ROOT
HETATM    1  C1  UNL     1      50.294 -24.473  10.384  1.00  0.00     0.070 C 
HETATM    2  C2  UNL     1      51.241 -25.323   9.615  1.00  0.00     0.024 A 
HETATM    3  C3  UNL     1      52.459 -25.715  10.126  1.00  0.00     0.114 A 
HETATM    4  N1  UNL     1      53.292 -26.489   9.395  1.00  0.00    -0.346 N 
ATOM      5  H1  UNL     1      54.186 -26.760   9.806  1.00  0.00     0.167 HD
HETATM    6  C4  UNL     1      53.007 -26.920   8.155  1.00  0.00     0.171 A 
HETATM    7  N2  UNL     1      53.792 -27.658   7.446  1.00  0.00    -0.367 N 
ATOM      8  H2  UNL     1      53.504 -27.946   6.511  1.00  0.00     0.161 HD
HETATM    9  C8  UNL     1      51.766 -26.515   7.648  1.00  0.00     0.289 A 
HETATM   10  O1  UNL     1      51.490 -26.916   6.484  1.00  0.00    -0.264 OA
HETATM   11  N5  UNL     1      50.941 -25.747   8.375  1.00  0.00    -0.323 N 
ATOM     12  H5  UNL     1      50.045 -25.475   7.970  1.00  0.00     0.169 HD
ENDROOT
BRANCH   7  13
HETATM   13  C5  UNL     1      55.057 -28.077   7.951  1.00  0.00     0.165 C 
BRANCH  13  14
HETATM   14  C6  UNL     1      55.519 -29.249   7.167  1.00  0.00     0.081 C 
HETATM   15  N3  UNL     1      56.769 -29.514   7.097  1.00  0.00    -0.365 N 
ATOM     16  H3  UNL     1      57.097 -30.317   6.561  1.00  0.00     0.165 HD
BRANCH  15  17
HETATM   17  C7  UNL     1      57.690 -28.682   7.770  1.00  0.00     0.172 C 
HETATM   18  N4  UNL     1      58.337 -27.792   7.114  1.00  0.00    -0.395 N 
ATOM     19  H42 UNL     1      58.176 -27.698   6.111  1.00  0.00     0.156 HD
ATOM     20  H41 UNL     1      59.003 -27.191   7.601  1.00  0.00     0.156 HD
ENDBRANCH  15  17
ENDBRANCH  13  14
ENDBRANCH   7  13
TORSDOF 3
ENDMDL
MODEL 5
REMARK VINA RESULT: -5.826456199      2.216      2.558
REMARK  3 active torsions:
REMARK  status: ('A' for Active; 'I' for Inactive)
REMARK    1  A    between atoms: N2_7  and  C5_9 
REMARK    2  A    between atoms: C5_9  and  C6_10 
REMARK    3  A    between atoms: N3_11  and  C7_13 
ROOT
HETATM    1  C1  UNL     1      49.447 -29.016  13.359  1.00  0.00     0.070 C 
HETATM    2  C2  UNL     1      49.465 -28.071  12.212  1.00  0.00     0.024 A 
HETATM    3  C3  UNL     1      50.427 -28.130  11.226  1.00  0.00     0.114 A 
HETATM    4  N1  UNL     1      50.409 -27.252  10.198  1.00  0.00    -0.346 N 
ATOM      5  H1  UNL     1      51.137 -27.325   9.487  1.00  0.00     0.167 HD
HETATM    6  C4  UNL     1      49.484 -26.287  10.063  1.00  0.00     0.171 A 
HETATM    7  N2  UNL     1      49.455 -25.442   9.088  1.00  0.00    -0.367 N 
ATOM      8  H2  UNL     1      48.719 -24.737   9.054  1.00  0.00     0.161 HD
HETATM    9  C8  UNL     1      48.513 -26.239  11.071  1.00  0.00     0.289 A 
HETATM   10  O1  UNL     1      47.641 -25.335  10.951  1.00  0.00    -0.264 OA
HETATM   11  N5  UNL     1      48.532 -27.111  12.089  1.00  0.00    -0.323 N 
ATOM     12  H5  UNL     1      47.807 -27.043  12.803  1.00  0.00     0.169 HD
ENDROOT
BRANCH   7  13
HETATM   13  C5  UNL     1      50.437 -25.481   8.056  1.00  0.00     0.165 C 
BRANCH  13  14
HETATM   14  C6  UNL     1      51.686 -24.860   8.562  1.00  0.00     0.081 C 
HETATM   15  N3  UNL     1      52.777 -25.529   8.554  1.00  0.00    -0.365 N 
ATOM     16  H3  UNL     1      53.641 -25.111   8.899  1.00  0.00     0.165 HD
BRANCH  15  17
HETATM   17  C7  UNL     1      52.773 -26.853   8.061  1.00  0.00     0.172 C 
HETATM   18  N4  UNL     1      53.869 -27.513   8.011  1.00  0.00    -0.395 N 
ATOM     19  H42 UNL     1      54.731 -27.072   8.329  1.00  0.00     0.156 HD
ATOM     20  H41 UNL     1      53.865 -28.469   7.655  1.00  0.00     0.156 HD
ENDBRANCH  15  17
ENDBRANCH  13  14
ENDBRANCH   7  13
TORSDOF 3
ENDMDL
