MODEL 1
REMARK VINA RESULT: -6.102655111      0.000      0.000
REMARK  2 active torsions:
REMARK  status: ('A' for Active; 'I' for Inactive)
REMARK    1  A    between atoms: O1_2  and  C2_3 
REMARK    2  A    between atoms: C2_3  and  C3_4 
ROOT
HETATM    1  C3  UNL     1     -27.942  30.520 -25.598  1.00  0.00     0.109 A 
HETATM    2  N1  UNL     1     -27.841  29.208 -25.815  1.00  0.00    -0.328 N 
ATOM      3  H1  UNL     1     -27.999  28.476 -25.123  1.00  0.00     0.169 HD
HETATM    4  C4  UNL     1     -27.500  29.017 -27.089  1.00  0.00     0.135 A 
HETATM    5  N2  UNL     1     -27.271  27.920 -27.823  1.00  0.00    -0.327 N 
ATOM      6  H2  UNL     1     -27.357  27.008 -27.375  1.00  0.00     0.169 HD
HETATM    7  C5  UNL     1     -26.930  27.971 -29.128  1.00  0.00     0.106 A 
HETATM    8  N3  UNL     1     -26.712  26.886 -29.822  1.00  0.00    -0.385 N 
ATOM      9  H31 UNL     1     -26.454  26.924 -30.807  1.00  0.00     0.157 HD
ATOM     10  H32 UNL     1     -26.798  25.972 -29.377  1.00  0.00     0.157 HD
HETATM   11  C6  UNL     1     -26.815  29.200 -29.725  1.00  0.00    -0.016 A 
HETATM   12  C7  UNL     1     -26.444  29.327 -31.160  1.00  0.00     0.052 C 
HETATM   13  C8  UNL     1     -27.041  30.364 -29.018  1.00  0.00     0.044 A 
HETATM   14  C9  UNL     1     -27.391  30.258 -27.668  1.00  0.00     0.080 A 
HETATM   15  N4  UNL     1     -27.665  31.163 -26.739  1.00  0.00    -0.336 N 
HETATM   16  C10 UNL     1     -27.647  32.595 -26.995  1.00  0.00     0.158 C 
ENDROOT
BRANCH   1  17
HETATM   17  C2  UNL     1     -28.302  31.200 -24.314  1.00  0.00     0.243 C 
BRANCH  17  18
HETATM   18  O1  UNL     1     -29.650  31.213 -24.071  1.00  0.00    -0.389 OA
HETATM   19  C1  UNL     1     -30.438  31.445 -25.169  1.00  0.00     0.202 C 
ENDBRANCH  17  18
ENDBRANCH   1  17
TORSDOF 2
ENDMDL
MODEL 2
REMARK VINA RESULT: -5.835072141      3.265      6.155
REMARK  2 active torsions:
REMARK  status: ('A' for Active; 'I' for Inactive)
REMARK    1  A    between atoms: O1_2  and  C2_3 
REMARK    2  A    between atoms: C2_3  and  C3_4 
ROOT
HETATM    1  C3  UNL     1     -26.545  29.031 -31.136  1.00  0.00     0.109 A 
HETATM    2  N1  UNL     1     -26.741  30.347 -31.212  1.00  0.00    -0.328 N 
ATOM      3  H1  UNL     1     -26.612  30.922 -32.044  1.00  0.00     0.169 HD
HETATM    4  C4  UNL     1     -27.134  30.785 -30.016  1.00  0.00     0.135 A 
HETATM    5  N2  UNL     1     -27.459  31.995 -29.543  1.00  0.00    -0.327 N 
ATOM      6  H2  UNL     1     -27.420  32.793 -30.177  1.00  0.00     0.169 HD
HETATM    7  C5  UNL     1     -27.837  32.204 -28.264  1.00  0.00     0.106 A 
HETATM    8  N3  UNL     1     -28.150  33.395 -27.828  1.00  0.00    -0.385 N 
ATOM      9  H31 UNL     1     -28.436  33.552 -26.862  1.00  0.00     0.157 HD
ATOM     10  H32 UNL     1     -28.112  34.194 -28.460  1.00  0.00     0.157 HD
HETATM   11  C6  UNL     1     -27.889  31.128 -27.415  1.00  0.00    -0.016 A 
HETATM   12  C7  UNL     1     -28.298  31.288 -25.993  1.00  0.00     0.052 C 
HETATM   13  C8  UNL     1     -27.565  29.858 -27.848  1.00  0.00     0.044 A 
HETATM   14  C9  UNL     1     -27.179  29.694 -29.182  1.00  0.00     0.080 A 
HETATM   15  N4  UNL     1     -26.815  28.631 -29.887  1.00  0.00    -0.336 N 
HETATM   16  C10 UNL     1     -26.747  27.291 -29.325  1.00  0.00     0.158 C 
ENDROOT
BRANCH   1  17
HETATM   17  C2  UNL     1     -26.100  28.116 -32.233  1.00  0.00     0.243 C 
BRANCH  17  18
HETATM   18  O1  UNL     1     -25.744  28.782 -33.377  1.00  0.00    -0.389 OA
HETATM   19  C1  UNL     1     -24.430  28.648 -33.744  1.00  0.00     0.202 C 
ENDBRANCH  17  18
ENDBRANCH   1  17
TORSDOF 2
ENDMDL
MODEL 3
REMARK VINA RESULT: -5.822856702      0.745      1.122
REMARK  2 active torsions:
REMARK  status: ('A' for Active; 'I' for Inactive)
REMARK    1  A    between atoms: O1_2  and  C2_3 
REMARK    2  A    between atoms: C2_3  and  C3_4 
ROOT
HETATM    1  C3  UNL     1     -28.715  30.723 -26.072  1.00  0.00     0.109 A 
HETATM    2  N1  UNL     1     -28.486  29.415 -26.190  1.00  0.00    -0.328 N 
ATOM      3  H1  UNL     1     -28.692  28.708 -25.485  1.00  0.00     0.169 HD
HETATM    4  C4  UNL     1     -27.944  29.188 -27.386  1.00  0.00     0.135 A 
HETATM    5  N2  UNL     1     -27.526  28.078 -28.008  1.00  0.00    -0.327 N 
ATOM      6  H2  UNL     1     -27.612  27.185 -27.522  1.00  0.00     0.169 HD
HETATM    7  C5  UNL     1     -26.997  28.091 -29.250  1.00  0.00     0.106 A 
HETATM    8  N3  UNL     1     -26.597  26.993 -29.835  1.00  0.00    -0.385 N 
ATOM      9  H31 UNL     1     -26.197  27.002 -30.773  1.00  0.00     0.157 HD
ATOM     10  H32 UNL     1     -26.682  26.099 -29.352  1.00  0.00     0.157 HD
HETATM   11  C6  UNL     1     -26.885  29.293 -29.899  1.00  0.00    -0.016 A 
HETATM   12  C7  UNL     1     -26.311  29.378 -31.270  1.00  0.00     0.052 C 
HETATM   13  C8  UNL     1     -27.299  30.469 -29.307  1.00  0.00     0.044 A 
HETATM   14  C9  UNL     1     -27.840  30.403 -28.018  1.00  0.00     0.080 A 
HETATM   15  N4  UNL     1     -28.317  31.328 -27.198  1.00  0.00    -0.336 N 
HETATM   16  C10 UNL     1     -28.366  32.742 -27.537  1.00  0.00     0.158 C 
ENDROOT
BRANCH   1  17
HETATM   17  C2  UNL     1     -29.313  31.436 -24.900  1.00  0.00     0.243 C 
BRANCH  17  18
HETATM   18  O1  UNL     1     -28.497  31.442 -23.799  1.00  0.00    -0.389 OA
HETATM   19  C1  UNL     1     -27.158  31.564 -24.068  1.00  0.00     0.202 C 
ENDBRANCH  17  18
ENDBRANCH   1  17
TORSDOF 2
ENDMDL
MODEL 4
REMARK VINA RESULT: -5.786490221      3.054      5.505
REMARK  2 active torsions:
REMARK  status: ('A' for Active; 'I' for Inactive)
REMARK    1  A    between atoms: O1_2  and  C2_3 
REMARK    2  A    between atoms: C2_3  and  C3_4 
ROOT
HETATM    1  C3  UNL     1     -27.446  31.678 -26.999  1.00  0.00     0.109 A 
HETATM    2  N1  UNL     1     -28.046  32.577 -27.780  1.00  0.00    -0.328 N 
ATOM      3  H1  UNL     1     -27.584  33.171 -28.469  1.00  0.00     0.169 HD
HETATM    4  C4  UNL     1     -29.350  32.568 -27.507  1.00  0.00     0.135 A 
HETATM    5  N2  UNL     1     -30.392  33.258 -27.989  1.00  0.00    -0.327 N 
ATOM      6  H2  UNL     1     -30.224  33.952 -28.717  1.00  0.00     0.169 HD
HETATM    7  C5  UNL     1     -31.656  33.075 -27.550  1.00  0.00     0.106 A 
HETATM    8  N3  UNL     1     -32.656  33.761 -28.036  1.00  0.00    -0.385 N 
ATOM      9  H31 UNL     1     -33.610  33.624 -27.705  1.00  0.00     0.157 HD
ATOM     10  H32 UNL     1     -32.490  34.455 -28.765  1.00  0.00     0.157 HD
HETATM   11  C6  UNL     1     -31.878  32.141 -26.571  1.00  0.00    -0.016 A 
HETATM   12  C7  UNL     1     -33.247  31.890 -26.043  1.00  0.00     0.052 C 
HETATM   13  C8  UNL     1     -30.842  31.401 -26.039  1.00  0.00     0.044 A 
HETATM   14  C9  UNL     1     -29.551  31.629 -26.526  1.00  0.00     0.080 A 
HETATM   15  N4  UNL     1     -28.374  31.096 -26.230  1.00  0.00    -0.336 N 
HETATM   16  C10 UNL     1     -28.202  30.058 -25.225  1.00  0.00     0.158 C 
ENDROOT
BRANCH   1  17
HETATM   17  C2  UNL     1     -25.988  31.343 -26.958  1.00  0.00     0.243 C 
BRANCH  17  18
HETATM   18  O1  UNL     1     -25.677  30.206 -27.656  1.00  0.00    -0.389 OA
HETATM   19  C1  UNL     1     -25.111  29.203 -26.911  1.00  0.00     0.202 C 
ENDBRANCH  17  18
ENDBRANCH   1  17
TORSDOF 2
ENDMDL
MODEL 5
REMARK VINA RESULT: -5.465317677      3.126      5.254
REMARK  2 active torsions:
REMARK  status: ('A' for Active; 'I' for Inactive)
REMARK    1  A    between atoms: O1_2  and  C2_3 
REMARK    2  A    between atoms: C2_3  and  C3_4 
ROOT
HETATM    1  C3  UNL     1     -27.867  31.428 -26.548  1.00  0.00     0.109 A 
HETATM    2  N1  UNL     1     -28.833  30.982 -25.744  1.00  0.00    -0.328 N 
ATOM      3  H1  UNL     1     -28.705  30.357 -24.948  1.00  0.00     0.169 HD
HETATM    4  C4  UNL     1     -29.993  31.493 -26.155  1.00  0.00     0.135 A 
HETATM    5  N2  UNL     1     -31.254  31.375 -25.718  1.00  0.00    -0.327 N 
ATOM      6  H2  UNL     1     -31.435  30.787 -24.904  1.00  0.00     0.169 HD
HETATM    7  C5  UNL     1     -32.294  32.001 -26.308  1.00  0.00     0.106 A 
HETATM    8  N3  UNL     1     -33.515  31.870 -25.862  1.00  0.00    -0.385 N 
ATOM      9  H31 UNL     1     -34.301  32.342 -26.308  1.00  0.00     0.157 HD
ATOM     10  H32 UNL     1     -33.699  31.283 -25.048  1.00  0.00     0.157 HD
HETATM   11  C6  UNL     1     -32.046  32.790 -27.402  1.00  0.00    -0.016 A 
HETATM   12  C7  UNL     1     -33.147  33.508 -28.099  1.00  0.00     0.052 C 
HETATM   13  C8  UNL     1     -30.767  32.948 -27.895  1.00  0.00     0.044 A 
HETATM   14  C9  UNL     1     -29.723  32.278 -27.249  1.00  0.00     0.080 A 
HETATM   15  N4  UNL     1     -28.417  32.225 -27.472  1.00  0.00    -0.336 N 
HETATM   16  C10 UNL     1     -27.767  32.941 -28.559  1.00  0.00     0.158 C 
ENDROOT
BRANCH   1  17
HETATM   17  C2  UNL     1     -26.406  31.117 -26.466  1.00  0.00     0.243 C 
BRANCH  17  18
HETATM   18  O1  UNL     1     -25.977  30.279 -27.462  1.00  0.00    -0.389 OA
HETATM   19  C1  UNL     1     -25.296  29.169 -27.035  1.00  0.00     0.202 C 
ENDBRANCH  17  18
ENDBRANCH   1  17
TORSDOF 2
ENDMDL
