MODEL 1
REMARK VINA RESULT: -7.602577257      0.000      0.000
REMARK  4 active torsions:
REMARK  status: ('A' for Active; 'I' for Inactive)
REMARK    1  A    between atoms: C4_7  and  N3_8 
REMARK    2  A    between atoms: N3_8  and  N4_10 
REMARK    3  A    between atoms: N4_10  and  C5_12 
REMARK    4  A    between atoms: N5_17  and  N6_18 
ROOT
HETATM    1  N4  UNL     1     -28.626  31.109 -24.756  1.00  0.00    -0.282 N 
ATOM      2  H4  UNL     1     -28.431  31.662 -23.921  1.00  0.00     0.188 HD
ENDROOT
BRANCH   1   3
HETATM    3  N3  UNL     1     -28.172  29.791 -24.851  1.00  0.00    -0.283 N 
ATOM      4  H3  UNL     1     -28.574  29.075 -24.247  1.00  0.00     0.188 HD
BRANCH   3   5
HETATM    5  C4  UNL     1     -27.244  29.468 -25.697  1.00  0.00     0.135 A 
HETATM    6  N2  UNL     1     -25.960  29.738 -25.392  1.00  0.00    -0.349 N 
HETATM    7  C3  UNL     1     -25.016  29.390 -26.292  1.00  0.00     0.107 A 
ATOM      8  H2  UNL     1     -25.711  30.188 -24.511  1.00  0.00     0.167 HD
HETATM    9  C2  UNL     1     -25.342  28.783 -27.481  1.00  0.00     0.107 A 
HETATM   10  N1  UNL     1     -26.633  28.533 -27.745  1.00  0.00    -0.366 N 
HETATM   11  C1  UNL     1     -27.037  27.887 -28.999  1.00  0.00     0.155 C 
HETATM   12  C10 UNL     1     -27.604  28.862 -26.877  1.00  0.00     0.139 A 
ENDBRANCH   3   5
ENDBRANCH   1   3
BRANCH   1  13
HETATM   13  C5  UNL     1     -29.357  31.669 -25.823  1.00  0.00     0.140 A 
HETATM   14  C6  UNL     1     -30.716  31.472 -25.910  1.00  0.00     0.052 A 
HETATM   15  C7  UNL     1     -31.454  32.011 -26.947  1.00  0.00     0.005 A 
HETATM   16  C8  UNL     1     -30.758  32.750 -27.880  1.00  0.00     0.019 A 
HETATM   17  C9  UNL     1     -29.395  32.933 -27.770  1.00  0.00     0.118 A 
HETATM   18  N5  UNL     1     -28.686  32.404 -26.757  1.00  0.00    -0.257 N 
BRANCH  18  19
HETATM   19  N6  UNL     1     -27.306  32.603 -26.666  1.00  0.00    -0.337 N 
ATOM     20  H62 UNL     1     -26.891  33.032 -25.839  1.00  0.00     0.177 HD
ATOM     21  H61 UNL     1     -26.681  32.322 -27.422  1.00  0.00     0.177 HD
ENDBRANCH  18  19
ENDBRANCH   1  13
TORSDOF 4
ENDMDL
MODEL 2
REMARK VINA RESULT: -7.357263570      0.896      4.805
REMARK  4 active torsions:
REMARK  status: ('A' for Active; 'I' for Inactive)
REMARK    1  A    between atoms: C4_7  and  N3_8 
REMARK    2  A    between atoms: N3_8  and  N4_10 
REMARK    3  A    between atoms: N4_10  and  C5_12 
REMARK    4  A    between atoms: N5_17  and  N6_18 
ROOT
HETATM    1  N4  UNL     1     -28.418  29.699 -25.092  1.00  0.00    -0.282 N 
ATOM      2  H4  UNL     1     -28.741  28.992 -24.431  1.00  0.00     0.188 HD
ENDROOT
BRANCH   1   3
HETATM    3  N3  UNL     1     -28.831  31.027 -24.961  1.00  0.00    -0.283 N 
ATOM      4  H3  UNL     1     -28.709  31.507 -24.069  1.00  0.00     0.188 HD
BRANCH   3   5
HETATM    5  C4  UNL     1     -29.367  31.657 -25.959  1.00  0.00     0.135 A 
HETATM    6  N2  UNL     1     -28.573  32.358 -26.791  1.00  0.00    -0.349 N 
HETATM    7  C3  UNL     1     -29.160  33.003 -27.821  1.00  0.00     0.107 A 
ATOM      8  H2  UNL     1     -27.564  32.400 -26.647  1.00  0.00     0.167 HD
HETATM    9  C2  UNL     1     -30.518  32.953 -28.024  1.00  0.00     0.107 A 
HETATM   10  N1  UNL     1     -31.272  32.244 -27.172  1.00  0.00    -0.366 N 
HETATM   11  C1  UNL     1     -32.727  32.157 -27.342  1.00  0.00     0.155 C 
HETATM   12  C10 UNL     1     -30.729  31.587 -26.133  1.00  0.00     0.139 A 
ENDBRANCH   3   5
ENDBRANCH   1   3
BRANCH   1  13
HETATM   13  C5  UNL     1     -27.551  29.343 -26.145  1.00  0.00     0.140 A 
HETATM   14  C6  UNL     1     -28.059  28.843 -27.321  1.00  0.00     0.052 A 
HETATM   15  C7  UNL     1     -27.229  28.487 -28.368  1.00  0.00     0.005 A 
HETATM   16  C8  UNL     1     -25.876  28.661 -28.168  1.00  0.00     0.019 A 
HETATM   17  C9  UNL     1     -25.391  29.166 -26.979  1.00  0.00     0.118 A 
HETATM   18  N5  UNL     1     -26.207  29.508 -25.967  1.00  0.00    -0.257 N 
BRANCH  18  19
HETATM   19  N6  UNL     1     -25.694  30.017 -24.770  1.00  0.00    -0.337 N 
ATOM     20  H62 UNL     1     -25.735  29.472 -23.909  1.00  0.00     0.177 HD
ATOM     21  H61 UNL     1     -25.267  30.942 -24.731  1.00  0.00     0.177 HD
ENDBRANCH  18  19
ENDBRANCH   1  13
TORSDOF 4
ENDMDL
MODEL 3
REMARK VINA RESULT: -7.255314480      1.298      2.273
REMARK  4 active torsions:
REMARK  status: ('A' for Active; 'I' for Inactive)
REMARK    1  A    between atoms: C4_7  and  N3_8 
REMARK    2  A    between atoms: N3_8  and  N4_10 
REMARK    3  A    between atoms: N4_10  and  C5_12 
REMARK    4  A    between atoms: N5_17  and  N6_18 
ROOT
HETATM    1  N4  UNL     1     -26.659  32.276 -25.864  1.00  0.00    -0.282 N 
ATOM      2  H4  UNL     1     -26.305  33.131 -25.434  1.00  0.00     0.188 HD
ENDROOT
BRANCH   1   3
HETATM    3  N3  UNL     1     -25.778  31.262 -26.247  1.00  0.00    -0.283 N 
ATOM      4  H3  UNL     1     -24.797  31.319 -25.975  1.00  0.00     0.188 HD
BRANCH   3   5
HETATM    5  C4  UNL     1     -26.192  30.251 -26.944  1.00  0.00     0.135 A 
HETATM    6  N2  UNL     1     -26.548  29.120 -26.305  1.00  0.00    -0.349 N 
HETATM    7  C3  UNL     1     -26.976  28.083 -27.056  1.00  0.00     0.107 A 
ATOM      8  H2  UNL     1     -26.495  29.050 -25.288  1.00  0.00     0.167 HD
HETATM    9  C2  UNL     1     -27.049  28.168 -28.426  1.00  0.00     0.107 A 
HETATM   10  N1  UNL     1     -26.685  29.312 -29.023  1.00  0.00    -0.366 N 
HETATM   11  C1  UNL     1     -26.745  29.457 -30.482  1.00  0.00     0.155 C 
HETATM   12  C10 UNL     1     -26.254  30.368 -28.312  1.00  0.00     0.139 A 
ENDBRANCH   3   5
ENDBRANCH   1   3
BRANCH   1  13
HETATM   13  C5  UNL     1     -28.043  32.109 -26.077  1.00  0.00     0.140 A 
HETATM   14  C6  UNL     1     -28.618  32.530 -27.253  1.00  0.00     0.052 A 
HETATM   15  C7  UNL     1     -29.973  32.377 -27.485  1.00  0.00     0.005 A 
HETATM   16  C8  UNL     1     -30.706  31.782 -26.480  1.00  0.00     0.019 A 
HETATM   17  C9  UNL     1     -30.105  31.367 -25.310  1.00  0.00     0.118 A 
HETATM   18  N5  UNL     1     -28.786  31.521 -25.094  1.00  0.00    -0.257 N 
BRANCH  18  19
HETATM   19  N6  UNL     1     -28.199  31.094 -23.901  1.00  0.00    -0.337 N 
ATOM     20  H62 UNL     1     -27.412  30.444 -23.907  1.00  0.00     0.177 HD
ATOM     21  H61 UNL     1     -28.541  31.421 -22.997  1.00  0.00     0.177 HD
ENDBRANCH  18  19
ENDBRANCH   1  13
TORSDOF 4
ENDMDL
MODEL 4
REMARK VINA RESULT: -7.034706102      1.479      4.618
REMARK  4 active torsions:
REMARK  status: ('A' for Active; 'I' for Inactive)
REMARK    1  A    between atoms: C4_7  and  N3_8 
REMARK    2  A    between atoms: N3_8  and  N4_10 
REMARK    3  A    between atoms: N4_10  and  C5_12 
REMARK    4  A    between atoms: N5_17  and  N6_18 
ROOT
HETATM    1  N4  UNL     1     -25.528  31.424 -26.665  1.00  0.00    -0.282 N 
ATOM      2  H4  UNL     1     -24.518  31.563 -26.640  1.00  0.00     0.188 HD
ENDROOT
BRANCH   1   3
HETATM    3  N3  UNL     1     -26.381  32.331 -26.030  1.00  0.00    -0.283 N 
ATOM      4  H3  UNL     1     -26.081  33.296 -25.899  1.00  0.00     0.188 HD
BRANCH   3   5
HETATM    5  C4  UNL     1     -27.547  31.959 -25.605  1.00  0.00     0.135 A 
HETATM    6  N2  UNL     1     -27.650  31.406 -24.381  1.00  0.00    -0.349 N 
HETATM    7  C3  UNL     1     -28.878  31.028 -23.965  1.00  0.00     0.107 A 
ATOM      8  H2  UNL     1     -26.829  31.277 -23.790  1.00  0.00     0.167 HD
HETATM    9  C2  UNL     1     -29.990  31.197 -24.754  1.00  0.00     0.107 A 
HETATM   10  N1  UNL     1     -29.843  31.751 -25.967  1.00  0.00    -0.366 N 
HETATM   11  C1  UNL     1     -30.997  31.955 -26.850  1.00  0.00     0.155 C 
HETATM   12  C10 UNL     1     -28.640  32.142 -26.419  1.00  0.00     0.139 A 
ENDBRANCH   3   5
ENDBRANCH   1   3
BRANCH   1  13
HETATM   13  C5  UNL     1     -26.076  30.315 -27.342  1.00  0.00     0.140 A 
HETATM   14  C6  UNL     1     -26.523  30.446 -28.637  1.00  0.00     0.052 A 
HETATM   15  C7  UNL     1     -27.063  29.373 -29.322  1.00  0.00     0.005 A 
HETATM   16  C8  UNL     1     -27.128  28.177 -28.639  1.00  0.00     0.019 A 
HETATM   17  C9  UNL     1     -26.672  28.071 -27.342  1.00  0.00     0.118 A 
HETATM   18  N5  UNL     1     -26.148  29.121 -26.685  1.00  0.00    -0.257 N 
BRANCH  18  19
HETATM   19  N6  UNL     1     -25.694  28.992 -25.370  1.00  0.00    -0.337 N 
ATOM     20  H62 UNL     1     -24.697  29.021 -25.154  1.00  0.00     0.177 HD
ATOM     21  H61 UNL     1     -26.346  28.865 -24.596  1.00  0.00     0.177 HD
ENDBRANCH  18  19
ENDBRANCH   1  13
TORSDOF 4
ENDMDL
MODEL 5
REMARK VINA RESULT: -6.825516372      1.607      4.496
REMARK  4 active torsions:
REMARK  status: ('A' for Active; 'I' for Inactive)
REMARK    1  A    between atoms: C4_7  and  N3_8 
REMARK    2  A    between atoms: N3_8  and  N4_10 
REMARK    3  A    between atoms: N4_10  and  C5_12 
REMARK    4  A    between atoms: N5_17  and  N6_18 
ROOT
HETATM    1  N4  UNL     1     -25.574  31.516 -26.754  1.00  0.00    -0.282 N 
ATOM      2  H4  UNL     1     -24.585  31.740 -26.873  1.00  0.00     0.188 HD
ENDROOT
BRANCH   1   3
HETATM    3  N3  UNL     1     -26.407  32.368 -26.024  1.00  0.00    -0.283 N 
ATOM      4  H3  UNL     1     -26.115  33.329 -25.849  1.00  0.00     0.188 HD
BRANCH   3   5
HETATM    5  C4  UNL     1     -27.547  31.951 -25.568  1.00  0.00     0.135 A 
HETATM    6  N2  UNL     1     -27.590  31.367 -24.356  1.00  0.00    -0.349 N 
HETATM    7  C3  UNL     1     -28.790  30.942 -23.907  1.00  0.00     0.107 A 
ATOM      8  H2  UNL     1     -26.745  31.249 -23.796  1.00  0.00     0.167 HD
HETATM    9  C2  UNL     1     -29.934  31.095 -24.653  1.00  0.00     0.107 A 
HETATM   10  N1  UNL     1     -29.847  31.682 -25.855  1.00  0.00    -0.366 N 
HETATM   11  C1  UNL     1     -31.036  31.871 -26.693  1.00  0.00     0.155 C 
HETATM   12  C10 UNL     1     -28.672  32.119 -26.340  1.00  0.00     0.139 A 
ENDBRANCH   3   5
ENDBRANCH   1   3
BRANCH   1  13
HETATM   13  C5  UNL     1     -26.109  30.344 -27.325  1.00  0.00     0.140 A 
HETATM   14  C6  UNL     1     -26.035  29.148 -26.648  1.00  0.00     0.052 A 
HETATM   15  C7  UNL     1     -26.553  27.985 -27.186  1.00  0.00     0.005 A 
HETATM   16  C8  UNL     1     -27.143  28.091 -28.428  1.00  0.00     0.019 A 
HETATM   17  C9  UNL     1     -27.205  29.301 -29.086  1.00  0.00     0.118 A 
HETATM   18  N5  UNL     1     -26.698  30.427 -28.553  1.00  0.00    -0.257 N 
BRANCH  18  19
HETATM   19  N6  UNL     1     -26.772  31.643 -29.238  1.00  0.00    -0.337 N 
ATOM     20  H62 UNL     1     -26.182  31.824 -30.050  1.00  0.00     0.177 HD
ATOM     21  H61 UNL     1     -27.416  32.377 -28.942  1.00  0.00     0.177 HD
ENDBRANCH  18  19
ENDBRANCH   1  13
TORSDOF 4
ENDMDL
