MODEL 1
REMARK VINA RESULT: -7.068701468      0.000      0.000
REMARK  7 active torsions:
REMARK  status: ('A' for Active; 'I' for Inactive)
REMARK    1  A    between atoms: O1_2  and  C2_3 
REMARK    2  A    between atoms: C2_3  and  C3_4 
REMARK    3  A    between atoms: C4_5  and  C5_6 
REMARK    4  A    between atoms: C6_7  and  C7_8 
REMARK    5  A    between atoms: C7_8  and  N1_9 
REMARK    6  A    between atoms: N1_9  and  C8_11 
REMARK    7  A    between atoms: C11_16  and  N3_17 
ROOT
HETATM    1  C8  UNL     1     -27.284  29.312 -25.810  1.00  0.00     0.118 A 
HETATM    2  C9  UNL     1     -25.951  29.644 -25.719  1.00  0.00     0.066 A 
HETATM    3  C10 UNL     1     -25.075  29.350 -26.720  1.00  0.00     0.110 A 
HETATM    4  N2  UNL     1     -25.506  28.724 -27.823  1.00  0.00    -0.202 N 
ATOM      5  H2  UNL     1     -24.871  28.492 -28.587  1.00  0.00     0.183 HD
HETATM    6  C11 UNL     1     -26.809  28.417 -27.878  1.00  0.00     0.677 A 
HETATM    7  N4  UNL     1     -27.703  28.684 -26.926  1.00  0.00    -0.177 N 
ATOM      8  H4  UNL     1     -28.681  28.418 -27.039  1.00  0.00     0.185 HD
ENDROOT
BRANCH   1   9
HETATM    9  N1  UNL     1     -28.067  29.609 -24.846  1.00  0.00    -0.365 N 
ATOM     10  H1  UNL     1     -28.467  28.874 -24.262  1.00  0.00     0.162 HD
BRANCH   9  11
HETATM   11  C7  UNL     1     -28.380  30.996 -24.591  1.00  0.00     0.216 C 
BRANCH  11  12
HETATM   12  C6  UNL     1     -29.568  31.379 -25.391  1.00  0.00    -0.073 C 
HETATM   13  C5  UNL     1     -30.545  31.694 -26.024  1.00  0.00    -0.013 C 
BRANCH  13  14
HETATM   14  C4  UNL     1     -31.703  32.070 -26.747  1.00  0.00    -0.013 C 
HETATM   15  C3  UNL     1     -32.696  32.406 -27.349  1.00  0.00    -0.066 C 
BRANCH  15  16
HETATM   16  C2  UNL     1     -33.925  32.805 -28.070  1.00  0.00     0.261 C 
BRANCH  16  17
HETATM   17  O1  UNL     1     -34.517  33.898 -27.434  1.00  0.00    -0.384 OA
HETATM   18  C1  UNL     1     -33.659  34.993 -27.386  1.00  0.00     0.202 C 
ENDBRANCH  16  17
ENDBRANCH  15  16
ENDBRANCH  13  14
ENDBRANCH  11  12
ENDBRANCH   9  11
ENDBRANCH   1   9
BRANCH   6  19
HETATM   19  N3  UNL     1     -27.193  27.805 -28.973  1.00  0.00    -0.234 N 
ATOM     20  H32 UNL     1     -27.863  27.038 -28.911  1.00  0.00     0.174 HD
ATOM     21  H31 UNL     1     -26.776  28.155 -29.836  1.00  0.00     0.174 HD
ENDBRANCH   6  19
TORSDOF 7
ENDMDL
MODEL 2
REMARK VINA RESULT: -6.847211732      1.710      1.896
REMARK  7 active torsions:
REMARK  status: ('A' for Active; 'I' for Inactive)
REMARK    1  A    between atoms: O1_2  and  C2_3 
REMARK    2  A    between atoms: C2_3  and  C3_4 
REMARK    3  A    between atoms: C4_5  and  C5_6 
REMARK    4  A    between atoms: C6_7  and  C7_8 
REMARK    5  A    between atoms: C7_8  and  N1_9 
REMARK    6  A    between atoms: N1_9  and  C8_11 
REMARK    7  A    between atoms: C11_16  and  N3_17 
ROOT
HETATM    1  C8  UNL     1     -26.560  30.722 -27.322  1.00  0.00     0.118 A 
HETATM    2  C9  UNL     1     -26.448  29.359 -27.159  1.00  0.00     0.066 A 
HETATM    3  C10 UNL     1     -26.589  28.503 -28.209  1.00  0.00     0.110 A 
HETATM    4  N2  UNL     1     -26.843  28.984 -29.433  1.00  0.00    -0.202 N 
ATOM      5  H2  UNL     1     -26.954  28.364 -30.236  1.00  0.00     0.183 HD
HETATM    6  C11 UNL     1     -26.945  30.314 -29.556  1.00  0.00     0.677 A 
HETATM    7  N4  UNL     1     -26.815  31.190 -28.560  1.00  0.00    -0.177 N 
ATOM      8  H4  UNL     1     -26.905  32.192 -28.730  1.00  0.00     0.185 HD
ENDROOT
BRANCH   1   9
HETATM    9  N1  UNL     1     -26.419  31.485 -26.308  1.00  0.00    -0.365 N 
ATOM     10  H1  UNL     1     -25.638  32.138 -26.257  1.00  0.00     0.162 HD
BRANCH   9  11
HETATM   11  C7  UNL     1     -27.381  31.412 -25.231  1.00  0.00     0.216 C 
BRANCH  11  12
HETATM   12  C6  UNL     1     -28.741  31.621 -25.782  1.00  0.00    -0.073 C 
HETATM   13  C5  UNL     1     -29.843  31.811 -26.233  1.00  0.00    -0.013 C 
BRANCH  13  14
HETATM   14  C4  UNL     1     -31.130  32.057 -26.771  1.00  0.00    -0.013 C 
HETATM   15  C3  UNL     1     -32.222  32.283 -27.239  1.00  0.00    -0.066 C 
BRANCH  15  16
HETATM   16  C2  UNL     1     -33.560  32.579 -27.795  1.00  0.00     0.261 C 
BRANCH  16  17
HETATM   17  O1  UNL     1     -34.124  33.668 -27.128  1.00  0.00    -0.384 OA
HETATM   18  C1  UNL     1     -33.539  34.871 -27.519  1.00  0.00     0.202 C 
ENDBRANCH  16  17
ENDBRANCH  15  16
ENDBRANCH  13  14
ENDBRANCH  11  12
ENDBRANCH   9  11
ENDBRANCH   1   9
BRANCH   6  19
HETATM   19  N3  UNL     1     -27.194  30.746 -30.769  1.00  0.00    -0.234 N 
ATOM     20  H32 UNL     1     -27.868  30.249 -31.351  1.00  0.00     0.174 HD
ATOM     21  H31 UNL     1     -26.674  31.578 -31.050  1.00  0.00     0.174 HD
ENDBRANCH   6  19
TORSDOF 7
ENDMDL
MODEL 3
REMARK VINA RESULT: -6.778281135      1.718      1.917
REMARK  7 active torsions:
REMARK  status: ('A' for Active; 'I' for Inactive)
REMARK    1  A    between atoms: O1_2  and  C2_3 
REMARK    2  A    between atoms: C2_3  and  C3_4 
REMARK    3  A    between atoms: C4_5  and  C5_6 
REMARK    4  A    between atoms: C6_7  and  C7_8 
REMARK    5  A    between atoms: C7_8  and  N1_9 
REMARK    6  A    between atoms: N1_9  and  C8_11 
REMARK    7  A    between atoms: C11_16  and  N3_17 
ROOT
HETATM    1  C8  UNL     1     -26.707  30.886 -27.426  1.00  0.00     0.118 A 
HETATM    2  C9  UNL     1     -26.992  31.698 -28.500  1.00  0.00     0.066 A 
HETATM    3  C10 UNL     1     -27.187  31.186 -29.747  1.00  0.00     0.110 A 
HETATM    4  N2  UNL     1     -27.103  29.864 -29.946  1.00  0.00    -0.202 N 
ATOM      5  H2  UNL     1     -27.244  29.454 -30.871  1.00  0.00     0.183 HD
HETATM    6  C11 UNL     1     -26.825  29.104 -28.879  1.00  0.00     0.677 A 
HETATM    7  N4  UNL     1     -26.626  29.558 -27.642  1.00  0.00    -0.177 N 
ATOM      8  H4  UNL     1     -26.417  28.917 -26.877  1.00  0.00     0.185 HD
ENDROOT
BRANCH   1   9
HETATM    9  N1  UNL     1     -26.531  31.413 -26.276  1.00  0.00    -0.365 N 
ATOM     10  H1  UNL     1     -25.720  32.005 -26.098  1.00  0.00     0.162 HD
BRANCH   9  11
HETATM   11  C7  UNL     1     -27.494  31.161 -25.229  1.00  0.00     0.216 C 
BRANCH  11  12
HETATM   12  C6  UNL     1     -28.854  31.459 -25.740  1.00  0.00    -0.073 C 
HETATM   13  C5  UNL     1     -29.951  31.710 -26.171  1.00  0.00    -0.013 C 
BRANCH  13  14
HETATM   14  C4  UNL     1     -31.230  32.012 -26.700  1.00  0.00    -0.013 C 
HETATM   15  C3  UNL     1     -32.313  32.282 -27.166  1.00  0.00    -0.066 C 
BRANCH  15  16
HETATM   16  C2  UNL     1     -33.635  32.634 -27.727  1.00  0.00     0.261 C 
BRANCH  16  17
HETATM   17  O1  UNL     1     -34.166  33.731 -27.044  1.00  0.00    -0.384 OA
HETATM   18  C1  UNL     1     -33.603  34.929 -27.477  1.00  0.00     0.202 C 
ENDBRANCH  16  17
ENDBRANCH  15  16
ENDBRANCH  13  14
ENDBRANCH  11  12
ENDBRANCH   9  11
ENDBRANCH   1   9
BRANCH   6  19
HETATM   19  N3  UNL     1     -26.750  27.816 -29.114  1.00  0.00    -0.234 N 
ATOM     20  H32 UNL     1     -26.289  27.485 -29.962  1.00  0.00     0.174 HD
ATOM     21  H31 UNL     1     -27.176  27.219 -28.405  1.00  0.00     0.174 HD
ENDBRANCH   6  19
TORSDOF 7
ENDMDL
MODEL 4
REMARK VINA RESULT: -6.702308528      1.937      2.729
REMARK  7 active torsions:
REMARK  status: ('A' for Active; 'I' for Inactive)
REMARK    1  A    between atoms: O1_2  and  C2_3 
REMARK    2  A    between atoms: C2_3  and  C3_4 
REMARK    3  A    between atoms: C4_5  and  C5_6 
REMARK    4  A    between atoms: C6_7  and  C7_8 
REMARK    5  A    between atoms: C7_8  and  N1_9 
REMARK    6  A    between atoms: N1_9  and  C8_11 
REMARK    7  A    between atoms: C11_16  and  N3_17 
ROOT
HETATM    1  C8  UNL     1     -27.160  30.417 -28.154  1.00  0.00     0.118 A 
HETATM    2  C9  UNL     1     -27.545  29.126 -28.442  1.00  0.00     0.066 A 
HETATM    3  C10 UNL     1     -27.386  28.119 -27.540  1.00  0.00     0.110 A 
HETATM    4  N2  UNL     1     -26.845  28.374 -26.341  1.00  0.00    -0.202 N 
ATOM      5  H2  UNL     1     -26.714  27.637 -25.648  1.00  0.00     0.183 HD
HETATM    6  C11 UNL     1     -26.483  29.640 -26.095  1.00  0.00     0.677 A 
HETATM    7  N4  UNL     1     -26.618  30.658 -26.944  1.00  0.00    -0.177 N 
ATOM      8  H4  UNL     1     -26.318  31.598 -26.685  1.00  0.00     0.185 HD
ENDROOT
BRANCH   1   9
HETATM    9  N1  UNL     1     -27.328  31.328 -29.033  1.00  0.00    -0.365 N 
ATOM     10  H1  UNL     1     -27.207  31.118 -30.023  1.00  0.00     0.162 HD
BRANCH   9  11
HETATM   11  C7  UNL     1     -27.693  32.660 -28.608  1.00  0.00     0.216 C 
BRANCH  11  12
HETATM   12  C6  UNL     1     -29.096  32.648 -28.128  1.00  0.00    -0.073 C 
HETATM   13  C5  UNL     1     -30.243  32.644 -27.756  1.00  0.00    -0.013 C 
BRANCH  13  14
HETATM   14  C4  UNL     1     -31.598  32.642 -27.342  1.00  0.00    -0.013 C 
HETATM   15  C3  UNL     1     -32.758  32.657 -27.002  1.00  0.00    -0.066 C 
BRANCH  15  16
HETATM   16  C2  UNL     1     -34.173  32.696 -26.573  1.00  0.00     0.261 C 
BRANCH  16  17
HETATM   17  O1  UNL     1     -34.542  34.007 -26.264  1.00  0.00    -0.384 OA
HETATM   18  C1  UNL     1     -34.075  34.911 -27.215  1.00  0.00     0.202 C 
ENDBRANCH  16  17
ENDBRANCH  15  16
ENDBRANCH  13  14
ENDBRANCH  11  12
ENDBRANCH   9  11
ENDBRANCH   1   9
BRANCH   6  19
HETATM   19  N3  UNL     1     -25.957  29.850 -24.912  1.00  0.00    -0.234 N 
ATOM     20  H32 UNL     1     -24.986  29.588 -24.739  1.00  0.00     0.174 HD
ATOM     21  H31 UNL     1     -26.582  30.275 -24.227  1.00  0.00     0.174 HD
ENDBRANCH   6  19
TORSDOF 7
ENDMDL
MODEL 5
REMARK VINA RESULT: -6.654531913      2.021      2.870
REMARK  7 active torsions:
REMARK  status: ('A' for Active; 'I' for Inactive)
REMARK    1  A    between atoms: O1_2  and  C2_3 
REMARK    2  A    between atoms: C2_3  and  C3_4 
REMARK    3  A    between atoms: C4_5  and  C5_6 
REMARK    4  A    between atoms: C6_7  and  C7_8 
REMARK    5  A    between atoms: C7_8  and  N1_9 
REMARK    6  A    between atoms: N1_9  and  C8_11 
REMARK    7  A    between atoms: C11_16  and  N3_17 
ROOT
HETATM    1  C8  UNL     1     -26.848  30.777 -27.418  1.00  0.00     0.118 A 
HETATM    2  C9  UNL     1     -26.070  29.642 -27.362  1.00  0.00     0.066 A 
HETATM    3  C10 UNL     1     -25.607  29.155 -26.177  1.00  0.00     0.110 A 
HETATM    4  N2  UNL     1     -25.908  29.785 -25.033  1.00  0.00    -0.202 N 
ATOM      5  H2  UNL     1     -25.573  29.441 -24.132  1.00  0.00     0.183 HD
HETATM    6  C11 UNL     1     -26.667  30.884 -25.125  1.00  0.00     0.677 A 
HETATM    7  N4  UNL     1     -27.143  31.398 -26.259  1.00  0.00    -0.177 N 
ATOM      8  H4  UNL     1     -27.716  32.241 -26.250  1.00  0.00     0.185 HD
ENDROOT
BRANCH   1   9
HETATM    9  N1  UNL     1     -27.259  31.195 -28.552  1.00  0.00    -0.365 N 
ATOM     10  H1  UNL     1     -27.205  30.593 -29.374  1.00  0.00     0.162 HD
BRANCH   9  11
HETATM   11  C7  UNL     1     -27.801  32.530 -28.660  1.00  0.00     0.216 C 
BRANCH  11  12
HETATM   12  C6  UNL     1     -29.199  32.527 -28.166  1.00  0.00    -0.073 C 
HETATM   13  C5  UNL     1     -30.334  32.543 -27.760  1.00  0.00    -0.013 C 
BRANCH  13  14
HETATM   14  C4  UNL     1     -31.667  32.588 -27.283  1.00  0.00    -0.013 C 
HETATM   15  C3  UNL     1     -32.809  32.642 -26.888  1.00  0.00    -0.066 C 
BRANCH  15  16
HETATM   16  C2  UNL     1     -34.199  32.728 -26.390  1.00  0.00     0.261 C 
BRANCH  16  17
HETATM   17  O1  UNL     1     -34.588  34.066 -26.291  1.00  0.00    -0.384 OA
HETATM   18  C1  UNL     1     -33.987  34.851 -27.273  1.00  0.00     0.202 C 
ENDBRANCH  16  17
ENDBRANCH  15  16
ENDBRANCH  13  14
ENDBRANCH  11  12
ENDBRANCH   9  11
ENDBRANCH   1   9
BRANCH   6  19
HETATM   19  N3  UNL     1     -26.939  31.472 -23.984  1.00  0.00    -0.234 N 
ATOM     20  H32 UNL     1     -27.832  31.291 -23.526  1.00  0.00     0.174 HD
ATOM     21  H31 UNL     1     -26.209  32.089 -23.628  1.00  0.00     0.174 HD
ENDBRANCH   6  19
TORSDOF 7
ENDMDL
