MODEL 1
REMARK VINA RESULT: -8.657066227      0.000      0.000
REMARK  2 active torsions:
REMARK  status: ('A' for Active; 'I' for Inactive)
REMARK    1  A    between atoms: C1_2  and  C2_3 
REMARK       I    between atoms: C1_2  and  N1_11 
REMARK    2  A    between atoms: C2_3  and  C3_4 
ROOT
HETATM    1  O1  UNL     1       6.227  -9.399 -23.683  1.00  0.00    -0.273 OA
HETATM    2  C1  UNL     1       5.327 -10.274 -23.698  1.00  0.00     0.220 C 
HETATM    3  N1  UNL     1       3.989  -9.813 -23.811  1.00  0.00    -0.352 N 
HETATM    4  C10 UNL     1       3.616  -8.409 -23.912  1.00  0.00     0.128 C 
HETATM    5  C11 UNL     1       2.878  -8.288 -25.225  1.00  0.00     0.061 C 
HETATM    6  C12 UNL     1       1.544  -8.969 -25.070  1.00  0.00     0.150 C 
HETATM    7  C13 UNL     1       1.576  -9.909 -23.915  1.00  0.00     0.061 C 
HETATM    8  C14 UNL     1       2.854 -10.719 -23.829  1.00  0.00     0.128 C 
HETATM    9  C15 UNL     1       1.192  -9.657 -26.374  1.00  0.00     0.206 C 
HETATM   10  O2  UNL     1       1.442  -8.736 -27.385  1.00  0.00    -0.387 OA
HETATM   11  C16 UNL     1       0.665  -7.598 -27.270  1.00  0.00     0.195 C 
HETATM   12  C17 UNL     1      -0.163  -7.558 -26.024  1.00  0.00     0.259 C 
HETATM   13  N2  UNL     1       0.560  -7.929 -24.842  1.00  0.00    -0.062 N 
ATOM     14  H21 UNL     1       0.991  -7.112 -24.410  1.00  0.00     0.278 HD
ATOM     15  H22 UNL     1      -0.082  -8.197 -24.096  1.00  0.00     0.278 HD
ENDROOT
BRANCH   2  16
HETATM   16  C2  UNL     1       5.658 -11.669 -23.602  1.00  0.00     0.107 C 
BRANCH  16  17
HETATM   17  C3  UNL     1       6.020 -12.449 -24.810  1.00  0.00    -0.006 C 
HETATM   18  C4  UNL     1       7.249 -13.247 -24.830  1.00  0.00     0.005 C 
HETATM   19  C5  UNL     1       7.131 -14.732 -24.715  1.00  0.00     0.000 C 
HETATM   20  C6  UNL     1       6.515 -15.361 -25.946  1.00  0.00     0.000 C 
HETATM   21  C7  UNL     1       5.074 -15.691 -25.585  1.00  0.00     0.000 C 
HETATM   22  C8  UNL     1       4.535 -14.505 -24.792  1.00  0.00     0.000 C 
HETATM   23  C9  UNL     1       4.880 -13.210 -25.434  1.00  0.00     0.005 C 
ENDBRANCH  16  17
ENDBRANCH   2  16
TORSDOF 2
ENDMDL
MODEL 2
REMARK VINA RESULT: -8.525564916      1.471      2.149
REMARK  2 active torsions:
REMARK  status: ('A' for Active; 'I' for Inactive)
REMARK    1  A    between atoms: C1_2  and  C2_3 
REMARK       I    between atoms: C1_2  and  N1_11 
REMARK    2  A    between atoms: C2_3  and  C3_4 
ROOT
HETATM    1  O1  UNL     1       5.229 -12.239 -24.242  1.00  0.00    -0.273 OA
HETATM    2  C1  UNL     1       4.072 -12.692 -24.411  1.00  0.00     0.220 C 
HETATM    3  N1  UNL     1       2.999 -11.773 -24.275  1.00  0.00    -0.352 N 
HETATM    4  C10 UNL     1       3.169 -10.361 -23.962  1.00  0.00     0.128 C 
HETATM    5  C11 UNL     1       2.549  -9.618 -25.123  1.00  0.00     0.061 C 
HETATM    6  C12 UNL     1       1.056  -9.792 -25.037  1.00  0.00     0.150 C 
HETATM    7  C13 UNL     1       0.721 -10.966 -24.185  1.00  0.00     0.061 C 
HETATM    8  C14 UNL     1       1.611 -12.169 -24.434  1.00  0.00     0.128 C 
HETATM    9  C15 UNL     1       0.496  -9.910 -26.441  1.00  0.00     0.206 C 
HETATM   10  O2  UNL     1       1.084  -8.894 -27.186  1.00  0.00    -0.387 OA
HETATM   11  C16 UNL     1       0.778  -7.636 -26.700  1.00  0.00     0.195 C 
HETATM   12  C17 UNL     1       0.003  -7.657 -25.420  1.00  0.00     0.259 C 
HETATM   13  N2  UNL     1       0.519  -8.580 -24.451  1.00  0.00    -0.062 N 
ATOM     14  H21 UNL     1       1.214  -8.127 -23.856  1.00  0.00     0.278 HD
ATOM     15  H22 UNL     1      -0.188  -8.800 -23.750  1.00  0.00     0.278 HD
ENDROOT
BRANCH   2  16
HETATM   16  C2  UNL     1       3.865 -14.079 -24.724  1.00  0.00     0.107 C 
BRANCH  16  17
HETATM   17  C3  UNL     1       4.699 -14.762 -25.741  1.00  0.00    -0.006 C 
HETATM   18  C4  UNL     1       5.175 -14.028 -26.917  1.00  0.00     0.005 C 
HETATM   19  C5  UNL     1       6.614 -13.627 -26.966  1.00  0.00     0.000 C 
HETATM   20  C6  UNL     1       7.540 -14.813 -27.135  1.00  0.00     0.000 C 
HETATM   21  C7  UNL     1       8.149 -15.080 -25.767  1.00  0.00     0.000 C 
HETATM   22  C8  UNL     1       7.026 -14.931 -24.746  1.00  0.00     0.000 C 
HETATM   23  C9  UNL     1       5.790 -15.634 -25.179  1.00  0.00     0.005 C 
ENDBRANCH  16  17
ENDBRANCH   2  16
TORSDOF 2
ENDMDL
MODEL 3
REMARK VINA RESULT: -8.342472959      1.987      2.608
REMARK  2 active torsions:
REMARK  status: ('A' for Active; 'I' for Inactive)
REMARK    1  A    between atoms: C1_2  and  C2_3 
REMARK       I    between atoms: C1_2  and  N1_11 
REMARK    2  A    between atoms: C2_3  and  C3_4 
ROOT
HETATM    1  O1  UNL     1       6.953 -10.451 -22.398  1.00  0.00    -0.273 OA
HETATM    2  C1  UNL     1       6.158 -10.630 -23.353  1.00  0.00     0.220 C 
HETATM    3  N1  UNL     1       4.930  -9.920 -23.304  1.00  0.00    -0.352 N 
HETATM    4  C10 UNL     1       4.555  -9.011 -22.230  1.00  0.00     0.128 C 
HETATM    5  C11 UNL     1       4.332  -7.675 -22.898  1.00  0.00     0.061 C 
HETATM    6  C12 UNL     1       3.063  -7.768 -23.703  1.00  0.00     0.150 C 
HETATM    7  C13 UNL     1       2.721  -9.193 -23.965  1.00  0.00     0.061 C 
HETATM    8  C14 UNL     1       3.919 -10.044 -24.339  1.00  0.00     0.128 C 
HETATM    9  C15 UNL     1       3.232  -6.964 -24.977  1.00  0.00     0.206 C 
HETATM   10  O2  UNL     1       3.787  -5.744 -24.602  1.00  0.00    -0.387 OA
HETATM   11  C16 UNL     1       2.969  -5.033 -23.743  1.00  0.00     0.195 C 
HETATM   12  C17 UNL     1       1.749  -5.784 -23.311  1.00  0.00     0.259 C 
HETATM   13  N2  UNL     1       2.017  -7.138 -22.922  1.00  0.00    -0.062 N 
ATOM     14  H21 UNL     1       2.227  -7.192 -21.925  1.00  0.00     0.278 HD
ATOM     15  H22 UNL     1       1.163  -7.695 -22.945  1.00  0.00     0.278 HD
ENDROOT
BRANCH   2  16
HETATM   16  C2  UNL     1       6.495 -11.516 -24.433  1.00  0.00     0.107 C 
BRANCH  16  17
HETATM   17  C3  UNL     1       6.302 -12.980 -24.303  1.00  0.00    -0.006 C 
HETATM   18  C4  UNL     1       4.956 -13.555 -24.370  1.00  0.00     0.005 C 
HETATM   19  C5  UNL     1       4.556 -14.279 -25.614  1.00  0.00     0.000 C 
HETATM   20  C6  UNL     1       5.295 -15.589 -25.785  1.00  0.00     0.000 C 
HETATM   21  C7  UNL     1       6.367 -15.345 -26.835  1.00  0.00     0.000 C 
HETATM   22  C8  UNL     1       6.977 -13.980 -26.535  1.00  0.00     0.000 C 
HETATM   23  C9  UNL     1       7.278 -13.816 -25.088  1.00  0.00     0.005 C 
ENDBRANCH  16  17
ENDBRANCH   2  16
TORSDOF 2
ENDMDL
MODEL 4
REMARK VINA RESULT: -8.207585522      2.445      3.029
REMARK  2 active torsions:
REMARK  status: ('A' for Active; 'I' for Inactive)
REMARK    1  A    between atoms: C1_2  and  C2_3 
REMARK       I    between atoms: C1_2  and  N1_11 
REMARK    2  A    between atoms: C2_3  and  C3_4 
ROOT
HETATM    1  O1  UNL     1       8.502 -10.955 -24.344  1.00  0.00    -0.273 OA
HETATM    2  C1  UNL     1       7.473 -11.381 -23.765  1.00  0.00     0.220 C 
HETATM    3  N1  UNL     1       6.657 -10.414 -23.120  1.00  0.00    -0.352 N 
HETATM    4  C10 UNL     1       6.943  -8.987 -23.102  1.00  0.00     0.128 C 
HETATM    5  C11 UNL     1       5.746  -8.332 -23.751  1.00  0.00     0.061 C 
HETATM    6  C12 UNL     1       4.586  -8.443 -22.798  1.00  0.00     0.150 C 
HETATM    7  C13 UNL     1       4.838  -9.521 -21.802  1.00  0.00     0.061 C 
HETATM    8  C14 UNL     1       5.445 -10.773 -22.405  1.00  0.00     0.128 C 
HETATM    9  C15 UNL     1       3.318  -8.670 -23.597  1.00  0.00     0.206 C 
HETATM   10  O2  UNL     1       3.338  -7.748 -24.638  1.00  0.00    -0.387 OA
HETATM   11  C16 UNL     1       3.341  -6.441 -24.187  1.00  0.00     0.195 C 
HETATM   12  C17 UNL     1       3.456  -6.316 -22.701  1.00  0.00     0.259 C 
HETATM   13  N2  UNL     1       4.461  -7.164 -22.129  1.00  0.00    -0.062 N 
ATOM     14  H21 UNL     1       5.361  -6.684 -22.094  1.00  0.00     0.278 HD
ATOM     15  H22 UNL     1       4.299  -7.292 -21.130  1.00  0.00     0.278 HD
ENDROOT
BRANCH   2  16
HETATM   16  C2  UNL     1       7.156 -12.782 -23.765  1.00  0.00     0.107 C 
BRANCH  16  17
HETATM   17  C3  UNL     1       6.647 -13.447 -24.987  1.00  0.00    -0.006 C 
HETATM   18  C4  UNL     1       6.934 -14.863 -25.230  1.00  0.00     0.005 C 
HETATM   19  C5  UNL     1       5.832 -15.854 -25.032  1.00  0.00     0.000 C 
HETATM   20  C6  UNL     1       4.748 -15.731 -26.081  1.00  0.00     0.000 C 
HETATM   21  C7  UNL     1       3.585 -15.011 -25.414  1.00  0.00     0.000 C 
HETATM   22  C8  UNL     1       4.183 -13.886 -24.576  1.00  0.00     0.000 C 
HETATM   23  C9  UNL     1       5.215 -13.127 -25.329  1.00  0.00     0.005 C 
ENDBRANCH  16  17
ENDBRANCH   2  16
TORSDOF 2
ENDMDL
MODEL 5
REMARK VINA RESULT: -7.924452900      2.161      2.890
REMARK  2 active torsions:
REMARK  status: ('A' for Active; 'I' for Inactive)
REMARK    1  A    between atoms: C1_2  and  C2_3 
REMARK       I    between atoms: C1_2  and  N1_11 
REMARK    2  A    between atoms: C2_3  and  C3_4 
ROOT
HETATM    1  O1  UNL     1       5.874 -10.654 -22.909  1.00  0.00    -0.273 OA
HETATM    2  C1  UNL     1       4.877 -10.583 -23.668  1.00  0.00     0.220 C 
HETATM    3  N1  UNL     1       4.055  -9.434 -23.536  1.00  0.00    -0.352 N 
HETATM    4  C10 UNL     1       4.305  -8.355 -22.590  1.00  0.00     0.128 C 
HETATM    5  C11 UNL     1       4.459  -7.112 -23.435  1.00  0.00     0.061 C 
HETATM    6  C12 UNL     1       3.103  -6.756 -23.982  1.00  0.00     0.150 C 
HETATM    7  C13 UNL     1       2.197  -7.936 -23.928  1.00  0.00     0.061 C 
HETATM    8  C14 UNL     1       2.866  -9.232 -24.345  1.00  0.00     0.128 C 
HETATM    9  C15 UNL     1       3.271  -6.212 -25.387  1.00  0.00     0.206 C 
HETATM   10  O2  UNL     1       4.314  -5.295 -25.332  1.00  0.00    -0.387 OA
HETATM   11  C16 UNL     1       4.044  -4.236 -24.486  1.00  0.00     0.195 C 
HETATM   12  C17 UNL     1       2.763  -4.382 -23.727  1.00  0.00     0.259 C 
HETATM   13  N2  UNL     1       2.579  -5.685 -23.157  1.00  0.00    -0.062 N 
ATOM     14  H21 UNL     1       2.973  -5.727 -22.217  1.00  0.00     0.278 HD
ATOM     15  H22 UNL     1       1.597  -5.847 -22.936  1.00  0.00     0.278 HD
ENDROOT
BRANCH   2  16
HETATM   16  C2  UNL     1       4.600 -11.626 -24.616  1.00  0.00     0.107 C 
BRANCH  16  17
HETATM   17  C3  UNL     1       4.830 -13.049 -24.271  1.00  0.00    -0.006 C 
HETATM   18  C4  UNL     1       3.791 -14.048 -24.535  1.00  0.00     0.005 C 
HETATM   19  C5  UNL     1       3.983 -14.983 -25.685  1.00  0.00     0.000 C 
HETATM   20  C6  UNL     1       5.100 -15.976 -25.444  1.00  0.00     0.000 C 
HETATM   21  C7  UNL     1       6.292 -15.487 -26.252  1.00  0.00     0.000 C 
HETATM   22  C8  UNL     1       6.355 -13.974 -26.075  1.00  0.00     0.000 C 
HETATM   23  C9  UNL     1       6.188 -13.578 -24.652  1.00  0.00     0.005 C 
ENDBRANCH  16  17
ENDBRANCH   2  16
TORSDOF 2
ENDMDL
