MODEL 1
REMARK VINA RESULT: -7.329345928      0.000      0.000
REMARK  2 active torsions:
REMARK  status: ('A' for Active; 'I' for Inactive)
REMARK    1  A    between atoms: C1_2  and  C2_4 
REMARK    2  A    between atoms: N1_9  and  C7_10 
ROOT
HETATM    1  C7  UNL     1       3.393  -9.393 -23.955  1.00  0.00     0.085 C 
HETATM    2  C8  UNL     1       3.457  -7.925 -23.623  1.00  0.00     0.026 C 
HETATM    3  C9  UNL     1       2.132  -7.240 -23.538  1.00  0.00     0.007 C 
HETATM    4  C10 UNL     1       1.248  -7.346 -24.708  1.00  0.00    -0.014 C 
HETATM    5  C11 UNL     1       1.949  -7.297 -26.024  1.00  0.00     0.005 C 
HETATM    6  C12 UNL     1       2.810  -8.490 -26.224  1.00  0.00     0.008 C 
HETATM    7  C13 UNL     1       2.584  -9.589 -25.180  1.00  0.00     0.019 C 
HETATM    8  C14 UNL     1       1.094  -9.787 -24.929  1.00  0.00    -0.011 C 
HETATM    9  C15 UNL     1       0.452 -10.324 -26.199  1.00  0.00     0.038 C 
HETATM   10  C16 UNL     1      -0.618 -11.217 -25.609  1.00  0.00     0.168 C 
HETATM   11  O3  UNL     1       0.017 -11.829 -24.560  1.00  0.00    -0.390 OA
HETATM   12  C17 UNL     1       0.905 -10.933 -23.988  1.00  0.00     0.177 C 
HETATM   13  C18 UNL     1       0.366  -8.552 -24.542  1.00  0.00     0.017 C 
ENDROOT
BRANCH   1  14
HETATM   14  N1  UNL     1       4.693  -9.942 -24.041  1.00  0.00    -0.394 N 
HETATM   15  C2  UNL     1       5.709  -9.393 -23.236  1.00  0.00     0.181 C 
HETATM   16  C3  UNL     1       7.041  -9.682 -23.923  1.00  0.00     0.036 C 
HETATM   17  C4  UNL     1       7.285 -11.129 -24.144  1.00  0.00     0.004 C 
HETATM   18  C5  UNL     1       6.082 -11.992 -23.996  1.00  0.00     0.020 C 
HETATM   19  C6  UNL     1       4.781 -11.338 -24.278  1.00  0.00     0.118 C 
BRANCH  15  20
HETATM   20  C1  UNL     1       5.690  -9.807 -21.818  1.00  0.00     0.196 C 
HETATM   21  O1  UNL     1       4.649  -9.696 -21.136  1.00  0.00    -0.646 OA
HETATM   22  O2  UNL     1       6.809 -10.327 -21.206  1.00  0.00    -0.646 OA
ENDBRANCH  15  20
ENDBRANCH   1  14
TORSDOF 2
ENDMDL
MODEL 2
REMARK VINA RESULT: -6.825054772      2.837      6.653
REMARK  2 active torsions:
REMARK  status: ('A' for Active; 'I' for Inactive)
REMARK    1  A    between atoms: C1_2  and  C2_4 
REMARK    2  A    between atoms: N1_9  and  C7_10 
ROOT
HETATM    1  C7  UNL     1       5.164 -12.777 -24.887  1.00  0.00     0.085 C 
HETATM    2  C8  UNL     1       4.290 -14.002 -24.812  1.00  0.00     0.026 C 
HETATM    3  C9  UNL     1       5.029 -15.300 -24.758  1.00  0.00     0.007 C 
HETATM    4  C10 UNL     1       5.993 -15.566 -25.836  1.00  0.00    -0.014 C 
HETATM    5  C11 UNL     1       5.569 -15.085 -27.184  1.00  0.00     0.005 C 
HETATM    6  C12 UNL     1       5.503 -13.603 -27.234  1.00  0.00     0.008 C 
HETATM    7  C13 UNL     1       6.121 -12.920 -26.008  1.00  0.00     0.019 C 
HETATM    8  C14 UNL     1       7.439 -13.589 -25.634  1.00  0.00    -0.011 C 
HETATM    9  C15 UNL     1       8.441 -13.353 -26.753  1.00  0.00     0.038 C 
HETATM   10  C16 UNL     1       9.723 -13.252 -25.954  1.00  0.00     0.168 C 
HETATM   11  O3  UNL     1       9.362 -12.510 -24.861  1.00  0.00    -0.390 OA
HETATM   12  C17 UNL     1       8.064 -12.838 -24.504  1.00  0.00     0.177 C 
HETATM   13  C18 UNL     1       7.343 -15.055 -25.414  1.00  0.00     0.017 C 
ENDROOT
BRANCH   1  14
HETATM   14  N1  UNL     1       4.375 -11.606 -24.963  1.00  0.00    -0.394 N 
HETATM   15  C2  UNL     1       2.981 -11.725 -24.812  1.00  0.00     0.181 C 
HETATM   16  C3  UNL     1       2.343 -10.535 -25.525  1.00  0.00     0.036 C 
HETATM   17  C4  UNL     1       2.807  -9.224 -25.007  1.00  0.00     0.004 C 
HETATM   18  C5  UNL     1       4.033  -9.286 -24.166  1.00  0.00     0.020 C 
HETATM   19  C6  UNL     1       4.952 -10.415 -24.450  1.00  0.00     0.118 C 
BRANCH  15  20
HETATM   20  C1  UNL     1       2.502 -11.890 -23.424  1.00  0.00     0.196 C 
HETATM   21  O1  UNL     1       3.240 -11.603 -22.457  1.00  0.00    -0.646 OA
HETATM   22  O2  UNL     1       1.236 -12.359 -23.152  1.00  0.00    -0.646 OA
ENDBRANCH  15  20
ENDBRANCH   1  14
TORSDOF 2
ENDMDL
MODEL 3
REMARK VINA RESULT: -6.682135746      2.796      4.896
REMARK  2 active torsions:
REMARK  status: ('A' for Active; 'I' for Inactive)
REMARK    1  A    between atoms: C1_2  and  C2_4 
REMARK    2  A    between atoms: N1_9  and  C7_10 
ROOT
HETATM    1  C7  UNL     1       6.065 -12.245 -23.840  1.00  0.00     0.085 C 
HETATM    2  C8  UNL     1       7.140 -12.048 -22.803  1.00  0.00     0.026 C 
HETATM    3  C9  UNL     1       6.773 -11.129 -21.683  1.00  0.00     0.007 C 
HETATM    4  C10 UNL     1       6.320  -9.778 -22.047  1.00  0.00    -0.014 C 
HETATM    5  C11 UNL     1       7.034  -9.175 -23.210  1.00  0.00     0.005 C 
HETATM    6  C12 UNL     1       6.742  -9.910 -24.467  1.00  0.00     0.008 C 
HETATM    7  C13 UNL     1       5.603 -10.927 -24.330  1.00  0.00     0.019 C 
HETATM    8  C14 UNL     1       4.446 -10.327 -23.539  1.00  0.00    -0.011 C 
HETATM    9  C15 UNL     1       3.847  -9.183 -24.341  1.00  0.00     0.038 C 
HETATM   10  C16 UNL     1       2.391  -9.308 -23.950  1.00  0.00     0.168 C 
HETATM   11  O3  UNL     1       2.171 -10.660 -23.958  1.00  0.00    -0.390 OA
HETATM   12  C17 UNL     1       3.315 -11.303 -23.513  1.00  0.00     0.177 C 
HETATM   13  C18 UNL     1       4.825  -9.796 -22.205  1.00  0.00     0.017 C 
ENDROOT
BRANCH   1  14
HETATM   14  N1  UNL     1       6.517 -13.105 -24.868  1.00  0.00    -0.394 N 
HETATM   15  C2  UNL     1       6.395 -14.495 -24.684  1.00  0.00     0.181 C 
HETATM   16  C3  UNL     1       7.454 -15.164 -25.556  1.00  0.00     0.036 C 
HETATM   17  C4  UNL     1       7.330 -14.823 -26.994  1.00  0.00     0.004 C 
HETATM   18  C5  UNL     1       6.460 -13.651 -27.283  1.00  0.00     0.020 C 
HETATM   19  C6  UNL     1       6.358 -12.643 -26.200  1.00  0.00     0.118 C 
BRANCH  15  20
HETATM   20  C1  UNL     1       5.041 -15.048 -24.893  1.00  0.00     0.196 C 
HETATM   21  O1  UNL     1       4.027 -14.367 -24.630  1.00  0.00    -0.646 OA
HETATM   22  O2  UNL     1       4.854 -16.322 -25.384  1.00  0.00    -0.646 OA
ENDBRANCH  15  20
ENDBRANCH   1  14
TORSDOF 2
ENDMDL
MODEL 4
REMARK VINA RESULT: -6.284619790      2.865      5.134
REMARK  2 active torsions:
REMARK  status: ('A' for Active; 'I' for Inactive)
REMARK    1  A    between atoms: C1_2  and  C2_4 
REMARK    2  A    between atoms: N1_9  and  C7_10 
ROOT
HETATM    1  C7  UNL     1       5.838 -12.268 -23.973  1.00  0.00     0.085 C 
HETATM    2  C8  UNL     1       7.030 -12.440 -23.068  1.00  0.00     0.026 C 
HETATM    3  C9  UNL     1       7.065 -11.517 -21.893  1.00  0.00     0.007 C 
HETATM    4  C10 UNL     1       6.980 -10.076 -22.171  1.00  0.00    -0.014 C 
HETATM    5  C11 UNL     1       7.707  -9.635 -23.397  1.00  0.00     0.005 C 
HETATM    6  C12 UNL     1       7.083 -10.188 -24.625  1.00  0.00     0.008 C 
HETATM    7  C13 UNL     1       5.722 -10.848 -24.376  1.00  0.00     0.019 C 
HETATM    8  C14 UNL     1       4.878  -9.992 -23.440  1.00  0.00    -0.011 C 
HETATM    9  C15 UNL     1       4.549  -8.682 -24.139  1.00  0.00     0.038 C 
HETATM   10  C16 UNL     1       3.169  -8.413 -23.580  1.00  0.00     0.168 C 
HETATM   11  O3  UNL     1       2.571  -9.646 -23.591  1.00  0.00    -0.390 OA
HETATM   12  C17 UNL     1       3.524 -10.609 -23.300  1.00  0.00     0.177 C 
HETATM   13  C18 UNL     1       5.535  -9.663 -22.149  1.00  0.00     0.017 C 
ENDROOT
BRANCH   1  14
HETATM   14  N1  UNL     1       5.911 -13.162 -25.067  1.00  0.00    -0.394 N 
HETATM   15  C2  UNL     1       7.003 -13.058 -25.949  1.00  0.00     0.181 C 
HETATM   16  C3  UNL     1       6.560 -13.634 -27.291  1.00  0.00     0.036 C 
HETATM   17  C4  UNL     1       6.104 -15.043 -27.203  1.00  0.00     0.004 C 
HETATM   18  C5  UNL     1       5.823 -15.520 -25.822  1.00  0.00     0.020 C 
HETATM   19  C6  UNL     1       5.418 -14.475 -24.850  1.00  0.00     0.118 C 
BRANCH  15  20
HETATM   20  C1  UNL     1       8.272 -13.637 -25.463  1.00  0.00     0.196 C 
HETATM   21  O1  UNL     1       9.333 -12.980 -25.518  1.00  0.00    -0.646 OA
HETATM   22  O2  UNL     1       8.326 -14.908 -24.935  1.00  0.00    -0.646 OA
ENDBRANCH  15  20
ENDBRANCH   1  14
TORSDOF 2
ENDMDL
MODEL 5
REMARK VINA RESULT: -6.217726516      4.706      7.175
REMARK  2 active torsions:
REMARK  status: ('A' for Active; 'I' for Inactive)
REMARK    1  A    between atoms: C1_2  and  C2_4 
REMARK    2  A    between atoms: N1_9  and  C7_10 
ROOT
HETATM    1  C7  UNL     1       7.911 -13.561 -26.431  1.00  0.00     0.085 C 
HETATM    2  C8  UNL     1       6.796 -14.171 -27.242  1.00  0.00     0.026 C 
HETATM    3  C9  UNL     1       5.442 -13.598 -26.980  1.00  0.00     0.007 C 
HETATM    4  C10 UNL     1       4.970 -13.604 -25.588  1.00  0.00    -0.014 C 
HETATM    5  C11 UNL     1       5.352 -14.817 -24.807  1.00  0.00     0.005 C 
HETATM    6  C12 UNL     1       6.821 -14.887 -24.599  1.00  0.00     0.008 C 
HETATM    7  C13 UNL     1       7.557 -13.602 -24.994  1.00  0.00     0.019 C 
HETATM    8  C14 UNL     1       6.797 -12.378 -24.494  1.00  0.00    -0.011 C 
HETATM    9  C15 UNL     1       6.814 -12.380 -22.974  1.00  0.00     0.038 C 
HETATM   10  C16 UNL     1       6.863 -10.893 -22.699  1.00  0.00     0.168 C 
HETATM   11  O3  UNL     1       7.745 -10.422 -23.636  1.00  0.00    -0.390 OA
HETATM   12  C17 UNL     1       7.591 -11.151 -24.804  1.00  0.00     0.177 C 
HETATM   13  C18 UNL     1       5.379 -12.315 -24.931  1.00  0.00     0.017 C 
ENDROOT
BRANCH   1  14
HETATM   14  N1  UNL     1       9.143 -14.188 -26.728  1.00  0.00    -0.394 N 
HETATM   15  C2  UNL     1      10.311 -13.403 -26.736  1.00  0.00     0.181 C 
HETATM   16  C3  UNL     1      11.321 -14.099 -27.646  1.00  0.00     0.036 C 
HETATM   17  C4  UNL     1      11.635 -15.485 -27.220  1.00  0.00     0.004 C 
HETATM   18  C5  UNL     1      10.683 -16.064 -26.234  1.00  0.00     0.020 C 
HETATM   19  C6  UNL     1       9.302 -15.525 -26.281  1.00  0.00     0.118 C 
BRANCH  15  20
HETATM   20  C1  UNL     1      10.865 -13.071 -25.407  1.00  0.00     0.196 C 
HETATM   21  O1  UNL     1      10.267 -12.280 -24.648  1.00  0.00    -0.646 OA
HETATM   22  O2  UNL     1      12.047 -13.622 -24.964  1.00  0.00    -0.646 OA
ENDBRANCH  15  20
ENDBRANCH   1  14
TORSDOF 2
ENDMDL
