MODEL 1
REMARK VINA RESULT: -8.754466250      0.000      0.000
REMARK  1 active torsions:
REMARK  status: ('A' for Active; 'I' for Inactive)
REMARK    1  A    between atoms: C14_15  and  O1_16 
ROOT
HETATM    1  C1  UNL     1       1.969 -12.369 -23.343  1.00  0.00     0.017 C 
HETATM    2  C2  UNL     1       3.112 -11.609 -24.077  1.00  0.00    -0.017 C 
HETATM    3  C3  UNL     1       3.442 -12.458 -25.226  1.00  0.00     0.011 C 
HETATM    4  C4  UNL     1       4.430 -13.554 -25.064  1.00  0.00     0.006 C 
HETATM    5  C5  UNL     1       5.751 -13.084 -25.524  1.00  0.00    -0.002 A 
HETATM    6  C6  UNL     1       6.423 -12.565 -24.210  1.00  0.00    -0.001 A 
HETATM    7  C7  UNL     1       6.269 -11.112 -24.265  1.00  0.00     0.010 C 
HETATM    8  C8  UNL     1       5.302 -10.609 -23.202  1.00  0.00    -0.011 C 
HETATM    9  C9  UNL     1       5.200  -9.152 -23.334  1.00  0.00     0.046 C 
HETATM   10  C10 UNL     1       3.813  -8.588 -23.675  1.00  0.00     0.288 C 
HETATM   11  N1  UNL     1       3.343  -9.258 -24.806  1.00  0.00     0.099 N 
HETATM   12  C11 UNL     1       2.790  -8.439 -25.844  1.00  0.00     0.280 C 
HETATM   13  C12 UNL     1       2.576  -7.030 -25.470  1.00  0.00     0.053 C 
HETATM   14  C13 UNL     1       1.632  -6.808 -24.312  1.00  0.00     0.069 C 
HETATM   15  C14 UNL     1       2.237  -5.912 -23.242  1.00  0.00     0.261 C 
HETATM   16  O2  UNL     1       3.466  -6.358 -22.774  1.00  0.00    -0.321 OA
HETATM   17  C15 UNL     1       4.052  -7.134 -23.693  1.00  0.00     0.225 A 
HETATM   18  O3  UNL     1       5.009  -6.832 -24.613  1.00  0.00    -0.340 OA
HETATM   19  C16 UNL     1       3.843  -6.416 -25.034  1.00  0.00     0.196 A 
HETATM   20  C17 UNL     1       2.437 -10.349 -24.585  1.00  0.00     0.282 C 
HETATM   21  C18 UNL     1       4.084 -11.386 -23.013  1.00  0.00     0.015 C 
HETATM   22  C19 UNL     1       7.068 -13.470 -25.131  1.00  0.00    -0.040 A 
HETATM   23  C20 UNL     1       8.250 -12.922 -25.908  1.00  0.00     0.015 C 
HETATM   24  C21 UNL     1       7.284 -14.912 -24.715  1.00  0.00     0.015 C 
ENDROOT
BRANCH  15  25
HETATM   25  O1  UNL     1       1.350  -5.973 -22.147  1.00  0.00    -0.371 OA
ATOM     26  H1  UNL     1       1.742  -5.436 -21.468  1.00  0.00     0.212 HD
ENDBRANCH  15  25
TORSDOF 1
ENDMDL
MODEL 2
REMARK VINA RESULT: -8.732257187      1.511      1.785
REMARK  1 active torsions:
REMARK  status: ('A' for Active; 'I' for Inactive)
REMARK    1  A    between atoms: C14_15  and  O1_16 
ROOT
HETATM    1  C1  UNL     1       1.021 -12.865 -22.575  1.00  0.00     0.017 C 
HETATM    2  C2  UNL     1       1.852 -12.313 -23.769  1.00  0.00    -0.017 C 
HETATM    3  C3  UNL     1       1.776 -13.363 -24.790  1.00  0.00     0.011 C 
HETATM    4  C4  UNL     1       2.760 -14.474 -24.768  1.00  0.00     0.006 C 
HETATM    5  C5  UNL     1       3.850 -14.171 -25.715  1.00  0.00    -0.002 A 
HETATM    6  C6  UNL     1       4.925 -13.478 -24.813  1.00  0.00    -0.001 A 
HETATM    7  C7  UNL     1       4.763 -12.049 -25.076  1.00  0.00     0.010 C 
HETATM    8  C8  UNL     1       4.209 -11.315 -23.862  1.00  0.00    -0.011 C 
HETATM    9  C9  UNL     1       4.071  -9.898 -24.213  1.00  0.00     0.046 C 
HETATM   10  C10 UNL     1       2.650  -9.316 -24.172  1.00  0.00     0.288 C 
HETATM   11  N1  UNL     1       1.827 -10.137 -24.944  1.00  0.00     0.099 N 
HETATM   12  C11 UNL     1       0.957  -9.474 -25.871  1.00  0.00     0.280 C 
HETATM   13  C12 UNL     1       0.883  -8.011 -25.707  1.00  0.00     0.053 C 
HETATM   14  C13 UNL     1       0.383  -7.539 -24.363  1.00  0.00     0.069 C 
HETATM   15  C14 UNL     1       1.313  -6.514 -23.733  1.00  0.00     0.261 C 
HETATM   16  O2  UNL     1       2.627  -6.949 -23.625  1.00  0.00    -0.321 OA
HETATM   17  C15 UNL     1       2.870  -7.903 -24.529  1.00  0.00     0.225 A 
HETATM   18  O3  UNL     1       3.462  -7.821 -25.753  1.00  0.00    -0.340 OA
HETATM   19  C16 UNL     1       2.223  -7.411 -25.833  1.00  0.00     0.196 A 
HETATM   20  C17 UNL     1       1.047 -11.117 -24.244  1.00  0.00     0.282 C 
HETATM   21  C18 UNL     1       3.125 -11.972 -23.145  1.00  0.00     0.015 C 
HETATM   22  C19 UNL     1       5.222 -14.564 -25.717  1.00  0.00    -0.040 A 
HETATM   23  C20 UNL     1       6.075 -14.229 -26.926  1.00  0.00     0.015 C 
HETATM   24  C21 UNL     1       5.565 -15.925 -25.143  1.00  0.00     0.015 C 
ENDROOT
BRANCH  15  25
HETATM   25  O1  UNL     1       0.845  -6.334 -22.414  1.00  0.00    -0.371 OA
ATOM     26  H1  UNL     1       0.995  -5.418 -22.211  1.00  0.00     0.212 HD
ENDBRANCH  15  25
TORSDOF 1
ENDMDL
MODEL 3
REMARK VINA RESULT: -7.185859797      2.196      4.322
REMARK  1 active torsions:
REMARK  status: ('A' for Active; 'I' for Inactive)
REMARK    1  A    between atoms: C14_15  and  O1_16 
ROOT
HETATM    1  C1  UNL     1       5.854 -10.121 -24.495  1.00  0.00     0.017 C 
HETATM    2  C2  UNL     1       4.424  -9.662 -24.086  1.00  0.00    -0.017 C 
HETATM    3  C3  UNL     1       4.016 -10.608 -23.042  1.00  0.00     0.011 C 
HETATM    4  C4  UNL     1       3.371 -11.888 -23.429  1.00  0.00     0.006 C 
HETATM    5  C5  UNL     1       1.906 -11.740 -23.326  1.00  0.00    -0.002 A 
HETATM    6  C6  UNL     1       1.485 -11.329 -24.776  1.00  0.00    -0.001 A 
HETATM    7  C7  UNL     1       1.291  -9.882 -24.708  1.00  0.00     0.010 C 
HETATM    8  C8  UNL     1       2.355  -9.136 -25.502  1.00  0.00    -0.011 C 
HETATM    9  C9  UNL     1       2.092  -7.699 -25.374  1.00  0.00     0.046 C 
HETATM   10  C10 UNL     1       3.188  -6.857 -24.704  1.00  0.00     0.288 C 
HETATM   11  N1  UNL     1       3.498  -7.451 -23.480  1.00  0.00     0.099 N 
HETATM   12  C11 UNL     1       3.577  -6.572 -22.350  1.00  0.00     0.280 C 
HETATM   13  C12 UNL     1       3.557  -5.137 -22.683  1.00  0.00     0.053 C 
HETATM   14  C13 UNL     1       4.685  -4.666 -23.569  1.00  0.00     0.069 C 
HETATM   15  C14 UNL     1       4.182  -3.883 -24.773  1.00  0.00     0.261 C 
HETATM   16  O2  UNL     1       3.241  -4.571 -25.527  1.00  0.00    -0.321 OA
HETATM   17  C15 UNL     1       2.633  -5.493 -24.773  1.00  0.00     0.225 A 
HETATM   18  O3  UNL     1       1.434  -5.447 -24.129  1.00  0.00    -0.340 OA
HETATM   19  C16 UNL     1       2.335  -4.800 -23.435  1.00  0.00     0.196 A 
HETATM   20  C17 UNL     1       4.651  -8.305 -23.446  1.00  0.00     0.282 C 
HETATM   21  C18 UNL     1       3.724  -9.616 -25.364  1.00  0.00     0.015 C 
HETATM   22  C19 UNL     1       0.850 -12.390 -24.031  1.00  0.00    -0.040 A 
HETATM   23  C20 UNL     1      -0.580 -12.149 -23.586  1.00  0.00     0.015 C 
HETATM   24  C21 UNL     1       1.073 -13.828 -24.463  1.00  0.00     0.015 C 
ENDROOT
BRANCH  15  25
HETATM   25  O1  UNL     1       5.305  -3.704 -25.608  1.00  0.00    -0.371 OA
ATOM     26  H1  UNL     1       5.534  -4.571 -25.921  1.00  0.00     0.212 HD
ENDBRANCH  15  25
TORSDOF 1
ENDMDL
MODEL 4
REMARK VINA RESULT: -7.081560267      2.867      6.838
REMARK  1 active torsions:
REMARK  status: ('A' for Active; 'I' for Inactive)
REMARK    1  A    between atoms: C14_15  and  O1_16 
ROOT
HETATM    1  C1  UNL     1       1.981  -8.734 -24.836  1.00  0.00     0.017 C 
HETATM    2  C2  UNL     1       3.088  -8.037 -23.993  1.00  0.00    -0.017 C 
HETATM    3  C3  UNL     1       2.354  -7.273 -22.978  1.00  0.00     0.011 C 
HETATM    4  C4  UNL     1       1.889  -5.899 -23.294  1.00  0.00     0.006 C 
HETATM    5  C5  UNL     1       2.864  -4.926 -22.764  1.00  0.00    -0.002 A 
HETATM    6  C6  UNL     1       3.807  -4.664 -23.984  1.00  0.00    -0.001 A 
HETATM    7  C7  UNL     1       4.992  -5.477 -23.718  1.00  0.00     0.010 C 
HETATM    8  C8  UNL     1       5.111  -6.634 -24.701  1.00  0.00    -0.011 C 
HETATM    9  C9  UNL     1       6.314  -7.398 -24.358  1.00  0.00     0.046 C 
HETATM   10  C10 UNL     1       6.104  -8.863 -23.946  1.00  0.00     0.288 C 
HETATM   11  N1  UNL     1       5.150  -8.889 -22.928  1.00  0.00     0.099 N 
HETATM   12  C11 UNL     1       5.465  -9.693 -21.784  1.00  0.00     0.280 C 
HETATM   13  C12 UNL     1       6.640 -10.567 -21.949  1.00  0.00     0.053 C 
HETATM   14  C13 UNL     1       6.538 -11.577 -23.067  1.00  0.00     0.069 C 
HETATM   15  C14 UNL     1       7.745 -11.535 -23.992  1.00  0.00     0.261 C 
HETATM   16  O2  UNL     1       7.999 -10.273 -24.513  1.00  0.00    -0.321 OA
HETATM   17  C15 UNL     1       7.481  -9.334 -23.715  1.00  0.00     0.225 A 
HETATM   18  O3  UNL     1       8.077  -8.573 -22.755  1.00  0.00    -0.340 OA
HETATM   19  C16 UNL     1       7.832  -9.768 -22.284  1.00  0.00     0.196 A 
HETATM   20  C17 UNL     1       3.800  -9.189 -23.310  1.00  0.00     0.282 C 
HETATM   21  C18 UNL     1       3.883  -7.354 -25.008  1.00  0.00     0.015 C 
HETATM   22  C19 UNL     1       3.204  -3.611 -23.202  1.00  0.00    -0.040 A 
HETATM   23  C20 UNL     1       4.139  -2.777 -22.346  1.00  0.00     0.015 C 
HETATM   24  C21 UNL     1       2.104  -2.771 -23.822  1.00  0.00     0.015 C 
ENDROOT
BRANCH  15  25
HETATM   25  O1  UNL     1       7.415 -12.358 -25.089  1.00  0.00    -0.371 OA
ATOM     26  H1  UNL     1       8.182 -12.895 -25.247  1.00  0.00     0.212 HD
ENDBRANCH  15  25
TORSDOF 1
ENDMDL
MODEL 5
REMARK VINA RESULT: -6.712494489      1.785      3.735
REMARK  1 active torsions:
REMARK  status: ('A' for Active; 'I' for Inactive)
REMARK    1  A    between atoms: C14_15  and  O1_16 
ROOT
HETATM    1  C1  UNL     1       7.053  -8.837 -24.396  1.00  0.00     0.017 C 
HETATM    2  C2  UNL     1       5.585  -9.052 -23.925  1.00  0.00    -0.017 C 
HETATM    3  C3  UNL     1       5.636 -10.259 -23.093  1.00  0.00     0.011 C 
HETATM    4  C4  UNL     1       5.506 -11.591 -23.733  1.00  0.00     0.006 C 
HETATM    5  C5  UNL     1       4.105 -12.044 -23.623  1.00  0.00    -0.002 A 
HETATM    6  C6  UNL     1       3.469 -11.566 -24.970  1.00  0.00    -0.001 A 
HETATM    7  C7  UNL     1       2.741 -10.347 -24.623  1.00  0.00     0.010 C 
HETATM    8  C8  UNL     1       3.387  -9.114 -25.240  1.00  0.00    -0.011 C 
HETATM    9  C9  UNL     1       2.604  -7.942 -24.837  1.00  0.00     0.046 C 
HETATM   10  C10 UNL     1       3.335  -6.881 -23.999  1.00  0.00     0.288 C 
HETATM   11  N1  UNL     1       3.925  -7.526 -22.911  1.00  0.00     0.099 N 
HETATM   12  C11 UNL     1       3.734  -6.912 -21.630  1.00  0.00     0.280 C 
HETATM   13  C12 UNL     1       3.145  -5.562 -21.675  1.00  0.00     0.053 C 
HETATM   14  C13 UNL     1       3.950  -4.535 -22.436  1.00  0.00     0.069 C 
HETATM   15  C14 UNL     1       3.111  -3.799 -23.469  1.00  0.00     0.261 C 
HETATM   16  O2  UNL     1       2.459  -4.644 -24.357  1.00  0.00    -0.321 OA
HETATM   17  C15 UNL     1       2.298  -5.852 -23.807  1.00  0.00     0.225 A 
HETATM   18  O3  UNL     1       1.216  -6.394 -23.183  1.00  0.00    -0.340 OA
HETATM   19  C16 UNL     1       1.843  -5.591 -22.363  1.00  0.00     0.196 A 
HETATM   20  C17 UNL     1       5.316  -7.858 -23.029  1.00  0.00     0.282 C 
HETATM   21  C18 UNL     1       4.841  -9.044 -25.180  1.00  0.00     0.015 C 
HETATM   22  C19 UNL     1       3.336 -12.909 -24.457  1.00  0.00    -0.040 A 
HETATM   23  C20 UNL     1       1.953 -13.327 -23.994  1.00  0.00     0.015 C 
HETATM   24  C21 UNL     1       4.062 -14.040 -25.159  1.00  0.00     0.015 C 
ENDROOT
BRANCH  15  25
HETATM   25  O1  UNL     1       4.025  -3.047 -24.237  1.00  0.00    -0.371 OA
ATOM     26  H1  UNL     1       4.830  -3.551 -24.246  1.00  0.00     0.212 HD
ENDBRANCH  15  25
TORSDOF 1
ENDMDL
