MODEL 1
REMARK VINA RESULT: -9.409785237      0.000      0.000
REMARK  2 active torsions:
REMARK  status: ('A' for Active; 'I' for Inactive)
REMARK    1  A    between atoms: C3_5  and  N2_6 
REMARK    2  A    between atoms: C4_7  and  C5_8 
ROOT
HETATM    1  N2  UNL     1       2.491  -9.222 -24.012  1.00  0.00    -0.127 N 
HETATM    2  C4  UNL     1       1.319  -8.724 -24.366  1.00  0.00     0.140 A 
HETATM    3  N3  UNL     1       1.080  -7.359 -24.263  1.00  0.00    -0.338 N 
ATOM      4  H3  UNL     1       0.169  -6.993 -24.542  1.00  0.00     0.167 HD
HETATM    5  C11 UNL     1       2.001  -6.520 -23.812  1.00  0.00     0.075 A 
HETATM    6  C12 UNL     1       3.227  -7.018 -23.436  1.00  0.00     0.089 A 
HETATM    7  N4  UNL     1       3.996  -6.001 -23.015  1.00  0.00    -0.352 N 
ATOM      8  H4  UNL     1       4.954  -6.096 -22.680  1.00  0.00     0.166 HD
HETATM    9  C13 UNL     1       3.320  -4.840 -23.099  1.00  0.00     0.045 A 
HETATM   10  C14 UNL     1       3.634  -3.519 -22.800  1.00  0.00     0.030 A 
HETATM   11  C15 UNL     1       2.698  -2.530 -23.002  1.00  0.00     0.002 A 
HETATM   12  C16 UNL     1       1.464  -2.860 -23.496  1.00  0.00     0.001 A 
HETATM   13  C17 UNL     1       1.108  -4.159 -23.807  1.00  0.00     0.016 A 
HETATM   14  C18 UNL     1       2.064  -5.139 -23.596  1.00  0.00     0.020 A 
HETATM   15  C19 UNL     1       3.463  -8.370 -23.540  1.00  0.00     0.098 A 
HETATM   16  C20 UNL     1       4.745  -8.896 -23.156  1.00  0.00    -0.006 A 
HETATM   17  C21 UNL     1       5.790  -9.085 -24.021  1.00  0.00     0.017 A 
HETATM   18  C22 UNL     1       6.977  -9.578 -23.540  1.00  0.00     0.043 A 
HETATM   19  C23 UNL     1       7.163  -9.894 -22.211  1.00  0.00     0.116 A 
HETATM   20  F1  UNL     1       8.325 -10.381 -21.716  1.00  0.00    -0.206 F 
HETATM   21  C24 UNL     1       6.123  -9.710 -21.327  1.00  0.00     0.043 A 
HETATM   22  C25 UNL     1       4.938  -9.214 -21.828  1.00  0.00     0.017 A 
ENDROOT
BRANCH   1  23
HETATM   23  C3  UNL     1       2.929 -10.551 -24.146  1.00  0.00     0.713 A 
HETATM   24  N1  UNL     1       3.770 -11.189 -24.946  1.00  0.00    -0.170 N 
HETATM   25  C2  UNL     1       3.777 -12.497 -24.656  1.00  0.00     0.158 A 
ATOM     26  H1  UNL     1       4.331 -10.748 -25.675  1.00  0.00     0.186 HD
HETATM   27  C1  UNL     1       4.569 -13.588 -25.298  1.00  0.00     0.100 C 
HETATM   28  O1  UNL     1       2.943 -12.676 -23.680  1.00  0.00    -0.210 OA
HETATM   29  N5  UNL     1       2.419 -11.544 -23.349  1.00  0.00    -0.089 N 
ATOM     30  H5  UNL     1       1.731 -11.409 -22.608  1.00  0.00     0.213 HD
ENDBRANCH   1  23
BRANCH   2  31
HETATM   31  C5  UNL     1       0.237  -9.525 -24.946  1.00  0.00     0.009 A 
HETATM   32  C6  UNL     1       0.073  -9.467 -26.347  1.00  0.00     0.015 A 
HETATM   33  C7  UNL     1      -0.932 -10.097 -27.020  1.00  0.00     0.001 A 
HETATM   34  C8  UNL     1      -1.836 -10.833 -26.270  1.00  0.00     0.000 A 
HETATM   35  C9  UNL     1      -1.712 -10.912 -24.926  1.00  0.00     0.001 A 
HETATM   36  C10 UNL     1      -0.668 -10.251 -24.258  1.00  0.00     0.015 A 
ENDBRANCH   2  31
TORSDOF 2
ENDMDL
MODEL 2
REMARK VINA RESULT: -8.308587746      2.272      5.410
REMARK  2 active torsions:
REMARK  status: ('A' for Active; 'I' for Inactive)
REMARK    1  A    between atoms: C3_5  and  N2_6 
REMARK    2  A    between atoms: C4_7  and  C5_8 
ROOT
HETATM    1  N2  UNL     1       3.325  -8.722 -23.833  1.00  0.00    -0.127 N 
HETATM    2  C4  UNL     1       4.312  -8.134 -23.178  1.00  0.00     0.140 A 
HETATM    3  N3  UNL     1       4.245  -6.777 -22.886  1.00  0.00    -0.338 N 
ATOM      4  H3  UNL     1       5.015  -6.341 -22.378  1.00  0.00     0.167 HD
HETATM    5  C11 UNL     1       3.209  -6.033 -23.248  1.00  0.00     0.075 A 
HETATM    6  C12 UNL     1       2.173  -6.625 -23.933  1.00  0.00     0.089 A 
HETATM    7  N4  UNL     1       1.243  -5.695 -24.198  1.00  0.00    -0.352 N 
ATOM      8  H4  UNL     1       0.371  -5.869 -24.697  1.00  0.00     0.166 HD
HETATM    9  C13 UNL     1       1.626  -4.501 -23.709  1.00  0.00     0.045 A 
HETATM   10  C14 UNL     1       1.054  -3.233 -23.705  1.00  0.00     0.030 A 
HETATM   11  C15 UNL     1       1.716  -2.185 -23.106  1.00  0.00     0.002 A 
HETATM   12  C16 UNL     1       2.934  -2.403 -22.520  1.00  0.00     0.001 A 
HETATM   13  C17 UNL     1       3.540  -3.646 -22.500  1.00  0.00     0.016 A 
HETATM   14  C18 UNL     1       2.858  -4.686 -23.109  1.00  0.00     0.020 A 
HETATM   15  C19 UNL     1       2.240  -7.970 -24.221  1.00  0.00     0.098 A 
HETATM   16  C20 UNL     1       1.158  -8.596 -24.930  1.00  0.00    -0.006 A 
HETATM   17  C21 UNL     1       0.098  -9.219 -24.324  1.00  0.00     0.017 A 
HETATM   18  C22 UNL     1      -0.889  -9.768 -25.102  1.00  0.00     0.043 A 
HETATM   19  C23 UNL     1      -0.861  -9.720 -26.479  1.00  0.00     0.116 A 
HETATM   20  F1  UNL     1      -1.824 -10.255 -27.265  1.00  0.00    -0.206 F 
HETATM   21  C24 UNL     1       0.197  -9.098 -27.105  1.00  0.00     0.043 A 
HETATM   22  C25 UNL     1       1.180  -8.551 -26.308  1.00  0.00     0.017 A 
ENDROOT
BRANCH   1  23
HETATM   23  C3  UNL     1       3.188 -10.092 -24.118  1.00  0.00     0.713 A 
HETATM   24  N1  UNL     1       2.407 -11.069 -23.686  1.00  0.00    -0.170 N 
HETATM   25  C2  UNL     1       2.742 -12.222 -24.281  1.00  0.00     0.158 A 
ATOM     26  H1  UNL     1       1.659 -10.961 -23.001  1.00  0.00     0.186 HD
HETATM   27  C1  UNL     1       2.134 -13.574 -24.098  1.00  0.00     0.100 C 
HETATM   28  O1  UNL     1       3.729 -11.966 -25.081  1.00  0.00    -0.210 OA
HETATM   29  N5  UNL     1       4.023 -10.711 -25.014  1.00  0.00    -0.089 N 
ATOM     30  H5  UNL     1       4.763 -10.251 -25.544  1.00  0.00     0.213 HD
ENDBRANCH   1  23
BRANCH   2  31
HETATM   31  C5  UNL     1       5.480  -8.848 -22.655  1.00  0.00     0.009 A 
HETATM   32  C6  UNL     1       6.648  -8.840 -23.448  1.00  0.00     0.015 A 
HETATM   33  C7  UNL     1       7.786  -9.520 -23.129  1.00  0.00     0.001 A 
HETATM   34  C8  UNL     1       7.779 -10.257 -21.955  1.00  0.00     0.000 A 
HETATM   35  C9  UNL     1       6.679 -10.290 -21.170  1.00  0.00     0.001 A 
HETATM   36  C10 UNL     1       5.519  -9.581 -21.523  1.00  0.00     0.015 A 
ENDBRANCH   2  31
TORSDOF 2
ENDMDL
MODEL 3
REMARK VINA RESULT: -8.176981310      2.549      5.974
REMARK  2 active torsions:
REMARK  status: ('A' for Active; 'I' for Inactive)
REMARK    1  A    between atoms: C3_5  and  N2_6 
REMARK    2  A    between atoms: C4_7  and  C5_8 
ROOT
HETATM    1  N2  UNL     1       2.460  -9.050 -24.196  1.00  0.00    -0.127 N 
HETATM    2  C4  UNL     1       2.061 -10.308 -24.273  1.00  0.00     0.140 A 
HETATM    3  N3  UNL     1       2.995 -11.332 -24.374  1.00  0.00    -0.338 N 
ATOM      4  H3  UNL     1       2.668 -12.297 -24.431  1.00  0.00     0.167 HD
HETATM    5  C11 UNL     1       4.298 -11.090 -24.399  1.00  0.00     0.075 A 
HETATM    6  C12 UNL     1       4.734  -9.788 -24.323  1.00  0.00     0.089 A 
HETATM    7  N4  UNL     1       6.075  -9.778 -24.367  1.00  0.00    -0.352 N 
ATOM      8  H4  UNL     1       6.653  -8.939 -24.328  1.00  0.00     0.166 HD
HETATM    9  C13 UNL     1       6.548 -11.034 -24.469  1.00  0.00     0.045 A 
HETATM   10  C14 UNL     1       7.824 -11.581 -24.550  1.00  0.00     0.030 A 
HETATM   11  C15 UNL     1       7.981 -12.944 -24.649  1.00  0.00     0.002 A 
HETATM   12  C16 UNL     1       6.874 -13.751 -24.668  1.00  0.00     0.001 A 
HETATM   13  C17 UNL     1       5.587 -13.252 -24.591  1.00  0.00     0.016 A 
HETATM   14  C18 UNL     1       5.451 -11.877 -24.492  1.00  0.00     0.020 A 
HETATM   15  C19 UNL     1       3.808  -8.775 -24.222  1.00  0.00     0.098 A 
HETATM   16  C20 UNL     1       4.257  -7.412 -24.135  1.00  0.00    -0.006 A 
HETATM   17  C21 UNL     1       4.474  -6.746 -22.957  1.00  0.00     0.017 A 
HETATM   18  C22 UNL     1       4.921  -5.450 -22.993  1.00  0.00     0.043 A 
HETATM   19  C23 UNL     1       5.163  -4.782 -24.175  1.00  0.00     0.116 A 
HETATM   20  F1  UNL     1       5.603  -3.504 -24.232  1.00  0.00    -0.206 F 
HETATM   21  C24 UNL     1       4.950  -5.435 -25.368  1.00  0.00     0.043 A 
HETATM   22  C25 UNL     1       4.501  -6.738 -25.313  1.00  0.00     0.017 A 
ENDROOT
BRANCH   1  23
HETATM   23  C3  UNL     1       1.660  -7.912 -23.991  1.00  0.00     0.713 A 
HETATM   24  N1  UNL     1       1.006  -7.068 -24.774  1.00  0.00    -0.170 N 
HETATM   25  C2  UNL     1       0.427  -6.112 -24.035  1.00  0.00     0.158 A 
ATOM     26  H1  UNL     1       0.953  -7.135 -25.790  1.00  0.00     0.186 HD
HETATM   27  C1  UNL     1      -0.405  -4.959 -24.493  1.00  0.00     0.100 C 
HETATM   28  O1  UNL     1       0.717  -6.359 -22.796  1.00  0.00    -0.210 OA
HETATM   29  N5  UNL     1       1.448  -7.420 -22.728  1.00  0.00    -0.089 N 
ATOM     30  H5  UNL     1       1.812  -7.830 -21.867  1.00  0.00     0.213 HD
ENDBRANCH   1  23
BRANCH   2  31
HETATM   31  C5  UNL     1       0.658 -10.723 -24.185  1.00  0.00     0.009 A 
HETATM   32  C6  UNL     1       0.366 -11.837 -23.368  1.00  0.00     0.015 A 
HETATM   33  C7  UNL     1      -0.878 -12.381 -23.245  1.00  0.00     0.001 A 
HETATM   34  C8  UNL     1      -1.904 -11.797 -23.972  1.00  0.00     0.000 A 
HETATM   35  C9  UNL     1      -1.662 -10.730 -24.766  1.00  0.00     0.001 A 
HETATM   36  C10 UNL     1      -0.371 -10.189 -24.875  1.00  0.00     0.015 A 
ENDBRANCH   2  31
TORSDOF 2
ENDMDL
MODEL 4
REMARK VINA RESULT: -8.144395236      3.103      7.543
REMARK  2 active torsions:
REMARK  status: ('A' for Active; 'I' for Inactive)
REMARK    1  A    between atoms: C3_5  and  N2_6 
REMARK    2  A    between atoms: C4_7  and  C5_8 
ROOT
HETATM    1  N2  UNL     1       2.774  -8.874 -24.258  1.00  0.00    -0.127 N 
HETATM    2  C4  UNL     1       4.048  -8.551 -24.109  1.00  0.00     0.140 A 
HETATM    3  N3  UNL     1       5.029  -9.532 -24.182  1.00  0.00    -0.338 N 
ATOM      4  H3  UNL     1       6.007  -9.264 -24.067  1.00  0.00     0.167 HD
HETATM    5  C11 UNL     1       4.731 -10.805 -24.398  1.00  0.00     0.075 A 
HETATM    6  C12 UNL     1       3.412 -11.162 -24.554  1.00  0.00     0.089 A 
HETATM    7  N4  UNL     1       3.344 -12.487 -24.759  1.00  0.00    -0.352 N 
ATOM      8  H4  UNL     1       2.481 -13.010 -24.903  1.00  0.00     0.166 HD
HETATM    9  C13 UNL     1       4.578 -13.025 -24.746  1.00  0.00     0.045 A 
HETATM   10  C14 UNL     1       5.068 -14.317 -24.903  1.00  0.00     0.030 A 
HETATM   11  C15 UNL     1       6.423 -14.548 -24.834  1.00  0.00     0.002 A 
HETATM   12  C16 UNL     1       7.276 -13.501 -24.611  1.00  0.00     0.001 A 
HETATM   13  C17 UNL     1       6.834 -12.200 -24.449  1.00  0.00     0.016 A 
HETATM   14  C18 UNL     1       5.467 -11.989 -24.521  1.00  0.00     0.020 A 
HETATM   15  C19 UNL     1       2.441 -10.190 -24.482  1.00  0.00     0.098 A 
HETATM   16  C20 UNL     1       1.061 -10.555 -24.650  1.00  0.00    -0.006 A 
HETATM   17  C21 UNL     1       0.395 -10.522 -25.848  1.00  0.00     0.017 A 
HETATM   18  C22 UNL     1      -0.919 -10.910 -25.895  1.00  0.00     0.043 A 
HETATM   19  C23 UNL     1      -1.606 -11.336 -24.778  1.00  0.00     0.116 A 
HETATM   20  F1  UNL     1      -2.903 -11.723 -24.802  1.00  0.00    -0.206 F 
HETATM   21  C24 UNL     1      -0.954 -11.376 -23.566  1.00  0.00     0.043 A 
HETATM   22  C25 UNL     1       0.368 -10.983 -23.537  1.00  0.00     0.017 A 
ENDROOT
BRANCH   1  23
HETATM   23  C3  UNL     1       1.674  -8.000 -24.312  1.00  0.00     0.713 A 
HETATM   24  N1  UNL     1       0.930  -7.482 -25.277  1.00  0.00    -0.170 N 
HETATM   25  C2  UNL     1       0.016  -6.652 -24.757  1.00  0.00     0.158 A 
ATOM     26  H1  UNL     1       1.039  -7.684 -26.271  1.00  0.00     0.186 HD
HETATM   27  C1  UNL     1      -1.026  -5.853 -25.468  1.00  0.00     0.100 C 
HETATM   28  O1  UNL     1       0.187  -6.653 -23.472  1.00  0.00    -0.210 OA
HETATM   29  N5  UNL     1       1.162  -7.441 -23.168  1.00  0.00    -0.089 N 
ATOM     30  H5  UNL     1       1.501  -7.621 -22.222  1.00  0.00     0.213 HD
ENDBRANCH   1  23
BRANCH   2  31
HETATM   31  C5  UNL     1       4.523  -7.176 -23.937  1.00  0.00     0.009 A 
HETATM   32  C6  UNL     1       4.648  -6.698 -22.614  1.00  0.00     0.015 A 
HETATM   33  C7  UNL     1       5.007  -5.420 -22.300  1.00  0.00     0.001 A 
HETATM   34  C8  UNL     1       5.260  -4.554 -23.352  1.00  0.00     0.000 A 
HETATM   35  C9  UNL     1       5.150  -4.975 -24.632  1.00  0.00     0.001 A 
HETATM   36  C10 UNL     1       4.777  -6.296 -24.927  1.00  0.00     0.015 A 
ENDBRANCH   2  31
TORSDOF 2
ENDMDL
MODEL 5
REMARK VINA RESULT: -7.564148129      2.561      5.870
REMARK  2 active torsions:
REMARK  status: ('A' for Active; 'I' for Inactive)
REMARK    1  A    between atoms: C3_5  and  N2_6 
REMARK    2  A    between atoms: C4_7  and  C5_8 
ROOT
HETATM    1  N2  UNL     1       4.300 -10.603 -23.904  1.00  0.00    -0.127 N 
HETATM    2  C4  UNL     1       3.901 -11.798 -24.306  1.00  0.00     0.140 A 
HETATM    3  N3  UNL     1       2.563 -12.025 -24.601  1.00  0.00    -0.338 N 
ATOM      4  H3  UNL     1       2.274 -12.953 -24.911  1.00  0.00     0.167 HD
HETATM    5  C11 UNL     1       1.650 -11.069 -24.490  1.00  0.00     0.075 A 
HETATM    6  C12 UNL     1       2.044  -9.820 -24.071  1.00  0.00     0.089 A 
HETATM    7  N4  UNL     1       0.968  -9.019 -24.031  1.00  0.00    -0.352 N 
ATOM      8  H4  UNL     1       0.982  -8.038 -23.752  1.00  0.00     0.166 HD
HETATM    9  C13 UNL     1      -0.132  -9.696 -24.411  1.00  0.00     0.045 A 
HETATM   10  C14 UNL     1      -1.474  -9.357 -24.546  1.00  0.00     0.030 A 
HETATM   11  C15 UNL     1      -2.380 -10.303 -24.968  1.00  0.00     0.002 A 
HETATM   12  C16 UNL     1      -1.949 -11.571 -25.251  1.00  0.00     0.001 A 
HETATM   13  C17 UNL     1      -0.625 -11.953 -25.131  1.00  0.00     0.016 A 
HETATM   14  C18 UNL     1       0.270 -10.987 -24.704  1.00  0.00     0.020 A 
HETATM   15  C19 UNL     1       3.371  -9.596 -23.780  1.00  0.00     0.098 A 
HETATM   16  C20 UNL     1       3.790  -8.290 -23.349  1.00  0.00    -0.006 A 
HETATM   17  C21 UNL     1       4.256  -7.314 -24.190  1.00  0.00     0.017 A 
HETATM   18  C22 UNL     1       4.612  -6.096 -23.669  1.00  0.00     0.043 A 
HETATM   19  C23 UNL     1       4.520  -5.809 -22.324  1.00  0.00     0.116 A 
HETATM   20  F1  UNL     1       4.866  -4.615 -21.790  1.00  0.00    -0.206 F 
HETATM   21  C24 UNL     1       4.053  -6.779 -21.464  1.00  0.00     0.043 A 
HETATM   22  C25 UNL     1       3.700  -7.997 -22.004  1.00  0.00     0.017 A 
ENDROOT
BRANCH   1  23
HETATM   23  C3  UNL     1       5.619 -10.180 -23.663  1.00  0.00     0.713 A 
HETATM   24  N1  UNL     1       6.410 -10.122 -22.603  1.00  0.00    -0.170 N 
HETATM   25  C2  UNL     1       7.588  -9.577 -22.938  1.00  0.00     0.158 A 
ATOM     26  H1  UNL     1       6.159 -10.445 -21.668  1.00  0.00     0.186 HD
HETATM   27  C1  UNL     1       8.773  -9.318 -22.068  1.00  0.00     0.100 C 
HETATM   28  O1  UNL     1       7.532  -9.296 -24.202  1.00  0.00    -0.210 OA
HETATM   29  N5  UNL     1       6.379  -9.639 -24.669  1.00  0.00    -0.089 N 
ATOM     30  H5  UNL     1       6.079  -9.525 -25.638  1.00  0.00     0.213 HD
ENDBRANCH   1  23
BRANCH   2  31
HETATM   31  C5  UNL     1       4.812 -12.922 -24.540  1.00  0.00     0.009 A 
HETATM   32  C6  UNL     1       4.245 -14.120 -25.028  1.00  0.00     0.015 A 
HETATM   33  C7  UNL     1       4.953 -15.269 -25.224  1.00  0.00     0.001 A 
HETATM   34  C8  UNL     1       6.305 -15.243 -24.920  1.00  0.00     0.000 A 
HETATM   35  C9  UNL     1       6.883 -14.115 -24.450  1.00  0.00     0.001 A 
HETATM   36  C10 UNL     1       6.131 -12.946 -24.257  1.00  0.00     0.015 A 
ENDBRANCH   2  31
TORSDOF 2
ENDMDL
