MODEL 1
REMARK VINA RESULT: -9.669686914      0.000      0.000
REMARK  7 active torsions:
REMARK  status: ('A' for Active; 'I' for Inactive)
REMARK    1  A    between atoms: C1_2  and  C2_3 
REMARK    2  A    between atoms: C2_3  and  C3_4 
REMARK    3  A    between atoms: C3_4  and  C4_5 
REMARK    4  A    between atoms: C7_8  and  N1_9 
REMARK    5  A    between atoms: N1_9  and  C8_11 
REMARK    6  A    between atoms: N4_24  and  C17_25 
REMARK    7  A    between atoms: C17_25  and  C18_26 
ROOT
HETATM    1  C8  UNL     1       1.606 -11.294 -23.965  1.00  0.00     0.136 A 
HETATM    2  N2  UNL     1       0.389 -11.836 -23.654  1.00  0.00    -0.337 N 
ATOM      3  H2  UNL     1      -0.382 -11.225 -23.382  1.00  0.00     0.168 HD
HETATM    4  C9  UNL     1       0.203 -13.152 -23.701  1.00  0.00     0.182 A 
HETATM    5  N3  UNL     1       1.227 -13.935 -24.060  1.00  0.00    -0.350 N 
ATOM      6  H3  UNL     1       1.085 -14.944 -24.096  1.00  0.00     0.166 HD
HETATM    7  C10 UNL     1       2.441 -13.438 -24.373  1.00  0.00     0.076 A 
HETATM    8  C11 UNL     1       3.625 -14.008 -24.780  1.00  0.00     0.020 A 
HETATM    9  C12 UNL     1       3.958 -15.326 -25.010  1.00  0.00     0.016 A 
HETATM   10  C13 UNL     1       5.216 -15.693 -25.445  1.00  0.00     0.001 A 
HETATM   11  C14 UNL     1       6.128 -14.679 -25.641  1.00  0.00     0.002 A 
HETATM   12  C15 UNL     1       5.779 -13.371 -25.407  1.00  0.00     0.030 A 
HETATM   13  C16 UNL     1       4.524 -12.988 -24.971  1.00  0.00     0.048 A 
HETATM   14  N4  UNL     1       3.934 -11.773 -24.689  1.00  0.00    -0.337 N 
HETATM   15  C24 UNL     1       2.685 -12.061 -24.337  1.00  0.00     0.107 A 
ENDROOT
BRANCH   1  16
HETATM   16  N1  UNL     1       1.748 -10.015 -23.945  1.00  0.00    -0.341 N 
ATOM     17  H1  UNL     1       1.997  -9.535 -23.080  1.00  0.00     0.167 HD
BRANCH  16  18
HETATM   18  C7  UNL     1       1.554  -9.283 -25.148  1.00  0.00     0.033 A 
HETATM   19  C6  UNL     1       2.441  -8.310 -25.567  1.00  0.00     0.031 A 
HETATM   20  C5  UNL     1       2.211  -7.623 -26.741  1.00  0.00     0.023 A 
HETATM   21  C4  UNL     1       1.113  -7.866 -27.538  1.00  0.00     0.018 A 
HETATM   22  C26 UNL     1       0.219  -8.835 -27.132  1.00  0.00     0.023 A 
HETATM   23  C25 UNL     1       0.453  -9.517 -25.957  1.00  0.00     0.031 A 
BRANCH  21  24
HETATM   24  C3  UNL     1       0.928  -7.119 -28.750  1.00  0.00    -0.065 C 
BRANCH  24  25
HETATM   25  C2  UNL     1       0.787  -6.501 -29.781  1.00  0.00    -0.070 C 
BRANCH  25  26
HETATM   26  C1  UNL     1       0.620  -5.777 -31.035  1.00  0.00     0.316 C 
HETATM   27  F1  UNL     1      -0.084  -6.523 -31.968  1.00  0.00    -0.242 F 
ENDBRANCH  25  26
ENDBRANCH  24  25
ENDBRANCH  21  24
ENDBRANCH  16  18
ENDBRANCH   1  16
BRANCH  14  28
HETATM   28  C17 UNL     1       4.642 -10.523 -24.791  1.00  0.00     0.168 C 
BRANCH  28  29
HETATM   29  C18 UNL     1       5.691 -10.231 -23.819  1.00  0.00    -0.040 A 
HETATM   30  C19 UNL     1       6.721  -9.376 -24.176  1.00  0.00     0.009 A 
HETATM   31  C20 UNL     1       7.755  -9.019 -23.373  1.00  0.00     0.001 A 
HETATM   32  C21 UNL     1       7.797  -9.546 -22.087  1.00  0.00     0.000 A 
HETATM   33  C22 UNL     1       6.816 -10.397 -21.667  1.00  0.00     0.001 A 
HETATM   34  C23 UNL     1       5.778 -10.729 -22.533  1.00  0.00     0.009 A 
ENDBRANCH  28  29
ENDBRANCH  14  28
TORSDOF 7
ENDMDL
MODEL 2
REMARK VINA RESULT: -9.650884909      3.366      7.856
REMARK  7 active torsions:
REMARK  status: ('A' for Active; 'I' for Inactive)
REMARK    1  A    between atoms: C1_2  and  C2_3 
REMARK    2  A    between atoms: C2_3  and  C3_4 
REMARK    3  A    between atoms: C3_4  and  C4_5 
REMARK    4  A    between atoms: C7_8  and  N1_9 
REMARK    5  A    between atoms: N1_9  and  C8_11 
REMARK    6  A    between atoms: N4_24  and  C17_25 
REMARK    7  A    between atoms: C17_25  and  C18_26 
ROOT
HETATM    1  C8  UNL     1       3.560  -9.757 -23.720  1.00  0.00     0.136 A 
HETATM    2  N2  UNL     1       4.433  -8.734 -23.474  1.00  0.00    -0.337 N 
ATOM      3  H2  UNL     1       5.235  -8.889 -22.862  1.00  0.00     0.168 HD
HETATM    4  C9  UNL     1       4.247  -7.538 -24.026  1.00  0.00     0.182 A 
HETATM    5  N3  UNL     1       3.189  -7.356 -24.825  1.00  0.00    -0.350 N 
ATOM      6  H3  UNL     1       3.046  -6.439 -25.248  1.00  0.00     0.166 HD
HETATM    7  C10 UNL     1       2.307  -8.340 -25.091  1.00  0.00     0.076 A 
HETATM    8  C11 UNL     1       1.177  -8.417 -25.872  1.00  0.00     0.020 A 
HETATM    9  C12 UNL     1       0.565  -7.472 -26.669  1.00  0.00     0.016 A 
HETATM   10  C13 UNL     1      -0.567  -7.762 -27.403  1.00  0.00     0.001 A 
HETATM   11  C14 UNL     1      -1.061  -9.045 -27.306  1.00  0.00     0.002 A 
HETATM   12  C15 UNL     1      -0.439  -9.974 -26.507  1.00  0.00     0.030 A 
HETATM   13  C16 UNL     1       0.695  -9.698 -25.765  1.00  0.00     0.048 A 
HETATM   14  N4  UNL     1       1.498 -10.442 -24.925  1.00  0.00    -0.337 N 
HETATM   15  C24 UNL     1       2.460  -9.613 -24.534  1.00  0.00     0.107 A 
ENDROOT
BRANCH   1  16
HETATM   16  N1  UNL     1       3.785 -10.914 -23.202  1.00  0.00    -0.341 N 
ATOM     17  H1  UNL     1       3.246 -11.235 -22.397  1.00  0.00     0.167 HD
BRANCH  16  18
HETATM   18  C7  UNL     1       4.795 -11.737 -23.770  1.00  0.00     0.033 A 
HETATM   19  C6  UNL     1       6.139 -11.510 -23.546  1.00  0.00     0.031 A 
HETATM   20  C5  UNL     1       7.085 -12.335 -24.119  1.00  0.00     0.023 A 
HETATM   21  C4  UNL     1       6.747 -13.403 -24.923  1.00  0.00     0.018 A 
HETATM   22  C26 UNL     1       5.408 -13.642 -25.154  1.00  0.00     0.023 A 
HETATM   23  C25 UNL     1       4.467 -12.813 -24.579  1.00  0.00     0.031 A 
BRANCH  21  24
HETATM   24  C3  UNL     1       7.776 -14.227 -25.491  1.00  0.00    -0.065 C 
BRANCH  24  25
HETATM   25  C2  UNL     1       8.658 -14.908 -25.962  1.00  0.00    -0.070 C 
BRANCH  25  26
HETATM   26  C1  UNL     1       9.738 -15.710 -26.524  1.00  0.00     0.316 C 
HETATM   27  F1  UNL     1      10.980 -15.281 -26.081  1.00  0.00    -0.242 F 
ENDBRANCH  25  26
ENDBRANCH  24  25
ENDBRANCH  21  24
ENDBRANCH  16  18
ENDBRANCH   1  16
BRANCH  14  28
HETATM   28  C17 UNL     1       1.230 -11.823 -24.616  1.00  0.00     0.168 C 
BRANCH  28  29
HETATM   29  C18 UNL     1       0.196 -12.133 -23.633  1.00  0.00    -0.040 A 
HETATM   30  C19 UNL     1       0.565 -12.697 -22.423  1.00  0.00     0.009 A 
HETATM   31  C20 UNL     1      -0.290 -13.034 -21.424  1.00  0.00     0.001 A 
HETATM   32  C21 UNL     1      -1.646 -12.800 -21.618  1.00  0.00     0.000 A 
HETATM   33  C22 UNL     1      -2.083 -12.247 -22.787  1.00  0.00     0.001 A 
HETATM   34  C23 UNL     1      -1.161 -11.921 -23.778  1.00  0.00     0.009 A 
ENDBRANCH  28  29
ENDBRANCH  14  28
TORSDOF 7
ENDMDL
MODEL 3
REMARK VINA RESULT: -9.625504811      2.965      5.239
REMARK  7 active torsions:
REMARK  status: ('A' for Active; 'I' for Inactive)
REMARK    1  A    between atoms: C1_2  and  C2_3 
REMARK    2  A    between atoms: C2_3  and  C3_4 
REMARK    3  A    between atoms: C3_4  and  C4_5 
REMARK    4  A    between atoms: C7_8  and  N1_9 
REMARK    5  A    between atoms: N1_9  and  C8_11 
REMARK    6  A    between atoms: N4_24  and  C17_25 
REMARK    7  A    between atoms: C17_25  and  C18_26 
ROOT
HETATM    1  C8  UNL     1       5.635 -10.209 -23.185  1.00  0.00     0.136 A 
HETATM    2  N2  UNL     1       6.951  -9.840 -23.201  1.00  0.00    -0.337 N 
ATOM      3  H2  UNL     1       7.235  -8.958 -22.772  1.00  0.00     0.168 HD
HETATM    4  C9  UNL     1       7.866 -10.620 -23.772  1.00  0.00     0.182 A 
HETATM    5  N3  UNL     1       7.472 -11.771 -24.329  1.00  0.00    -0.350 N 
ATOM      6  H3  UNL     1       8.173 -12.369 -24.766  1.00  0.00     0.166 HD
HETATM    7  C10 UNL     1       6.184 -12.168 -24.333  1.00  0.00     0.076 A 
HETATM    8  C11 UNL     1       5.536 -13.285 -24.809  1.00  0.00     0.020 A 
HETATM    9  C12 UNL     1       6.021 -14.402 -25.457  1.00  0.00     0.016 A 
HETATM   10  C13 UNL     1       5.194 -15.439 -25.836  1.00  0.00     0.001 A 
HETATM   11  C14 UNL     1       3.855 -15.310 -25.537  1.00  0.00     0.002 A 
HETATM   12  C15 UNL     1       3.388 -14.191 -24.892  1.00  0.00     0.030 A 
HETATM   13  C16 UNL     1       4.205 -13.143 -24.506  1.00  0.00     0.048 A 
HETATM   14  N4  UNL     1       3.990 -11.951 -23.845  1.00  0.00    -0.337 N 
HETATM   15  C24 UNL     1       5.187 -11.382 -23.747  1.00  0.00     0.107 A 
ENDROOT
BRANCH   1  16
HETATM   16  N1  UNL     1       4.777  -9.453 -22.595  1.00  0.00    -0.341 N 
ATOM     17  H1  UNL     1       4.270  -9.787 -21.775  1.00  0.00     0.167 HD
BRANCH  16  18
HETATM   18  C7  UNL     1       4.547  -8.145 -23.103  1.00  0.00     0.033 A 
HETATM   19  C6  UNL     1       4.843  -7.802 -24.408  1.00  0.00     0.031 A 
HETATM   20  C5  UNL     1       4.604  -6.520 -24.857  1.00  0.00     0.023 A 
HETATM   21  C4  UNL     1       4.070  -5.539 -24.049  1.00  0.00     0.018 A 
HETATM   22  C26 UNL     1       3.769  -5.868 -22.744  1.00  0.00     0.023 A 
HETATM   23  C25 UNL     1       4.011  -7.151 -22.300  1.00  0.00     0.031 A 
BRANCH  21  24
HETATM   24  C3  UNL     1       3.843  -4.222 -24.573  1.00  0.00    -0.065 C 
BRANCH  24  25
HETATM   25  C2  UNL     1       3.634  -3.111 -25.004  1.00  0.00    -0.070 C 
BRANCH  25  26
HETATM   26  C1  UNL     1       3.360  -1.781 -25.534  1.00  0.00     0.316 C 
HETATM   27  F1  UNL     1       2.014  -1.460 -25.445  1.00  0.00    -0.242 F 
ENDBRANCH  25  26
ENDBRANCH  24  25
ENDBRANCH  21  24
ENDBRANCH  16  18
ENDBRANCH   1  16
BRANCH  14  28
HETATM   28  C17 UNL     1       2.684 -11.528 -23.410  1.00  0.00     0.168 C 
BRANCH  28  29
HETATM   29  C18 UNL     1       1.826 -10.818 -24.355  1.00  0.00    -0.040 A 
HETATM   30  C19 UNL     1       0.482 -11.145 -24.421  1.00  0.00     0.009 A 
HETATM   31  C20 UNL     1      -0.423 -10.566 -25.251  1.00  0.00     0.001 A 
HETATM   32  C21 UNL     1       0.020  -9.565 -26.106  1.00  0.00     0.000 A 
HETATM   33  C22 UNL     1       1.333  -9.191 -26.096  1.00  0.00     0.001 A 
HETATM   34  C23 UNL     1       2.218  -9.819 -25.224  1.00  0.00     0.009 A 
ENDBRANCH  28  29
ENDBRANCH  14  28
TORSDOF 7
ENDMDL
MODEL 4
REMARK VINA RESULT: -9.324213471      3.582      5.947
REMARK  7 active torsions:
REMARK  status: ('A' for Active; 'I' for Inactive)
REMARK    1  A    between atoms: C1_2  and  C2_3 
REMARK    2  A    between atoms: C2_3  and  C3_4 
REMARK    3  A    between atoms: C3_4  and  C4_5 
REMARK    4  A    between atoms: C7_8  and  N1_9 
REMARK    5  A    between atoms: N1_9  and  C8_11 
REMARK    6  A    between atoms: N4_24  and  C17_25 
REMARK    7  A    between atoms: C17_25  and  C18_26 
ROOT
HETATM    1  C8  UNL     1       1.768  -9.209 -25.817  1.00  0.00     0.136 A 
HETATM    2  N2  UNL     1       1.079  -8.469 -26.739  1.00  0.00    -0.337 N 
ATOM      3  H2  UNL     1       1.583  -7.826 -27.350  1.00  0.00     0.168 HD
HETATM    4  C9  UNL     1      -0.243  -8.582 -26.845  1.00  0.00     0.182 A 
HETATM    5  N3  UNL     1      -0.884  -9.431 -26.034  1.00  0.00    -0.350 N 
ATOM      6  H3  UNL     1      -1.896  -9.517 -26.116  1.00  0.00     0.166 HD
HETATM    7  C10 UNL     1      -0.240 -10.176 -25.114  1.00  0.00     0.076 A 
HETATM    8  C11 UNL     1      -0.650 -11.113 -24.194  1.00  0.00     0.020 A 
HETATM    9  C12 UNL     1      -1.905 -11.612 -23.914  1.00  0.00     0.016 A 
HETATM   10  C13 UNL     1      -2.104 -12.583 -22.953  1.00  0.00     0.001 A 
HETATM   11  C14 UNL     1      -0.988 -13.035 -22.283  1.00  0.00     0.002 A 
HETATM   12  C15 UNL     1       0.255 -12.526 -22.575  1.00  0.00     0.030 A 
HETATM   13  C16 UNL     1       0.470 -11.554 -23.534  1.00  0.00     0.048 A 
HETATM   14  N4  UNL     1       1.592 -10.911 -24.016  1.00  0.00    -0.337 N 
HETATM   15  C24 UNL     1       1.148 -10.092 -24.964  1.00  0.00     0.107 A 
ENDROOT
BRANCH   1  16
HETATM   16  N1  UNL     1       3.049  -9.107 -25.761  1.00  0.00    -0.341 N 
ATOM     17  H1  UNL     1       3.645  -9.818 -26.187  1.00  0.00     0.167 HD
BRANCH  16  18
HETATM   18  C7  UNL     1       3.622  -7.990 -25.095  1.00  0.00     0.033 A 
HETATM   19  C6  UNL     1       4.533  -8.136 -24.066  1.00  0.00     0.031 A 
HETATM   20  C5  UNL     1       5.062  -7.022 -23.447  1.00  0.00     0.023 A 
HETATM   21  C4  UNL     1       4.721  -5.738 -23.815  1.00  0.00     0.018 A 
HETATM   22  C26 UNL     1       3.813  -5.578 -24.841  1.00  0.00     0.023 A 
HETATM   23  C25 UNL     1       3.287  -6.695 -25.455  1.00  0.00     0.031 A 
BRANCH  21  24
HETATM   24  C3  UNL     1       5.306  -4.618 -23.134  1.00  0.00    -0.065 C 
BRANCH  24  25
HETATM   25  C2  UNL     1       5.816  -3.686 -22.556  1.00  0.00    -0.070 C 
BRANCH  25  26
HETATM   26  C1  UNL     1       6.443  -2.556 -21.881  1.00  0.00     0.316 C 
HETATM   27  F1  UNL     1       7.715  -2.869 -21.428  1.00  0.00    -0.242 F 
ENDBRANCH  25  26
ENDBRANCH  24  25
ENDBRANCH  21  24
ENDBRANCH  16  18
ENDBRANCH   1  16
BRANCH  14  28
HETATM   28  C17 UNL     1       2.913 -11.164 -23.502  1.00  0.00     0.168 C 
BRANCH  28  29
HETATM   29  C18 UNL     1       3.696 -12.249 -24.086  1.00  0.00    -0.040 A 
HETATM   30  C19 UNL     1       5.066 -12.093 -24.222  1.00  0.00     0.009 A 
HETATM   31  C20 UNL     1       5.910 -13.019 -24.745  1.00  0.00     0.001 A 
HETATM   32  C21 UNL     1       5.370 -14.222 -25.184  1.00  0.00     0.000 A 
HETATM   33  C22 UNL     1       4.027 -14.445 -25.082  1.00  0.00     0.001 A 
HETATM   34  C23 UNL     1       3.208 -13.460 -24.536  1.00  0.00     0.009 A 
ENDBRANCH  28  29
ENDBRANCH  14  28
TORSDOF 7
ENDMDL
MODEL 5
REMARK VINA RESULT: -9.310783190      3.769      8.188
REMARK  7 active torsions:
REMARK  status: ('A' for Active; 'I' for Inactive)
REMARK    1  A    between atoms: C1_2  and  C2_3 
REMARK    2  A    between atoms: C2_3  and  C3_4 
REMARK    3  A    between atoms: C3_4  and  C4_5 
REMARK    4  A    between atoms: C7_8  and  N1_9 
REMARK    5  A    between atoms: N1_9  and  C8_11 
REMARK    6  A    between atoms: N4_24  and  C17_25 
REMARK    7  A    between atoms: C17_25  and  C18_26 
ROOT
HETATM    1  C8  UNL     1       3.954 -10.340 -23.207  1.00  0.00     0.136 A 
HETATM    2  N2  UNL     1       5.087 -10.101 -22.480  1.00  0.00    -0.337 N 
ATOM      3  H2  UNL     1       5.746 -10.860 -22.305  1.00  0.00     0.168 HD
HETATM    4  C9  UNL     1       5.338  -8.886 -21.998  1.00  0.00     0.182 A 
HETATM    5  N3  UNL     1       4.462  -7.904 -22.239  1.00  0.00    -0.350 N 
ATOM      6  H3  UNL     1       4.654  -6.973 -21.870  1.00  0.00     0.166 HD
HETATM    7  C10 UNL     1       3.335  -8.102 -22.951  1.00  0.00     0.076 A 
HETATM    8  C11 UNL     1       2.305  -7.279 -23.348  1.00  0.00     0.020 A 
HETATM    9  C12 UNL     1       2.094  -5.933 -23.135  1.00  0.00     0.016 A 
HETATM   10  C13 UNL     1       0.990  -5.280 -23.646  1.00  0.00     0.001 A 
HETATM   11  C14 UNL     1       0.105  -6.036 -24.383  1.00  0.00     0.002 A 
HETATM   12  C15 UNL     1       0.330  -7.376 -24.585  1.00  0.00     0.030 A 
HETATM   13  C16 UNL     1       1.431  -8.044 -24.079  1.00  0.00     0.048 A 
HETATM   14  N4  UNL     1       1.884  -9.345 -24.155  1.00  0.00    -0.337 N 
HETATM   15  C24 UNL     1       3.027  -9.360 -23.477  1.00  0.00     0.107 A 
ENDROOT
BRANCH   1  16
HETATM   16  N1  UNL     1       3.755 -11.515 -23.692  1.00  0.00    -0.341 N 
ATOM     17  H1  UNL     1       2.818 -11.920 -23.699  1.00  0.00     0.167 HD
BRANCH  16  18
HETATM   18  C7  UNL     1       4.858 -12.239 -24.218  1.00  0.00     0.033 A 
HETATM   19  C6  UNL     1       6.108 -11.669 -24.365  1.00  0.00     0.031 A 
HETATM   20  C5  UNL     1       7.151 -12.411 -24.881  1.00  0.00     0.023 A 
HETATM   21  C4  UNL     1       7.005 -13.726 -25.266  1.00  0.00     0.018 A 
HETATM   22  C26 UNL     1       5.762 -14.308 -25.124  1.00  0.00     0.023 A 
HETATM   23  C25 UNL     1       4.724 -13.562 -24.609  1.00  0.00     0.031 A 
BRANCH  21  24
HETATM   24  C3  UNL     1       8.127 -14.447 -25.796  1.00  0.00    -0.065 C 
BRANCH  24  25
HETATM   25  C2  UNL     1       9.086 -15.047 -26.228  1.00  0.00    -0.070 C 
BRANCH  25  26
HETATM   26  C1  UNL     1      10.253 -15.765 -26.725  1.00  0.00     0.316 C 
HETATM   27  F1  UNL     1      11.434 -15.129 -26.376  1.00  0.00    -0.242 F 
ENDBRANCH  25  26
ENDBRANCH  24  25
ENDBRANCH  21  24
ENDBRANCH  16  18
ENDBRANCH   1  16
BRANCH  14  28
HETATM   28  C17 UNL     1       1.164 -10.379 -24.853  1.00  0.00     0.168 C 
BRANCH  28  29
HETATM   29  C18 UNL     1       0.149 -11.138 -24.128  1.00  0.00    -0.040 A 
HETATM   30  C19 UNL     1      -1.189 -10.853 -24.347  1.00  0.00     0.009 A 
HETATM   31  C20 UNL     1      -2.231 -11.480 -23.743  1.00  0.00     0.001 A 
HETATM   32  C21 UNL     1      -1.947 -12.490 -22.831  1.00  0.00     0.000 A 
HETATM   33  C22 UNL     1      -0.650 -12.824 -22.565  1.00  0.00     0.001 A 
HETATM   34  C23 UNL     1       0.379 -12.147 -23.214  1.00  0.00     0.009 A 
ENDBRANCH  28  29
ENDBRANCH  14  28
TORSDOF 7
ENDMDL
