MODEL 1
REMARK VINA RESULT: -8.958829893      0.000      0.000
REMARK  5 active torsions:
REMARK  status: ('A' for Active; 'I' for Inactive)
REMARK    1  A    between atoms: C4_5  and  N1_6 
REMARK    2  A    between atoms: N3_11  and  C7_12 
REMARK    3  A    between atoms: C7_12  and  N4_14 
REMARK    4  A    between atoms: N4_14  and  C8_16 
REMARK    5  A    between atoms: C14_22  and  C15_23 
ROOT
HETATM    1  N1  UNL     1       3.618  -5.298 -21.271  1.00  0.00    -0.286 N 
HETATM    2  C5  UNL     1       3.404  -5.244 -22.699  1.00  0.00     0.210 C 
HETATM    3  C6  UNL     1       3.218  -6.697 -23.038  1.00  0.00     0.072 C 
HETATM    4  N2  UNL     1       2.783  -7.534 -23.905  1.00  0.00    -0.296 N 
ATOM      5  H2  UNL     1       2.356  -7.261 -24.790  1.00  0.00     0.187 HD
HETATM    6  N3  UNL     1       2.956  -8.863 -23.510  1.00  0.00    -0.252 N 
HETATM    7  C14 UNL     1       3.835  -8.842 -22.381  1.00  0.00     0.197 C 
HETATM    8  C21 UNL     1       3.763  -7.421 -21.898  1.00  0.00     0.081 C 
HETATM    9  N5  UNL     1       3.976  -6.607 -20.926  1.00  0.00    -0.297 N 
ATOM     10  H5  UNL     1       4.356  -6.879 -20.019  1.00  0.00     0.187 HD
ENDROOT
BRANCH   6  11
HETATM   11  C7  UNL     1       2.360 -10.029 -24.124  1.00  0.00     0.194 C 
HETATM   12  S1  UNL     1       1.441  -9.775 -25.421  1.00  0.00    -0.039 SA
BRANCH  11  13
HETATM   13  N4  UNL     1       2.632 -11.284 -23.582  1.00  0.00    -0.332 N 
ATOM     14  H4  UNL     1       2.225 -11.447 -22.661  1.00  0.00     0.168 HD
BRANCH  13  15
HETATM   15  C8  UNL     1       3.370 -12.358 -24.092  1.00  0.00     0.034 A 
HETATM   16  C9  UNL     1       2.691 -13.526 -24.459  1.00  0.00     0.029 A 
HETATM   17  C10 UNL     1       3.343 -14.615 -24.990  1.00  0.00     0.002 A 
HETATM   18  C11 UNL     1       4.714 -14.570 -25.172  1.00  0.00     0.000 A 
HETATM   19  C12 UNL     1       5.401 -13.448 -24.824  1.00  0.00     0.002 A 
HETATM   20  C13 UNL     1       4.718 -12.347 -24.284  1.00  0.00     0.029 A 
ENDBRANCH  13  15
ENDBRANCH  11  13
ENDBRANCH   6  11
BRANCH   7  21
HETATM   21  C15 UNL     1       5.233  -9.179 -22.719  1.00  0.00    -0.028 A 
HETATM   22  C16 UNL     1       5.808  -8.936 -23.936  1.00  0.00     0.010 A 
HETATM   23  C17 UNL     1       7.119  -9.264 -24.215  1.00  0.00     0.001 A 
HETATM   24  C18 UNL     1       7.887  -9.864 -23.234  1.00  0.00     0.000 A 
HETATM   25  C19 UNL     1       7.338 -10.122 -22.002  1.00  0.00     0.001 A 
HETATM   26  C20 UNL     1       6.013  -9.776 -21.754  1.00  0.00     0.010 A 
ENDBRANCH   7  21
BRANCH   1  27
HETATM   27  C4  UNL     1       3.480  -4.188 -20.403  1.00  0.00     0.051 A 
HETATM   28  C3  UNL     1       4.132  -3.005 -20.662  1.00  0.00     0.034 A 
HETATM   29  C2  UNL     1       4.002  -1.911 -19.817  1.00  0.00     0.044 A 
HETATM   30  C1  UNL     1       3.194  -2.056 -18.710  1.00  0.00     0.116 A 
HETATM   31  F1  UNL     1       3.032  -1.016 -17.849  1.00  0.00    -0.206 F 
HETATM   32  C23 UNL     1       2.550  -3.236 -18.462  1.00  0.00     0.044 A 
HETATM   33  C22 UNL     1       2.674  -4.328 -19.295  1.00  0.00     0.034 A 
ENDBRANCH   1  27
TORSDOF 5
ENDMDL
MODEL 2
REMARK VINA RESULT: -8.951381329      0.063      1.228
REMARK  5 active torsions:
REMARK  status: ('A' for Active; 'I' for Inactive)
REMARK    1  A    between atoms: C4_5  and  N1_6 
REMARK    2  A    between atoms: N3_11  and  C7_12 
REMARK    3  A    between atoms: C7_12  and  N4_14 
REMARK    4  A    between atoms: N4_14  and  C8_16 
REMARK    5  A    between atoms: C14_22  and  C15_23 
ROOT
HETATM    1  N1  UNL     1       3.607  -5.299 -21.275  1.00  0.00    -0.286 N 
HETATM    2  C5  UNL     1       3.375  -5.255 -22.701  1.00  0.00     0.210 C 
HETATM    3  C6  UNL     1       3.197  -6.712 -23.028  1.00  0.00     0.072 C 
HETATM    4  N2  UNL     1       2.758  -7.559 -23.885  1.00  0.00    -0.296 N 
ATOM      5  H2  UNL     1       2.318  -7.294 -24.766  1.00  0.00     0.187 HD
HETATM    6  N3  UNL     1       2.948  -8.883 -23.484  1.00  0.00    -0.252 N 
HETATM    7  C14 UNL     1       3.840  -8.847 -22.366  1.00  0.00     0.197 C 
HETATM    8  C21 UNL     1       3.763  -7.424 -21.891  1.00  0.00     0.081 C 
HETATM    9  N5  UNL     1       3.980  -6.602 -20.927  1.00  0.00    -0.297 N 
ATOM     10  H5  UNL     1       4.375  -6.865 -20.023  1.00  0.00     0.187 HD
ENDROOT
BRANCH   6  11
HETATM   11  C7  UNL     1       2.355 -10.058 -24.083  1.00  0.00     0.194 C 
HETATM   12  S1  UNL     1       1.395  -9.818 -25.353  1.00  0.00    -0.039 SA
BRANCH  11  13
HETATM   13  N4  UNL     1       2.662 -11.309 -23.551  1.00  0.00    -0.332 N 
ATOM     14  H4  UNL     1       2.350 -11.451 -22.590  1.00  0.00     0.168 HD
BRANCH  13  15
HETATM   15  C8  UNL     1       3.327 -12.403 -24.116  1.00  0.00     0.034 A 
HETATM   16  C9  UNL     1       4.714 -12.329 -24.289  1.00  0.00     0.029 A 
HETATM   17  C10 UNL     1       5.442 -13.371 -24.816  1.00  0.00     0.002 A 
HETATM   18  C11 UNL     1       4.797 -14.536 -25.190  1.00  0.00     0.000 A 
HETATM   19  C12 UNL     1       3.448 -14.637 -25.034  1.00  0.00     0.002 A 
HETATM   20  C13 UNL     1       2.723 -13.564 -24.495  1.00  0.00     0.029 A 
ENDBRANCH  13  15
ENDBRANCH  11  13
ENDBRANCH   6  11
BRANCH   7  21
HETATM   21  C15 UNL     1       5.237  -9.174 -22.719  1.00  0.00    -0.028 A 
HETATM   22  C16 UNL     1       5.803  -8.911 -23.936  1.00  0.00     0.010 A 
HETATM   23  C17 UNL     1       7.112  -9.231 -24.231  1.00  0.00     0.001 A 
HETATM   24  C18 UNL     1       7.889  -9.842 -23.264  1.00  0.00     0.000 A 
HETATM   25  C19 UNL     1       7.351 -10.121 -22.032  1.00  0.00     0.001 A 
HETATM   26  C20 UNL     1       6.027  -9.784 -21.769  1.00  0.00     0.010 A 
ENDBRANCH   7  21
BRANCH   1  27
HETATM   27  C4  UNL     1       3.470  -4.184 -20.413  1.00  0.00     0.051 A 
HETATM   28  C3  UNL     1       2.690  -4.258 -19.282  1.00  0.00     0.034 A 
HETATM   29  C2  UNL     1       2.550  -3.172 -18.431  1.00  0.00     0.044 A 
HETATM   30  C1  UNL     1       3.223  -2.015 -18.762  1.00  0.00     0.116 A 
HETATM   31  F1  UNL     1       3.120  -0.920 -17.962  1.00  0.00    -0.206 F 
HETATM   32  C23 UNL     1       3.996  -1.951 -19.888  1.00  0.00     0.044 A 
HETATM   33  C22 UNL     1       4.140  -3.026 -20.739  1.00  0.00     0.034 A 
ENDBRANCH   1  27
TORSDOF 5
ENDMDL
MODEL 3
REMARK VINA RESULT: -8.515206849      2.543      2.977
REMARK  5 active torsions:
REMARK  status: ('A' for Active; 'I' for Inactive)
REMARK    1  A    between atoms: C4_5  and  N1_6 
REMARK    2  A    between atoms: N3_11  and  C7_12 
REMARK    3  A    between atoms: C7_12  and  N4_14 
REMARK    4  A    between atoms: N4_14  and  C8_16 
REMARK    5  A    between atoms: C14_22  and  C15_23 
ROOT
HETATM    1  N1  UNL     1       3.166  -5.483 -24.260  1.00  0.00    -0.286 N 
HETATM    2  C5  UNL     1       3.138  -6.266 -25.474  1.00  0.00     0.210 C 
HETATM    3  C6  UNL     1       3.016  -7.665 -24.935  1.00  0.00     0.072 C 
HETATM    4  N2  UNL     1       2.708  -8.880 -25.205  1.00  0.00    -0.296 N 
ATOM      5  H2  UNL     1       2.396  -9.193 -26.124  1.00  0.00     0.187 HD
HETATM    6  N3  UNL     1       2.845  -9.729 -24.105  1.00  0.00    -0.252 N 
HETATM    7  C14 UNL     1       3.570  -8.998 -23.111  1.00  0.00     0.197 C 
HETATM    8  C21 UNL     1       3.418  -7.566 -23.539  1.00  0.00     0.081 C 
HETATM    9  N5  UNL     1       3.492  -6.330 -23.193  1.00  0.00    -0.297 N 
ATOM     10  H5  UNL     1       3.755  -6.007 -22.262  1.00  0.00     0.187 HD
ENDROOT
BRANCH   6  11
HETATM   11  C7  UNL     1       2.349 -11.084 -23.995  1.00  0.00     0.194 C 
HETATM   12  S1  UNL     1       0.795 -11.316 -24.345  1.00  0.00    -0.039 SA
BRANCH  11  13
HETATM   13  N4  UNL     1       3.235 -12.094 -23.625  1.00  0.00    -0.332 N 
ATOM     14  H4  UNL     1       3.450 -12.127 -22.628  1.00  0.00     0.168 HD
BRANCH  13  15
HETATM   15  C8  UNL     1       3.878 -13.071 -24.393  1.00  0.00     0.034 A 
HETATM   16  C9  UNL     1       5.231 -12.896 -24.706  1.00  0.00     0.029 A 
HETATM   17  C10 UNL     1       5.939 -13.823 -25.436  1.00  0.00     0.002 A 
HETATM   18  C11 UNL     1       5.306 -14.970 -25.882  1.00  0.00     0.000 A 
HETATM   19  C12 UNL     1       3.991 -15.168 -25.593  1.00  0.00     0.002 A 
HETATM   20  C13 UNL     1       3.286 -14.211 -24.847  1.00  0.00     0.029 A 
ENDBRANCH  13  15
ENDBRANCH  11  13
ENDBRANCH   6  11
BRANCH   7  21
HETATM   21  C15 UNL     1       5.004  -9.347 -23.054  1.00  0.00    -0.028 A 
HETATM   22  C16 UNL     1       5.859  -9.257 -24.118  1.00  0.00     0.010 A 
HETATM   23  C17 UNL     1       7.194  -9.592 -24.027  1.00  0.00     0.001 A 
HETATM   24  C18 UNL     1       7.695 -10.038 -22.818  1.00  0.00     0.000 A 
HETATM   25  C19 UNL     1       6.863 -10.141 -21.730  1.00  0.00     0.001 A 
HETATM   26  C20 UNL     1       5.521  -9.793 -21.858  1.00  0.00     0.010 A 
ENDBRANCH   7  21
BRANCH   1  27
HETATM   27  C4  UNL     1       2.902  -4.093 -24.203  1.00  0.00     0.051 A 
HETATM   28  C3  UNL     1       1.779  -3.613 -23.570  1.00  0.00     0.034 A 
HETATM   29  C2  UNL     1       1.512  -2.253 -23.509  1.00  0.00     0.044 A 
HETATM   30  C1  UNL     1       2.416  -1.401 -24.109  1.00  0.00     0.116 A 
HETATM   31  F1  UNL     1       2.203  -0.058 -24.079  1.00  0.00    -0.206 F 
HETATM   32  C23 UNL     1       3.529  -1.888 -24.735  1.00  0.00     0.044 A 
HETATM   33  C22 UNL     1       3.802  -3.238 -24.801  1.00  0.00     0.034 A 
ENDBRANCH   1  27
TORSDOF 5
ENDMDL
MODEL 4
REMARK VINA RESULT: -8.481973777      2.217      3.775
REMARK  5 active torsions:
REMARK  status: ('A' for Active; 'I' for Inactive)
REMARK    1  A    between atoms: C4_5  and  N1_6 
REMARK    2  A    between atoms: N3_11  and  C7_12 
REMARK    3  A    between atoms: C7_12  and  N4_14 
REMARK    4  A    between atoms: N4_14  and  C8_16 
REMARK    5  A    between atoms: C14_22  and  C15_23 
ROOT
HETATM    1  N1  UNL     1       3.036  -6.016 -22.634  1.00  0.00    -0.286 N 
HETATM    2  C5  UNL     1       3.571  -6.821 -21.560  1.00  0.00     0.210 C 
HETATM    3  C6  UNL     1       4.087  -8.023 -22.303  1.00  0.00     0.072 C 
HETATM    4  N2  UNL     1       4.857  -9.046 -22.256  1.00  0.00    -0.296 N 
ATOM      5  H2  UNL     1       5.427  -9.288 -21.445  1.00  0.00     0.187 HD
HETATM    6  N3  UNL     1       4.833  -9.797 -23.433  1.00  0.00    -0.252 N 
HETATM    7  C14 UNL     1       3.722  -9.321 -24.198  1.00  0.00     0.197 C 
HETATM    8  C21 UNL     1       3.423  -7.977 -23.599  1.00  0.00     0.081 C 
HETATM    9  N5  UNL     1       2.844  -6.838 -23.751  1.00  0.00    -0.297 N 
ATOM     10  H5  UNL     1       2.314  -6.568 -24.579  1.00  0.00     0.187 HD
ENDROOT
BRANCH   6  11
HETATM   11  C7  UNL     1       5.755 -10.848 -23.804  1.00  0.00     0.194 C 
HETATM   12  S1  UNL     1       7.043 -11.049 -22.860  1.00  0.00    -0.039 SA
BRANCH  11  13
HETATM   13  N4  UNL     1       5.467 -11.628 -24.923  1.00  0.00    -0.332 N 
ATOM     14  H4  UNL     1       5.376 -11.105 -25.794  1.00  0.00     0.168 HD
BRANCH  13  15
HETATM   15  C8  UNL     1       5.282 -13.010 -25.050  1.00  0.00     0.034 A 
HETATM   16  C9  UNL     1       3.975 -13.513 -25.072  1.00  0.00     0.029 A 
HETATM   17  C10 UNL     1       3.711 -14.855 -25.217  1.00  0.00     0.002 A 
HETATM   18  C11 UNL     1       4.759 -15.748 -25.346  1.00  0.00     0.000 A 
HETATM   19  C12 UNL     1       6.040 -15.289 -25.327  1.00  0.00     0.002 A 
HETATM   20  C13 UNL     1       6.290 -13.916 -25.179  1.00  0.00     0.029 A 
ENDBRANCH  13  15
ENDBRANCH  11  13
ENDBRANCH   6  11
BRANCH   7  21
HETATM   21  C15 UNL     1       2.527 -10.184 -24.097  1.00  0.00    -0.028 A 
HETATM   22  C16 UNL     1       2.402 -11.222 -23.215  1.00  0.00     0.010 A 
HETATM   23  C17 UNL     1       1.269 -12.006 -23.148  1.00  0.00     0.001 A 
HETATM   24  C18 UNL     1       0.215 -11.741 -24.002  1.00  0.00     0.000 A 
HETATM   25  C19 UNL     1       0.309 -10.706 -24.900  1.00  0.00     0.001 A 
HETATM   26  C20 UNL     1       1.466  -9.934 -24.939  1.00  0.00     0.010 A 
ENDBRANCH   7  21
BRANCH   1  27
HETATM   27  C4  UNL     1       2.765  -4.630 -22.530  1.00  0.00     0.051 A 
HETATM   28  C3  UNL     1       1.966  -3.997 -23.453  1.00  0.00     0.034 A 
HETATM   29  C2  UNL     1       1.695  -2.639 -23.360  1.00  0.00     0.044 A 
HETATM   30  C1  UNL     1       2.257  -1.950 -22.306  1.00  0.00     0.116 A 
HETATM   31  F1  UNL     1       2.023  -0.618 -22.167  1.00  0.00    -0.206 F 
HETATM   32  C23 UNL     1       3.049  -2.589 -21.393  1.00  0.00     0.044 A 
HETATM   33  C22 UNL     1       3.324  -3.938 -21.479  1.00  0.00     0.034 A 
ENDBRANCH   1  27
TORSDOF 5
ENDMDL
MODEL 5
REMARK VINA RESULT: -8.468046937      1.718      2.235
REMARK  5 active torsions:
REMARK  status: ('A' for Active; 'I' for Inactive)
REMARK    1  A    between atoms: C4_5  and  N1_6 
REMARK    2  A    between atoms: N3_11  and  C7_12 
REMARK    3  A    between atoms: C7_12  and  N4_14 
REMARK    4  A    between atoms: N4_14  and  C8_16 
REMARK    5  A    between atoms: C14_22  and  C15_23 
ROOT
HETATM    1  N1  UNL     1       2.837  -5.450 -23.287  1.00  0.00    -0.286 N 
HETATM    2  C5  UNL     1       2.713  -6.015 -24.611  1.00  0.00     0.210 C 
HETATM    3  C6  UNL     1       2.718  -7.490 -24.319  1.00  0.00     0.072 C 
HETATM    4  N2  UNL     1       2.440  -8.659 -24.766  1.00  0.00    -0.296 N 
ATOM      5  H2  UNL     1       2.044  -8.831 -25.690  1.00  0.00     0.187 HD
HETATM    6  N3  UNL     1       2.739  -9.672 -23.853  1.00  0.00    -0.252 N 
HETATM    7  C14 UNL     1       3.532  -9.075 -22.823  1.00  0.00     0.197 C 
HETATM    8  C21 UNL     1       3.266  -7.604 -22.974  1.00  0.00     0.081 C 
HETATM    9  N5  UNL     1       3.319  -6.442 -22.425  1.00  0.00    -0.297 N 
ATOM     10  H5  UNL     1       3.667  -6.266 -21.482  1.00  0.00     0.187 HD
ENDROOT
BRANCH   6  11
HETATM   11  C7  UNL     1       2.323 -11.056 -23.934  1.00  0.00     0.194 C 
HETATM   12  S1  UNL     1       0.800 -11.329 -24.378  1.00  0.00    -0.039 SA
BRANCH  11  13
HETATM   13  N4  UNL     1       3.255 -12.053 -23.654  1.00  0.00    -0.332 N 
ATOM     14  H4  UNL     1       3.550 -12.098 -22.679  1.00  0.00     0.168 HD
BRANCH  13  15
HETATM   15  C8  UNL     1       3.853 -13.004 -24.489  1.00  0.00     0.034 A 
HETATM   16  C9  UNL     1       5.121 -12.731 -25.017  1.00  0.00     0.029 A 
HETATM   17  C10 UNL     1       5.784 -13.625 -25.826  1.00  0.00     0.002 A 
HETATM   18  C11 UNL     1       5.192 -14.836 -26.136  1.00  0.00     0.000 A 
HETATM   19  C12 UNL     1       3.960 -15.129 -25.638  1.00  0.00     0.002 A 
HETATM   20  C13 UNL     1       3.300 -14.205 -24.814  1.00  0.00     0.029 A 
ENDBRANCH  13  15
ENDBRANCH  11  13
ENDBRANCH   6  11
BRANCH   7  21
HETATM   21  C15 UNL     1       4.979  -9.333 -22.973  1.00  0.00    -0.028 A 
HETATM   22  C16 UNL     1       5.682  -9.119 -24.126  1.00  0.00     0.010 A 
HETATM   23  C17 UNL     1       7.034  -9.371 -24.229  1.00  0.00     0.001 A 
HETATM   24  C18 UNL     1       7.713  -9.860 -23.128  1.00  0.00     0.000 A 
HETATM   25  C19 UNL     1       7.036 -10.087 -21.955  1.00  0.00     0.001 A 
HETATM   26  C20 UNL     1       5.673  -9.820 -21.887  1.00  0.00     0.010 A 
ENDBRANCH   7  21
BRANCH   1  27
HETATM   27  C4  UNL     1       2.514  -4.111 -22.960  1.00  0.00     0.051 A 
HETATM   28  C3  UNL     1       1.596  -3.405 -23.703  1.00  0.00     0.034 A 
HETATM   29  C2  UNL     1       1.274  -2.092 -23.390  1.00  0.00     0.044 A 
HETATM   30  C1  UNL     1       1.908  -1.523 -22.307  1.00  0.00     0.116 A 
HETATM   31  F1  UNL     1       1.629  -0.239 -21.957  1.00  0.00    -0.206 F 
HETATM   32  C23 UNL     1       2.818  -2.233 -21.574  1.00  0.00     0.044 A 
HETATM   33  C22 UNL     1       3.145  -3.538 -21.878  1.00  0.00     0.034 A 
ENDBRANCH   1  27
TORSDOF 5
ENDMDL
