MODEL 1
REMARK VINA RESULT: -8.677766464      0.000      0.000
REMARK  7 active torsions:
REMARK  status: ('A' for Active; 'I' for Inactive)
REMARK    1  A    between atoms: C2_2  and  O2_4 
REMARK    2  A    between atoms: O2_4  and  C3_5 
REMARK    3  A    between atoms: C11_13  and  O3_14 
REMARK    4  A    between atoms: O3_14  and  C12_15 
REMARK    5  A    between atoms: C12_15  and  C13_17 
REMARK    6  A    between atoms: C13_17  and  N1_18 
REMARK    7  A    between atoms: C13_17  and  C14_22 
ROOT
HETATM    1  C3  UNL     1       3.803 -10.968 -23.618  1.00  0.00     0.169 C 
HETATM    2  C4  UNL     1       4.029 -12.229 -24.369  1.00  0.00     0.011 C 
HETATM    3  C5  UNL     1       5.143 -12.792 -24.783  1.00  0.00    -0.062 C 
HETATM    4  C6  UNL     1       4.858 -14.045 -25.487  1.00  0.00    -0.024 C 
HETATM    5  C7  UNL     1       3.564 -14.718 -25.050  1.00  0.00     0.019 C 
HETATM    6  C8  UNL     1       4.724 -13.763 -26.959  1.00  0.00     0.019 C 
HETATM    7  C9  UNL     1       5.962 -15.036 -25.195  1.00  0.00     0.016 C 
HETATM    8  C10 UNL     1       7.331 -14.553 -25.434  1.00  0.00     0.035 C 
HETATM    9  C11 UNL     1       7.517 -13.076 -25.469  1.00  0.00     0.144 C 
HETATM   10  C18 UNL     1       6.538 -12.303 -24.616  1.00  0.00     0.007 C 
HETATM   11  C19 UNL     1       6.942 -12.530 -23.175  1.00  0.00     0.023 C 
HETATM   12  C20 UNL     1       6.659 -10.872 -25.024  1.00  0.00     0.017 C 
HETATM   13  C21 UNL     1       5.987  -9.889 -24.114  1.00  0.00     0.020 C 
HETATM   14  C22 UNL     1       4.472  -9.854 -24.357  1.00  0.00     0.091 C 
HETATM   15 BR1  UNL     1       3.852  -8.137 -23.690  1.00  0.00    -0.088 Br
ENDROOT
BRANCH   9  16
HETATM   16  O3  UNL     1       8.814 -12.760 -24.994  1.00  0.00    -0.313 OA
BRANCH  16  17
HETATM   17  C12 UNL     1       9.952 -12.750 -25.790  1.00  0.00     0.290 C 
HETATM   18  O4  UNL     1      10.875 -11.989 -25.420  1.00  0.00    -0.263 OA
BRANCH  17  19
HETATM   19  C13 UNL     1       9.980 -13.609 -26.967  1.00  0.00     0.289 C 
BRANCH  19  20
HETATM   20  N1  UNL     1       9.824 -12.842 -28.186  1.00  0.00    -0.065 N 
ATOM     21  H13 UNL     1       9.815 -13.445 -29.008  1.00  0.00     0.275 HD
ATOM     22  H12 UNL     1       8.885 -12.452 -28.265  1.00  0.00     0.275 HD
ATOM     23  H11 UNL     1      10.537 -12.116 -28.263  1.00  0.00     0.275 HD
ENDBRANCH  19  20
BRANCH  19  24
HETATM   24  C14 UNL     1      11.150 -14.544 -27.038  1.00  0.00    -0.014 C 
HETATM   25  C15 UNL     1      11.785 -14.639 -28.380  1.00  0.00     0.017 C 
HETATM   26  C16 UNL     1      12.199 -14.239 -26.007  1.00  0.00     0.017 C 
HETATM   27  C17 UNL     1      10.609 -15.942 -26.702  1.00  0.00     0.017 C 
ENDBRANCH  19  24
ENDBRANCH  17  19
ENDBRANCH  16  17
ENDBRANCH   9  16
BRANCH   1  28
HETATM   28  O2  UNL     1       2.432 -10.667 -23.523  1.00  0.00    -0.311 OA
BRANCH  28  29
HETATM   29  C2  UNL     1       1.441 -11.559 -23.923  1.00  0.00     0.255 C 
HETATM   30  C1  UNL     1       1.057 -12.748 -23.119  1.00  0.00     0.126 C 
HETATM   31  O1  UNL     1       0.871 -11.310 -25.028  1.00  0.00    -0.266 OA
ENDBRANCH  28  29
ENDBRANCH   1  28
TORSDOF 7
ENDMDL
MODEL 2
REMARK VINA RESULT: -8.666962427      1.147      1.425
REMARK  7 active torsions:
REMARK  status: ('A' for Active; 'I' for Inactive)
REMARK    1  A    between atoms: C2_2  and  O2_4 
REMARK    2  A    between atoms: O2_4  and  C3_5 
REMARK    3  A    between atoms: C11_13  and  O3_14 
REMARK    4  A    between atoms: O3_14  and  C12_15 
REMARK    5  A    between atoms: C12_15  and  C13_17 
REMARK    6  A    between atoms: C13_17  and  N1_18 
REMARK    7  A    between atoms: C13_17  and  C14_22 
ROOT
HETATM    1  C3  UNL     1       4.420 -11.242 -23.529  1.00  0.00     0.169 C 
HETATM    2  C4  UNL     1       4.447 -12.457 -24.383  1.00  0.00     0.011 C 
HETATM    3  C5  UNL     1       5.448 -13.058 -24.986  1.00  0.00    -0.062 C 
HETATM    4  C6  UNL     1       4.977 -14.235 -25.721  1.00  0.00    -0.024 C 
HETATM    5  C7  UNL     1       3.709 -14.854 -25.148  1.00  0.00     0.019 C 
HETATM    6  C8  UNL     1       4.664 -13.839 -27.138  1.00  0.00     0.019 C 
HETATM    7  C9  UNL     1       6.034 -15.314 -25.652  1.00  0.00     0.016 C 
HETATM    8  C10 UNL     1       7.390 -14.904 -26.052  1.00  0.00     0.035 C 
HETATM    9  C11 UNL     1       7.678 -13.444 -26.020  1.00  0.00     0.144 C 
HETATM   10  C18 UNL     1       6.885 -12.674 -24.988  1.00  0.00     0.007 C 
HETATM   11  C19 UNL     1       7.465 -13.031 -23.637  1.00  0.00     0.023 C 
HETATM   12  C20 UNL     1       7.055 -11.228 -25.317  1.00  0.00     0.017 C 
HETATM   13  C21 UNL     1       6.589 -10.273 -24.261  1.00  0.00     0.020 C 
HETATM   14  C22 UNL     1       5.062 -10.122 -24.284  1.00  0.00     0.091 C 
HETATM   15 BR1  UNL     1       4.668  -8.422 -23.428  1.00  0.00    -0.088 Br
ENDROOT
BRANCH   9  16
HETATM   16  O3  UNL     1       9.048 -13.248 -25.714  1.00  0.00    -0.313 OA
BRANCH  16  17
HETATM   17  C12 UNL     1      10.030 -13.007 -26.667  1.00  0.00     0.290 C 
HETATM   18  O4  UNL     1       9.624 -12.756 -27.823  1.00  0.00    -0.263 OA
BRANCH  17  19
HETATM   19  C13 UNL     1      11.426 -13.066 -26.250  1.00  0.00     0.289 C 
BRANCH  19  20
HETATM   20  N1  UNL     1      11.583 -12.665 -24.867  1.00  0.00    -0.065 N 
ATOM     21  H13 UNL     1      10.693 -12.376 -24.459  1.00  0.00     0.275 HD
ATOM     22  H12 UNL     1      11.780 -13.465 -24.266  1.00  0.00     0.275 HD
ATOM     23  H11 UNL     1      12.292 -11.939 -24.769  1.00  0.00     0.275 HD
ENDBRANCH  19  20
BRANCH  19  24
HETATM   24  C14 UNL     1      12.116 -14.365 -26.540  1.00  0.00    -0.014 C 
HETATM   25  C15 UNL     1      13.318 -14.628 -25.702  1.00  0.00     0.017 C 
HETATM   26  C16 UNL     1      11.187 -15.544 -26.467  1.00  0.00     0.017 C 
HETATM   27  C17 UNL     1      12.598 -14.286 -27.997  1.00  0.00     0.017 C 
ENDBRANCH  19  24
ENDBRANCH  17  19
ENDBRANCH  16  17
ENDBRANCH   9  16
BRANCH   1  28
HETATM   28  O2  UNL     1       3.101 -10.861 -23.222  1.00  0.00    -0.311 OA
BRANCH  28  29
HETATM   29  C2  UNL     1       2.007 -11.284 -23.971  1.00  0.00     0.255 C 
HETATM   30  C1  UNL     1       1.204 -12.483 -23.617  1.00  0.00     0.126 C 
HETATM   31  O1  UNL     1       1.719 -10.588 -24.991  1.00  0.00    -0.266 OA
ENDBRANCH  28  29
ENDBRANCH   1  28
TORSDOF 7
ENDMDL
MODEL 3
REMARK VINA RESULT: -8.305477897      1.829      3.250
REMARK  7 active torsions:
REMARK  status: ('A' for Active; 'I' for Inactive)
REMARK    1  A    between atoms: C2_2  and  O2_4 
REMARK    2  A    between atoms: O2_4  and  C3_5 
REMARK    3  A    between atoms: C11_13  and  O3_14 
REMARK    4  A    between atoms: O3_14  and  C12_15 
REMARK    5  A    between atoms: C12_15  and  C13_17 
REMARK    6  A    between atoms: C13_17  and  N1_18 
REMARK    7  A    between atoms: C13_17  and  C14_22 
ROOT
HETATM    1  C3  UNL     1       2.945 -11.450 -24.499  1.00  0.00     0.169 C 
HETATM    2  C4  UNL     1       4.306 -10.991 -24.121  1.00  0.00     0.011 C 
HETATM    3  C5  UNL     1       5.485 -11.519 -24.361  1.00  0.00    -0.062 C 
HETATM    4  C6  UNL     1       6.548 -10.695 -23.781  1.00  0.00    -0.024 C 
HETATM    5  C7  UNL     1       6.182  -9.223 -23.639  1.00  0.00     0.019 C 
HETATM    6  C8  UNL     1       6.862 -11.198 -22.398  1.00  0.00     0.019 C 
HETATM    7  C9  UNL     1       7.756 -10.736 -24.690  1.00  0.00     0.016 C 
HETATM    8  C10 UNL     1       8.224 -12.079 -25.064  1.00  0.00     0.035 C 
HETATM    9  C11 UNL     1       7.241 -13.188 -24.925  1.00  0.00     0.144 C 
HETATM   10  C18 UNL     1       5.799 -12.770 -25.102  1.00  0.00     0.007 C 
HETATM   11  C19 UNL     1       5.602 -12.501 -26.578  1.00  0.00     0.023 C 
HETATM   12  C20 UNL     1       4.966 -13.908 -24.614  1.00  0.00     0.017 C 
HETATM   13  C21 UNL     1       3.510 -13.827 -24.957  1.00  0.00     0.020 C 
HETATM   14  C22 UNL     1       2.773 -12.856 -24.024  1.00  0.00     0.091 C 
HETATM   15 BR1  UNL     1       0.897 -13.362 -24.082  1.00  0.00    -0.088 Br
ENDROOT
BRANCH   9  16
HETATM   16  O3  UNL     1       7.506 -14.171 -25.911  1.00  0.00    -0.313 OA
BRANCH  16  17
HETATM   17  C12 UNL     1       8.744 -14.776 -26.091  1.00  0.00     0.290 C 
HETATM   18  O4  UNL     1       9.093 -15.590 -25.207  1.00  0.00    -0.263 OA
BRANCH  17  19
HETATM   19  C13 UNL     1       9.521 -14.421 -27.273  1.00  0.00     0.289 C 
BRANCH  19  20
HETATM   20  N1  UNL     1       8.894 -13.346 -28.014  1.00  0.00    -0.065 N 
ATOM     21  H13 UNL     1       7.940 -13.179 -27.695  1.00  0.00     0.275 HD
ATOM     22  H12 UNL     1       9.301 -12.442 -27.776  1.00  0.00     0.275 HD
ATOM     23  H11 UNL     1       8.927 -13.518 -29.019  1.00  0.00     0.275 HD
ENDBRANCH  19  20
BRANCH  19  24
HETATM   24  C14 UNL     1      10.974 -14.155 -27.017  1.00  0.00    -0.014 C 
HETATM   25  C15 UNL     1      11.239 -13.038 -26.069  1.00  0.00     0.017 C 
HETATM   26  C16 UNL     1      11.717 -15.381 -26.568  1.00  0.00     0.017 C 
HETATM   27  C17 UNL     1      11.586 -13.749 -28.365  1.00  0.00     0.017 C 
ENDBRANCH  19  24
ENDBRANCH  17  19
ENDBRANCH  16  17
ENDBRANCH   9  16
BRANCH   1  28
HETATM   28  O2  UNL     1       1.951 -10.660 -23.894  1.00  0.00    -0.311 OA
BRANCH  28  29
HETATM   29  C2  UNL     1       1.265  -9.663 -24.582  1.00  0.00     0.255 C 
HETATM   30  C1  UNL     1       0.336  -9.953 -25.705  1.00  0.00     0.126 C 
HETATM   31  O1  UNL     1       1.474  -8.471 -24.204  1.00  0.00    -0.266 OA
ENDBRANCH  28  29
ENDBRANCH   1  28
TORSDOF 7
ENDMDL
MODEL 4
REMARK VINA RESULT: -7.860762693      1.095      1.260
REMARK  7 active torsions:
REMARK  status: ('A' for Active; 'I' for Inactive)
REMARK    1  A    between atoms: C2_2  and  O2_4 
REMARK    2  A    between atoms: O2_4  and  C3_5 
REMARK    3  A    between atoms: C11_13  and  O3_14 
REMARK    4  A    between atoms: O3_14  and  C12_15 
REMARK    5  A    between atoms: C12_15  and  C13_17 
REMARK    6  A    between atoms: C13_17  and  N1_18 
REMARK    7  A    between atoms: C13_17  and  C14_22 
ROOT
HETATM    1  C3  UNL     1       4.407 -11.175 -23.591  1.00  0.00     0.169 C 
HETATM    2  C4  UNL     1       4.412 -12.419 -24.403  1.00  0.00     0.011 C 
HETATM    3  C5  UNL     1       5.407 -13.078 -24.953  1.00  0.00    -0.062 C 
HETATM    4  C6  UNL     1       4.914 -14.261 -25.662  1.00  0.00    -0.024 C 
HETATM    5  C7  UNL     1       3.605 -14.811 -25.111  1.00  0.00     0.019 C 
HETATM    6  C8  UNL     1       4.660 -13.903 -27.102  1.00  0.00     0.019 C 
HETATM    7  C9  UNL     1       5.925 -15.377 -25.523  1.00  0.00     0.016 C 
HETATM    8  C10 UNL     1       7.307 -15.033 -25.893  1.00  0.00     0.035 C 
HETATM    9  C11 UNL     1       7.651 -13.585 -25.900  1.00  0.00     0.144 C 
HETATM   10  C18 UNL     1       6.858 -12.749 -24.921  1.00  0.00     0.007 C 
HETATM   11  C19 UNL     1       7.381 -13.082 -23.541  1.00  0.00     0.023 C 
HETATM   12  C20 UNL     1       7.095 -11.323 -25.293  1.00  0.00     0.017 C 
HETATM   13  C21 UNL     1       6.634 -10.316 -24.284  1.00  0.00     0.020 C 
HETATM   14  C22 UNL     1       5.115 -10.107 -24.362  1.00  0.00     0.091 C 
HETATM   15 BR1  UNL     1       4.762  -8.365 -23.577  1.00  0.00    -0.088 Br
ENDROOT
BRANCH   9  16
HETATM   16  O3  UNL     1       9.017 -13.430 -25.557  1.00  0.00    -0.313 OA
BRANCH  16  17
HETATM   17  C12 UNL     1      10.064 -13.548 -26.463  1.00  0.00     0.290 C 
HETATM   18  O4  UNL     1      10.032 -12.772 -27.444  1.00  0.00    -0.263 OA
BRANCH  17  19
HETATM   19  C13 UNL     1      11.094 -14.546 -26.202  1.00  0.00     0.289 C 
BRANCH  19  20
HETATM   20  N1  UNL     1      10.759 -15.822 -26.801  1.00  0.00    -0.065 N 
ATOM     21  H13 UNL     1      11.176 -16.598 -26.286  1.00  0.00     0.275 HD
ATOM     22  H12 UNL     1       9.775 -16.052 -26.663  1.00  0.00     0.275 HD
ATOM     23  H11 UNL     1      11.014 -15.849 -27.788  1.00  0.00     0.275 HD
ENDBRANCH  19  20
BRANCH  19  24
HETATM   24  C14 UNL     1      12.490 -14.116 -26.542  1.00  0.00    -0.014 C 
HETATM   25  C15 UNL     1      12.738 -13.917 -27.996  1.00  0.00     0.017 C 
HETATM   26  C16 UNL     1      12.917 -12.889 -25.788  1.00  0.00     0.017 C 
HETATM   27  C17 UNL     1      13.419 -15.250 -26.083  1.00  0.00     0.017 C 
ENDBRANCH  19  24
ENDBRANCH  17  19
ENDBRANCH  16  17
ENDBRANCH   9  16
BRANCH   1  28
HETATM   28  O2  UNL     1       3.095 -10.734 -23.339  1.00  0.00    -0.311 OA
BRANCH  28  29
HETATM   29  C2  UNL     1       1.991 -11.242 -24.019  1.00  0.00     0.255 C 
HETATM   30  C1  UNL     1       1.223 -12.420 -23.539  1.00  0.00     0.126 C 
HETATM   31  O1  UNL     1       1.664 -10.646 -25.089  1.00  0.00    -0.266 OA
ENDBRANCH  28  29
ENDBRANCH   1  28
TORSDOF 7
ENDMDL
MODEL 5
REMARK VINA RESULT: -7.608353067      2.734      4.891
REMARK  7 active torsions:
REMARK  status: ('A' for Active; 'I' for Inactive)
REMARK    1  A    between atoms: C2_2  and  O2_4 
REMARK    2  A    between atoms: O2_4  and  C3_5 
REMARK    3  A    between atoms: C11_13  and  O3_14 
REMARK    4  A    between atoms: O3_14  and  C12_15 
REMARK    5  A    between atoms: C12_15  and  C13_17 
REMARK    6  A    between atoms: C13_17  and  N1_18 
REMARK    7  A    between atoms: C13_17  and  C14_22 
ROOT
HETATM    1  C3  UNL     1       1.139  -9.043 -24.994  1.00  0.00     0.169 C 
HETATM    2  C4  UNL     1       2.371  -8.494 -24.372  1.00  0.00     0.011 C 
HETATM    3  C5  UNL     1       3.521  -9.068 -24.097  1.00  0.00    -0.062 C 
HETATM    4  C6  UNL     1       4.442  -8.111 -23.481  1.00  0.00    -0.024 C 
HETATM    5  C7  UNL     1       4.178  -6.662 -23.866  1.00  0.00     0.019 C 
HETATM    6  C8  UNL     1       4.308  -8.192 -21.984  1.00  0.00     0.019 C 
HETATM    7  C9  UNL     1       5.850  -8.413 -23.943  1.00  0.00     0.016 C 
HETATM    8  C10 UNL     1       6.289  -9.807 -23.775  1.00  0.00     0.035 C 
HETATM    9  C11 UNL     1       5.215 -10.829 -23.631  1.00  0.00     0.144 C 
HETATM   10  C18 UNL     1       3.924 -10.480 -24.335  1.00  0.00     0.007 C 
HETATM   11  C19 UNL     1       4.176 -10.650 -25.818  1.00  0.00     0.023 C 
HETATM   12  C20 UNL     1       2.892 -11.429 -23.820  1.00  0.00     0.017 C 
HETATM   13  C21 UNL     1       1.605 -11.451 -24.587  1.00  0.00     0.020 C 
HETATM   14  C22 UNL     1       0.720 -10.252 -24.220  1.00  0.00     0.091 C 
HETATM   15 BR1  UNL     1      -1.099 -10.753 -24.688  1.00  0.00    -0.088 Br
ENDROOT
BRANCH   9  16
HETATM   16  O3  UNL     1       5.664 -12.055 -24.181  1.00  0.00    -0.313 OA
BRANCH  16  17
HETATM   17  C12 UNL     1       6.993 -12.461 -24.194  1.00  0.00     0.290 C 
HETATM   18  O4  UNL     1       7.538 -12.592 -23.076  1.00  0.00    -0.263 OA
BRANCH  17  19
HETATM   19  C13 UNL     1       7.631 -12.697 -25.484  1.00  0.00     0.289 C 
BRANCH  19  20
HETATM   20  N1  UNL     1       9.062 -12.491 -25.411  1.00  0.00    -0.065 N 
ATOM     21  H13 UNL     1       9.299 -11.499 -25.451  1.00  0.00     0.275 HD
ATOM     22  H12 UNL     1       9.424 -12.702 -24.482  1.00  0.00     0.275 HD
ATOM     23  H11 UNL     1       9.552 -13.021 -26.132  1.00  0.00     0.275 HD
ENDBRANCH  19  20
BRANCH  19  24
HETATM   24  C14 UNL     1       7.283 -14.006 -26.129  1.00  0.00    -0.014 C 
HETATM   25  C15 UNL     1       6.669 -15.003 -25.211  1.00  0.00     0.017 C 
HETATM   26  C16 UNL     1       6.415 -13.841 -27.343  1.00  0.00     0.017 C 
HETATM   27  C17 UNL     1       8.605 -14.611 -26.623  1.00  0.00     0.017 C 
ENDBRANCH  19  24
ENDBRANCH  17  19
ENDBRANCH  16  17
ENDBRANCH   9  16
BRANCH   1  28
HETATM   28  O2  UNL     1       0.085  -8.112 -24.953  1.00  0.00    -0.311 OA
BRANCH  28  29
HETATM   29  C2  UNL     1      -0.278  -7.345 -26.056  1.00  0.00     0.255 C 
HETATM   30  C1  UNL     1      -0.246  -7.868 -27.446  1.00  0.00     0.126 C 
HETATM   31  O1  UNL     1      -0.643  -6.153 -25.819  1.00  0.00    -0.266 OA
ENDBRANCH  28  29
ENDBRANCH   1  28
TORSDOF 7
ENDMDL
