MODEL 1
REMARK VINA RESULT: -11.090896312      0.000      0.000
REMARK  5 active torsions:
REMARK  status: ('A' for Active; 'I' for Inactive)
REMARK    1  A    between atoms: C5_6  and  C6_7 
REMARK    2  A    between atoms: C6_7  and  O2_9 
REMARK    3  A    between atoms: O2_9  and  C7_10 
REMARK    4  A    between atoms: C11_14  and  N2_15 
REMARK    5  A    between atoms: N2_15  and  C12_17 
ROOT
HETATM    1  N1  UNL     1      -0.620  -6.398 -26.154  1.00  0.00    -0.190 NA
HETATM    2  C1  UNL     1      -0.291  -7.428 -25.725  1.00  0.00     0.117 C 
HETATM    3  C2  UNL     1       0.100  -8.697 -25.208  1.00  0.00     0.113 A 
HETATM    4  C3  UNL     1       1.394  -8.925 -24.767  1.00  0.00     0.042 A 
HETATM    5  C4  UNL     1       1.751 -10.167 -24.270  1.00  0.00     0.022 A 
HETATM    6  C5  UNL     1       0.843 -11.202 -24.199  1.00  0.00     0.055 A 
HETATM    7  C22 UNL     1      -0.427 -10.930 -24.648  1.00  0.00     0.106 A 
HETATM    8  N4  UNL     1      -0.767  -9.720 -25.130  1.00  0.00    -0.356 N 
ATOM      9  H4  UNL     1      -1.725  -9.573 -25.449  1.00  0.00     0.166 HD
ENDROOT
BRANCH   6  10
HETATM   10  C6  UNL     1       1.163 -12.518 -23.689  1.00  0.00     0.300 C 
HETATM   11  O1  UNL     1       0.845 -12.803 -22.508  1.00  0.00    -0.259 OA
BRANCH  10  12
HETATM   12  O2  UNL     1       1.804 -13.498 -24.421  1.00  0.00    -0.275 OA
BRANCH  12  13
HETATM   13  C7  UNL     1       3.171 -13.510 -24.668  1.00  0.00     0.081 A 
HETATM   14  C8  UNL     1       3.780 -14.570 -25.312  1.00  0.00     0.038 A 
HETATM   15  C9  UNL     1       5.156 -14.561 -25.549  1.00  0.00     0.019 A 
HETATM   16  C10 UNL     1       5.908 -13.478 -25.135  1.00  0.00     0.018 A 
HETATM   17  C11 UNL     1       7.267 -13.450 -25.362  1.00  0.00     0.046 A 
HETATM   18  C20 UNL     1       5.317 -12.391 -24.482  1.00  0.00     0.047 A 
HETATM   19  C18 UNL     1       8.024 -12.358 -24.943  1.00  0.00     0.047 A 
HETATM   20  C19 UNL     1       7.360 -11.331 -24.307  1.00  0.00     0.090 A 
HETATM   21  N3  UNL     1       6.037 -11.334 -24.075  1.00  0.00    -0.365 N 
ATOM     22  H3  UNL     1       5.589 -10.550 -23.600  1.00  0.00     0.165 HD
HETATM   23  C21 UNL     1       3.947 -12.462 -24.276  1.00  0.00     0.067 A 
BRANCH  17  24
HETATM   24  N2  UNL     1       7.795 -14.460 -25.965  1.00  0.00    -0.355 N 
ATOM     25  H2  UNL     1       7.248 -15.316 -26.062  1.00  0.00     0.166 HD
BRANCH  24  26
HETATM   26  C12 UNL     1       9.114 -14.425 -26.502  1.00  0.00     0.032 A 
HETATM   27  C13 UNL     1       9.405 -13.437 -27.439  1.00  0.00     0.031 A 
HETATM   28  C14 UNL     1      10.698 -13.420 -27.950  1.00  0.00     0.021 A 
HETATM   29  C15 UNL     1      11.642 -14.333 -27.552  1.00  0.00     0.011 A 
HETATM   30 BR1  UNL     1      13.421 -14.307 -28.256  1.00  0.00    -0.051 Br
HETATM   31  C16 UNL     1      11.349 -15.309 -26.625  1.00  0.00     0.021 A 
HETATM   32  C17 UNL     1      10.067 -15.337 -26.108  1.00  0.00     0.031 A 
ENDBRANCH  24  26
ENDBRANCH  17  24
ENDBRANCH  12  13
ENDBRANCH  10  12
ENDBRANCH   6  10
TORSDOF 5
ENDMDL
MODEL 2
REMARK VINA RESULT: -10.916736213      3.861      9.369
REMARK  5 active torsions:
REMARK  status: ('A' for Active; 'I' for Inactive)
REMARK    1  A    between atoms: C5_6  and  C6_7 
REMARK    2  A    between atoms: C6_7  and  O2_9 
REMARK    3  A    between atoms: O2_9  and  C7_10 
REMARK    4  A    between atoms: C11_14  and  N2_15 
REMARK    5  A    between atoms: N2_15  and  C12_17 
ROOT
HETATM    1  N1  UNL     1      14.472 -13.975 -28.710  1.00  0.00    -0.190 NA
HETATM    2  C1  UNL     1      13.397 -14.117 -28.291  1.00  0.00     0.117 C 
HETATM    3  C2  UNL     1      12.073 -14.286 -27.792  1.00  0.00     0.113 A 
HETATM    4  C3  UNL     1      11.794 -15.206 -26.793  1.00  0.00     0.042 A 
HETATM    5  C4  UNL     1      10.500 -15.353 -26.324  1.00  0.00     0.022 A 
HETATM    6  C5  UNL     1       9.462 -14.599 -26.829  1.00  0.00     0.055 A 
HETATM    7  C22 UNL     1       9.785 -13.701 -27.818  1.00  0.00     0.106 A 
HETATM    8  N4  UNL     1      11.046 -13.563 -28.268  1.00  0.00    -0.356 N 
ATOM      9  H4  UNL     1      11.230 -12.880 -29.004  1.00  0.00     0.166 HD
ENDROOT
BRANCH   6  10
HETATM   10  C6  UNL     1       8.092 -14.713 -26.375  1.00  0.00     0.300 C 
HETATM   11  O1  UNL     1       7.212 -15.078 -27.193  1.00  0.00    -0.259 OA
BRANCH  10  12
HETATM   12  O2  UNL     1       7.678 -14.443 -25.086  1.00  0.00    -0.275 OA
BRANCH  12  13
HETATM   13  C7  UNL     1       6.900 -13.347 -24.736  1.00  0.00     0.081 A 
HETATM   14  C8  UNL     1       5.525 -13.438 -24.632  1.00  0.00     0.038 A 
HETATM   15  C9  UNL     1       4.764 -12.322 -24.279  1.00  0.00     0.019 A 
HETATM   16  C10 UNL     1       5.399 -11.119 -24.032  1.00  0.00     0.018 A 
HETATM   17  C11 UNL     1       4.664 -10.007 -23.681  1.00  0.00     0.046 A 
HETATM   18  C20 UNL     1       6.789 -10.999 -24.129  1.00  0.00     0.047 A 
HETATM   19  C18 UNL     1       5.305  -8.796 -23.433  1.00  0.00     0.047 A 
HETATM   20  C19 UNL     1       6.678  -8.766 -23.552  1.00  0.00     0.090 A 
HETATM   21  N3  UNL     1       7.416  -9.837 -23.891  1.00  0.00    -0.365 N 
ATOM     22  H3  UNL     1       8.431  -9.767 -23.967  1.00  0.00     0.165 HD
HETATM   23  C21 UNL     1       7.488 -12.143 -24.484  1.00  0.00     0.067 A 
BRANCH  17  24
HETATM   24  N2  UNL     1       3.383 -10.137 -23.596  1.00  0.00    -0.355 N 
ATOM     25  H2  UNL     1       2.987 -10.563 -22.759  1.00  0.00     0.166 HD
BRANCH  24  26
HETATM   26  C12 UNL     1       2.502  -9.705 -24.629  1.00  0.00     0.032 A 
HETATM   27  C13 UNL     1       1.185 -10.153 -24.584  1.00  0.00     0.031 A 
HETATM   28  C14 UNL     1       0.341  -9.720 -25.601  1.00  0.00     0.021 A 
HETATM   29  C15 UNL     1       0.785  -8.892 -26.602  1.00  0.00     0.011 A 
HETATM   30 BR1  UNL     1      -0.378  -8.298 -28.000  1.00  0.00    -0.051 Br
HETATM   31  C16 UNL     1       2.090  -8.453 -26.642  1.00  0.00     0.021 A 
HETATM   32  C17 UNL     1       2.939  -8.875 -25.637  1.00  0.00     0.031 A 
ENDBRANCH  24  26
ENDBRANCH  17  24
ENDBRANCH  12  13
ENDBRANCH  10  12
ENDBRANCH   6  10
TORSDOF 5
ENDMDL
MODEL 3
REMARK VINA RESULT: -10.672477554      1.715      2.523
REMARK  5 active torsions:
REMARK  status: ('A' for Active; 'I' for Inactive)
REMARK    1  A    between atoms: C5_6  and  C6_7 
REMARK    2  A    between atoms: C6_7  and  O2_9 
REMARK    3  A    between atoms: O2_9  and  C7_10 
REMARK    4  A    between atoms: C11_14  and  N2_15 
REMARK    5  A    between atoms: N2_15  and  C12_17 
ROOT
HETATM    1  N1  UNL     1       0.281  -7.346 -28.837  1.00  0.00    -0.190 NA
HETATM    2  C1  UNL     1       0.012  -8.125 -28.016  1.00  0.00     0.117 C 
HETATM    3  C2  UNL     1      -0.318  -9.067 -26.999  1.00  0.00     0.113 A 
HETATM    4  C3  UNL     1      -0.956 -10.259 -27.305  1.00  0.00     0.042 A 
HETATM    5  C4  UNL     1      -1.267 -11.160 -26.300  1.00  0.00     0.022 A 
HETATM    6  C5  UNL     1      -0.958 -10.901 -24.982  1.00  0.00     0.055 A 
HETATM    7  C22 UNL     1      -0.328  -9.706 -24.726  1.00  0.00     0.106 A 
HETATM    8  N4  UNL     1      -0.027  -8.836 -25.709  1.00  0.00    -0.356 N 
ATOM      9  H4  UNL     1       0.442  -7.965 -25.462  1.00  0.00     0.166 HD
ENDROOT
BRANCH   6  10
HETATM   10  C6  UNL     1      -1.261 -11.805 -23.893  1.00  0.00     0.300 C 
HETATM   11  O1  UNL     1      -2.361 -11.691 -23.300  1.00  0.00    -0.259 OA
BRANCH  10  12
HETATM   12  O2  UNL     1      -0.411 -12.802 -23.454  1.00  0.00    -0.275 OA
BRANCH  12  13
HETATM   13  C7  UNL     1       0.933 -12.880 -23.797  1.00  0.00     0.081 A 
HETATM   14  C8  UNL     1       1.460 -14.002 -24.408  1.00  0.00     0.038 A 
HETATM   15  C9  UNL     1       2.814 -14.058 -24.743  1.00  0.00     0.019 A 
HETATM   16  C10 UNL     1       3.628 -12.977 -24.460  1.00  0.00     0.018 A 
HETATM   17  C11 UNL     1       4.967 -13.013 -24.785  1.00  0.00     0.046 A 
HETATM   18  C20 UNL     1       3.121 -11.828 -23.843  1.00  0.00     0.047 A 
HETATM   19  C18 UNL     1       5.785 -11.924 -24.498  1.00  0.00     0.047 A 
HETATM   20  C19 UNL     1       5.203 -10.833 -23.889  1.00  0.00     0.090 A 
HETATM   21  N3  UNL     1       3.901 -10.773 -23.564  1.00  0.00    -0.365 N 
ATOM     22  H3  UNL     1       3.514  -9.943 -23.114  1.00  0.00     0.165 HD
HETATM   23  C21 UNL     1       1.768 -11.835 -23.535  1.00  0.00     0.067 A 
BRANCH  17  24
HETATM   24  N2  UNL     1       5.417 -14.080 -25.353  1.00  0.00    -0.355 N 
ATOM     25  H2  UNL     1       4.794 -14.880 -25.460  1.00  0.00     0.166 HD
BRANCH  24  26
HETATM   26  C12 UNL     1       6.753 -14.182 -25.837  1.00  0.00     0.032 A 
HETATM   27  C13 UNL     1       7.083 -13.463 -26.982  1.00  0.00     0.031 A 
HETATM   28  C14 UNL     1       8.392 -13.575 -27.438  1.00  0.00     0.021 A 
HETATM   29  C15 UNL     1       9.315 -14.357 -26.790  1.00  0.00     0.011 A 
HETATM   30 BR1  UNL     1      11.115 -14.510 -27.418  1.00  0.00    -0.051 Br
HETATM   31  C16 UNL     1       8.983 -15.067 -25.658  1.00  0.00     0.021 A 
HETATM   32  C17 UNL     1       7.685 -14.965 -25.194  1.00  0.00     0.031 A 
ENDBRANCH  24  26
ENDBRANCH  17  24
ENDBRANCH  12  13
ENDBRANCH  10  12
ENDBRANCH   6  10
TORSDOF 5
ENDMDL
MODEL 4
REMARK VINA RESULT: -10.638484581      4.096      9.608
REMARK  5 active torsions:
REMARK  status: ('A' for Active; 'I' for Inactive)
REMARK    1  A    between atoms: C5_6  and  C6_7 
REMARK    2  A    between atoms: C6_7  and  O2_9 
REMARK    3  A    between atoms: O2_9  and  C7_10 
REMARK    4  A    between atoms: C11_14  and  N2_15 
REMARK    5  A    between atoms: N2_15  and  C12_17 
ROOT
HETATM    1  N1  UNL     1      14.128 -13.993 -28.742  1.00  0.00    -0.190 NA
HETATM    2  C1  UNL     1      13.088 -14.131 -28.240  1.00  0.00     0.117 C 
HETATM    3  C2  UNL     1      11.807 -14.292 -27.637  1.00  0.00     0.113 A 
HETATM    4  C3  UNL     1      11.526 -15.381 -26.827  1.00  0.00     0.042 A 
HETATM    5  C4  UNL     1      10.274 -15.516 -26.252  1.00  0.00     0.022 A 
HETATM    6  C5  UNL     1       9.280 -14.585 -26.465  1.00  0.00     0.055 A 
HETATM    7  C22 UNL     1       9.604 -13.523 -27.276  1.00  0.00     0.106 A 
HETATM    8  N4  UNL     1      10.824 -13.398 -27.831  1.00  0.00    -0.356 N 
ATOM      9  H4  UNL     1      11.010 -12.588 -28.424  1.00  0.00     0.166 HD
ENDROOT
BRANCH   6  10
HETATM   10  C6  UNL     1       7.955 -14.677 -25.890  1.00  0.00     0.300 C 
HETATM   11  O1  UNL     1       7.096 -15.390 -26.463  1.00  0.00    -0.259 OA
BRANCH  10  12
HETATM   12  O2  UNL     1       7.564 -14.026 -24.737  1.00  0.00    -0.275 OA
BRANCH  12  13
HETATM   13  C7  UNL     1       6.451 -13.200 -24.655  1.00  0.00     0.081 A 
HETATM   14  C8  UNL     1       5.245 -13.550 -25.232  1.00  0.00     0.038 A 
HETATM   15  C9  UNL     1       4.139 -12.703 -25.138  1.00  0.00     0.019 A 
HETATM   16  C10 UNL     1       4.259 -11.506 -24.457  1.00  0.00     0.018 A 
HETATM   17  C11 UNL     1       3.178 -10.657 -24.351  1.00  0.00     0.046 A 
HETATM   18  C20 UNL     1       5.467 -11.126 -23.862  1.00  0.00     0.047 A 
HETATM   19  C18 UNL     1       3.300  -9.451 -23.666  1.00  0.00     0.047 A 
HETATM   20  C19 UNL     1       4.527  -9.156 -23.110  1.00  0.00     0.090 A 
HETATM   21  N3  UNL     1       5.595  -9.967 -23.199  1.00  0.00    -0.365 N 
ATOM     22  H3  UNL     1       6.483  -9.706 -22.771  1.00  0.00     0.165 HD
HETATM   23  C21 UNL     1       6.527 -12.011 -23.992  1.00  0.00     0.067 A 
BRANCH  17  24
HETATM   24  N2  UNL     1       2.072 -11.023 -24.906  1.00  0.00    -0.355 N 
ATOM     25  H2  UNL     1       1.956 -10.885 -25.910  1.00  0.00     0.166 HD
BRANCH  24  26
HETATM   26  C12 UNL     1       1.006 -11.614 -24.167  1.00  0.00     0.032 A 
HETATM   27  C13 UNL     1      -0.295 -11.332 -24.572  1.00  0.00     0.031 A 
HETATM   28  C14 UNL     1      -1.321 -11.919 -23.839  1.00  0.00     0.021 A 
HETATM   29  C15 UNL     1      -1.062 -12.737 -22.767  1.00  0.00     0.011 A 
HETATM   30 BR1  UNL     1      -2.474 -13.544 -21.760  1.00  0.00    -0.051 Br
HETATM   31  C16 UNL     1       0.228 -13.013 -22.371  1.00  0.00     0.021 A 
HETATM   32  C17 UNL     1       1.257 -12.436 -23.092  1.00  0.00     0.031 A 
ENDBRANCH  24  26
ENDBRANCH  17  24
ENDBRANCH  12  13
ENDBRANCH  10  12
ENDBRANCH   6  10
TORSDOF 5
ENDMDL
MODEL 5
REMARK VINA RESULT: -10.571422370      3.668      9.168
REMARK  5 active torsions:
REMARK  status: ('A' for Active; 'I' for Inactive)
REMARK    1  A    between atoms: C5_6  and  C6_7 
REMARK    2  A    between atoms: C6_7  and  O2_9 
REMARK    3  A    between atoms: O2_9  and  C7_10 
REMARK    4  A    between atoms: C11_14  and  N2_15 
REMARK    5  A    between atoms: N2_15  and  C12_17 
ROOT
HETATM    1  N1  UNL     1      14.601 -14.281 -26.041  1.00  0.00    -0.190 NA
HETATM    2  C1  UNL     1      13.444 -14.280 -26.169  1.00  0.00     0.117 C 
HETATM    3  C2  UNL     1      12.029 -14.262 -26.330  1.00  0.00     0.113 A 
HETATM    4  C3  UNL     1      11.333 -15.406 -26.691  1.00  0.00     0.042 A 
HETATM    5  C4  UNL     1       9.957 -15.365 -26.842  1.00  0.00     0.022 A 
HETATM    6  C5  UNL     1       9.246 -14.201 -26.640  1.00  0.00     0.055 A 
HETATM    7  C22 UNL     1       9.978 -13.093 -26.285  1.00  0.00     0.106 A 
HETATM    8  N4  UNL     1      11.315 -13.141 -26.139  1.00  0.00    -0.356 N 
ATOM      9  H4  UNL     1      11.808 -12.288 -25.873  1.00  0.00     0.166 HD
ENDROOT
BRANCH   6  10
HETATM   10  C6  UNL     1       7.809 -14.102 -26.784  1.00  0.00     0.300 C 
HETATM   11  O1  UNL     1       7.341 -13.531 -27.799  1.00  0.00    -0.259 OA
BRANCH  10  12
HETATM   12  O2  UNL     1       6.903 -14.600 -25.869  1.00  0.00    -0.275 OA
BRANCH  12  13
HETATM   13  C7  UNL     1       5.881 -13.848 -25.304  1.00  0.00     0.081 A 
HETATM   14  C8  UNL     1       6.115 -12.593 -24.774  1.00  0.00     0.038 A 
HETATM   15  C9  UNL     1       5.072 -11.855 -24.210  1.00  0.00     0.019 A 
HETATM   16  C10 UNL     1       3.798 -12.390 -24.187  1.00  0.00     0.018 A 
HETATM   17  C11 UNL     1       2.756 -11.676 -23.636  1.00  0.00     0.046 A 
HETATM   18  C20 UNL     1       3.533 -13.658 -24.717  1.00  0.00     0.047 A 
HETATM   19  C18 UNL     1       1.473 -12.218 -23.612  1.00  0.00     0.047 A 
HETATM   20  C19 UNL     1       1.301 -13.473 -24.156  1.00  0.00     0.090 A 
HETATM   21  N3  UNL     1       2.301 -14.188 -24.699  1.00  0.00    -0.365 N 
ATOM     22  H3  UNL     1       2.126 -15.114 -25.090  1.00  0.00     0.165 HD
HETATM   23  C21 UNL     1       4.611 -14.340 -25.261  1.00  0.00     0.067 A 
BRANCH  17  24
HETATM   24  N2  UNL     1       3.018 -10.509 -23.153  1.00  0.00    -0.355 N 
ATOM     25  H2  UNL     1       3.113 -10.406 -22.143  1.00  0.00     0.166 HD
BRANCH  24  26
HETATM   26  C12 UNL     1       3.180  -9.360 -23.978  1.00  0.00     0.032 A 
HETATM   27  C13 UNL     1       3.977  -8.325 -23.497  1.00  0.00     0.031 A 
HETATM   28  C14 UNL     1       4.124  -7.212 -24.318  1.00  0.00     0.021 A 
HETATM   29  C15 UNL     1       3.512  -7.138 -25.544  1.00  0.00     0.011 A 
HETATM   30 BR1  UNL     1       3.714  -5.606 -26.673  1.00  0.00    -0.051 Br
HETATM   31  C16 UNL     1       2.724  -8.165 -26.016  1.00  0.00     0.021 A 
HETATM   32  C17 UNL     1       2.570  -9.276 -25.210  1.00  0.00     0.031 A 
ENDBRANCH  24  26
ENDBRANCH  17  24
ENDBRANCH  12  13
ENDBRANCH  10  12
ENDBRANCH   6  10
TORSDOF 5
ENDMDL
