MODEL 1
REMARK VINA RESULT: -6.646938893      0.000      0.000
REMARK  4 active torsions:
REMARK  status: ('A' for Active; 'I' for Inactive)
REMARK    1  A    between atoms: C2_2  and  O1_3 
REMARK    2  A    between atoms: O1_3  and  C3_4 
REMARK    3  A    between atoms: C5_8  and  O4_9 
REMARK    4  A    between atoms: C25_31  and  O5_32 
ROOT
HETATM    1  C3  UNL     1       3.461  -5.892 -25.792  1.00  0.00     0.303 C 
HETATM    2  O2  UNL     1       3.188  -6.895 -26.741  1.00  0.00    -0.283 OA
HETATM    3  C4  UNL     1       2.510  -8.101 -26.821  1.00  0.00     0.297 C 
HETATM    4  O3  UNL     1       3.071  -8.956 -27.553  1.00  0.00    -0.262 OA
HETATM    5  C5  UNL     1       1.257  -8.522 -26.190  1.00  0.00     0.157 C 
HETATM    6  C6  UNL     1       0.214  -7.455 -26.434  1.00  0.00     0.050 C 
HETATM    7  C7  UNL     1       0.625  -6.116 -25.851  1.00  0.00     0.013 C 
HETATM    8  C8  UNL     1       1.296  -6.219 -24.529  1.00  0.00     0.023 C 
HETATM    9  C9  UNL     1       0.834  -7.524 -23.922  1.00  0.00     0.027 C 
HETATM   10  C10 UNL     1       1.416  -8.685 -24.717  1.00  0.00     0.025 C 
HETATM   11  C11 UNL     1       0.432  -9.827 -24.346  1.00  0.00     0.024 C 
HETATM   12  C12 UNL     1       2.783  -9.013 -24.253  1.00  0.00    -0.040 C 
HETATM   13  C13 UNL     1       3.101 -10.211 -24.667  1.00  0.00    -0.013 C 
HETATM   14  C14 UNL     1       4.392 -10.902 -24.399  1.00  0.00     0.013 C 
HETATM   15  C15 UNL     1       4.616 -11.849 -25.549  1.00  0.00     0.015 C 
HETATM   16  C16 UNL     1       5.444  -9.883 -24.240  1.00  0.00     0.045 C 
HETATM   17  C17 UNL     1       6.751 -10.569 -23.968  1.00  0.00     0.105 C 
HETATM   18  C18 UNL     1       6.735 -11.688 -22.985  1.00  0.00     0.052 C 
HETATM   19  F1  UNL     1       7.086 -11.189 -25.197  1.00  0.00    -0.243 F 
HETATM   20  C19 UNL     1       7.900  -9.649 -23.691  1.00  0.00     0.043 C 
HETATM   21  C20 UNL     1       7.500  -8.319 -24.164  1.00  0.00     0.004 C 
HETATM   22  C21 UNL     1       6.237  -7.743 -23.576  1.00  0.00     0.014 C 
HETATM   23  C22 UNL     1       5.119  -8.729 -23.348  1.00  0.00    -0.006 C 
HETATM   24  C23 UNL     1       5.337  -9.133 -21.860  1.00  0.00     0.021 C 
HETATM   25  C24 UNL     1       3.717  -8.208 -23.430  1.00  0.00    -0.009 C 
HETATM   26  C25 UNL     1       3.475  -6.760 -23.371  1.00  0.00     0.083 C 
HETATM   27  C27 UNL     1       2.784  -6.030 -24.499  1.00  0.00     0.013 C 
ENDROOT
BRANCH   1  28
HETATM   28  O1  UNL     1       3.293  -4.617 -26.394  1.00  0.00    -0.357 OA
BRANCH  28  29
HETATM   29  C2  UNL     1       4.245  -3.709 -26.018  1.00  0.00     0.167 C 
HETATM   30  C1  UNL     1       5.612  -4.356 -25.970  1.00  0.00     0.033 C 
ENDBRANCH  28  29
ENDBRANCH   1  28
BRANCH  26  31
HETATM   31  O5  UNL     1       4.505  -5.988 -22.867  1.00  0.00    -0.355 OA
HETATM   32  C26 UNL     1       4.229  -5.189 -21.803  1.00  0.00     0.210 C 
ENDBRANCH  26  31
BRANCH   5  33
HETATM   33  O4  UNL     1       0.758  -9.669 -26.838  1.00  0.00    -0.378 OA
ATOM     34  H4  UNL     1       0.919  -9.606 -27.772  1.00  0.00     0.211 HD
ENDBRANCH   5  33
TORSDOF 4
ENDMDL
MODEL 2
REMARK VINA RESULT: -6.008874203      6.765      9.002
REMARK  4 active torsions:
REMARK  status: ('A' for Active; 'I' for Inactive)
REMARK    1  A    between atoms: C2_2  and  O1_3 
REMARK    2  A    between atoms: O1_3  and  C3_4 
REMARK    3  A    between atoms: C5_8  and  O4_9 
REMARK    4  A    between atoms: C25_31  and  O5_32 
ROOT
HETATM    1  C3  UNL     1       0.977  -3.555 -31.912  1.00  0.00     0.303 C 
HETATM    2  O2  UNL     1       1.805  -2.789 -32.752  1.00  0.00    -0.283 OA
HETATM    3  C4  UNL     1       2.728  -2.982 -33.768  1.00  0.00     0.297 C 
HETATM    4  O3  UNL     1       3.689  -2.171 -33.747  1.00  0.00    -0.262 OA
HETATM    5  C5  UNL     1       2.751  -3.974 -34.846  1.00  0.00     0.157 C 
HETATM    6  C6  UNL     1       1.399  -3.980 -35.523  1.00  0.00     0.050 C 
HETATM    7  C7  UNL     1       0.283  -4.337 -34.558  1.00  0.00     0.013 C 
HETATM    8  C8  UNL     1       0.644  -5.410 -33.596  1.00  0.00     0.023 C 
HETATM    9  C9  UNL     1       1.756  -6.203 -34.245  1.00  0.00     0.027 C 
HETATM   10  C10 UNL     1       3.011  -5.344 -34.320  1.00  0.00     0.025 C 
HETATM   11  C11 UNL     1       3.793  -6.053 -35.458  1.00  0.00     0.024 C 
HETATM   12  C12 UNL     1       3.775  -5.410 -33.053  1.00  0.00    -0.040 C 
HETATM   13  C13 UNL     1       4.995  -4.994 -33.266  1.00  0.00    -0.013 C 
HETATM   14  C14 UNL     1       6.071  -4.916 -32.240  1.00  0.00     0.013 C 
HETATM   15  C15 UNL     1       6.997  -3.810 -32.675  1.00  0.00     0.015 C 
HETATM   16  C16 UNL     1       5.447  -4.701 -30.922  1.00  0.00     0.045 C 
HETATM   17  C17 UNL     1       6.524  -4.622 -29.880  1.00  0.00     0.105 C 
HETATM   18  C18 UNL     1       7.615  -5.632 -29.958  1.00  0.00     0.052 C 
HETATM   19  F1  UNL     1       7.172  -3.389 -30.135  1.00  0.00    -0.243 F 
HETATM   20  C19 UNL     1       6.028  -4.498 -28.472  1.00  0.00     0.043 C 
HETATM   21  C20 UNL     1       4.624  -4.082 -28.552  1.00  0.00     0.004 C 
HETATM   22  C21 UNL     1       3.697  -4.975 -29.337  1.00  0.00     0.014 C 
HETATM   23  C22 UNL     1       4.284  -5.578 -30.590  1.00  0.00    -0.006 C 
HETATM   24  C23 UNL     1       4.791  -6.959 -30.082  1.00  0.00     0.021 C 
HETATM   25  C24 UNL     1       3.341  -5.876 -31.715  1.00  0.00    -0.009 C 
HETATM   26  C25 UNL     1       1.894  -5.915 -31.459  1.00  0.00     0.083 C 
HETATM   27  C27 UNL     1       0.941  -4.995 -32.185  1.00  0.00     0.013 C 
ENDROOT
BRANCH   1  28
HETATM   28  O1  UNL     1      -0.307  -2.952 -31.838  1.00  0.00    -0.357 OA
BRANCH  28  29
HETATM   29  C2  UNL     1      -0.275  -1.590 -31.963  1.00  0.00     0.167 C 
HETATM   30  C1  UNL     1      -1.671  -1.013 -31.879  1.00  0.00     0.033 C 
ENDBRANCH  28  29
ENDBRANCH   1  28
BRANCH  26  31
HETATM   31  O5  UNL     1       1.510  -6.050 -30.138  1.00  0.00    -0.355 OA
HETATM   32  C26 UNL     1       0.866  -7.195 -29.785  1.00  0.00     0.210 C 
ENDBRANCH  26  31
BRANCH   5  33
HETATM   33  O4  UNL     1       3.654  -3.569 -35.848  1.00  0.00    -0.378 OA
ATOM     34  H4  UNL     1       3.589  -4.153 -36.595  1.00  0.00     0.211 HD
ENDBRANCH   5  33
TORSDOF 4
ENDMDL
MODEL 3
REMARK VINA RESULT: -5.535489582      6.861      9.884
REMARK  4 active torsions:
REMARK  status: ('A' for Active; 'I' for Inactive)
REMARK    1  A    between atoms: C2_2  and  O1_3 
REMARK    2  A    between atoms: O1_3  and  C3_4 
REMARK    3  A    between atoms: C5_8  and  O4_9 
REMARK    4  A    between atoms: C25_31  and  O5_32 
ROOT
HETATM    1  C3  UNL     1       6.278  -2.710 -31.250  1.00  0.00     0.303 C 
HETATM    2  O2  UNL     1       5.229  -2.668 -30.314  1.00  0.00    -0.283 OA
HETATM    3  C4  UNL     1       4.354  -3.541 -29.685  1.00  0.00     0.297 C 
HETATM    4  O3  UNL     1       3.204  -3.068 -29.502  1.00  0.00    -0.262 OA
HETATM    5  C5  UNL     1       4.567  -4.911 -29.211  1.00  0.00     0.157 C 
HETATM    6  C6  UNL     1       5.833  -4.941 -28.384  1.00  0.00     0.050 C 
HETATM    7  C7  UNL     1       7.046  -4.512 -29.188  1.00  0.00     0.013 C 
HETATM    8  C8  UNL     1       7.051  -5.022 -30.583  1.00  0.00     0.023 C 
HETATM    9  C9  UNL     1       6.184  -6.260 -30.583  1.00  0.00     0.027 C 
HETATM   10  C10 UNL     1       4.734  -5.861 -30.346  1.00  0.00     0.025 C 
HETATM   11  C11 UNL     1       4.136  -7.195 -29.824  1.00  0.00     0.024 C 
HETATM   12  C12 UNL     1       4.079  -5.466 -31.614  1.00  0.00    -0.040 C 
HETATM   13  C13 UNL     1       2.782  -5.499 -31.455  1.00  0.00    -0.013 C 
HETATM   14  C14 UNL     1       1.776  -5.173 -32.503  1.00  0.00     0.013 C 
HETATM   15  C15 UNL     1       0.554  -4.668 -31.780  1.00  0.00     0.015 C 
HETATM   16  C16 UNL     1       2.372  -4.201 -33.438  1.00  0.00     0.045 C 
HETATM   17  C17 UNL     1       1.365  -3.866 -34.500  1.00  0.00     0.105 C 
HETATM   18  C18 UNL     1       0.606  -5.001 -35.093  1.00  0.00     0.052 C 
HETATM   19  F1  UNL     1       0.382  -3.103 -33.824  1.00  0.00    -0.243 F 
HETATM   20  C19 UNL     1       1.868  -2.955 -35.577  1.00  0.00     0.043 C 
HETATM   21  C20 UNL     1       3.090  -2.326 -35.064  1.00  0.00     0.004 C 
HETATM   22  C21 UNL     1       4.197  -3.252 -34.629  1.00  0.00     0.014 C 
HETATM   23  C22 UNL     1       3.751  -4.509 -33.923  1.00  0.00    -0.006 C 
HETATM   24  C23 UNL     1       3.682  -5.535 -35.092  1.00  0.00     0.021 C 
HETATM   25  C24 UNL     1       4.687  -5.099 -32.915  1.00  0.00    -0.009 C 
HETATM   26  C25 UNL     1       6.095  -4.677 -32.896  1.00  0.00     0.083 C 
HETATM   27  C27 UNL     1       6.712  -4.046 -31.671  1.00  0.00     0.013 C 
ENDROOT
BRANCH   1  28
HETATM   28  O1  UNL     1       7.338  -1.875 -30.806  1.00  0.00    -0.357 OA
BRANCH  28  29
HETATM   29  C2  UNL     1       8.335  -1.724 -31.732  1.00  0.00     0.167 C 
HETATM   30  C1  UNL     1       9.693  -1.909 -31.092  1.00  0.00     0.033 C 
ENDBRANCH  28  29
ENDBRANCH   1  28
BRANCH  26  31
HETATM   31  O5  UNL     1       6.561  -4.052 -34.038  1.00  0.00    -0.355 OA
HETATM   32  C26 UNL     1       7.839  -4.315 -34.421  1.00  0.00     0.210 C 
ENDBRANCH  26  31
BRANCH   5  33
HETATM   33  O4  UNL     1       3.542  -5.270 -28.314  1.00  0.00    -0.378 OA
ATOM     34  H4  UNL     1       2.817  -4.661 -28.393  1.00  0.00     0.211 HD
ENDBRANCH   5  33
TORSDOF 4
ENDMDL
MODEL 4
REMARK VINA RESULT: -5.535259238      4.551      7.776
REMARK  4 active torsions:
REMARK  status: ('A' for Active; 'I' for Inactive)
REMARK    1  A    between atoms: C2_2  and  O1_3 
REMARK    2  A    between atoms: O1_3  and  C3_4 
REMARK    3  A    between atoms: C5_8  and  O4_9 
REMARK    4  A    between atoms: C25_31  and  O5_32 
ROOT
HETATM    1  C3  UNL     1       2.209  -3.395 -31.411  1.00  0.00     0.303 C 
HETATM    2  O2  UNL     1       2.491  -2.713 -30.214  1.00  0.00    -0.283 OA
HETATM    3  C4  UNL     1       3.503  -2.631 -29.269  1.00  0.00     0.297 C 
HETATM    4  O3  UNL     1       3.092  -2.482 -28.091  1.00  0.00    -0.262 OA
HETATM    5  C5  UNL     1       4.957  -2.694 -29.438  1.00  0.00     0.157 C 
HETATM    6  C6  UNL     1       5.354  -1.737 -30.540  1.00  0.00     0.050 C 
HETATM    7  C7  UNL     1       4.696  -2.090 -31.862  1.00  0.00     0.013 C 
HETATM    8  C8  UNL     1       4.628  -3.550 -32.126  1.00  0.00     0.023 C 
HETATM    9  C9  UNL     1       5.736  -4.179 -31.311  1.00  0.00     0.027 C 
HETATM   10  C10 UNL     1       5.402  -4.061 -29.830  1.00  0.00     0.025 C 
HETATM   11  C11 UNL     1       6.810  -4.206 -29.192  1.00  0.00     0.024 C 
HETATM   12  C12 UNL     1       4.523  -5.170 -29.395  1.00  0.00    -0.040 C 
HETATM   13  C13 UNL     1       4.564  -5.263 -28.092  1.00  0.00    -0.013 C 
HETATM   14  C14 UNL     1       3.819  -6.261 -27.276  1.00  0.00     0.013 C 
HETATM   15  C15 UNL     1       3.584  -5.623 -25.931  1.00  0.00     0.015 C 
HETATM   16  C16 UNL     1       2.587  -6.629 -27.995  1.00  0.00     0.045 C 
HETATM   17  C17 UNL     1       1.829  -7.636 -27.180  1.00  0.00     0.105 C 
HETATM   18  C18 UNL     1       2.617  -8.743 -26.571  1.00  0.00     0.052 C 
HETATM   19  F1  UNL     1       1.347  -6.900 -26.070  1.00  0.00    -0.243 F 
HETATM   20  C19 UNL     1       0.593  -8.174 -27.834  1.00  0.00     0.043 C 
HETATM   21  C20 UNL     1       0.260  -7.255 -28.928  1.00  0.00     0.004 C 
HETATM   22  C21 UNL     1       1.325  -7.026 -29.969  1.00  0.00     0.014 C 
HETATM   23  C22 UNL     1       2.738  -6.949 -29.446  1.00  0.00    -0.006 C 
HETATM   24  C23 UNL     1       3.230  -8.417 -29.615  1.00  0.00     0.021 C 
HETATM   25  C24 UNL     1       3.708  -6.101 -30.210  1.00  0.00    -0.009 C 
HETATM   26  C25 UNL     1       3.382  -5.678 -31.579  1.00  0.00     0.083 C 
HETATM   27  C27 UNL     1       3.296  -4.217 -31.953  1.00  0.00     0.013 C 
ENDROOT
BRANCH   1  28
HETATM   28  O1  UNL     1       1.653  -2.488 -32.351  1.00  0.00    -0.357 OA
BRANCH  28  29
HETATM   29  C2  UNL     1       0.611  -3.015 -33.064  1.00  0.00     0.167 C 
HETATM   30  C1  UNL     1      -0.231  -3.919 -32.191  1.00  0.00     0.033 C 
ENDBRANCH  28  29
ENDBRANCH   1  28
BRANCH  26  31
HETATM   31  O5  UNL     1       2.384  -6.391 -32.218  1.00  0.00    -0.355 OA
HETATM   32  C26 UNL     1       2.300  -6.280 -33.571  1.00  0.00     0.210 C 
ENDBRANCH  26  31
BRANCH   5  33
HETATM   33  O4  UNL     1       5.593  -2.197 -28.284  1.00  0.00    -0.378 OA
ATOM     34  H4  UNL     1       5.436  -1.263 -28.206  1.00  0.00     0.211 HD
ENDBRANCH   5  33
TORSDOF 4
ENDMDL
MODEL 5
REMARK VINA RESULT: -5.100979555      3.374      5.825
REMARK  4 active torsions:
REMARK  status: ('A' for Active; 'I' for Inactive)
REMARK    1  A    between atoms: C2_2  and  O1_3 
REMARK    2  A    between atoms: O1_3  and  C3_4 
REMARK    3  A    between atoms: C5_8  and  O4_9 
REMARK    4  A    between atoms: C25_31  and  O5_32 
ROOT
HETATM    1  C3  UNL     1       2.819  -2.295 -24.846  1.00  0.00     0.303 C 
HETATM    2  O2  UNL     1       1.855  -3.318 -24.786  1.00  0.00    -0.283 OA
HETATM    3  C4  UNL     1       1.792  -4.682 -24.548  1.00  0.00     0.297 C 
HETATM    4  O3  UNL     1       0.938  -5.285 -25.246  1.00  0.00    -0.262 OA
HETATM    5  C5  UNL     1       2.561  -5.513 -23.617  1.00  0.00     0.157 C 
HETATM    6  C6  UNL     1       2.530  -4.861 -22.253  1.00  0.00     0.050 C 
HETATM    7  C7  UNL     1       3.135  -3.470 -22.275  1.00  0.00     0.013 C 
HETATM    8  C8  UNL     1       4.343  -3.355 -23.132  1.00  0.00     0.023 C 
HETATM    9  C9  UNL     1       4.924  -4.748 -23.231  1.00  0.00     0.027 C 
HETATM   10  C10 UNL     1       3.985  -5.630 -24.041  1.00  0.00     0.025 C 
HETATM   11  C11 UNL     1       4.414  -7.044 -23.564  1.00  0.00     0.024 C 
HETATM   12  C12 UNL     1       4.236  -5.479 -25.492  1.00  0.00    -0.040 C 
HETATM   13  C13 UNL     1       3.707  -6.492 -26.127  1.00  0.00    -0.013 C 
HETATM   14  C14 UNL     1       3.752  -6.705 -27.600  1.00  0.00     0.013 C 
HETATM   15  C15 UNL     1       2.525  -7.505 -27.953  1.00  0.00     0.015 C 
HETATM   16  C16 UNL     1       3.830  -5.391 -28.261  1.00  0.00     0.045 C 
HETATM   17  C17 UNL     1       3.876  -5.595 -29.748  1.00  0.00     0.105 C 
HETATM   18  C18 UNL     1       4.779  -6.665 -30.255  1.00  0.00     0.052 C 
HETATM   19  F1  UNL     1       2.576  -6.048 -30.082  1.00  0.00    -0.243 F 
HETATM   20  C19 UNL     1       4.051  -4.342 -30.549  1.00  0.00     0.043 C 
HETATM   21  C20 UNL     1       3.722  -3.221 -29.661  1.00  0.00     0.004 C 
HETATM   22  C21 UNL     1       4.512  -3.117 -28.382  1.00  0.00     0.014 C 
HETATM   23  C22 UNL     1       4.828  -4.428 -27.706  1.00  0.00    -0.006 C 
HETATM   24  C23 UNL     1       6.244  -4.753 -28.268  1.00  0.00     0.021 C 
HETATM   25  C24 UNL     1       4.972  -4.415 -26.216  1.00  0.00    -0.009 C 
HETATM   26  C25 UNL     1       5.155  -3.137 -25.514  1.00  0.00     0.083 C 
HETATM   27  C27 UNL     1       4.181  -2.672 -24.457  1.00  0.00     0.013 C 
ENDROOT
BRANCH   1  28
HETATM   28  O1  UNL     1       2.327  -1.145 -24.173  1.00  0.00    -0.357 OA
BRANCH  28  29
HETATM   29  C2  UNL     1       0.963  -1.041 -24.200  1.00  0.00     0.167 C 
HETATM   30  C1  UNL     1       0.435  -0.573 -22.862  1.00  0.00     0.033 C 
ENDBRANCH  28  29
ENDBRANCH   1  28
BRANCH  26  31
HETATM   31  O5  UNL     1       5.561  -2.066 -26.290  1.00  0.00    -0.355 OA
HETATM   32  C26 UNL     1       6.698  -1.419 -25.921  1.00  0.00     0.210 C 
ENDBRANCH  26  31
BRANCH   5  33
HETATM   33  O4  UNL     1       1.916  -6.752 -23.440  1.00  0.00    -0.378 OA
ATOM     34  H4  UNL     1       2.029  -7.048 -22.544  1.00  0.00     0.211 HD
ENDBRANCH   5  33
TORSDOF 4
ENDMDL
