MODEL 1
REMARK VINA RESULT: -8.324670417      0.000      0.000
REMARK  5 active torsions:
REMARK  status: ('A' for Active; 'I' for Inactive)
REMARK    1  A    between atoms: C2_2  and  O1_3 
REMARK    2  A    between atoms: C2_2  and  C3_5 
REMARK    3  A    between atoms: N1_7  and  N2_9 
REMARK       I    between atoms: N2_9  and  C5_11 
REMARK    4  A    between atoms: C5_11  and  C6_13 
REMARK    5  A    between atoms: C6_13  and  C7_14 
ROOT
HETATM    1  C7  UNL     1       4.788 -13.123 -24.424  1.00  0.00     0.001 C 
HETATM    2  C8  UNL     1       3.563 -13.484 -25.209  1.00  0.00     0.008 C 
HETATM    3  C9  UNL     1       2.283 -13.331 -24.471  1.00  0.00     0.041 C 
HETATM    4  C10 UNL     1       2.029 -12.012 -23.822  1.00  0.00     0.093 C 
HETATM    5  C11 UNL     1       0.768 -12.303 -22.955  1.00  0.00     0.049 C 
HETATM    6  C12 UNL     1       1.555 -11.025 -24.803  1.00  0.00     0.041 C 
HETATM    7  C13 UNL     1       2.481 -10.389 -25.748  1.00  0.00     0.011 C 
HETATM    8  C14 UNL     1       3.766  -9.837 -25.261  1.00  0.00     0.028 C 
HETATM    9  C15 UNL     1       3.568  -8.365 -25.027  1.00  0.00    -0.012 C 
HETATM   10  C16 UNL     1       2.409  -8.031 -24.131  1.00  0.00     0.010 C 
HETATM   11  C17 UNL     1       4.756  -7.592 -24.573  1.00  0.00     0.005 C 
HETATM   12  C18 UNL     1       5.193  -8.323 -23.289  1.00  0.00     0.008 C 
HETATM   13  C19 UNL     1       5.652  -9.639 -23.820  1.00  0.00     0.028 C 
HETATM   14  C20 UNL     1       6.482 -10.441 -22.907  1.00  0.00    -0.011 C 
HETATM   15  C21 UNL     1       7.856  -9.816 -22.776  1.00  0.00     0.010 C 
HETATM   16  C22 UNL     1       6.590 -11.708 -23.732  1.00  0.00     0.012 C 
HETATM   17  C23 UNL     1       5.307 -11.750 -24.584  1.00  0.00     0.029 C 
HETATM   18  C24 UNL     1       4.483 -10.586 -24.183  1.00  0.00     0.108 C 
HETATM   19  O3  UNL     1       3.718 -10.683 -23.092  1.00  0.00    -0.228 OA
HETATM   20  O4  UNL     1       2.932 -11.618 -22.898  1.00  0.00    -0.229 OA
ENDROOT
BRANCH   1  21
HETATM   21  C6  UNL     1       5.838 -14.162 -24.757  1.00  0.00     0.109 C 
BRANCH  21  22
HETATM   22  C5  UNL     1       6.536 -14.012 -26.025  1.00  0.00     0.238 C 
HETATM   23  N2  UNL     1       7.816 -14.578 -26.164  1.00  0.00    -0.265 N 
HETATM   24  C4  UNL     1       8.431 -15.297 -25.068  1.00  0.00     0.181 C 
HETATM   25  O2  UNL     1       6.050 -13.409 -26.982  1.00  0.00    -0.272 OA
BRANCH  23  26
HETATM   26  N1  UNL     1       8.569 -14.486 -27.348  1.00  0.00    -0.287 N 
HETATM   27  C3  UNL     1       9.566 -13.643 -27.436  1.00  0.00     0.123 C 
HETATM   28 CL1  UNL     1       9.948 -12.632 -26.054  1.00  0.00    -0.065 Cl
ATOM     29  H1  UNL     1       8.336 -15.080 -28.143  1.00  0.00     0.188 HD
BRANCH  27  30
HETATM   30  C2  UNL     1      10.386 -13.503 -28.641  1.00  0.00     0.177 C 
HETATM   31  C1  UNL     1      11.858 -13.605 -28.385  1.00  0.00     0.047 C 
BRANCH  30  32
HETATM   32  O1  UNL     1      10.163 -12.265 -29.286  1.00  0.00    -0.389 OA
ATOM     33  H1  UNL     1       9.407 -12.377 -29.850  1.00  0.00     0.210 HD
ENDBRANCH  30  32
ENDBRANCH  27  30
ENDBRANCH  23  26
ENDBRANCH  21  22
ENDBRANCH   1  21
TORSDOF 5
ENDMDL
MODEL 2
REMARK VINA RESULT: -7.708098444      6.379      9.024
REMARK  5 active torsions:
REMARK  status: ('A' for Active; 'I' for Inactive)
REMARK    1  A    between atoms: C2_2  and  O1_3 
REMARK    2  A    between atoms: C2_2  and  C3_5 
REMARK    3  A    between atoms: N1_7  and  N2_9 
REMARK       I    between atoms: N2_9  and  C5_11 
REMARK    4  A    between atoms: C5_11  and  C6_13 
REMARK    5  A    between atoms: C6_13  and  C7_14 
ROOT
HETATM    1  C7  UNL     1       3.166  -6.904 -28.001  1.00  0.00     0.001 C 
HETATM    2  C8  UNL     1       3.296  -7.736 -29.241  1.00  0.00     0.008 C 
HETATM    3  C9  UNL     1       2.661  -7.153 -30.451  1.00  0.00     0.041 C 
HETATM    4  C10 UNL     1       3.037  -5.754 -30.806  1.00  0.00     0.093 C 
HETATM    5  C11 UNL     1       2.014  -5.407 -31.928  1.00  0.00     0.049 C 
HETATM    6  C12 UNL     1       4.336  -5.716 -31.496  1.00  0.00     0.041 C 
HETATM    7  C13 UNL     1       5.593  -5.874 -30.756  1.00  0.00     0.011 C 
HETATM    8  C14 UNL     1       5.816  -5.104 -29.511  1.00  0.00     0.028 C 
HETATM    9  C15 UNL     1       6.604  -3.876 -29.871  1.00  0.00    -0.012 C 
HETATM   10  C16 UNL     1       5.996  -3.050 -30.969  1.00  0.00     0.010 C 
HETATM   11  C17 UNL     1       6.984  -2.971 -28.752  1.00  0.00     0.005 C 
HETATM   12  C18 UNL     1       5.634  -2.615 -28.101  1.00  0.00     0.008 C 
HETATM   13  C19 UNL     1       5.207  -3.927 -27.533  1.00  0.00     0.028 C 
HETATM   14  C20 UNL     1       4.139  -3.867 -26.521  1.00  0.00    -0.011 C 
HETATM   15  C21 UNL     1       4.683  -3.285 -25.232  1.00  0.00     0.010 C 
HETATM   16  C22 UNL     1       3.902  -5.351 -26.334  1.00  0.00     0.012 C 
HETATM   17  C23 UNL     1       4.287  -5.998 -27.680  1.00  0.00     0.029 C 
HETATM   18  C24 UNL     1       4.647  -4.897 -28.601  1.00  0.00     0.108 C 
HETATM   19  O3  UNL     1       3.671  -4.241 -29.236  1.00  0.00    -0.228 OA
HETATM   20  O4  UNL     1       2.778  -4.812 -29.874  1.00  0.00    -0.229 OA
ENDROOT
BRANCH   1  21
HETATM   21  C6  UNL     1       2.876  -7.862 -26.865  1.00  0.00     0.109 C 
BRANCH  21  22
HETATM   22  C5  UNL     1       1.519  -8.379 -26.768  1.00  0.00     0.238 C 
HETATM   23  N2  UNL     1       0.941  -8.528 -25.494  1.00  0.00    -0.265 N 
HETATM   24  C4  UNL     1       1.679  -8.174 -24.299  1.00  0.00     0.181 C 
HETATM   25  O2  UNL     1       0.857  -8.692 -27.757  1.00  0.00    -0.272 OA
BRANCH  23  26
HETATM   26  N1  UNL     1      -0.361  -9.019 -25.298  1.00  0.00    -0.287 N 
HETATM   27  C3  UNL     1      -0.556 -10.269 -24.961  1.00  0.00     0.123 C 
HETATM   28 CL1  UNL     1       0.835 -11.320 -24.758  1.00  0.00    -0.065 Cl
ATOM     29  H1  UNL     1      -1.161  -8.397 -25.418  1.00  0.00     0.188 HD
BRANCH  27  30
HETATM   30  C2  UNL     1      -1.887 -10.837 -24.742  1.00  0.00     0.177 C 
HETATM   31  C1  UNL     1      -1.899 -12.000 -23.799  1.00  0.00     0.047 C 
BRANCH  30  32
HETATM   32  O1  UNL     1      -2.474 -11.278 -25.950  1.00  0.00    -0.389 OA
ATOM     33  H1  UNL     1      -2.003 -10.856 -26.659  1.00  0.00     0.210 HD
ENDBRANCH  30  32
ENDBRANCH  27  30
ENDBRANCH  23  26
ENDBRANCH  21  22
ENDBRANCH   1  21
TORSDOF 5
ENDMDL
MODEL 3
REMARK VINA RESULT: -7.554098433      2.466      5.002
REMARK  5 active torsions:
REMARK  status: ('A' for Active; 'I' for Inactive)
REMARK    1  A    between atoms: C2_2  and  O1_3 
REMARK    2  A    between atoms: C2_2  and  C3_5 
REMARK    3  A    between atoms: N1_7  and  N2_9 
REMARK       I    between atoms: N2_9  and  C5_11 
REMARK    4  A    between atoms: C5_11  and  C6_13 
REMARK    5  A    between atoms: C6_13  and  C7_14 
ROOT
HETATM    1  C7  UNL     1       4.382  -9.125 -24.253  1.00  0.00     0.001 C 
HETATM    2  C8  UNL     1       5.165  -8.386 -23.210  1.00  0.00     0.008 C 
HETATM    3  C9  UNL     1       5.837  -7.153 -23.694  1.00  0.00     0.041 C 
HETATM    4  C10 UNL     1       4.990  -6.157 -24.411  1.00  0.00     0.093 C 
HETATM    5  C11 UNL     1       6.049  -5.165 -24.979  1.00  0.00     0.049 C 
HETATM    6  C12 UNL     1       4.222  -5.338 -23.462  1.00  0.00     0.041 C 
HETATM    7  C13 UNL     1       3.033  -5.873 -22.787  1.00  0.00     0.011 C 
HETATM    8  C14 UNL     1       2.003  -6.591 -23.571  1.00  0.00     0.028 C 
HETATM    9  C15 UNL     1       0.920  -5.605 -23.910  1.00  0.00    -0.012 C 
HETATM   10  C16 UNL     1       1.410  -4.358 -24.590  1.00  0.00     0.010 C 
HETATM   11  C17 UNL     1      -0.251  -6.129 -24.665  1.00  0.00     0.005 C 
HETATM   12  C18 UNL     1       0.379  -6.744 -25.929  1.00  0.00     0.008 C 
HETATM   13  C19 UNL     1       1.141  -7.897 -25.367  1.00  0.00     0.028 C 
HETATM   14  C20 UNL     1       1.558  -8.921 -26.339  1.00  0.00    -0.011 C 
HETATM   15  C21 UNL     1       0.353  -9.715 -26.801  1.00  0.00     0.010 C 
HETATM   16  C22 UNL     1       2.403  -9.787 -25.427  1.00  0.00     0.012 C 
HETATM   17  C23 UNL     1       2.937  -8.834 -24.339  1.00  0.00     0.029 C 
HETATM   18  C24 UNL     1       2.465  -7.474 -24.687  1.00  0.00     0.108 C 
HETATM   19  O3  UNL     1       3.149  -6.767 -25.591  1.00  0.00    -0.228 OA
HETATM   20  O4  UNL     1       4.372  -6.594 -25.530  1.00  0.00    -0.229 OA
ENDROOT
BRANCH   1  21
HETATM   21  C6  UNL     1       4.645 -10.600 -24.029  1.00  0.00     0.109 C 
BRANCH  21  22
HETATM   22  C5  UNL     1       5.977 -11.088 -24.350  1.00  0.00     0.238 C 
HETATM   23  N2  UNL     1       6.147 -12.456 -24.630  1.00  0.00    -0.265 N 
HETATM   24  C4  UNL     1       5.020 -13.364 -24.599  1.00  0.00     0.181 C 
HETATM   25  O2  UNL     1       6.963 -10.351 -24.388  1.00  0.00    -0.272 OA
BRANCH  23  26
HETATM   26  N1  UNL     1       7.394 -13.022 -24.949  1.00  0.00    -0.287 N 
HETATM   27  C3  UNL     1       7.624 -13.485 -26.152  1.00  0.00     0.123 C 
HETATM   28 CL1  UNL     1       6.352 -13.386 -27.358  1.00  0.00    -0.065 Cl
ATOM     29  H1  UNL     1       8.124 -13.073 -24.239  1.00  0.00     0.188 HD
BRANCH  27  30
HETATM   30  C2  UNL     1       8.901 -14.085 -26.544  1.00  0.00     0.177 C 
HETATM   31  C1  UNL     1       9.733 -13.209 -27.429  1.00  0.00     0.047 C 
BRANCH  30  32
HETATM   32  O1  UNL     1       8.718 -15.309 -27.228  1.00  0.00    -0.389 OA
ATOM     33  H1  UNL     1       8.899 -15.144 -28.146  1.00  0.00     0.210 HD
ENDBRANCH  30  32
ENDBRANCH  27  30
ENDBRANCH  23  26
ENDBRANCH  21  22
ENDBRANCH   1  21
TORSDOF 5
ENDMDL
MODEL 4
REMARK VINA RESULT: -7.459758558      2.434      4.631
REMARK  5 active torsions:
REMARK  status: ('A' for Active; 'I' for Inactive)
REMARK    1  A    between atoms: C2_2  and  O1_3 
REMARK    2  A    between atoms: C2_2  and  C3_5 
REMARK    3  A    between atoms: N1_7  and  N2_9 
REMARK       I    between atoms: N2_9  and  C5_11 
REMARK    4  A    between atoms: C5_11  and  C6_13 
REMARK    5  A    between atoms: C6_13  and  C7_14 
ROOT
HETATM    1  C7  UNL     1       4.945  -8.716 -24.030  1.00  0.00     0.001 C 
HETATM    2  C8  UNL     1       4.874  -7.231 -23.835  1.00  0.00     0.008 C 
HETATM    3  C9  UNL     1       4.646  -6.450 -25.079  1.00  0.00     0.041 C 
HETATM    4  C10 UNL     1       3.486  -6.849 -25.926  1.00  0.00     0.093 C 
HETATM    5  C11 UNL     1       3.714  -6.015 -27.221  1.00  0.00     0.049 C 
HETATM    6  C12 UNL     1       2.228  -6.311 -25.384  1.00  0.00     0.041 C 
HETATM    7  C13 UNL     1       1.588  -6.916 -24.210  1.00  0.00     0.011 C 
HETATM    8  C14 UNL     1       1.421  -8.385 -24.138  1.00  0.00     0.028 C 
HETATM    9  C15 UNL     1       0.031  -8.708 -24.610  1.00  0.00    -0.012 C 
HETATM   10  C16 UNL     1      -0.310  -8.146 -25.961  1.00  0.00     0.010 C 
HETATM   11  C17 UNL     1      -0.373 -10.140 -24.577  1.00  0.00     0.005 C 
HETATM   12  C18 UNL     1       0.700 -10.838 -25.434  1.00  0.00     0.008 C 
HETATM   13  C19 UNL     1       1.925 -10.666 -24.600  1.00  0.00     0.028 C 
HETATM   14  C20 UNL     1       3.060 -11.538 -24.945  1.00  0.00    -0.011 C 
HETATM   15  C21 UNL     1       2.761 -12.964 -24.525  1.00  0.00     0.010 C 
HETATM   16  C22 UNL     1       4.103 -10.956 -24.013  1.00  0.00     0.012 C 
HETATM   17  C23 UNL     1       3.700  -9.480 -23.822  1.00  0.00     0.029 C 
HETATM   18  C24 UNL     1       2.520  -9.240 -24.684  1.00  0.00     0.108 C 
HETATM   19  O3  UNL     1       2.711  -8.982 -25.982  1.00  0.00    -0.228 OA
HETATM   20  O4  UNL     1       3.494  -8.117 -26.391  1.00  0.00    -0.229 OA
ENDROOT
BRANCH   1  21
HETATM   21  C6  UNL     1       6.066  -9.216 -23.143  1.00  0.00     0.109 C 
BRANCH  21  22
HETATM   22  C5  UNL     1       7.327  -9.541 -23.792  1.00  0.00     0.238 C 
HETATM   23  N2  UNL     1       7.729 -10.888 -23.853  1.00  0.00    -0.265 N 
HETATM   24  C4  UNL     1       6.906 -11.933 -23.280  1.00  0.00     0.181 C 
HETATM   25  O2  UNL     1       8.056  -8.684 -24.291  1.00  0.00    -0.272 OA
BRANCH  23  26
HETATM   26  N1  UNL     1       8.928 -11.302 -24.457  1.00  0.00    -0.287 N 
HETATM   27  C3  UNL     1       8.913 -12.170 -25.436  1.00  0.00     0.123 C 
HETATM   28 CL1  UNL     1       7.372 -12.808 -25.981  1.00  0.00    -0.065 Cl
ATOM     29  H1  UNL     1       9.817 -10.922 -24.131  1.00  0.00     0.188 HD
BRANCH  27  30
HETATM   30  C2  UNL     1      10.129 -12.638 -26.105  1.00  0.00     0.177 C 
HETATM   31  C1  UNL     1      10.011 -14.017 -26.677  1.00  0.00     0.047 C 
BRANCH  30  32
HETATM   32  O1  UNL     1      11.239 -12.647 -25.230  1.00  0.00    -0.389 OA
ATOM     33  H1  UNL     1      11.449 -13.557 -25.056  1.00  0.00     0.210 HD
ENDBRANCH  30  32
ENDBRANCH  27  30
ENDBRANCH  23  26
ENDBRANCH  21  22
ENDBRANCH   1  21
TORSDOF 5
ENDMDL
MODEL 5
REMARK VINA RESULT: -7.348232277      4.377      7.159
REMARK  5 active torsions:
REMARK  status: ('A' for Active; 'I' for Inactive)
REMARK    1  A    between atoms: C2_2  and  O1_3 
REMARK    2  A    between atoms: C2_2  and  C3_5 
REMARK    3  A    between atoms: N1_7  and  N2_9 
REMARK       I    between atoms: N2_9  and  C5_11 
REMARK    4  A    between atoms: C5_11  and  C6_13 
REMARK    5  A    between atoms: C6_13  and  C7_14 
ROOT
HETATM    1  C7  UNL     1       2.179  -8.184 -24.300  1.00  0.00     0.001 C 
HETATM    2  C8  UNL     1       2.619  -6.753 -24.374  1.00  0.00     0.008 C 
HETATM    3  C9  UNL     1       3.132  -6.193 -23.097  1.00  0.00     0.041 C 
HETATM    4  C10 UNL     1       4.207  -6.960 -22.405  1.00  0.00     0.093 C 
HETATM    5  C11 UNL     1       4.298  -6.239 -21.027  1.00  0.00     0.049 C 
HETATM    6  C12 UNL     1       5.519  -6.700 -23.019  1.00  0.00     0.041 C 
HETATM    7  C13 UNL     1       5.893  -7.316 -24.297  1.00  0.00     0.011 C 
HETATM    8  C14 UNL     1       5.667  -8.764 -24.511  1.00  0.00     0.028 C 
HETATM    9  C15 UNL     1       6.956  -9.475 -24.206  1.00  0.00    -0.012 C 
HETATM   10  C16 UNL     1       7.528  -9.165 -22.852  1.00  0.00     0.010 C 
HETATM   11  C17 UNL     1       6.970 -10.950 -24.400  1.00  0.00     0.005 C 
HETATM   12  C18 UNL     1       5.817 -11.444 -23.505  1.00  0.00     0.008 C 
HETATM   13  C19 UNL     1       4.622 -10.881 -24.197  1.00  0.00     0.028 C 
HETATM   14  C20 UNL     1       3.328 -11.472 -23.818  1.00  0.00    -0.011 C 
HETATM   15  C21 UNL     1       3.215 -12.873 -24.385  1.00  0.00     0.010 C 
HETATM   16  C22 UNL     1       2.407 -10.549 -24.591  1.00  0.00     0.012 C 
HETATM   17  C23 UNL     1       3.165  -9.211 -24.694  1.00  0.00     0.029 C 
HETATM   18  C24 UNL     1       4.426  -9.368 -23.934  1.00  0.00     0.108 C 
HETATM   19  O3  UNL     1       4.403  -9.212 -22.607  1.00  0.00    -0.228 OA
HETATM   20  O4  UNL     1       3.903  -8.227 -22.051  1.00  0.00    -0.229 OA
ENDROOT
BRANCH   1  21
HETATM   21  C6  UNL     1       0.906  -8.288 -25.113  1.00  0.00     0.109 C 
BRANCH  21  22
HETATM   22  C5  UNL     1       0.897  -7.632 -26.412  1.00  0.00     0.238 C 
HETATM   23  N2  UNL     1       0.340  -8.312 -27.510  1.00  0.00    -0.265 N 
HETATM   24  C4  UNL     1      -0.213  -9.641 -27.355  1.00  0.00     0.181 C 
HETATM   25  O2  UNL     1       1.356  -6.504 -26.587  1.00  0.00    -0.272 OA
BRANCH  23  26
HETATM   26  N1  UNL     1       0.286  -7.763 -28.803  1.00  0.00    -0.287 N 
HETATM   27  C3  UNL     1       1.353  -7.741 -29.560  1.00  0.00     0.123 C 
HETATM   28 CL1  UNL     1       2.851  -8.410 -28.936  1.00  0.00    -0.065 Cl
ATOM     29  H1  UNL     1      -0.591  -7.378 -29.153  1.00  0.00     0.188 HD
BRANCH  27  30
HETATM   30  C2  UNL     1       1.358  -7.183 -30.914  1.00  0.00     0.177 C 
HETATM   31  C1  UNL     1       0.552  -5.929 -31.053  1.00  0.00     0.047 C 
BRANCH  30  32
HETATM   32  O1  UNL     1       0.857  -8.104 -31.863  1.00  0.00    -0.389 OA
ATOM     33  H1  UNL     1       0.317  -8.726 -31.389  1.00  0.00     0.210 HD
ENDBRANCH  30  32
ENDBRANCH  27  30
ENDBRANCH  23  26
ENDBRANCH  21  22
ENDBRANCH   1  21
TORSDOF 5
ENDMDL
