MODEL 1
REMARK VINA RESULT: -10.033407779      0.000      0.000
REMARK  4 active torsions:
REMARK  status: ('A' for Active; 'I' for Inactive)
REMARK    1  A    between atoms: S1_2  and  N1_4 
REMARK    2  A    between atoms: S1_2  and  C8_17 
REMARK    3  A    between atoms: N1_4  and  C1_6 
REMARK    4  A    between atoms: C2_9  and  C3_10 
ROOT
HETATM    1  O1  UNL     1       6.104 -14.756 -27.192  1.00  0.00    -0.200 OA
HETATM    2  S1  UNL     1       6.094 -14.946 -25.701  1.00  0.00     0.272 S 
HETATM    3  O2  UNL     1       5.314 -16.170 -25.405  1.00  0.00    -0.200 OA
ENDROOT
BRANCH   2   4
HETATM    4  N1  UNL     1       7.736 -15.052 -25.182  1.00  0.00    -0.259 N 
ATOM      5  H1  UNL     1       7.995 -15.518 -24.313  1.00  0.00     0.181 HD
BRANCH   4   6
HETATM    6  C1  UNL     1       8.635 -14.500 -25.967  1.00  0.00     0.158 A 
HETATM    7  N2  UNL     1       9.951 -14.687 -25.963  1.00  0.00    -0.335 N 
HETATM    8  C2  UNL     1      10.673 -14.027 -26.844  1.00  0.00     0.058 A 
ATOM      9  H2  UNL     1      10.388 -15.323 -25.297  1.00  0.00     0.168 HD
HETATM   10  C7  UNL     1      10.020 -13.194 -27.704  1.00  0.00     0.084 A 
HETATM   11  S3  UNL     1       8.395 -13.379 -27.226  1.00  0.00    -0.063 SA
BRANCH   8  12
HETATM   12  C3  UNL     1      12.155 -14.184 -26.902  1.00  0.00     0.032 A 
HETATM   13  C4  UNL     1      13.029 -14.243 -25.854  1.00  0.00     0.021 A 
HETATM   14  C5  UNL     1      14.331 -14.389 -26.147  1.00  0.00     0.008 A 
HETATM   15  C6  UNL     1      14.673 -14.465 -27.472  1.00  0.00     0.050 A 
HETATM   16  S2  UNL     1      13.170 -14.331 -28.263  1.00  0.00    -0.100 SA
ENDBRANCH   8  12
ENDBRANCH   4   6
ENDBRANCH   2   4
BRANCH   2  17
HETATM   17  C8  UNL     1       5.340 -13.508 -25.016  1.00  0.00     0.132 A 
HETATM   18  S4  UNL     1       6.095 -12.036 -24.628  1.00  0.00    -0.067 SA
HETATM   19  C9  UNL     1       4.747 -11.188 -24.038  1.00  0.00     0.064 A 
HETATM   20 BR1  UNL     1       4.704  -9.379 -23.363  1.00  0.00    -0.042 Br
HETATM   21  C10 UNL     1       3.722 -12.087 -24.157  1.00  0.00     0.001 A 
HETATM   22  C11 UNL     1       2.382 -11.832 -23.786  1.00  0.00     0.014 A 
HETATM   23  C15 UNL     1       4.028 -13.300 -24.668  1.00  0.00     0.006 A 
HETATM   24  C12 UNL     1       1.387 -12.775 -23.928  1.00  0.00     0.001 A 
HETATM   25  C13 UNL     1       1.698 -14.015 -24.450  1.00  0.00     0.001 A 
HETATM   26  C14 UNL     1       3.001 -14.263 -24.810  1.00  0.00     0.014 A 
ENDBRANCH   2  17
TORSDOF 4
ENDMDL
MODEL 2
REMARK VINA RESULT: -9.865683159      4.598      8.613
REMARK  4 active torsions:
REMARK  status: ('A' for Active; 'I' for Inactive)
REMARK    1  A    between atoms: S1_2  and  N1_4 
REMARK    2  A    between atoms: S1_2  and  C8_17 
REMARK    3  A    between atoms: N1_4  and  C1_6 
REMARK    4  A    between atoms: C2_9  and  C3_10 
ROOT
HETATM    1  O1  UNL     1       6.365  -9.440 -23.225  1.00  0.00    -0.200 OA
HETATM    2  S1  UNL     1       5.232 -10.261 -23.774  1.00  0.00     0.272 S 
HETATM    3  O2  UNL     1       4.322 -10.587 -22.651  1.00  0.00    -0.200 OA
ENDROOT
BRANCH   2   4
HETATM    4  N1  UNL     1       4.470  -9.331 -25.010  1.00  0.00    -0.259 N 
ATOM      5  H1  UNL     1       4.988  -8.653 -25.569  1.00  0.00     0.181 HD
BRANCH   4   6
HETATM    6  C1  UNL     1       3.184  -9.542 -25.192  1.00  0.00     0.158 A 
HETATM    7  N2  UNL     1       2.398 -10.406 -24.559  1.00  0.00    -0.335 N 
HETATM    8  C2  UNL     1       1.128 -10.454 -24.901  1.00  0.00     0.058 A 
ATOM      9  H2  UNL     1       2.768 -11.014 -23.829  1.00  0.00     0.168 HD
HETATM   10  C7  UNL     1       0.703  -9.612 -25.887  1.00  0.00     0.084 A 
HETATM   11  S3  UNL     1       2.133  -8.777 -26.292  1.00  0.00    -0.063 SA
BRANCH   8  12
HETATM   12  C3  UNL     1       0.183 -11.397 -24.236  1.00  0.00     0.032 A 
HETATM   13  C4  UNL     1       0.484 -12.396 -23.355  1.00  0.00     0.021 A 
HETATM   14  C5  UNL     1      -0.539 -13.125 -22.880  1.00  0.00     0.008 A 
HETATM   15  C6  UNL     1      -1.796 -12.806 -23.319  1.00  0.00     0.050 A 
HETATM   16  S2  UNL     1      -1.512 -11.502 -24.378  1.00  0.00    -0.100 SA
ENDBRANCH   8  12
ENDBRANCH   4   6
ENDBRANCH   2   4
BRANCH   2  17
HETATM   17  C8  UNL     1       5.954 -11.710 -24.473  1.00  0.00     0.132 A 
HETATM   18  S4  UNL     1       7.585 -11.953 -24.879  1.00  0.00    -0.067 SA
HETATM   19  C9  UNL     1       7.482 -13.541 -25.474  1.00  0.00     0.064 A 
HETATM   20 BR1  UNL     1       8.919 -14.627 -26.170  1.00  0.00    -0.042 Br
HETATM   21  C10 UNL     1       6.155 -13.850 -25.341  1.00  0.00     0.001 A 
HETATM   22  C11 UNL     1       5.577 -15.086 -25.710  1.00  0.00     0.014 A 
HETATM   23  C15 UNL     1       5.354 -12.896 -24.818  1.00  0.00     0.006 A 
HETATM   24  C12 UNL     1       4.232 -15.345 -25.554  1.00  0.00     0.001 A 
HETATM   25  C13 UNL     1       3.412 -14.372 -25.020  1.00  0.00     0.001 A 
HETATM   26  C14 UNL     1       3.974 -13.170 -24.661  1.00  0.00     0.014 A 
ENDBRANCH   2  17
TORSDOF 4
ENDMDL
MODEL 3
REMARK VINA RESULT: -9.637558692      5.318      8.301
REMARK  4 active torsions:
REMARK  status: ('A' for Active; 'I' for Inactive)
REMARK    1  A    between atoms: S1_2  and  N1_4 
REMARK    2  A    between atoms: S1_2  and  C8_17 
REMARK    3  A    between atoms: N1_4  and  C1_6 
REMARK    4  A    between atoms: C2_9  and  C3_10 
ROOT
HETATM    1  O1  UNL     1       1.495 -12.427 -22.651  1.00  0.00    -0.200 OA
HETATM    2  S1  UNL     1       1.819 -11.909 -24.024  1.00  0.00     0.272 S 
HETATM    3  O2  UNL     1       1.047 -12.706 -25.005  1.00  0.00    -0.200 OA
ENDROOT
BRANCH   2   4
HETATM    4  N1  UNL     1       1.416 -10.232 -24.053  1.00  0.00    -0.259 N 
ATOM      5  H1  UNL     1       1.483  -9.649 -23.218  1.00  0.00     0.181 HD
BRANCH   4   6
HETATM    6  C1  UNL     1       1.017  -9.745 -25.208  1.00  0.00     0.158 A 
HETATM    7  N2  UNL     1       1.744  -9.119 -26.127  1.00  0.00    -0.335 N 
HETATM    8  C2  UNL     1       1.140  -8.710 -27.222  1.00  0.00     0.058 A 
ATOM      9  H2  UNL     1       2.742  -8.960 -25.988  1.00  0.00     0.168 HD
HETATM   10  C7  UNL     1      -0.197  -8.957 -27.340  1.00  0.00     0.084 A 
HETATM   11  S3  UNL     1      -0.546  -9.766 -25.881  1.00  0.00    -0.063 SA
BRANCH   8  12
HETATM   12  C3  UNL     1       1.887  -8.000 -28.300  1.00  0.00     0.032 A 
HETATM   13  C4  UNL     1       3.168  -7.528 -28.254  1.00  0.00     0.021 A 
HETATM   14  C5  UNL     1       3.637  -6.917 -29.354  1.00  0.00     0.008 A 
HETATM   15  C6  UNL     1       2.792  -6.818 -30.427  1.00  0.00     0.050 A 
HETATM   16  S2  UNL     1       1.374  -7.579 -29.869  1.00  0.00    -0.100 SA
ENDBRANCH   8  12
ENDBRANCH   4   6
ENDBRANCH   2   4
BRANCH   2  17
HETATM   17  C8  UNL     1       3.557 -12.111 -24.240  1.00  0.00     0.132 A 
HETATM   18  S4  UNL     1       4.772 -10.963 -23.936  1.00  0.00    -0.067 SA
HETATM   19  C9  UNL     1       6.131 -11.885 -24.375  1.00  0.00     0.064 A 
HETATM   20 BR1  UNL     1       7.981 -11.335 -24.335  1.00  0.00    -0.042 Br
HETATM   21  C10 UNL     1       5.597 -13.086 -24.755  1.00  0.00     0.001 A 
HETATM   22  C11 UNL     1       6.350 -14.192 -25.209  1.00  0.00     0.014 A 
HETATM   23  C15 UNL     1       4.253 -13.209 -24.686  1.00  0.00     0.006 A 
HETATM   24  C12 UNL     1       5.760 -15.382 -25.581  1.00  0.00     0.001 A 
HETATM   25  C13 UNL     1       4.388 -15.508 -25.510  1.00  0.00     0.001 A 
HETATM   26  C14 UNL     1       3.655 -14.433 -25.069  1.00  0.00     0.014 A 
ENDBRANCH   2  17
TORSDOF 4
ENDMDL
MODEL 4
REMARK VINA RESULT: -9.606127285      1.800      2.520
REMARK  4 active torsions:
REMARK  status: ('A' for Active; 'I' for Inactive)
REMARK    1  A    between atoms: S1_2  and  N1_4 
REMARK    2  A    between atoms: S1_2  and  C8_17 
REMARK    3  A    between atoms: N1_4  and  C1_6 
REMARK    4  A    between atoms: C2_9  and  C3_10 
ROOT
HETATM    1  O1  UNL     1       6.353 -15.611 -26.696  1.00  0.00    -0.200 OA
HETATM    2  S1  UNL     1       6.742 -14.504 -25.758  1.00  0.00     0.272 S 
HETATM    3  O2  UNL     1       7.543 -15.097 -24.662  1.00  0.00    -0.200 OA
ENDROOT
BRANCH   2   4
HETATM    4  N1  UNL     1       7.618 -13.333 -26.673  1.00  0.00    -0.259 N 
ATOM      5  H1  UNL     1       7.196 -12.845 -27.463  1.00  0.00     0.181 HD
BRANCH   4   6
HETATM    6  C1  UNL     1       8.858 -13.105 -26.299  1.00  0.00     0.158 A 
HETATM    7  N2  UNL     1       9.971 -13.656 -26.772  1.00  0.00    -0.335 N 
HETATM    8  C2  UNL     1      11.119 -13.281 -26.250  1.00  0.00     0.058 A 
ATOM      9  H2  UNL     1       9.936 -14.350 -27.518  1.00  0.00     0.168 HD
HETATM   10  C7  UNL     1      11.089 -12.348 -25.254  1.00  0.00     0.084 A 
HETATM   11  S3  UNL     1       9.420 -12.038 -25.097  1.00  0.00    -0.063 SA
BRANCH   8  12
HETATM   12  C3  UNL     1      12.410 -13.853 -26.728  1.00  0.00     0.032 A 
HETATM   13  C4  UNL     1      13.503 -14.185 -25.979  1.00  0.00     0.021 A 
HETATM   14  C5  UNL     1      14.564 -14.690 -26.629  1.00  0.00     0.008 A 
HETATM   15  C6  UNL     1      14.460 -14.828 -27.988  1.00  0.00     0.050 A 
HETATM   16  S2  UNL     1      12.891 -14.252 -28.313  1.00  0.00    -0.100 SA
ENDBRANCH   8  12
ENDBRANCH   4   6
ENDBRANCH   2   4
BRANCH   2  17
HETATM   17  C8  UNL     1       5.240 -13.798 -25.163  1.00  0.00     0.132 A 
HETATM   18  S4  UNL     1       3.703 -14.520 -25.138  1.00  0.00    -0.067 SA
HETATM   19  C9  UNL     1       2.817 -13.248 -24.442  1.00  0.00     0.064 A 
HETATM   20 BR1  UNL     1       0.929 -13.218 -24.040  1.00  0.00    -0.042 Br
HETATM   21  C10 UNL     1       3.756 -12.273 -24.242  1.00  0.00     0.001 A 
HETATM   22  C11 UNL     1       3.490 -11.005 -23.676  1.00  0.00     0.014 A 
HETATM   23  C15 UNL     1       5.023 -12.556 -24.617  1.00  0.00     0.006 A 
HETATM   24  C12 UNL     1       4.476 -10.058 -23.496  1.00  0.00     0.001 A 
HETATM   25  C13 UNL     1       5.770 -10.346 -23.879  1.00  0.00     0.001 A 
HETATM   26  C14 UNL     1       6.029 -11.578 -24.430  1.00  0.00     0.014 A 
ENDBRANCH   2  17
TORSDOF 4
ENDMDL
MODEL 5
REMARK VINA RESULT: -9.552777322      5.409      8.728
REMARK  4 active torsions:
REMARK  status: ('A' for Active; 'I' for Inactive)
REMARK    1  A    between atoms: S1_2  and  N1_4 
REMARK    2  A    between atoms: S1_2  and  C8_17 
REMARK    3  A    between atoms: N1_4  and  C1_6 
REMARK    4  A    between atoms: C2_9  and  C3_10 
ROOT
HETATM    1  O1  UNL     1       4.164  -8.456 -24.713  1.00  0.00    -0.200 OA
HETATM    2  S1  UNL     1       3.706  -9.502 -23.736  1.00  0.00     0.272 S 
HETATM    3  O2  UNL     1       4.120  -9.071 -22.381  1.00  0.00    -0.200 OA
ENDROOT
BRANCH   2   4
HETATM    4  N1  UNL     1       1.996  -9.651 -23.902  1.00  0.00    -0.259 N 
ATOM      5  H1  UNL     1       1.403  -9.927 -23.119  1.00  0.00     0.181 HD
BRANCH   4   6
HETATM    6  C1  UNL     1       1.497  -9.390 -25.091  1.00  0.00     0.158 A 
HETATM    7  N2  UNL     1       2.084  -8.763 -26.105  1.00  0.00    -0.335 N 
HETATM    8  C2  UNL     1       1.398  -8.607 -27.217  1.00  0.00     0.058 A 
ATOM      9  H2  UNL     1       3.038  -8.413 -26.023  1.00  0.00     0.168 HD
HETATM   10  C7  UNL     1       0.127  -9.101 -27.254  1.00  0.00     0.084 A 
HETATM   11  S3  UNL     1      -0.047  -9.773 -25.697  1.00  0.00    -0.063 SA
BRANCH   8  12
HETATM   12  C3  UNL     1       1.987  -7.915 -28.399  1.00  0.00     0.032 A 
HETATM   13  C4  UNL     1       3.261  -7.442 -28.539  1.00  0.00     0.021 A 
HETATM   14  C5  UNL     1       3.572  -6.848 -29.702  1.00  0.00     0.008 A 
HETATM   15  C6  UNL     1       2.586  -6.765 -30.649  1.00  0.00     0.050 A 
HETATM   16  S2  UNL     1       1.260  -7.517 -29.888  1.00  0.00    -0.100 SA
ENDBRANCH   8  12
ENDBRANCH   4   6
ENDBRANCH   2   4
BRANCH   2  17
HETATM   17  C8  UNL     1       4.488 -11.009 -24.211  1.00  0.00     0.132 A 
HETATM   18  S4  UNL     1       3.734 -12.482 -24.595  1.00  0.00    -0.067 SA
HETATM   19  C9  UNL     1       5.115 -13.412 -24.935  1.00  0.00     0.064 A 
HETATM   20 BR1  UNL     1       5.176 -15.265 -25.471  1.00  0.00    -0.042 Br
HETATM   21  C10 UNL     1       6.150 -12.538 -24.737  1.00  0.00     0.001 A 
HETATM   22  C11 UNL     1       7.516 -12.860 -24.900  1.00  0.00     0.014 A 
HETATM   23  C15 UNL     1       5.826 -11.281 -24.359  1.00  0.00     0.006 A 
HETATM   24  C12 UNL     1       8.520 -11.939 -24.688  1.00  0.00     0.001 A 
HETATM   25  C13 UNL     1       8.191 -10.655 -24.301  1.00  0.00     0.001 A 
HETATM   26  C14 UNL     1       6.862 -10.342 -24.142  1.00  0.00     0.014 A 
ENDBRANCH   2  17
TORSDOF 4
ENDMDL
