MODEL 1
REMARK VINA RESULT: -8.019507814      0.000      0.000
REMARK  12 active torsions:
REMARK  status: ('A' for Active; 'I' for Inactive)
REMARK       I    between atoms: C1_2  and  N1_3 
REMARK    1  A    between atoms: C1_2  and  O2_8 
REMARK    2  A    between atoms: N1_3  and  C2_5 
REMARK    3  A    between atoms: O2_8  and  C5_9 
REMARK    4  A    between atoms: C5_9  and  C6_10 
REMARK    5  A    between atoms: C14_18  and  C15_19 
REMARK    6  A    between atoms: C16_20  and  O3_21 
REMARK    7  A    between atoms: O3_21  and  C17_22 
REMARK    8  A    between atoms: C18_24  and  C19_25 
REMARK    9  A    between atoms: C19_25  and  O5_26 
REMARK   10  A    between atoms: C20_28  and  O6_29 
REMARK   11  A    between atoms: C21_31  and  O7_32 
REMARK   12  A    between atoms: C22_36  and  O8_37 
ROOT
HETATM    1  C6  UNL     1       6.973   9.249  27.809  1.00  0.00     0.035 C 
HETATM    2  C7  UNL     1       7.285  10.198  26.716  1.00  0.00     0.021 C 
HETATM    3  C8  UNL     1       8.712  10.635  26.659  1.00  0.00    -0.009 A 
HETATM    4  C9  UNL     1       8.899  12.139  26.495  1.00  0.00     0.010 A 
HETATM    5  C10 UNL     1       9.210  11.436  27.764  1.00  0.00    -0.010 A 
HETATM    6  C11 UNL     1       8.324  11.703  28.906  1.00  0.00     0.006 C 
HETATM    7  C12 UNL     1       7.995  10.469  29.764  1.00  0.00     0.012 C 
HETATM    8  C13 UNL     1       6.793   9.871  29.169  1.00  0.00     0.050 C 
HETATM    9  C14 UNL     1       6.203   8.695  29.927  1.00  0.00     0.014 C 
HETATM   10  N2  UNL     1       5.450   8.038  28.929  1.00  0.00    -0.366 N 
ATOM     11  H2  UNL     1       4.947   7.161  29.062  1.00  0.00     0.162 HD
HETATM   12  C22 UNL     1       5.497   8.807  27.654  1.00  0.00     0.229 C 
ENDROOT
BRANCH   9  13
HETATM   13  C15 UNL     1       6.431   8.372  31.144  1.00  0.00     0.049 C 
HETATM   14  C16 UNL     1       6.597   7.189  31.911  1.00  0.00     0.140 C 
BRANCH  14  15
HETATM   15  O3  UNL     1       6.507   5.947  31.445  1.00  0.00    -0.330 OA
BRANCH  15  16
HETATM   16  C17 UNL     1       5.589   5.139  32.095  1.00  0.00     0.297 C 
HETATM   17  O4  UNL     1       6.190   3.823  31.911  1.00  0.00    -0.348 OA
HETATM   18  C18 UNL     1       5.146   2.956  32.055  1.00  0.00     0.179 C 
HETATM   19  C20 UNL     1       3.933   3.591  31.432  1.00  0.00     0.182 C 
HETATM   20  C21 UNL     1       4.315   5.046  31.381  1.00  0.00     0.205 C 
BRANCH  18  21
HETATM   21  C19 UNL     1       5.380   1.645  31.334  1.00  0.00     0.198 C 
BRANCH  21  22
HETATM   22  O5  UNL     1       4.386   1.488  30.380  1.00  0.00    -0.398 OA
ATOM     23  H5  UNL     1       3.824   0.772  30.651  1.00  0.00     0.209 HD
ENDBRANCH  21  22
ENDBRANCH  18  21
BRANCH  19  24
HETATM   24  O6  UNL     1       2.798   3.447  32.232  1.00  0.00    -0.390 OA
ATOM     25  H6  UNL     1       2.240   4.215  32.200  1.00  0.00     0.210 HD
ENDBRANCH  19  24
BRANCH  20  26
HETATM   26  O7  UNL     1       4.426   5.449  30.047  1.00  0.00    -0.388 OA
ATOM     27  H7  UNL     1       3.745   6.064  29.800  1.00  0.00     0.210 HD
ENDBRANCH  20  26
ENDBRANCH  15  16
ENDBRANCH  14  15
ENDBRANCH   9  13
BRANCH   1  28
HETATM   28  C5  UNL     1       7.789   7.998  27.817  1.00  0.00     0.195 C 
BRANCH  28  29
HETATM   29  O2  UNL     1       7.888   7.354  26.589  1.00  0.00    -0.303 OA
BRANCH  29  30
HETATM   30  C1  UNL     1       8.948   6.499  26.325  1.00  0.00     0.360 C 
HETATM   31  O1  UNL     1      10.083   7.040  26.257  1.00  0.00    -0.239 OA
HETATM   32  N1  UNL     1       8.774   5.093  26.141  1.00  0.00    -0.332 N 
ATOM     33  H1  UNL     1       7.852   4.661  26.198  1.00  0.00     0.165 HD
BRANCH  32  34
HETATM   34  C2  UNL     1       9.956   4.305  25.870  1.00  0.00     0.086 A 
HETATM   35  C3  UNL     1       9.856   2.815  25.856  1.00  0.00     0.027 A 
HETATM   36  C4  UNL     1      10.590   3.516  26.970  1.00  0.00     0.027 A 
ENDBRANCH  32  34
ENDBRANCH  29  30
ENDBRANCH  28  29
ENDBRANCH   1  28
BRANCH  12  37
HETATM   37  O8  UNL     1       5.293   8.021  26.560  1.00  0.00    -0.376 OA
ATOM     38  H8  UNL     1       4.393   8.040  26.255  1.00  0.00     0.212 HD
ENDBRANCH  12  37
TORSDOF 12
ENDMDL
MODEL 2
REMARK VINA RESULT: -7.834158254      3.078      8.480
REMARK  12 active torsions:
REMARK  status: ('A' for Active; 'I' for Inactive)
REMARK       I    between atoms: C1_2  and  N1_3 
REMARK    1  A    between atoms: C1_2  and  O2_8 
REMARK    2  A    between atoms: N1_3  and  C2_5 
REMARK    3  A    between atoms: O2_8  and  C5_9 
REMARK    4  A    between atoms: C5_9  and  C6_10 
REMARK    5  A    between atoms: C14_18  and  C15_19 
REMARK    6  A    between atoms: C16_20  and  O3_21 
REMARK    7  A    between atoms: O3_21  and  C17_22 
REMARK    8  A    between atoms: C18_24  and  C19_25 
REMARK    9  A    between atoms: C19_25  and  O5_26 
REMARK   10  A    between atoms: C20_28  and  O6_29 
REMARK   11  A    between atoms: C21_31  and  O7_32 
REMARK   12  A    between atoms: C22_36  and  O8_37 
ROOT
HETATM    1  C6  UNL     1       9.528   6.140  27.084  1.00  0.00     0.035 C 
HETATM    2  C7  UNL     1       8.873   4.987  26.424  1.00  0.00     0.021 C 
HETATM    3  C8  UNL     1       9.327   3.650  26.912  1.00  0.00    -0.009 A 
HETATM    4  C9  UNL     1       9.651   2.658  25.801  1.00  0.00     0.010 A 
HETATM    5  C10 UNL     1      10.704   3.274  26.645  1.00  0.00    -0.010 A 
HETATM    6  C11 UNL     1      11.594   4.245  25.993  1.00  0.00     0.006 C 
HETATM    7  C12 UNL     1      11.948   5.471  26.854  1.00  0.00     0.012 C 
HETATM    8  C13 UNL     1      10.908   6.471  26.579  1.00  0.00     0.050 C 
HETATM    9  C14 UNL     1      11.116   7.826  27.232  1.00  0.00     0.014 C 
HETATM   10  N2  UNL     1       9.809   8.362  27.241  1.00  0.00    -0.366 N 
ATOM     11  H2  UNL     1       9.549   9.256  27.657  1.00  0.00     0.162 HD
HETATM   12  C22 UNL     1       8.865   7.436  26.555  1.00  0.00     0.229 C 
ENDROOT
BRANCH   9  13
HETATM   13  C15 UNL     1      12.207   8.287  27.718  1.00  0.00     0.049 C 
HETATM   14  C16 UNL     1      13.135   9.323  27.435  1.00  0.00     0.140 C 
BRANCH  14  15
HETATM   15  O3  UNL     1      13.065  10.165  26.409  1.00  0.00    -0.330 OA
BRANCH  15  16
HETATM   16  C17 UNL     1      12.654  11.449  26.726  1.00  0.00     0.297 C 
HETATM   17  O4  UNL     1      11.233  11.238  26.980  1.00  0.00    -0.348 OA
HETATM   18  C18 UNL     1      10.675  12.469  26.797  1.00  0.00     0.179 C 
HETATM   19  C20 UNL     1      11.392  13.133  25.654  1.00  0.00     0.182 C 
HETATM   20  C21 UNL     1      12.674  12.349  25.572  1.00  0.00     0.205 C 
BRANCH  18  21
HETATM   21  C19 UNL     1       9.211  12.388  26.416  1.00  0.00     0.198 C 
BRANCH  21  22
HETATM   22  O5  UNL     1       8.945  11.099  25.980  1.00  0.00    -0.398 OA
ATOM     23  H5  UNL     1       9.421  10.954  25.171  1.00  0.00     0.209 HD
ENDBRANCH  21  22
ENDBRANCH  18  21
BRANCH  19  24
HETATM   24  O6  UNL     1      11.693  14.468  25.930  1.00  0.00    -0.390 OA
ATOM     25  H6  UNL     1      12.581  14.692  25.678  1.00  0.00     0.210 HD
ENDBRANCH  19  24
BRANCH  20  26
HETATM   26  O7  UNL     1      12.714  11.653  24.360  1.00  0.00    -0.388 OA
ATOM     27  H7  UNL     1      12.588  12.226  23.613  1.00  0.00     0.210 HD
ENDBRANCH  20  26
ENDBRANCH  15  16
ENDBRANCH  14  15
ENDBRANCH   9  13
BRANCH   1  28
HETATM   28  C5  UNL     1       9.401   6.178  28.572  1.00  0.00     0.195 C 
BRANCH  28  29
HETATM   29  O2  UNL     1       8.108   6.006  29.055  1.00  0.00    -0.303 OA
BRANCH  29  30
HETATM   30  C1  UNL     1       7.880   5.282  30.215  1.00  0.00     0.360 C 
HETATM   31  O1  UNL     1       8.906   4.969  30.875  1.00  0.00    -0.239 OA
HETATM   32  N1  UNL     1       6.569   4.910  30.645  1.00  0.00    -0.332 N 
ATOM     33  H1  UNL     1       5.743   5.168  30.106  1.00  0.00     0.165 HD
BRANCH  32  34
HETATM   34  C2  UNL     1       6.460   4.154  31.872  1.00  0.00     0.086 A 
HETATM   35  C3  UNL     1       6.371   2.664  31.810  1.00  0.00     0.027 A 
HETATM   36  C4  UNL     1       5.172   3.481  32.216  1.00  0.00     0.027 A 
ENDBRANCH  32  34
ENDBRANCH  29  30
ENDBRANCH  28  29
ENDBRANCH   1  28
BRANCH  12  37
HETATM   37  O8  UNL     1       7.581   7.585  26.984  1.00  0.00    -0.376 OA
ATOM     38  H8  UNL     1       7.490   8.258  27.649  1.00  0.00     0.212 HD
ENDBRANCH  12  37
TORSDOF 12
ENDMDL
MODEL 3
REMARK VINA RESULT: -7.710525881      3.565      9.101
REMARK  12 active torsions:
REMARK  status: ('A' for Active; 'I' for Inactive)
REMARK       I    between atoms: C1_2  and  N1_3 
REMARK    1  A    between atoms: C1_2  and  O2_8 
REMARK    2  A    between atoms: N1_3  and  C2_5 
REMARK    3  A    between atoms: O2_8  and  C5_9 
REMARK    4  A    between atoms: C5_9  and  C6_10 
REMARK    5  A    between atoms: C14_18  and  C15_19 
REMARK    6  A    between atoms: C16_20  and  O3_21 
REMARK    7  A    between atoms: O3_21  and  C17_22 
REMARK    8  A    between atoms: C18_24  and  C19_25 
REMARK    9  A    between atoms: C19_25  and  O5_26 
REMARK   10  A    between atoms: C20_28  and  O6_29 
REMARK   11  A    between atoms: C21_31  and  O7_32 
REMARK   12  A    between atoms: C22_36  and  O8_37 
ROOT
HETATM    1  C6  UNL     1       9.541   6.109  26.999  1.00  0.00     0.035 C 
HETATM    2  C7  UNL     1       8.863   4.961  26.355  1.00  0.00     0.021 C 
HETATM    3  C8  UNL     1       9.278   3.622  26.871  1.00  0.00    -0.009 A 
HETATM    4  C9  UNL     1       9.586   2.601  25.781  1.00  0.00     0.010 A 
HETATM    5  C10 UNL     1      10.648   3.207  26.622  1.00  0.00    -0.010 A 
HETATM    6  C11 UNL     1      11.567   4.142  25.959  1.00  0.00     0.006 C 
HETATM    7  C12 UNL     1      11.945   5.375  26.801  1.00  0.00     0.012 C 
HETATM    8  C13 UNL     1      10.933   6.396  26.500  1.00  0.00     0.050 C 
HETATM    9  C14 UNL     1      11.169   7.757  27.130  1.00  0.00     0.014 C 
HETATM   10  N2  UNL     1       9.877   8.325  27.118  1.00  0.00    -0.366 N 
ATOM     11  H2  UNL     1       9.636   9.233  27.516  1.00  0.00     0.162 HD
HETATM   12  C22 UNL     1       8.915   7.411  26.441  1.00  0.00     0.229 C 
ENDROOT
BRANCH   9  13
HETATM   13  C15 UNL     1      12.268   8.199  27.615  1.00  0.00     0.049 C 
HETATM   14  C16 UNL     1      12.907   9.451  27.818  1.00  0.00     0.140 C 
BRANCH  14  15
HETATM   15  O3  UNL     1      12.420  10.634  27.457  1.00  0.00    -0.330 OA
BRANCH  15  16
HETATM   16  C17 UNL     1      13.013  11.199  26.341  1.00  0.00     0.297 C 
HETATM   17  O4  UNL     1      13.128  12.593  26.755  1.00  0.00    -0.348 OA
HETATM   18  C18 UNL     1      13.216  13.284  25.583  1.00  0.00     0.179 C 
HETATM   19  C20 UNL     1      12.309  12.615  24.587  1.00  0.00     0.182 C 
HETATM   20  C21 UNL     1      12.113  11.249  25.188  1.00  0.00     0.205 C 
BRANCH  18  21
HETATM   21  C19 UNL     1      12.743  14.717  25.721  1.00  0.00     0.198 C 
BRANCH  21  22
HETATM   22  O5  UNL     1      12.797  15.316  24.471  1.00  0.00    -0.398 OA
ATOM     23  H5  UNL     1      13.209  16.166  24.565  1.00  0.00     0.209 HD
ENDBRANCH  21  22
ENDBRANCH  18  21
BRANCH  19  24
HETATM   24  O6  UNL     1      12.915  12.479  23.336  1.00  0.00    -0.390 OA
ATOM     25  H6  UNL     1      13.328  13.285  23.051  1.00  0.00     0.210 HD
ENDBRANCH  19  24
BRANCH  20  26
HETATM   26  O7  UNL     1      10.773  11.093  25.557  1.00  0.00    -0.388 OA
ATOM     27  H7  UNL     1      10.180  11.267  24.835  1.00  0.00     0.210 HD
ENDBRANCH  20  26
ENDBRANCH  15  16
ENDBRANCH  14  15
ENDBRANCH   9  13
BRANCH   1  28
HETATM   28  C5  UNL     1       9.403   6.177  28.485  1.00  0.00     0.195 C 
BRANCH  28  29
HETATM   29  O2  UNL     1       8.112   5.985  28.964  1.00  0.00    -0.303 OA
BRANCH  29  30
HETATM   30  C1  UNL     1       7.895   5.286  30.142  1.00  0.00     0.360 C 
HETATM   31  O1  UNL     1       8.928   4.976  30.792  1.00  0.00    -0.239 OA
HETATM   32  N1  UNL     1       6.588   4.936  30.599  1.00  0.00    -0.332 N 
ATOM     33  H1  UNL     1       5.756   5.191  30.068  1.00  0.00     0.165 HD
BRANCH  32  34
HETATM   34  C2  UNL     1       6.490   4.206  31.843  1.00  0.00     0.086 A 
HETATM   35  C3  UNL     1       6.346   2.719  31.811  1.00  0.00     0.027 A 
HETATM   36  C4  UNL     1       5.190   3.586  32.239  1.00  0.00     0.027 A 
ENDBRANCH  32  34
ENDBRANCH  29  30
ENDBRANCH  28  29
ENDBRANCH   1  28
BRANCH  12  37
HETATM   37  O8  UNL     1       7.632   7.600  26.857  1.00  0.00    -0.376 OA
ATOM     38  H8  UNL     1       7.553   8.291  27.505  1.00  0.00     0.212 HD
ENDBRANCH  12  37
TORSDOF 12
ENDMDL
MODEL 4
REMARK VINA RESULT: -7.574133670      3.337      8.489
REMARK  12 active torsions:
REMARK  status: ('A' for Active; 'I' for Inactive)
REMARK       I    between atoms: C1_2  and  N1_3 
REMARK    1  A    between atoms: C1_2  and  O2_8 
REMARK    2  A    between atoms: N1_3  and  C2_5 
REMARK    3  A    between atoms: O2_8  and  C5_9 
REMARK    4  A    between atoms: C5_9  and  C6_10 
REMARK    5  A    between atoms: C14_18  and  C15_19 
REMARK    6  A    between atoms: C16_20  and  O3_21 
REMARK    7  A    between atoms: O3_21  and  C17_22 
REMARK    8  A    between atoms: C18_24  and  C19_25 
REMARK    9  A    between atoms: C19_25  and  O5_26 
REMARK   10  A    between atoms: C20_28  and  O6_29 
REMARK   11  A    between atoms: C21_31  and  O7_32 
REMARK   12  A    between atoms: C22_36  and  O8_37 
ROOT
HETATM    1  C6  UNL     1       9.546   6.089  27.137  1.00  0.00     0.035 C 
HETATM    2  C7  UNL     1       8.889   4.941  26.471  1.00  0.00     0.021 C 
HETATM    3  C8  UNL     1       9.375   3.601  26.917  1.00  0.00    -0.009 A 
HETATM    4  C9  UNL     1       9.682   2.637  25.777  1.00  0.00     0.010 A 
HETATM    5  C10 UNL     1      10.750   3.251  26.604  1.00  0.00    -0.010 A 
HETATM    6  C11 UNL     1      11.607   4.248  25.948  1.00  0.00     0.006 C 
HETATM    7  C12 UNL     1      11.968   5.460  26.825  1.00  0.00     0.012 C 
HETATM    8  C13 UNL     1      10.906   6.451  26.601  1.00  0.00     0.050 C 
HETATM    9  C14 UNL     1      11.113   7.795  27.278  1.00  0.00     0.014 C 
HETATM   10  N2  UNL     1       9.801   8.311  27.334  1.00  0.00    -0.366 N 
ATOM     11  H2  UNL     1       9.540   9.192  27.777  1.00  0.00     0.162 HD
HETATM   12  C22 UNL     1       8.850   7.386  26.655  1.00  0.00     0.229 C 
ENDROOT
BRANCH   9  13
HETATM   13  C15 UNL     1      12.211   8.261  27.742  1.00  0.00     0.049 C 
HETATM   14  C16 UNL     1      13.130   9.300  27.440  1.00  0.00     0.140 C 
BRANCH  14  15
HETATM   15  O3  UNL     1      13.038  10.139  26.413  1.00  0.00    -0.330 OA
BRANCH  15  16
HETATM   16  C17 UNL     1      12.617  11.419  26.732  1.00  0.00     0.297 C 
HETATM   17  O4  UNL     1      11.195  11.198  26.971  1.00  0.00    -0.348 OA
HETATM   18  C18 UNL     1      10.632  12.427  26.789  1.00  0.00     0.179 C 
HETATM   19  C20 UNL     1      11.357  13.101  25.656  1.00  0.00     0.182 C 
HETATM   20  C21 UNL     1      12.644  12.324  25.583  1.00  0.00     0.205 C 
BRANCH  18  21
HETATM   21  C19 UNL     1       9.172  12.340  26.392  1.00  0.00     0.198 C 
BRANCH  21  22
HETATM   22  O5  UNL     1       8.907  11.040  25.991  1.00  0.00    -0.398 OA
ATOM     23  H5  UNL     1       9.715  10.655  25.672  1.00  0.00     0.209 HD
ENDBRANCH  21  22
ENDBRANCH  18  21
BRANCH  19  24
HETATM   24  O6  UNL     1      11.647  14.436  25.942  1.00  0.00    -0.390 OA
ATOM     25  H6  UNL     1      10.860  14.954  26.060  1.00  0.00     0.210 HD
ENDBRANCH  19  24
BRANCH  20  26
HETATM   26  O7  UNL     1      12.700  11.635  24.368  1.00  0.00    -0.388 OA
ATOM     27  H7  UNL     1      11.837  11.478  24.004  1.00  0.00     0.210 HD
ENDBRANCH  20  26
ENDBRANCH  15  16
ENDBRANCH  14  15
ENDBRANCH   9  13
BRANCH   1  28
HETATM   28  C5  UNL     1       9.460   6.094  28.629  1.00  0.00     0.195 C 
BRANCH  28  29
HETATM   29  O2  UNL     1       8.201   5.811  29.144  1.00  0.00    -0.303 OA
BRANCH  29  30
HETATM   30  C1  UNL     1       8.066   5.049  30.295  1.00  0.00     0.360 C 
HETATM   31  O1  UNL     1       7.093   4.249  30.309  1.00  0.00    -0.239 OA
HETATM   32  N1  UNL     1       8.966   5.155  31.399  1.00  0.00    -0.332 N 
ATOM     33  H1  UNL     1       9.752   5.805  31.380  1.00  0.00     0.165 HD
BRANCH  32  34
HETATM   34  C2  UNL     1       8.720   4.307  32.544  1.00  0.00     0.086 A 
HETATM   35  C3  UNL     1       9.172   4.753  33.896  1.00  0.00     0.027 A 
HETATM   36  C4  UNL     1       9.861   3.605  33.205  1.00  0.00     0.027 A 
ENDBRANCH  32  34
ENDBRANCH  29  30
ENDBRANCH  28  29
ENDBRANCH   1  28
BRANCH  12  37
HETATM   37  O8  UNL     1       7.577   7.508  27.123  1.00  0.00    -0.376 OA
ATOM     38  H8  UNL     1       6.931   7.128  26.538  1.00  0.00     0.212 HD
ENDBRANCH  12  37
TORSDOF 12
ENDMDL
MODEL 5
REMARK VINA RESULT: -7.485069065      2.978      8.604
REMARK  12 active torsions:
REMARK  status: ('A' for Active; 'I' for Inactive)
REMARK       I    between atoms: C1_2  and  N1_3 
REMARK    1  A    between atoms: C1_2  and  O2_8 
REMARK    2  A    between atoms: N1_3  and  C2_5 
REMARK    3  A    between atoms: O2_8  and  C5_9 
REMARK    4  A    between atoms: C5_9  and  C6_10 
REMARK    5  A    between atoms: C14_18  and  C15_19 
REMARK    6  A    between atoms: C16_20  and  O3_21 
REMARK    7  A    between atoms: O3_21  and  C17_22 
REMARK    8  A    between atoms: C18_24  and  C19_25 
REMARK    9  A    between atoms: C19_25  and  O5_26 
REMARK   10  A    between atoms: C20_28  and  O6_29 
REMARK   11  A    between atoms: C21_31  and  O7_32 
REMARK   12  A    between atoms: C22_36  and  O8_37 
ROOT
HETATM    1  C6  UNL     1       9.531   6.133  27.021  1.00  0.00     0.035 C 
HETATM    2  C7  UNL     1       8.880   4.970  26.375  1.00  0.00     0.021 C 
HETATM    3  C8  UNL     1       9.324   3.641  26.891  1.00  0.00    -0.009 A 
HETATM    4  C9  UNL     1       9.657   2.627  25.802  1.00  0.00     0.010 A 
HETATM    5  C10 UNL     1      10.704   3.256  26.646  1.00  0.00    -0.010 A 
HETATM    6  C11 UNL     1      11.604   4.212  25.986  1.00  0.00     0.006 C 
HETATM    7  C12 UNL     1      11.951   5.452  26.829  1.00  0.00     0.012 C 
HETATM    8  C13 UNL     1      10.918   6.451  26.525  1.00  0.00     0.050 C 
HETATM    9  C14 UNL     1      11.122   7.816  27.156  1.00  0.00     0.014 C 
HETATM   10  N2  UNL     1       9.818   8.356  27.141  1.00  0.00    -0.366 N 
ATOM     11  H2  UNL     1       9.556   9.258  27.538  1.00  0.00     0.162 HD
HETATM   12  C22 UNL     1       8.878   7.420  26.461  1.00  0.00     0.229 C 
ENDROOT
BRANCH   9  13
HETATM   13  C15 UNL     1      12.210   8.283  27.645  1.00  0.00     0.049 C 
HETATM   14  C16 UNL     1      13.128   9.330  27.372  1.00  0.00     0.140 C 
BRANCH  14  15
HETATM   15  O3  UNL     1      13.049  10.180  26.353  1.00  0.00    -0.330 OA
BRANCH  15  16
HETATM   16  C17 UNL     1      12.642  11.462  26.684  1.00  0.00     0.297 C 
HETATM   17  O4  UNL     1      11.227  11.247  26.961  1.00  0.00    -0.348 OA
HETATM   18  C18 UNL     1      10.663  12.478  26.795  1.00  0.00     0.179 C 
HETATM   19  C20 UNL     1      11.360  13.150  25.644  1.00  0.00     0.182 C 
HETATM   20  C21 UNL     1      12.642  12.368  25.535  1.00  0.00     0.205 C 
BRANCH  18  21
HETATM   21  C19 UNL     1       9.193  12.397  26.438  1.00  0.00     0.198 C 
BRANCH  21  22
HETATM   22  O5  UNL     1       8.943  11.142  25.906  1.00  0.00    -0.398 OA
ATOM     23  H5  UNL     1       8.021  10.946  26.024  1.00  0.00     0.209 HD
ENDBRANCH  21  22
ENDBRANCH  18  21
BRANCH  19  24
HETATM   24  O6  UNL     1      11.664  14.484  25.922  1.00  0.00    -0.390 OA
ATOM     25  H6  UNL     1      12.300  14.565  26.623  1.00  0.00     0.210 HD
ENDBRANCH  19  24
BRANCH  20  26
HETATM   26  O7  UNL     1      12.663  11.679  24.319  1.00  0.00    -0.388 OA
ATOM     27  H7  UNL     1      13.119  12.163  23.641  1.00  0.00     0.210 HD
ENDBRANCH  20  26
ENDBRANCH  15  16
ENDBRANCH  14  15
ENDBRANCH   9  13
BRANCH   1  28
HETATM   28  C5  UNL     1       9.388   6.198  28.506  1.00  0.00     0.195 C 
BRANCH  28  29
HETATM   29  O2  UNL     1       8.189   5.698  29.002  1.00  0.00    -0.303 OA
BRANCH  29  30
HETATM   30  C1  UNL     1       7.509   6.368  30.009  1.00  0.00     0.360 C 
HETATM   31  O1  UNL     1       7.888   6.119  31.183  1.00  0.00    -0.239 OA
HETATM   32  N1  UNL     1       6.446   7.284  29.741  1.00  0.00    -0.332 N 
ATOM     33  H1  UNL     1       6.145   7.481  28.788  1.00  0.00     0.165 HD
BRANCH  32  34
HETATM   34  C2  UNL     1       5.814   7.920  30.876  1.00  0.00     0.086 A 
HETATM   35  C3  UNL     1       4.826   9.017  30.643  1.00  0.00     0.027 A 
HETATM   36  C4  UNL     1       6.177   9.323  31.237  1.00  0.00     0.027 A 
ENDBRANCH  32  34
ENDBRANCH  29  30
ENDBRANCH  28  29
ENDBRANCH   1  28
BRANCH  12  37
HETATM   37  O8  UNL     1       7.590   7.581  26.874  1.00  0.00    -0.376 OA
ATOM     38  H8  UNL     1       7.174   8.347  26.495  1.00  0.00     0.212 HD
ENDBRANCH  12  37
TORSDOF 12
ENDMDL
