MODEL 1
REMARK VINA RESULT: -7.746014475      0.000      0.000
REMARK  14 active torsions:
REMARK  status: ('A' for Active; 'I' for Inactive)
REMARK    1  A    between atoms: C1_2  and  O2_3 
REMARK    2  A    between atoms: C1_2  and  C9_20 
REMARK    3  A    between atoms: O2_3  and  C2_4 
REMARK    4  A    between atoms: C2_4  and  C3_5 
REMARK    5  A    between atoms: C4_7  and  C5_8 
REMARK    6  A    between atoms: C5_8  and  O4_9 
REMARK    7  A    between atoms: C6_11  and  O5_12 
REMARK    8  A    between atoms: C7_14  and  O6_15 
REMARK    9  A    between atoms: C8_17  and  O7_18 
REMARK   10  A    between atoms: C9_20  and  N1_21 
REMARK   11  A    between atoms: C9_20  and  C17_33 
REMARK   12  A    between atoms: N1_21  and  C10_23 
REMARK   13  A    between atoms: C10_23  and  N2_25 
REMARK   14  A    between atoms: N2_25  and  C11_27 
ROOT
HETATM    1  O1  UNL     1       6.431  12.106  26.152  1.00  0.00    -0.263 OA
HETATM    2  C1  UNL     1       7.346  11.397  26.627  1.00  0.00     0.284 C 
ENDROOT
BRANCH   2   3
HETATM    3  O2  UNL     1       8.438  11.945  27.278  1.00  0.00    -0.317 OA
BRANCH   3   4
HETATM    4  C2  UNL     1       9.191  12.919  26.562  1.00  0.00     0.213 C 
BRANCH   4   5
HETATM    5  C3  UNL     1      10.662  12.559  26.533  1.00  0.00     0.177 C 
HETATM    6  O3  UNL     1      11.251  13.289  25.511  1.00  0.00    -0.371 OA
HETATM    7  C4  UNL     1      12.618  13.092  25.423  1.00  0.00     0.177 C 
HETATM    8  C6  UNL     1      13.057  11.697  25.717  1.00  0.00     0.180 C 
HETATM    9  C7  UNL     1      11.946  10.736  25.425  1.00  0.00     0.180 C 
HETATM   10  C8  UNL     1      10.771  11.073  26.317  1.00  0.00     0.180 C 
BRANCH   7  11
HETATM   11  C5  UNL     1      13.052  13.457  24.020  1.00  0.00     0.198 C 
BRANCH  11  12
HETATM   12  O4  UNL     1      14.105  12.614  23.592  1.00  0.00    -0.398 OA
ATOM     13  H4  UNL     1      14.098  12.527  22.646  1.00  0.00     0.209 HD
ENDBRANCH  11  12
ENDBRANCH   7  11
BRANCH   8  14
HETATM   14  O5  UNL     1      13.405  11.524  27.069  1.00  0.00    -0.390 OA
ATOM     15  H5  UNL     1      13.980  12.212  27.382  1.00  0.00     0.210 HD
ENDBRANCH   8  14
BRANCH   9  16
HETATM   16  O6  UNL     1      11.523  10.785  24.105  1.00  0.00    -0.390 OA
ATOM     17  H6  UNL     1      12.221  10.603  23.487  1.00  0.00     0.210 HD
ENDBRANCH   9  16
BRANCH  10  18
HETATM   18  O7  UNL     1      10.957  10.407  27.528  1.00  0.00    -0.390 OA
ATOM     19  H7  UNL     1      10.654   9.508  27.471  1.00  0.00     0.210 HD
ENDBRANCH  10  18
ENDBRANCH   4   5
ENDBRANCH   3   4
ENDBRANCH   2   3
BRANCH   2  20
HETATM   20  C9  UNL     1       7.207   9.902  26.462  1.00  0.00     0.218 C 
BRANCH  20  21
HETATM   21  N1  UNL     1       8.023   9.227  27.441  1.00  0.00    -0.351 N 
ATOM     22  H1  UNL     1       8.427   9.807  28.176  1.00  0.00     0.163 HD
BRANCH  21  23
HETATM   23  C10 UNL     1       8.320   7.850  27.489  1.00  0.00     0.168 C 
HETATM   24  S1  UNL     1       8.266   7.046  28.899  1.00  0.00    -0.041 SA
BRANCH  23  25
HETATM   25  N2  UNL     1       8.630   7.156  26.304  1.00  0.00    -0.363 N 
ATOM     26  H2  UNL     1       8.152   7.483  25.464  1.00  0.00     0.162 HD
BRANCH  25  27
HETATM   27  C11 UNL     1       9.516   6.063  26.119  1.00  0.00     0.083 C 
HETATM   28  C12 UNL     1      10.775   6.232  26.929  1.00  0.00     0.025 C 
HETATM   29  C13 UNL     1      11.792   5.147  26.587  1.00  0.00     0.002 C 
HETATM   30  C14 UNL     1      11.132   3.845  27.053  1.00  0.00     0.000 C 
HETATM   31  C15 UNL     1       9.947   3.598  26.186  1.00  0.00     0.002 C 
HETATM   32  C16 UNL     1       8.914   4.695  26.257  1.00  0.00     0.025 C 
ENDBRANCH  25  27
ENDBRANCH  23  25
ENDBRANCH  21  23
ENDBRANCH  20  21
BRANCH  20  33
HETATM   33  C17 UNL     1       5.719   9.596  26.612  1.00  0.00     0.219 C 
HETATM   34  C18 UNL     1       5.300   9.420  28.062  1.00  0.00     0.247 C 
HETATM   35  O8  UNL     1       4.747   8.258  27.519  1.00  0.00    -0.238 OA
HETATM   36  O9  UNL     1       5.305   8.340  26.336  1.00  0.00    -0.231 OA
ENDBRANCH  20  33
ENDBRANCH   2  20
TORSDOF 14
ENDMDL
MODEL 2
REMARK VINA RESULT: -7.617740987      3.324      7.539
REMARK  14 active torsions:
REMARK  status: ('A' for Active; 'I' for Inactive)
REMARK    1  A    between atoms: C1_2  and  O2_3 
REMARK    2  A    between atoms: C1_2  and  C9_20 
REMARK    3  A    between atoms: O2_3  and  C2_4 
REMARK    4  A    between atoms: C2_4  and  C3_5 
REMARK    5  A    between atoms: C4_7  and  C5_8 
REMARK    6  A    between atoms: C5_8  and  O4_9 
REMARK    7  A    between atoms: C6_11  and  O5_12 
REMARK    8  A    between atoms: C7_14  and  O6_15 
REMARK    9  A    between atoms: C8_17  and  O7_18 
REMARK   10  A    between atoms: C9_20  and  N1_21 
REMARK   11  A    between atoms: C9_20  and  C17_33 
REMARK   12  A    between atoms: N1_21  and  C10_23 
REMARK   13  A    between atoms: C10_23  and  N2_25 
REMARK   14  A    between atoms: N2_25  and  C11_27 
ROOT
HETATM    1  O1  UNL     1       5.189   8.302  26.279  1.00  0.00    -0.263 OA
HETATM    2  C1  UNL     1       5.604   8.699  27.390  1.00  0.00     0.284 C 
ENDROOT
BRANCH   2   3
HETATM    3  O2  UNL     1       4.984   8.343  28.576  1.00  0.00    -0.317 OA
BRANCH   3   4
HETATM    4  C2  UNL     1       5.831   7.984  29.663  1.00  0.00     0.213 C 
BRANCH   4   5
HETATM    5  C3  UNL     1       5.047   7.297  30.762  1.00  0.00     0.177 C 
HETATM    6  O3  UNL     1       5.758   6.168  31.140  1.00  0.00    -0.371 OA
HETATM    7  C4  UNL     1       5.171   5.483  32.189  1.00  0.00     0.177 C 
HETATM    8  C6  UNL     1       3.679   5.472  32.155  1.00  0.00     0.180 C 
HETATM    9  C7  UNL     1       3.195   5.633  30.746  1.00  0.00     0.180 C 
HETATM   10  C8  UNL     1       3.682   6.965  30.219  1.00  0.00     0.180 C 
BRANCH   7  11
HETATM   11  C5  UNL     1       5.672   4.055  32.153  1.00  0.00     0.198 C 
BRANCH  11  12
HETATM   12  O4  UNL     1       6.293   3.779  30.912  1.00  0.00    -0.398 OA
ATOM     13  H4  UNL     1       5.903   3.012  30.509  1.00  0.00     0.209 HD
ENDBRANCH  11  12
ENDBRANCH   7  11
BRANCH   8  14
HETATM   14  O5  UNL     1       3.123   6.525  32.903  1.00  0.00    -0.390 OA
ATOM     15  H5  UNL     1       2.928   6.267  33.796  1.00  0.00     0.210 HD
ENDBRANCH   8  14
BRANCH   9  16
HETATM   16  O6  UNL     1       3.653   4.633  29.901  1.00  0.00    -0.390 OA
ATOM     17  H6  UNL     1       4.344   4.928  29.320  1.00  0.00     0.210 HD
ENDBRANCH   9  16
BRANCH  10  18
HETATM   18  O7  UNL     1       2.750   7.932  30.593  1.00  0.00    -0.390 OA
ATOM     19  H7  UNL     1       1.868   7.578  30.576  1.00  0.00     0.210 HD
ENDBRANCH  10  18
ENDBRANCH   4   5
ENDBRANCH   3   4
ENDBRANCH   2   3
BRANCH   2  20
HETATM   20  C9  UNL     1       6.822   9.592  27.386  1.00  0.00     0.218 C 
BRANCH  20  21
HETATM   21  N1  UNL     1       7.878   8.969  26.626  1.00  0.00    -0.351 N 
ATOM     22  H1  UNL     1       7.866   9.122  25.618  1.00  0.00     0.163 HD
BRANCH  21  23
HETATM   23  C10 UNL     1       8.925   8.170  27.130  1.00  0.00     0.168 C 
HETATM   24  S1  UNL     1       9.501   8.420  28.627  1.00  0.00    -0.041 SA
BRANCH  23  25
HETATM   25  N2  UNL     1       9.450   7.125  26.347  1.00  0.00    -0.363 N 
ATOM     26  H2  UNL     1       9.729   7.381  25.400  1.00  0.00     0.162 HD
BRANCH  25  27
HETATM   27  C11 UNL     1       9.645   5.763  26.697  1.00  0.00     0.083 C 
HETATM   28  C12 UNL     1       8.919   4.843  25.751  1.00  0.00     0.025 C 
HETATM   29  C13 UNL     1       8.988   3.398  26.237  1.00  0.00     0.002 C 
HETATM   30  C14 UNL     1      10.476   3.039  26.156  1.00  0.00     0.000 C 
HETATM   31  C15 UNL     1      11.199   3.857  27.168  1.00  0.00     0.002 C 
HETATM   32  C16 UNL     1      11.065   5.343  26.942  1.00  0.00     0.025 C 
ENDBRANCH  25  27
ENDBRANCH  23  25
ENDBRANCH  21  23
ENDBRANCH  20  21
BRANCH  20  33
HETATM   33  C17 UNL     1       6.368  10.924  26.795  1.00  0.00     0.219 C 
HETATM   34  C18 UNL     1       7.265  11.401  25.665  1.00  0.00     0.247 C 
HETATM   35  O8  UNL     1       7.240  12.560  26.443  1.00  0.00    -0.238 OA
HETATM   36  O9  UNL     1       6.646  12.047  27.494  1.00  0.00    -0.231 OA
ENDBRANCH  20  33
ENDBRANCH   2  20
TORSDOF 14
ENDMDL
MODEL 3
REMARK VINA RESULT: -7.577541677      1.515      2.161
REMARK  14 active torsions:
REMARK  status: ('A' for Active; 'I' for Inactive)
REMARK    1  A    between atoms: C1_2  and  O2_3 
REMARK    2  A    between atoms: C1_2  and  C9_20 
REMARK    3  A    between atoms: O2_3  and  C2_4 
REMARK    4  A    between atoms: C2_4  and  C3_5 
REMARK    5  A    between atoms: C4_7  and  C5_8 
REMARK    6  A    between atoms: C5_8  and  O4_9 
REMARK    7  A    between atoms: C6_11  and  O5_12 
REMARK    8  A    between atoms: C7_14  and  O6_15 
REMARK    9  A    between atoms: C8_17  and  O7_18 
REMARK   10  A    between atoms: C9_20  and  N1_21 
REMARK   11  A    between atoms: C9_20  and  C17_33 
REMARK   12  A    between atoms: N1_21  and  C10_23 
REMARK   13  A    between atoms: C10_23  and  N2_25 
REMARK   14  A    between atoms: N2_25  and  C11_27 
ROOT
HETATM    1  O1  UNL     1       7.379  11.396  29.030  1.00  0.00    -0.263 OA
HETATM    2  C1  UNL     1       8.099  11.324  28.009  1.00  0.00     0.284 C 
ENDROOT
BRANCH   2   3
HETATM    3  O2  UNL     1       9.066  12.273  27.724  1.00  0.00    -0.317 OA
BRANCH   3   4
HETATM    4  C2  UNL     1       9.542  12.324  26.383  1.00  0.00     0.213 C 
BRANCH   4   5
HETATM    5  C3  UNL     1      10.721  13.267  26.257  1.00  0.00     0.177 C 
HETATM    6  O3  UNL     1      11.440  12.891  25.133  1.00  0.00    -0.371 OA
HETATM    7  C4  UNL     1      12.515  13.722  24.874  1.00  0.00     0.177 C 
HETATM    8  C6  UNL     1      13.212  14.222  26.095  1.00  0.00     0.180 C 
HETATM    9  C7  UNL     1      13.013  13.265  27.230  1.00  0.00     0.180 C 
HETATM   10  C8  UNL     1      11.532  13.165  27.522  1.00  0.00     0.180 C 
BRANCH   7  11
HETATM   11  C5  UNL     1      13.506  12.953  24.026  1.00  0.00     0.198 C 
BRANCH  11  12
HETATM   12  O4  UNL     1      13.340  13.274  22.657  1.00  0.00    -0.398 OA
ATOM     13  H4  UNL     1      14.157  13.156  22.187  1.00  0.00     0.209 HD
ENDBRANCH  11  12
ENDBRANCH   7  11
BRANCH   8  14
HETATM   14  O5  UNL     1      12.713  15.468  26.517  1.00  0.00    -0.390 OA
ATOM     15  H5  UNL     1      12.458  16.018  25.786  1.00  0.00     0.210 HD
ENDBRANCH   8  14
BRANCH   9  16
HETATM   16  O6  UNL     1      13.492  11.992  26.952  1.00  0.00    -0.390 OA
ATOM     17  H6  UNL     1      13.401  11.396  27.685  1.00  0.00     0.210 HD
ENDBRANCH   9  16
BRANCH  10  18
HETATM   18  O7  UNL     1      11.208  14.195  28.405  1.00  0.00    -0.390 OA
ATOM     19  H7  UNL     1      11.912  14.346  29.024  1.00  0.00     0.210 HD
ENDBRANCH  10  18
ENDBRANCH   4   5
ENDBRANCH   3   4
ENDBRANCH   2   3
BRANCH   2  20
HETATM   20  C9  UNL     1       7.870  10.145  27.093  1.00  0.00     0.218 C 
BRANCH  20  21
HETATM   21  N1  UNL     1       8.548   8.985  27.616  1.00  0.00    -0.351 N 
ATOM     22  H1  UNL     1       8.102   8.511  28.401  1.00  0.00     0.163 HD
BRANCH  21  23
HETATM   23  C10 UNL     1       9.762   8.435  27.155  1.00  0.00     0.168 C 
HETATM   24  S1  UNL     1      11.180   9.094  27.591  1.00  0.00    -0.041 SA
BRANCH  23  25
HETATM   25  N2  UNL     1       9.749   7.286  26.342  1.00  0.00    -0.363 N 
ATOM     26  H2  UNL     1       9.619   7.453  25.344  1.00  0.00     0.162 HD
BRANCH  25  27
HETATM   27  C11 UNL     1       9.893   5.925  26.722  1.00  0.00     0.083 C 
HETATM   28  C12 UNL     1       8.983   5.032  25.920  1.00  0.00     0.025 C 
HETATM   29  C13 UNL     1       9.015   3.603  26.456  1.00  0.00     0.002 C 
HETATM   30  C14 UNL     1      10.448   3.129  26.196  1.00  0.00     0.000 C 
HETATM   31  C15 UNL     1      11.356   3.924  27.068  1.00  0.00     0.002 C 
HETATM   32  C16 UNL     1      11.299   5.408  26.797  1.00  0.00     0.025 C 
ENDBRANCH  25  27
ENDBRANCH  23  25
ENDBRANCH  21  23
ENDBRANCH  20  21
BRANCH  20  33
HETATM   33  C17 UNL     1       6.357   9.965  27.007  1.00  0.00     0.219 C 
HETATM   34  C18 UNL     1       5.911   8.562  27.384  1.00  0.00     0.247 C 
HETATM   35  O8  UNL     1       5.239   8.697  26.168  1.00  0.00    -0.238 OA
HETATM   36  O9  UNL     1       5.812   9.812  25.781  1.00  0.00    -0.231 OA
ENDBRANCH  20  33
ENDBRANCH   2  20
TORSDOF 14
ENDMDL
MODEL 4
REMARK VINA RESULT: -7.475302868      3.023      7.444
REMARK  14 active torsions:
REMARK  status: ('A' for Active; 'I' for Inactive)
REMARK    1  A    between atoms: C1_2  and  O2_3 
REMARK    2  A    between atoms: C1_2  and  C9_20 
REMARK    3  A    between atoms: O2_3  and  C2_4 
REMARK    4  A    between atoms: C2_4  and  C3_5 
REMARK    5  A    between atoms: C4_7  and  C5_8 
REMARK    6  A    between atoms: C5_8  and  O4_9 
REMARK    7  A    between atoms: C6_11  and  O5_12 
REMARK    8  A    between atoms: C7_14  and  O6_15 
REMARK    9  A    between atoms: C8_17  and  O7_18 
REMARK   10  A    between atoms: C9_20  and  N1_21 
REMARK   11  A    between atoms: C9_20  and  C17_33 
REMARK   12  A    between atoms: N1_21  and  C10_23 
REMARK   13  A    between atoms: C10_23  and  N2_25 
REMARK   14  A    between atoms: N2_25  and  C11_27 
ROOT
HETATM    1  O1  UNL     1       5.145   8.408  26.367  1.00  0.00    -0.263 OA
HETATM    2  C1  UNL     1       5.540   9.192  27.259  1.00  0.00     0.284 C 
ENDROOT
BRANCH   2   3
HETATM    3  O2  UNL     1       4.740   9.547  28.331  1.00  0.00    -0.317 OA
BRANCH   3   4
HETATM    4  C2  UNL     1       5.172   9.131  29.623  1.00  0.00     0.213 C 
BRANCH   4   5
HETATM    5  C3  UNL     1       4.807   7.685  29.881  1.00  0.00     0.177 C 
HETATM    6  O3  UNL     1       3.467   7.527  29.559  1.00  0.00    -0.371 OA
HETATM    7  C4  UNL     1       3.027   6.223  29.695  1.00  0.00     0.177 C 
HETATM    8  C6  UNL     1       3.626   5.490  30.848  1.00  0.00     0.180 C 
HETATM    9  C7  UNL     1       4.047   6.459  31.911  1.00  0.00     0.180 C 
HETATM   10  C8  UNL     1       5.090   7.388  31.330  1.00  0.00     0.180 C 
BRANCH   7  11
HETATM   11  C5  UNL     1       1.523   6.254  29.864  1.00  0.00     0.198 C 
BRANCH  11  12
HETATM   12  O4  UNL     1       1.083   7.567  30.153  1.00  0.00    -0.398 OA
ATOM     13  H4  UNL     1       1.668   7.984  30.775  1.00  0.00     0.209 HD
ENDBRANCH  11  12
ENDBRANCH   7  11
BRANCH   8  14
HETATM   14  O5  UNL     1       4.773   4.765  30.478  1.00  0.00    -0.390 OA
ATOM     15  H5  UNL     1       5.152   4.293  31.210  1.00  0.00     0.210 HD
ENDBRANCH   8  14
BRANCH   9  16
HETATM   16  O6  UNL     1       2.994   7.225  32.389  1.00  0.00    -0.390 OA
ATOM     17  H6  UNL     1       2.178   6.742  32.438  1.00  0.00     0.210 HD
ENDBRANCH   9  16
BRANCH  10  18
HETATM   18  O7  UNL     1       6.332   6.770  31.478  1.00  0.00    -0.390 OA
ATOM     19  H7  UNL     1       7.029   7.414  31.515  1.00  0.00     0.210 HD
ENDBRANCH  10  18
ENDBRANCH   4   5
ENDBRANCH   3   4
ENDBRANCH   2   3
BRANCH   2  20
HETATM   20  C9  UNL     1       6.941   9.738  27.117  1.00  0.00     0.218 C 
BRANCH  20  21
HETATM   21  N1  UNL     1       7.777   8.766  26.457  1.00  0.00    -0.351 N 
ATOM     22  H1  UNL     1       7.778   8.781  25.437  1.00  0.00     0.163 HD
BRANCH  21  23
HETATM   23  C10 UNL     1       8.594   7.796  27.074  1.00  0.00     0.168 C 
HETATM   24  S1  UNL     1       8.765   7.772  28.688  1.00  0.00    -0.041 SA
BRANCH  23  25
HETATM   25  N2  UNL     1       9.236   6.818  26.290  1.00  0.00    -0.363 N 
ATOM     26  H2  UNL     1       9.606   7.142  25.396  1.00  0.00     0.162 HD
BRANCH  25  27
HETATM   27  C11 UNL     1       9.440   5.442  26.575  1.00  0.00     0.083 C 
HETATM   28  C12 UNL     1       8.842   4.565  25.507  1.00  0.00     0.025 C 
HETATM   29  C13 UNL     1       8.910   3.094  25.910  1.00  0.00     0.002 C 
HETATM   30  C14 UNL     1      10.409   2.781  25.959  1.00  0.00     0.000 C 
HETATM   31  C15 UNL     1      11.001   3.553  27.086  1.00  0.00     0.002 C 
HETATM   32  C16 UNL     1      10.842   5.046  26.938  1.00  0.00     0.025 C 
ENDBRANCH  25  27
ENDBRANCH  23  25
ENDBRANCH  21  23
ENDBRANCH  20  21
BRANCH  20  33
HETATM   33  C17 UNL     1       6.809  11.041  26.333  1.00  0.00     0.219 C 
HETATM   34  C18 UNL     1       8.153  11.674  26.015  1.00  0.00     0.247 C 
HETATM   35  O8  UNL     1       7.503  12.780  26.565  1.00  0.00    -0.238 OA
HETATM   36  O9  UNL     1       6.444  12.149  27.015  1.00  0.00    -0.231 OA
ENDBRANCH  20  33
ENDBRANCH   2  20
TORSDOF 14
ENDMDL
MODEL 5
REMARK VINA RESULT: -7.367618042      3.096      7.165
REMARK  14 active torsions:
REMARK  status: ('A' for Active; 'I' for Inactive)
REMARK    1  A    between atoms: C1_2  and  O2_3 
REMARK    2  A    between atoms: C1_2  and  C9_20 
REMARK    3  A    between atoms: O2_3  and  C2_4 
REMARK    4  A    between atoms: C2_4  and  C3_5 
REMARK    5  A    between atoms: C4_7  and  C5_8 
REMARK    6  A    between atoms: C5_8  and  O4_9 
REMARK    7  A    between atoms: C6_11  and  O5_12 
REMARK    8  A    between atoms: C7_14  and  O6_15 
REMARK    9  A    between atoms: C8_17  and  O7_18 
REMARK   10  A    between atoms: C9_20  and  N1_21 
REMARK   11  A    between atoms: C9_20  and  C17_33 
REMARK   12  A    between atoms: N1_21  and  C10_23 
REMARK   13  A    between atoms: C10_23  and  N2_25 
REMARK   14  A    between atoms: N2_25  and  C11_27 
ROOT
HETATM    1  O1  UNL     1       5.228   8.386  26.466  1.00  0.00    -0.263 OA
HETATM    2  C1  UNL     1       5.615   9.131  27.395  1.00  0.00     0.284 C 
ENDROOT
BRANCH   2   3
HETATM    3  O2  UNL     1       4.835   9.377  28.512  1.00  0.00    -0.317 OA
BRANCH   3   4
HETATM    4  C2  UNL     1       5.437   9.144  29.781  1.00  0.00     0.213 C 
BRANCH   4   5
HETATM    5  C3  UNL     1       5.212   7.717  30.238  1.00  0.00     0.177 C 
HETATM    6  O3  UNL     1       4.286   7.749  31.269  1.00  0.00    -0.371 OA
HETATM    7  C4  UNL     1       3.948   6.490  31.734  1.00  0.00     0.177 C 
HETATM    8  C6  UNL     1       5.081   5.519  31.754  1.00  0.00     0.180 C 
HETATM    9  C7  UNL     1       6.383   6.250  31.874  1.00  0.00     0.180 C 
HETATM   10  C8  UNL     1       6.541   7.156  30.672  1.00  0.00     0.180 C 
BRANCH   7  11
HETATM   11  C5  UNL     1       3.408   6.641  33.140  1.00  0.00     0.198 C 
BRANCH  11  12
HETATM   12  O4  UNL     1       3.767   7.901  33.676  1.00  0.00    -0.398 OA
ATOM     13  H4  UNL     1       4.703   7.940  33.836  1.00  0.00     0.209 HD
ENDBRANCH  11  12
ENDBRANCH   7  11
BRANCH   8  14
HETATM   14  O5  UNL     1       5.147   4.757  30.573  1.00  0.00    -0.390 OA
ATOM     15  H5  UNL     1       5.934   4.938  30.073  1.00  0.00     0.210 HD
ENDBRANCH   8  14
BRANCH   9  16
HETATM   16  O6  UNL     1       6.462   7.027  33.022  1.00  0.00    -0.390 OA
ATOM     17  H6  UNL     1       5.723   6.899  33.605  1.00  0.00     0.210 HD
ENDBRANCH   9  16
BRANCH  10  18
HETATM   18  O7  UNL     1       7.120   6.402  29.652  1.00  0.00    -0.390 OA
ATOM     19  H7  UNL     1       8.061   6.341  29.767  1.00  0.00     0.210 HD
ENDBRANCH  10  18
ENDBRANCH   4   5
ENDBRANCH   3   4
ENDBRANCH   2   3
BRANCH   2  20
HETATM   20  C9  UNL     1       6.982   9.756  27.245  1.00  0.00     0.218 C 
BRANCH  20  21
HETATM   21  N1  UNL     1       7.873   8.825  26.598  1.00  0.00    -0.351 N 
ATOM     22  H1  UNL     1       7.619   8.530  25.656  1.00  0.00     0.163 HD
BRANCH  21  23
HETATM   23  C10 UNL     1       9.058   8.279  27.132  1.00  0.00     0.168 C 
HETATM   24  S1  UNL     1       9.617   8.778  28.572  1.00  0.00    -0.041 SA
BRANCH  23  25
HETATM   25  N2  UNL     1       9.745   7.269  26.431  1.00  0.00    -0.363 N 
ATOM     26  H2  UNL     1      10.223   7.569  25.581  1.00  0.00     0.162 HD
BRANCH  25  27
HETATM   27  C11 UNL     1       9.862   5.890  26.746  1.00  0.00     0.083 C 
HETATM   28  C12 UNL     1       8.991   5.046  25.853  1.00  0.00     0.025 C 
HETATM   29  C13 UNL     1       8.988   3.591  26.314  1.00  0.00     0.002 C 
HETATM   30  C14 UNL     1      10.431   3.121  26.103  1.00  0.00     0.000 C 
HETATM   31  C15 UNL     1      11.297   3.863  27.061  1.00  0.00     0.002 C 
HETATM   32  C16 UNL     1      11.261   5.359  26.866  1.00  0.00     0.025 C 
ENDBRANCH  25  27
ENDBRANCH  23  25
ENDBRANCH  21  23
ENDBRANCH  20  21
BRANCH  20  33
HETATM   33  C17 UNL     1       6.774  11.039  26.444  1.00  0.00     0.219 C 
HETATM   34  C18 UNL     1       8.082  11.724  26.086  1.00  0.00     0.247 C 
HETATM   35  O8  UNL     1       7.395  12.810  26.633  1.00  0.00    -0.238 OA
HETATM   36  O9  UNL     1       6.376  12.141  27.116  1.00  0.00    -0.231 OA
ENDBRANCH  20  33
ENDBRANCH   2  20
TORSDOF 14
ENDMDL
