MODEL 1
REMARK VINA RESULT: -6.506525838      0.000      0.000
REMARK  12 active torsions:
REMARK  status: ('A' for Active; 'I' for Inactive)
REMARK    1  A    between atoms: O1_2  and  C2_3 
REMARK    2  A    between atoms: C5_7  and  O2_8 
REMARK    3  A    between atoms: O2_8  and  C6_9 
REMARK    4  A    between atoms: C7_10  and  N1_11 
REMARK    5  A    between atoms: C9_16  and  N2_17 
REMARK    6  A    between atoms: N2_17  and  C10_19 
REMARK    7  A    between atoms: C11_21  and  O4_22 
REMARK    8  A    between atoms: C12_24  and  N3_25 
REMARK    9  A    between atoms: N3_25  and  N4_27 
REMARK   10  A    between atoms: N4_27  and  N5_28 
REMARK   11  A    between atoms: C13_32  and  O6_33 
REMARK   12  A    between atoms: C14_35  and  N6_36 
REMARK       I    between atoms: N6_36  and  C15_38 
ROOT
HETATM    1  C6  UNL     1      12.831  14.553  26.658  1.00  0.00     0.182 C 
HETATM    2  C7  UNL     1      13.550  15.741  27.211  1.00  0.00     0.216 C 
HETATM    3  C8  UNL     1      14.980  15.344  27.503  1.00  0.00     0.063 C 
HETATM    4  C9  UNL     1      15.682  14.820  26.299  1.00  0.00     0.116 C 
HETATM    5  C11 UNL     1      14.805  14.654  25.094  1.00  0.00     0.168 C 
HETATM    6  C12 UNL     1      13.501  14.011  25.405  1.00  0.00     0.176 C 
ENDROOT
BRANCH   1   7
HETATM    7  O2  UNL     1      12.828  13.542  27.587  1.00  0.00    -0.350 OA
BRANCH   7   8
HETATM    8  C5  UNL     1      11.609  13.060  27.968  1.00  0.00     0.278 C 
HETATM    9  C4  UNL     1      11.454  12.717  29.404  1.00  0.00     0.116 C 
HETATM   10  C3  UNL     1      10.285  11.735  29.506  1.00  0.00     0.055 C 
HETATM   11  S1  UNL     1      10.997  14.192  30.393  1.00  0.00    -0.087 SA
HETATM   12  C2  UNL     1       9.027  12.285  28.941  1.00  0.00     0.149 C 
HETATM   13  C14 UNL     1       8.795  11.987  27.496  1.00  0.00     0.168 C 
HETATM   14  C13 UNL     1       9.994  12.092  26.622  1.00  0.00     0.285 C 
HETATM   15  O5  UNL     1      11.200  11.949  27.220  1.00  0.00    -0.328 OA
BRANCH  12  16
HETATM   16  O1  UNL     1       7.961  11.805  29.701  1.00  0.00    -0.388 OA
HETATM   17  C1  UNL     1       8.309  11.541  31.015  1.00  0.00     0.202 C 
ENDBRANCH  12  16
BRANCH  13  18
HETATM   18  N6  UNL     1       8.271  10.645  27.379  1.00  0.00    -0.349 N 
HETATM   19  C15 UNL     1       6.901  10.383  27.147  1.00  0.00     0.214 C 
HETATM   20  C16 UNL     1       6.399   8.994  27.032  1.00  0.00     0.117 C 
HETATM   21  O7  UNL     1       6.059  11.320  27.031  1.00  0.00    -0.274 OA
ATOM     22  H6  UNL     1       8.914   9.858  27.468  1.00  0.00     0.163 HD
ENDBRANCH  13  18
BRANCH  14  23
HETATM   23  O6  UNL     1       9.894  11.137  25.591  1.00  0.00    -0.369 OA
ATOM     24  H6  UNL     1       9.193  10.534  25.808  1.00  0.00     0.212 HD
ENDBRANCH  14  23
ENDBRANCH   7   8
ENDBRANCH   1   7
BRANCH   2  25
HETATM   25  N1  UNL     1      13.462  16.910  26.361  1.00  0.00    -0.072 N 
ATOM     26  H13 UNL     1      12.504  17.055  26.043  1.00  0.00     0.274 HD
ATOM     27  H12 UNL     1      13.589  17.763  26.905  1.00  0.00     0.274 HD
ATOM     28  H11 UNL     1      14.106  16.884  25.571  1.00  0.00     0.274 HD
ENDBRANCH   2  25
BRANCH   6  29
HETATM   29  N3  UNL     1      12.636  14.140  24.232  1.00  0.00    -0.243 N 
ATOM     30  H3  UNL     1      11.805  14.728  24.297  1.00  0.00     0.197 HD
BRANCH  29  31
HETATM   31  N4  UNL     1      12.872  13.566  23.173  1.00  0.00    -0.248 NA
BRANCH  31  32
HETATM   32  N5  UNL     1      13.211  13.133  22.087  1.00  0.00    -0.261 N 
ATOM     33  H52 UNL     1      13.666  12.380  22.603  1.00  0.00     0.193 HD
ATOM     34  H51 UNL     1      13.424  12.886  21.121  1.00  0.00     0.193 HD
ENDBRANCH  31  32
ENDBRANCH  29  31
ENDBRANCH   6  29
BRANCH   5  35
HETATM   35  O4  UNL     1      15.496  13.782  24.217  1.00  0.00    -0.391 OA
ATOM     36  H4  UNL     1      15.198  13.995  23.340  1.00  0.00     0.210 HD
ENDBRANCH   5  35
BRANCH   4  37
HETATM   37  N2  UNL     1      16.818  15.658  26.012  1.00  0.00    -0.361 N 
ATOM     38  H2  UNL     1      17.668  15.513  26.558  1.00  0.00     0.162 HD
BRANCH  37  39
HETATM   39  C10 UNL     1      16.831  16.664  25.025  1.00  0.00     0.348 C 
HETATM   40  O3  UNL     1      17.242  16.463  23.858  1.00  0.00    -0.284 OA
ENDBRANCH  37  39
ENDBRANCH   4  37
TORSDOF 12
ENDMDL
MODEL 2
REMARK VINA RESULT: -6.442886832      1.684      1.969
REMARK  12 active torsions:
REMARK  status: ('A' for Active; 'I' for Inactive)
REMARK    1  A    between atoms: O1_2  and  C2_3 
REMARK    2  A    between atoms: C5_7  and  O2_8 
REMARK    3  A    between atoms: O2_8  and  C6_9 
REMARK    4  A    between atoms: C7_10  and  N1_11 
REMARK    5  A    between atoms: C9_16  and  N2_17 
REMARK    6  A    between atoms: N2_17  and  C10_19 
REMARK    7  A    between atoms: C11_21  and  O4_22 
REMARK    8  A    between atoms: C12_24  and  N3_25 
REMARK    9  A    between atoms: N3_25  and  N4_27 
REMARK   10  A    between atoms: N4_27  and  N5_28 
REMARK   11  A    between atoms: C13_32  and  O6_33 
REMARK   12  A    between atoms: C14_35  and  N6_36 
REMARK       I    between atoms: N6_36  and  C15_38 
ROOT
HETATM    1  C6  UNL     1      13.116  14.601  26.583  1.00  0.00     0.182 C 
HETATM    2  C7  UNL     1      13.765  15.884  26.989  1.00  0.00     0.216 C 
HETATM    3  C8  UNL     1      15.242  15.632  27.195  1.00  0.00     0.063 C 
HETATM    4  C9  UNL     1      15.898  15.075  25.980  1.00  0.00     0.116 C 
HETATM    5  C11 UNL     1      14.953  14.742  24.863  1.00  0.00     0.168 C 
HETATM    6  C12 UNL     1      13.738  14.019  25.323  1.00  0.00     0.176 C 
ENDROOT
BRANCH   1   7
HETATM    7  O2  UNL     1      13.271  13.670  27.580  1.00  0.00    -0.350 OA
BRANCH   7   8
HETATM    8  C5  UNL     1      12.355  12.659  27.625  1.00  0.00     0.278 C 
HETATM    9  C4  UNL     1      12.866  11.293  27.342  1.00  0.00     0.116 C 
HETATM   10  C3  UNL     1      11.664  10.446  26.916  1.00  0.00     0.055 C 
HETATM   11  S1  UNL     1      13.554  10.516  28.853  1.00  0.00    -0.087 SA
HETATM   12  C2  UNL     1      10.591  10.423  27.940  1.00  0.00     0.149 C 
HETATM   13  C14 UNL     1       9.548  11.482  27.794  1.00  0.00     0.168 C 
HETATM   14  C13 UNL     1      10.056  12.830  27.423  1.00  0.00     0.285 C 
HETATM   15  O5  UNL     1      11.252  12.881  26.792  1.00  0.00    -0.328 OA
BRANCH  12  16
HETATM   16  O1  UNL     1       9.992   9.163  27.916  1.00  0.00    -0.388 OA
HETATM   17  C1  UNL     1      10.806   8.188  27.362  1.00  0.00     0.202 C 
ENDBRANCH  12  16
BRANCH  13  18
HETATM   18  N6  UNL     1       8.604  11.065  26.782  1.00  0.00    -0.349 N 
HETATM   19  C15 UNL     1       7.237  10.842  27.066  1.00  0.00     0.214 C 
HETATM   20  C16 UNL     1       6.297  10.415  26.003  1.00  0.00     0.117 C 
HETATM   21  O7  UNL     1       6.770  10.997  28.231  1.00  0.00    -0.274 OA
ATOM     22  H6  UNL     1       8.937  10.927  25.827  1.00  0.00     0.163 HD
ENDBRANCH  13  18
BRANCH  14  23
HETATM   23  O6  UNL     1       9.099  13.473  26.614  1.00  0.00    -0.369 OA
ATOM     24  H6  UNL     1       9.315  14.397  26.571  1.00  0.00     0.212 HD
ENDBRANCH  14  23
ENDBRANCH   7   8
ENDBRANCH   1   7
BRANCH   2  25
HETATM   25  N1  UNL     1      13.511  16.971  26.067  1.00  0.00    -0.072 N 
ATOM     26  H13 UNL     1      13.696  16.682  25.106  1.00  0.00     0.274 HD
ATOM     27  H12 UNL     1      12.512  17.160  25.996  1.00  0.00     0.274 HD
ATOM     28  H11 UNL     1      14.026  17.822  26.293  1.00  0.00     0.274 HD
ENDBRANCH   2  25
BRANCH   6  29
HETATM   29  N3  UNL     1      12.782  13.982  24.217  1.00  0.00    -0.243 N 
ATOM     30  H3  UNL     1      11.847  14.361  24.364  1.00  0.00     0.197 HD
BRANCH  29  31
HETATM   31  N4  UNL     1      13.063  13.513  23.118  1.00  0.00    -0.248 NA
BRANCH  31  32
HETATM   32  N5  UNL     1      13.180  13.091  21.982  1.00  0.00    -0.261 N 
ATOM     33  H52 UNL     1      13.142  12.158  22.394  1.00  0.00     0.193 HD
ATOM     34  H51 UNL     1      13.281  12.879  20.990  1.00  0.00     0.193 HD
ENDBRANCH  31  32
ENDBRANCH  29  31
ENDBRANCH   6  29
BRANCH   5  35
HETATM   35  O4  UNL     1      15.654  13.864  24.000  1.00  0.00    -0.391 OA
ATOM     36  H4  UNL     1      15.589  12.999  24.388  1.00  0.00     0.210 HD
ENDBRANCH   5  35
BRANCH   4  37
HETATM   37  N2  UNL     1      16.931  15.979  25.544  1.00  0.00    -0.361 N 
ATOM     38  H2  UNL     1      17.846  15.587  25.321  1.00  0.00     0.162 HD
BRANCH  37  39
HETATM   39  C10 UNL     1      16.758  17.371  25.404  1.00  0.00     0.348 C 
HETATM   40  O3  UNL     1      16.049  17.878  24.502  1.00  0.00    -0.284 OA
ENDBRANCH  37  39
ENDBRANCH   4  37
TORSDOF 12
ENDMDL
MODEL 3
REMARK VINA RESULT: -6.335264033      2.276      2.774
REMARK  12 active torsions:
REMARK  status: ('A' for Active; 'I' for Inactive)
REMARK    1  A    between atoms: O1_2  and  C2_3 
REMARK    2  A    between atoms: C5_7  and  O2_8 
REMARK    3  A    between atoms: O2_8  and  C6_9 
REMARK    4  A    between atoms: C7_10  and  N1_11 
REMARK    5  A    between atoms: C9_16  and  N2_17 
REMARK    6  A    between atoms: N2_17  and  C10_19 
REMARK    7  A    between atoms: C11_21  and  O4_22 
REMARK    8  A    between atoms: C12_24  and  N3_25 
REMARK    9  A    between atoms: N3_25  and  N4_27 
REMARK   10  A    between atoms: N4_27  and  N5_28 
REMARK   11  A    between atoms: C13_32  and  O6_33 
REMARK   12  A    between atoms: C14_35  and  N6_36 
REMARK       I    between atoms: N6_36  and  C15_38 
ROOT
HETATM    1  C6  UNL     1      12.928  14.780  26.470  1.00  0.00     0.182 C 
HETATM    2  C7  UNL     1      13.663  16.031  26.828  1.00  0.00     0.216 C 
HETATM    3  C8  UNL     1      15.100  15.673  27.134  1.00  0.00     0.063 C 
HETATM    4  C9  UNL     1      15.768  14.981  25.998  1.00  0.00     0.116 C 
HETATM    5  C11 UNL     1      14.857  14.650  24.853  1.00  0.00     0.168 C 
HETATM    6  C12 UNL     1      13.563  14.063  25.288  1.00  0.00     0.176 C 
ENDROOT
BRANCH   1   7
HETATM    7  O2  UNL     1      12.950  13.911  27.532  1.00  0.00    -0.350 OA
BRANCH   7   8
HETATM    8  C5  UNL     1      12.180  12.790  27.426  1.00  0.00     0.278 C 
HETATM    9  C4  UNL     1      10.810  12.875  27.994  1.00  0.00     0.116 C 
HETATM   10  C3  UNL     1      10.347  11.440  28.260  1.00  0.00     0.055 C 
HETATM   11  S1  UNL     1       9.635  13.597  26.787  1.00  0.00    -0.087 SA
HETATM   12  C2  UNL     1      10.376  10.596  27.039  1.00  0.00     0.149 C 
HETATM   13  C14 UNL     1      11.650   9.851  26.812  1.00  0.00     0.168 C 
HETATM   14  C13 UNL     1      12.895  10.614  27.099  1.00  0.00     0.285 C 
HETATM   15  O5  UNL     1      12.792  11.651  27.963  1.00  0.00    -0.328 OA
BRANCH  12  16
HETATM   16  O1  UNL     1       9.309   9.700  27.102  1.00  0.00    -0.388 OA
HETATM   17  C1  UNL     1       8.212  10.213  27.773  1.00  0.00     0.202 C 
ENDBRANCH  12  16
BRANCH  13  18
HETATM   18  N6  UNL     1      11.649   8.668  27.641  1.00  0.00    -0.349 N 
HETATM   19  C15 UNL     1      11.411   7.376  27.118  1.00  0.00     0.214 C 
HETATM   20  C16 UNL     1      11.416   6.183  27.998  1.00  0.00     0.117 C 
HETATM   21  O7  UNL     1      11.184   7.192  25.888  1.00  0.00    -0.274 OA
ATOM     22  H6  UNL     1      11.826   8.768  28.641  1.00  0.00     0.163 HD
ENDBRANCH  13  18
BRANCH  14  23
HETATM   23  O6  UNL     1      13.874   9.725  27.587  1.00  0.00    -0.369 OA
ATOM     24  H6  UNL     1      14.507   9.569  26.896  1.00  0.00     0.212 HD
ENDBRANCH  14  23
ENDBRANCH   7   8
ENDBRANCH   1   7
BRANCH   2  25
HETATM   25  N1  UNL     1      13.551  17.068  25.824  1.00  0.00    -0.072 N 
ATOM     26  H13 UNL     1      12.603  17.442  25.793  1.00  0.00     0.274 HD
ATOM     27  H12 UNL     1      14.053  17.908  26.113  1.00  0.00     0.274 HD
ATOM     28  H11 UNL     1      13.852  16.767  24.897  1.00  0.00     0.274 HD
ENDBRANCH   2  25
BRANCH   6  29
HETATM   29  N3  UNL     1      12.665  14.028  24.133  1.00  0.00    -0.243 N 
ATOM     30  H3  UNL     1      11.725  14.412  24.230  1.00  0.00     0.197 HD
BRANCH  29  31
HETATM   31  N4  UNL     1      13.001  13.554  23.052  1.00  0.00    -0.248 NA
BRANCH  31  32
HETATM   32  N5  UNL     1      13.164  13.082  21.941  1.00  0.00    -0.261 N 
ATOM     33  H52 UNL     1      13.201  12.174  22.406  1.00  0.00     0.193 HD
ATOM     34  H51 UNL     1      13.292  12.824  20.963  1.00  0.00     0.193 HD
ENDBRANCH  31  32
ENDBRANCH  29  31
ENDBRANCH   6  29
BRANCH   5  35
HETATM   35  O4  UNL     1      15.523  13.660  24.089  1.00  0.00    -0.391 OA
ATOM     36  H4  UNL     1      15.080  13.627  23.250  1.00  0.00     0.210 HD
ENDBRANCH   5  35
BRANCH   4  37
HETATM   37  N2  UNL     1      16.896  15.765  25.564  1.00  0.00    -0.361 N 
ATOM     38  H2  UNL     1      17.764  15.274  25.351  1.00  0.00     0.162 HD
BRANCH  37  39
HETATM   39  C10 UNL     1      16.876  17.167  25.414  1.00  0.00     0.348 C 
HETATM   40  O3  UNL     1      16.281  17.738  24.470  1.00  0.00    -0.284 OA
ENDBRANCH  37  39
ENDBRANCH   4  37
TORSDOF 12
ENDMDL
MODEL 4
REMARK VINA RESULT: -6.239602319      6.436      8.623
REMARK  12 active torsions:
REMARK  status: ('A' for Active; 'I' for Inactive)
REMARK    1  A    between atoms: O1_2  and  C2_3 
REMARK    2  A    between atoms: C5_7  and  O2_8 
REMARK    3  A    between atoms: O2_8  and  C6_9 
REMARK    4  A    between atoms: C7_10  and  N1_11 
REMARK    5  A    between atoms: C9_16  and  N2_17 
REMARK    6  A    between atoms: N2_17  and  C10_19 
REMARK    7  A    between atoms: C11_21  and  O4_22 
REMARK    8  A    between atoms: C12_24  and  N3_25 
REMARK    9  A    between atoms: N3_25  and  N4_27 
REMARK   10  A    between atoms: N4_27  and  N5_28 
REMARK   11  A    between atoms: C13_32  and  O6_33 
REMARK   12  A    between atoms: C14_35  and  N6_36 
REMARK       I    between atoms: N6_36  and  C15_38 
ROOT
HETATM    1  C6  UNL     1       7.265   9.714  28.284  1.00  0.00     0.182 C 
HETATM    2  C7  UNL     1       8.451  10.362  27.646  1.00  0.00     0.216 C 
HETATM    3  C8  UNL     1       9.659   9.479  27.867  1.00  0.00     0.063 C 
HETATM    4  C9  UNL     1       9.462   8.104  27.332  1.00  0.00     0.116 C 
HETATM    5  C11 UNL     1       8.078   7.828  26.822  1.00  0.00     0.168 C 
HETATM    6  C12 UNL     1       7.012   8.318  27.735  1.00  0.00     0.176 C 
ENDROOT
BRANCH   1   7
HETATM    7  O2  UNL     1       7.478   9.588  29.634  1.00  0.00    -0.350 OA
BRANCH   7   8
HETATM    8  C5  UNL     1       6.935   8.494  30.243  1.00  0.00     0.278 C 
HETATM    9  C4  UNL     1       5.919   8.760  31.293  1.00  0.00     0.116 C 
HETATM   10  C3  UNL     1       5.856   7.514  32.179  1.00  0.00     0.055 C 
HETATM   11  S1  UNL     1       4.251   8.978  30.563  1.00  0.00    -0.087 SA
HETATM   12  C2  UNL     1       5.534   6.284  31.412  1.00  0.00     0.149 C 
HETATM   13  C14 UNL     1       6.715   5.526  30.902  1.00  0.00     0.168 C 
HETATM   14  C13 UNL     1       7.819   6.359  30.352  1.00  0.00     0.285 C 
HETATM   15  O5  UNL     1       7.897   7.637  30.790  1.00  0.00    -0.328 OA
BRANCH  12  16
HETATM   16  O1  UNL     1       4.754   5.457  32.221  1.00  0.00    -0.388 OA
HETATM   17  C1  UNL     1       3.606   5.010  31.588  1.00  0.00     0.202 C 
ENDBRANCH  12  16
BRANCH  13  18
HETATM   18  N6  UNL     1       7.251   4.726  31.979  1.00  0.00    -0.349 N 
HETATM   19  C15 UNL     1       7.078   3.324  32.040  1.00  0.00     0.214 C 
HETATM   20  C16 UNL     1       7.642   2.533  33.159  1.00  0.00     0.117 C 
HETATM   21  O7  UNL     1       6.438   2.696  31.147  1.00  0.00    -0.274 OA
ATOM     22  H6  UNL     1       7.774   5.189  32.722  1.00  0.00     0.163 HD
ENDBRANCH  13  18
BRANCH  14  23
HETATM   23  O6  UNL     1       9.048   5.722  30.618  1.00  0.00    -0.369 OA
ATOM     24  H6  UNL     1       9.599   5.804  29.849  1.00  0.00     0.212 HD
ENDBRANCH  14  23
ENDBRANCH   7   8
ENDBRANCH   1   7
BRANCH   2  25
HETATM   25  N1  UNL     1       8.247  10.682  26.249  1.00  0.00    -0.072 N 
ATOM     26  H13 UNL     1       7.287  10.483  25.968  1.00  0.00     0.274 HD
ATOM     27  H12 UNL     1       8.259  11.691  26.102  1.00  0.00     0.274 HD
ATOM     28  H11 UNL     1       8.909  10.217  25.627  1.00  0.00     0.274 HD
ENDBRANCH   2  25
BRANCH   6  29
HETATM   29  N3  UNL     1       5.733   8.240  27.028  1.00  0.00    -0.243 N 
ATOM     30  H3  UNL     1       5.117   7.450  27.215  1.00  0.00     0.197 HD
BRANCH  29  31
HETATM   31  N4  UNL     1       5.376   9.091  26.218  1.00  0.00    -0.248 NA
BRANCH  31  32
HETATM   32  N5  UNL     1       5.068  10.052  25.537  1.00  0.00    -0.261 N 
ATOM     33  H52 UNL     1       4.592  10.405  26.367  1.00  0.00     0.193 HD
ATOM     34  H51 UNL     1       4.883  10.790  24.858  1.00  0.00     0.193 HD
ENDBRANCH  31  32
ENDBRANCH  29  31
ENDBRANCH   6  29
BRANCH   5  35
HETATM   35  O4  UNL     1       7.951   6.419  26.758  1.00  0.00    -0.391 OA
ATOM     36  H4  UNL     1       7.026   6.230  26.862  1.00  0.00     0.210 HD
ENDBRANCH   5  35
BRANCH   4  37
HETATM   37  N2  UNL     1      10.457   7.842  26.324  1.00  0.00    -0.361 N 
ATOM     38  H2  UNL     1      10.558   8.517  25.566  1.00  0.00     0.162 HD
BRANCH  37  39
HETATM   39  C10 UNL     1      11.300   6.712  26.318  1.00  0.00     0.348 C 
HETATM   40  O3  UNL     1      10.859   5.538  26.327  1.00  0.00    -0.284 OA
ENDBRANCH  37  39
ENDBRANCH   4  37
TORSDOF 12
ENDMDL
MODEL 5
REMARK VINA RESULT: -6.084234392      2.897      7.972
REMARK  12 active torsions:
REMARK  status: ('A' for Active; 'I' for Inactive)
REMARK    1  A    between atoms: O1_2  and  C2_3 
REMARK    2  A    between atoms: C5_7  and  O2_8 
REMARK    3  A    between atoms: O2_8  and  C6_9 
REMARK    4  A    between atoms: C7_10  and  N1_11 
REMARK    5  A    between atoms: C9_16  and  N2_17 
REMARK    6  A    between atoms: N2_17  and  C10_19 
REMARK    7  A    between atoms: C11_21  and  O4_22 
REMARK    8  A    between atoms: C12_24  and  N3_25 
REMARK    9  A    between atoms: N3_25  and  N4_27 
REMARK   10  A    between atoms: N4_27  and  N5_28 
REMARK   11  A    between atoms: C13_32  and  O6_33 
REMARK   12  A    between atoms: C14_35  and  N6_36 
REMARK       I    between atoms: N6_36  and  C15_38 
ROOT
HETATM    1  C6  UNL     1       9.927   9.600  27.402  1.00  0.00     0.182 C 
HETATM    2  C7  UNL     1      10.702   8.330  27.255  1.00  0.00     0.216 C 
HETATM    3  C8  UNL     1      10.260   7.370  28.337  1.00  0.00     0.063 C 
HETATM    4  C9  UNL     1       8.797   7.098  28.292  1.00  0.00     0.116 C 
HETATM    5  C11 UNL     1       8.042   7.929  27.297  1.00  0.00     0.168 C 
HETATM    6  C12 UNL     1       8.426   9.365  27.326  1.00  0.00     0.176 C 
ENDROOT
BRANCH   1   7
HETATM    7  O2  UNL     1      10.189  10.162  28.626  1.00  0.00    -0.350 OA
BRANCH   7   8
HETATM    8  C5  UNL     1      10.695  11.430  28.625  1.00  0.00     0.278 C 
HETATM    9  C4  UNL     1       9.724  12.528  28.862  1.00  0.00     0.116 C 
HETATM   10  C3  UNL     1      10.349  13.807  28.298  1.00  0.00     0.055 C 
HETATM   11  S1  UNL     1       9.465  12.810  30.655  1.00  0.00    -0.087 SA
HETATM   12  C2  UNL     1      11.669  14.111  28.903  1.00  0.00     0.149 C 
HETATM   13  C14 UNL     1      12.846  13.543  28.179  1.00  0.00     0.168 C 
HETATM   14  C13 UNL     1      12.674  12.156  27.670  1.00  0.00     0.285 C 
HETATM   15  O5  UNL     1      11.405  11.736  27.457  1.00  0.00    -0.328 OA
BRANCH  12  16
HETATM   16  O1  UNL     1      11.796  15.497  29.000  1.00  0.00    -0.388 OA
HETATM   17  C1  UNL     1      12.193  15.916  30.259  1.00  0.00     0.202 C 
ENDBRANCH  12  16
BRANCH  13  18
HETATM   18  N6  UNL     1      13.153  14.398  27.054  1.00  0.00    -0.349 N 
HETATM   19  C15 UNL     1      14.276  15.258  27.041  1.00  0.00     0.214 C 
HETATM   20  C16 UNL     1      14.562  16.121  25.871  1.00  0.00     0.117 C 
HETATM   21  O7  UNL     1      15.072  15.323  28.021  1.00  0.00    -0.274 OA
ATOM     22  H6  UNL     1      12.538  14.380  26.241  1.00  0.00     0.163 HD
ENDBRANCH  13  18
BRANCH  14  23
HETATM   23  O6  UNL     1      13.396  12.017  26.468  1.00  0.00    -0.369 OA
ATOM     24  H6  UNL     1      14.252  11.661  26.672  1.00  0.00     0.212 HD
ENDBRANCH  14  23
ENDBRANCH   7   8
ENDBRANCH   1   7
BRANCH   2  25
HETATM   25  N1  UNL     1      10.611   7.753  25.930  1.00  0.00    -0.072 N 
ATOM     26  H13 UNL     1      10.948   6.791  25.930  1.00  0.00     0.274 HD
ATOM     27  H12 UNL     1       9.638   7.590  25.672  1.00  0.00     0.274 HD
ATOM     28  H11 UNL     1      11.088   8.304  25.217  1.00  0.00     0.274 HD
ENDBRANCH   2  25
BRANCH   6  29
HETATM   29  N3  UNL     1       7.836  10.019  26.158  1.00  0.00    -0.243 N 
ATOM     30  H3  UNL     1       8.456  10.427  25.458  1.00  0.00     0.197 HD
BRANCH  29  31
HETATM   31  N4  UNL     1       6.623  10.096  25.989  1.00  0.00    -0.248 NA
BRANCH  31  32
HETATM   32  N5  UNL     1       5.409  10.023  25.913  1.00  0.00    -0.261 N 
ATOM     33  H52 UNL     1       5.387  10.792  26.583  1.00  0.00     0.193 HD
ATOM     34  H51 UNL     1       4.417   9.853  25.753  1.00  0.00     0.193 HD
ENDBRANCH  31  32
ENDBRANCH  29  31
ENDBRANCH   6  29
BRANCH   5  35
HETATM   35  O4  UNL     1       6.678   7.859  27.674  1.00  0.00    -0.391 OA
ATOM     36  H4  UNL     1       6.506   6.947  27.881  1.00  0.00     0.210 HD
ENDBRANCH   5  35
BRANCH   4  37
HETATM   37  N2  UNL     1       8.584   5.691  28.073  1.00  0.00    -0.361 N 
ATOM     38  H2  UNL     1       8.052   5.173  28.773  1.00  0.00     0.162 HD
BRANCH  37  39
HETATM   39  C10 UNL     1       9.063   4.983  26.951  1.00  0.00     0.348 C 
HETATM   40  O3  UNL     1       8.673   5.220  25.784  1.00  0.00    -0.284 OA
ENDBRANCH  37  39
ENDBRANCH   4  37
TORSDOF 12
ENDMDL
