MODEL 1
REMARK VINA RESULT: -10.570619754      0.000      0.000
REMARK  2 active torsions:
REMARK  status: ('A' for Active; 'I' for Inactive)
REMARK    1  A    between atoms: C3_4  and  C4_5 
REMARK    2  A    between atoms: C19_21  and  O1_22 
ROOT
HETATM    1  C1  UNL     1      72.297  -6.922  15.551  1.00  0.00     0.150 C 
HETATM    2  N1  UNL     1      72.527  -7.820  16.748  1.00  0.00    -0.373 N 
HETATM    3  C2  UNL     1      72.061  -8.614  17.723  1.00  0.00     0.054 C 
HETATM    4  C3  UNL     1      71.279  -8.897  18.762  1.00  0.00     0.022 C 
HETATM    5  C16 UNL     1      71.749 -10.164  19.561  1.00  0.00     0.022 A 
HETATM    6  C17 UNL     1      73.147 -10.342  19.801  1.00  0.00     0.084 A 
HETATM    7  C18 UNL     1      73.337 -11.365  20.713  1.00  0.00     0.075 A 
HETATM    8  C19 UNL     1      72.395 -12.143  21.331  1.00  0.00     0.080 A 
HETATM    9  C20 UNL     1      71.089 -11.935  21.052  1.00  0.00     0.019 A 
HETATM   10  C21 UNL     1      70.759 -10.900  20.123  1.00  0.00    -0.008 A 
HETATM   11  C22 UNL     1      69.430 -10.768  19.755  1.00  0.00     0.014 A 
HETATM   12  C23 UNL     1      68.469 -11.590  20.276  1.00  0.00     0.013 A 
HETATM   13  C24 UNL     1      68.803 -12.572  21.177  1.00  0.00    -0.025 A 
HETATM   14  C25 UNL     1      67.828 -13.392  21.697  1.00  0.00     0.012 A 
HETATM   15  C26 UNL     1      68.149 -14.378  22.596  1.00  0.00     0.001 A 
HETATM   16  C27 UNL     1      69.461 -14.548  22.981  1.00  0.00     0.001 A 
HETATM   17  C28 UNL     1      70.466 -13.731  22.471  1.00  0.00     0.013 A 
HETATM   18  C29 UNL     1      70.118 -12.755  21.572  1.00  0.00    -0.012 A 
HETATM   19  O2  UNL     1      74.243  -9.744  19.318  1.00  0.00    -0.340 OA
HETATM   20  C30 UNL     1      75.223  -9.352  18.424  1.00  0.00     0.183 C 
HETATM   21  C31 UNL     1      74.822  -7.924  18.113  1.00  0.00     0.133 C 
HETATM   22  C32 UNL     1      73.879  -8.080  17.195  1.00  0.00     0.143 C 
HETATM   23  C33 UNL     1      72.986  -9.602  17.422  1.00  0.00     0.020 C 
HETATM   24  C34 UNL     1      73.736 -10.612  16.972  1.00  0.00     0.039 C 
HETATM   25  C35 UNL     1      73.012 -11.141  15.826  1.00  0.00     0.030 C 
HETATM   26  C36 UNL     1      73.869 -11.185  14.725  1.00  0.00     0.002 C 
HETATM   27  C37 UNL     1      75.315 -10.703  14.822  1.00  0.00    -0.001 C 
HETATM   28  C38 UNL     1      76.020 -10.309  15.932  1.00  0.00     0.007 C 
HETATM   29  C39 UNL     1      75.871 -10.154  17.368  1.00  0.00     0.091 C 
HETATM   30  C40 UNL     1      77.271 -10.177  17.835  1.00  0.00     0.195 C 
HETATM   31  S2  UNL     1      77.508  -8.367  17.866  1.00  0.00     0.214 S 
HETATM   32  O3  UNL     1      78.376  -8.031  19.079  1.00  0.00    -0.211 OA
HETATM   33  O4  UNL     1      78.436  -8.002  16.706  1.00  0.00    -0.211 OA
HETATM   34  N2  UNL     1      76.149  -7.405  17.742  1.00  0.00    -0.205 NA
HETATM   35  C41 UNL     1      76.343  -6.209  18.565  1.00  0.00     0.130 C 
HETATM   36  N3  UNL     1      74.915 -11.223  17.615  1.00  0.00    -0.373 N 
ATOM     37  H3  UNL     1      75.026 -12.119  18.087  1.00  0.00     0.161 HD
ENDROOT
BRANCH   4  38
HETATM   38  C4  UNL     1      70.254  -8.059  19.405  1.00  0.00     0.020 A 
HETATM   39  C5  UNL     1      70.179  -7.541  20.670  1.00  0.00     0.033 A 
HETATM   40  C6  UNL     1      69.102  -6.822  20.995  1.00  0.00    -0.007 A 
HETATM   41  C7  UNL     1      68.143  -6.652  20.044  1.00  0.00     0.016 A 
HETATM   42  C15 UNL     1      68.834  -6.199  22.233  1.00  0.00    -0.014 A 
HETATM   43  C8  UNL     1      66.964  -5.925  20.225  1.00  0.00     0.021 A 
HETATM   44  S1  UNL     1      68.778  -7.504  18.717  1.00  0.00    -0.089 SA
HETATM   45  C9  UNL     1      66.716  -5.325  21.438  1.00  0.00     0.013 A 
HETATM   46  C10 UNL     1      67.680  -5.490  22.406  1.00  0.00    -0.025 A 
HETATM   47  C11 UNL     1      67.414  -4.875  23.615  1.00  0.00     0.012 A 
HETATM   48  C12 UNL     1      68.300  -4.963  24.663  1.00  0.00     0.001 A 
HETATM   49  C13 UNL     1      69.457  -5.677  24.479  1.00  0.00     0.001 A 
HETATM   50  C14 UNL     1      69.731  -6.293  23.280  1.00  0.00     0.013 A 
ENDBRANCH   4  38
BRANCH   8  51
HETATM   51  O1  UNL     1      72.807 -13.114  22.221  1.00  0.00    -0.360 OA
ATOM     52  H1  UNL     1      73.215 -13.904  21.886  1.00  0.00     0.217 HD
ENDBRANCH   8  51
TORSDOF 2
ENDMDL
MODEL 2
REMARK VINA RESULT: -10.269205129      2.112      2.833
REMARK  2 active torsions:
REMARK  status: ('A' for Active; 'I' for Inactive)
REMARK    1  A    between atoms: C3_4  and  C4_5 
REMARK    2  A    between atoms: C19_21  and  O1_22 
ROOT
HETATM    1  C1  UNL     1      74.801  -7.520  16.147  1.00  0.00     0.150 C 
HETATM    2  N1  UNL     1      74.646  -8.812  16.921  1.00  0.00    -0.373 N 
HETATM    3  C2  UNL     1      73.893  -9.676  17.618  1.00  0.00     0.054 C 
HETATM    4  C3  UNL     1      73.050 -10.011  18.592  1.00  0.00     0.022 C 
HETATM    5  C16 UNL     1      72.976 -11.559  18.839  1.00  0.00     0.022 A 
HETATM    6  C17 UNL     1      74.188 -12.316  18.814  1.00  0.00     0.084 A 
HETATM    7  C18 UNL     1      73.951 -13.594  19.287  1.00  0.00     0.075 A 
HETATM    8  C19 UNL     1      72.771 -14.137  19.721  1.00  0.00     0.080 A 
HETATM    9  C20 UNL     1      71.655 -13.375  19.707  1.00  0.00     0.019 A 
HETATM   10  C21 UNL     1      71.769 -12.029  19.242  1.00  0.00    -0.008 A 
HETATM   11  C22 UNL     1      70.604 -11.290  19.123  1.00  0.00     0.014 A 
HETATM   12  C23 UNL     1      69.390 -11.828  19.454  1.00  0.00     0.013 A 
HETATM   13  C24 UNL     1      69.301 -13.121  19.911  1.00  0.00    -0.025 A 
HETATM   14  C25 UNL     1      68.076 -13.651  20.244  1.00  0.00     0.012 A 
HETATM   15  C26 UNL     1      67.973 -14.942  20.699  1.00  0.00     0.001 A 
HETATM   16  C27 UNL     1      69.109 -15.713  20.824  1.00  0.00     0.001 A 
HETATM   17  C28 UNL     1      70.359 -15.199  20.495  1.00  0.00     0.013 A 
HETATM   18  C29 UNL     1      70.434 -13.907  20.040  1.00  0.00    -0.012 A 
HETATM   19  O2  UNL     1      75.437 -12.033  18.422  1.00  0.00    -0.340 OA
HETATM   20  C30 UNL     1      76.503 -11.731  17.595  1.00  0.00     0.183 C 
HETATM   21  C31 UNL     1      76.699 -10.250  17.848  1.00  0.00     0.133 C 
HETATM   22  C32 UNL     1      75.782  -9.697  17.067  1.00  0.00     0.143 C 
HETATM   23  C33 UNL     1      74.360 -10.750  16.876  1.00  0.00     0.020 C 
HETATM   24  C34 UNL     1      74.658 -11.724  16.012  1.00  0.00     0.039 C 
HETATM   25  C35 UNL     1      73.800 -11.487  14.862  1.00  0.00     0.030 C 
HETATM   26  C36 UNL     1      74.584 -11.436  13.708  1.00  0.00     0.002 C 
HETATM   27  C37 UNL     1      76.102 -11.595  13.770  1.00  0.00    -0.001 C 
HETATM   28  C38 UNL     1      76.891 -11.927  14.843  1.00  0.00     0.007 C 
HETATM   29  C39 UNL     1      76.797 -12.267  16.251  1.00  0.00     0.091 C 
HETATM   30  C40 UNL     1      78.070 -12.975  16.491  1.00  0.00     0.195 C 
HETATM   31  S2  UNL     1      78.998 -11.529  17.107  1.00  0.00     0.214 S 
HETATM   32  O3  UNL     1      79.913 -12.008  18.234  1.00  0.00    -0.211 OA
HETATM   33  O4  UNL     1      80.009 -11.134  16.030  1.00  0.00    -0.211 OA
HETATM   34  N2  UNL     1      78.127 -10.160  17.503  1.00  0.00    -0.205 NA
HETATM   35  C41 UNL     1      78.765  -9.513  18.652  1.00  0.00     0.130 C 
HETATM   36  N3  UNL     1      75.495 -12.917  16.243  1.00  0.00    -0.373 N 
ATOM     37  H3  UNL     1      75.239 -13.897  16.360  1.00  0.00     0.161 HD
ENDROOT
BRANCH   4  38
HETATM   38  C4  UNL     1      72.429  -9.153  19.614  1.00  0.00     0.020 A 
HETATM   39  C5  UNL     1      71.437  -8.214  19.519  1.00  0.00     0.033 A 
HETATM   40  C6  UNL     1      71.080  -7.558  20.626  1.00  0.00    -0.007 A 
HETATM   41  C7  UNL     1      71.730  -7.866  21.782  1.00  0.00     0.016 A 
HETATM   42  C15 UNL     1      70.086  -6.564  20.745  1.00  0.00    -0.014 A 
HETATM   43  C8  UNL     1      71.471  -7.274  23.021  1.00  0.00     0.021 A 
HETATM   44  S1  UNL     1      72.824  -9.069  21.286  1.00  0.00    -0.089 SA
HETATM   45  C9  UNL     1      70.499  -6.306  23.121  1.00  0.00     0.013 A 
HETATM   46  C10 UNL     1      69.836  -5.988  21.957  1.00  0.00    -0.025 A 
HETATM   47  C11 UNL     1      68.861  -5.017  22.081  1.00  0.00     0.012 A 
HETATM   48  C12 UNL     1      68.124  -4.611  20.993  1.00  0.00     0.001 A 
HETATM   49  C13 UNL     1      68.382  -5.196  19.779  1.00  0.00     0.001 A 
HETATM   50  C14 UNL     1      69.351  -6.164  19.645  1.00  0.00     0.013 A 
ENDBRANCH   4  38
BRANCH   8  51
HETATM   51  O1  UNL     1      72.758 -15.445  20.160  1.00  0.00    -0.360 OA
ATOM     52  H1  UNL     1      72.188 -15.683  20.883  1.00  0.00     0.217 HD
ENDBRANCH   8  51
TORSDOF 2
ENDMDL
MODEL 3
REMARK VINA RESULT: -9.991722827      3.044      6.605
REMARK  2 active torsions:
REMARK  status: ('A' for Active; 'I' for Inactive)
REMARK    1  A    between atoms: C3_4  and  C4_5 
REMARK    2  A    between atoms: C19_21  and  O1_22 
ROOT
HETATM    1  C1  UNL     1      75.465 -15.674  19.242  1.00  0.00     0.150 C 
HETATM    2  N1  UNL     1      74.883 -14.343  18.816  1.00  0.00    -0.373 N 
HETATM    3  C2  UNL     1      74.239 -13.202  19.102  1.00  0.00     0.054 C 
HETATM    4  C3  UNL     1      73.232 -12.491  19.605  1.00  0.00     0.022 C 
HETATM    5  C16 UNL     1      73.217 -11.003  19.105  1.00  0.00     0.022 A 
HETATM    6  C17 UNL     1      73.502 -10.740  17.729  1.00  0.00     0.084 A 
HETATM    7  C18 UNL     1      73.204  -9.422  17.435  1.00  0.00     0.075 A 
HETATM    8  C19 UNL     1      72.718  -8.450  18.268  1.00  0.00     0.080 A 
HETATM    9  C20 UNL     1      72.481  -8.757  19.563  1.00  0.00     0.019 A 
HETATM   10  C21 UNL     1      72.747 -10.094  19.994  1.00  0.00    -0.008 A 
HETATM   11  C22 UNL     1      72.610 -10.372  21.344  1.00  0.00     0.014 A 
HETATM   12  C23 UNL     1      72.220  -9.403  22.228  1.00  0.00     0.013 A 
HETATM   13  C24 UNL     1      71.957  -8.126  21.793  1.00  0.00    -0.025 A 
HETATM   14  C25 UNL     1      71.563  -7.161  22.690  1.00  0.00     0.012 A 
HETATM   15  C26 UNL     1      71.300  -5.881  22.270  1.00  0.00     0.001 A 
HETATM   16  C27 UNL     1      71.432  -5.562  20.936  1.00  0.00     0.001 A 
HETATM   17  C28 UNL     1      71.828  -6.521  20.008  1.00  0.00     0.013 A 
HETATM   18  C29 UNL     1      72.087  -7.791  20.456  1.00  0.00    -0.012 A 
HETATM   19  O2  UNL     1      73.995 -11.491  16.736  1.00  0.00    -0.340 OA
HETATM   20  C30 UNL     1      74.890 -12.236  15.991  1.00  0.00     0.183 C 
HETATM   21  C31 UNL     1      74.441 -13.656  16.272  1.00  0.00     0.133 C 
HETATM   22  C32 UNL     1      75.012 -13.916  17.439  1.00  0.00     0.143 C 
HETATM   23  C33 UNL     1      75.186 -12.447  18.427  1.00  0.00     0.020 C 
HETATM   24  C34 UNL     1      76.218 -11.736  17.964  1.00  0.00     0.039 C 
HETATM   25  C35 UNL     1      77.207 -11.762  19.031  1.00  0.00     0.030 C 
HETATM   26  C36 UNL     1      78.425 -12.205  18.515  1.00  0.00     0.002 C 
HETATM   27  C37 UNL     1      78.572 -12.597  17.047  1.00  0.00    -0.001 C 
HETATM   28  C38 UNL     1      77.667 -12.467  16.024  1.00  0.00     0.007 C 
HETATM   29  C39 UNL     1      76.325 -11.978  15.760  1.00  0.00     0.091 C 
HETATM   30  C40 UNL     1      76.351 -11.755  14.301  1.00  0.00     0.195 C 
HETATM   31  S2  UNL     1      75.639 -13.369  13.832  1.00  0.00     0.214 S 
HETATM   32  O3  UNL     1      74.718 -13.142  12.635  1.00  0.00    -0.211 OA
HETATM   33  O4  UNL     1      76.759 -14.206  13.212  1.00  0.00    -0.211 OA
HETATM   34  N2  UNL     1      74.938 -14.287  15.039  1.00  0.00    -0.205 NA
HETATM   35  C41 UNL     1      73.789 -15.002  14.478  1.00  0.00     0.130 C 
HETATM   36  N3  UNL     1      76.274 -10.908  16.745  1.00  0.00    -0.373 N 
ATOM     37  H3  UNL     1      76.277  -9.895  16.628  1.00  0.00     0.161 HD
ENDROOT
BRANCH   4  38
HETATM   38  C4  UNL     1      72.024 -12.962  20.302  1.00  0.00     0.020 A 
HETATM   39  C5  UNL     1      71.858 -13.507  21.546  1.00  0.00     0.033 A 
HETATM   40  C6  UNL     1      70.628 -13.871  21.917  1.00  0.00    -0.007 A 
HETATM   41  C7  UNL     1      69.616 -13.678  21.029  1.00  0.00     0.016 A 
HETATM   42  C15 UNL     1      70.243 -14.442  23.149  1.00  0.00    -0.014 A 
HETATM   43  C8  UNL     1      68.277 -14.001  21.267  1.00  0.00     0.021 A 
HETATM   44  S1  UNL     1      70.414 -12.988  19.697  1.00  0.00    -0.089 SA
HETATM   45  C9  UNL     1      67.917 -14.557  22.472  1.00  0.00     0.013 A 
HETATM   46  C10 UNL     1      68.935 -14.757  23.378  1.00  0.00    -0.025 A 
HETATM   47  C11 UNL     1      68.550 -15.314  24.583  1.00  0.00     0.012 A 
HETATM   48  C12 UNL     1      69.472 -15.561  25.573  1.00  0.00     0.001 A 
HETATM   49  C13 UNL     1      70.785 -15.241  25.334  1.00  0.00     0.001 A 
HETATM   50  C14 UNL     1      71.177 -14.687  24.138  1.00  0.00     0.013 A 
ENDBRANCH   4  38
BRANCH   8  51
HETATM   51  O1  UNL     1      72.484  -7.188  17.762  1.00  0.00    -0.360 OA
ATOM     52  H1  UNL     1      72.299  -7.090  16.835  1.00  0.00     0.217 HD
ENDBRANCH   8  51
TORSDOF 2
ENDMDL
MODEL 4
REMARK VINA RESULT: -9.667828258      3.593      7.717
REMARK  2 active torsions:
REMARK  status: ('A' for Active; 'I' for Inactive)
REMARK    1  A    between atoms: C3_4  and  C4_5 
REMARK    2  A    between atoms: C19_21  and  O1_22 
ROOT
HETATM    1  C1  UNL     1      67.139 -12.916  24.016  1.00  0.00     0.150 C 
HETATM    2  N1  UNL     1      67.813 -12.755  22.670  1.00  0.00    -0.373 N 
HETATM    3  C2  UNL     1      68.614 -12.076  21.835  1.00  0.00     0.054 C 
HETATM    4  C3  UNL     1      69.017 -10.985  21.188  1.00  0.00     0.022 C 
HETATM    5  C16 UNL     1      70.007 -11.296  20.011  1.00  0.00     0.022 A 
HETATM    6  C17 UNL     1      69.740 -12.421  19.171  1.00  0.00     0.084 A 
HETATM    7  C18 UNL     1      70.570 -12.386  18.065  1.00  0.00     0.075 A 
HETATM    8  C19 UNL     1      71.531 -11.463  17.749  1.00  0.00     0.080 A 
HETATM    9  C20 UNL     1      71.746 -10.427  18.591  1.00  0.00     0.019 A 
HETATM   10  C21 UNL     1      70.947 -10.348  19.773  1.00  0.00    -0.008 A 
HETATM   11  C22 UNL     1      71.248  -9.351  20.686  1.00  0.00     0.014 A 
HETATM   12  C23 UNL     1      72.265  -8.466  20.454  1.00  0.00     0.013 A 
HETATM   13  C24 UNL     1      73.016  -8.550  19.306  1.00  0.00    -0.025 A 
HETATM   14  C25 UNL     1      74.035  -7.653  19.081  1.00  0.00     0.012 A 
HETATM   15  C26 UNL     1      74.793  -7.727  17.940  1.00  0.00     0.001 A 
HETATM   16  C27 UNL     1      74.530  -8.710  17.009  1.00  0.00     0.001 A 
HETATM   17  C28 UNL     1      73.504  -9.629  17.213  1.00  0.00     0.013 A 
HETATM   18  C29 UNL     1      72.763  -9.533  18.363  1.00  0.00    -0.012 A 
HETATM   19  O2  UNL     1      68.893 -13.454  19.264  1.00  0.00    -0.340 OA
HETATM   20  C30 UNL     1      68.314 -14.623  19.723  1.00  0.00     0.183 C 
HETATM   21  C31 UNL     1      67.104 -14.110  20.478  1.00  0.00     0.133 C 
HETATM   22  C32 UNL     1      67.618 -13.763  21.649  1.00  0.00     0.143 C 
HETATM   23  C33 UNL     1      69.307 -13.228  21.494  1.00  0.00     0.020 C 
HETATM   24  C34 UNL     1      70.089 -14.303  21.353  1.00  0.00     0.039 C 
HETATM   25  C35 UNL     1      70.912 -14.333  22.552  1.00  0.00     0.030 C 
HETATM   26  C36 UNL     1      70.804 -15.589  23.150  1.00  0.00     0.002 C 
HETATM   27  C37 UNL     1      69.909 -16.677  22.559  1.00  0.00    -0.001 C 
HETATM   28  C38 UNL     1      69.222 -16.678  21.371  1.00  0.00     0.007 C 
HETATM   29  C39 UNL     1      68.984 -15.847  20.204  1.00  0.00     0.091 C 
HETATM   30  C40 UNL     1      68.548 -16.835  19.197  1.00  0.00     0.195 C 
HETATM   31  S2  UNL     1      66.754 -16.624  19.465  1.00  0.00     0.214 S 
HETATM   32  O3  UNL     1      66.065 -16.729  18.105  1.00  0.00    -0.211 OA
HETATM   33  O4  UNL     1      66.241 -17.879  20.174  1.00  0.00    -0.211 OA
HETATM   34  N2  UNL     1      66.253 -15.305  20.358  1.00  0.00    -0.205 NA
HETATM   35  C41 UNL     1      64.982 -14.824  19.813  1.00  0.00     0.130 C 
HETATM   36  N3  UNL     1      70.260 -15.149  20.157  1.00  0.00    -0.373 N 
ATOM     37  H3  UNL     1      71.035 -15.222  19.499  1.00  0.00     0.161 HD
ENDROOT
BRANCH   4  38
HETATM   38  C4  UNL     1      68.463  -9.623  21.238  1.00  0.00     0.020 A 
HETATM   39  C5  UNL     1      67.798  -8.957  22.232  1.00  0.00     0.033 A 
HETATM   40  C6  UNL     1      67.381  -7.712  21.989  1.00  0.00    -0.007 A 
HETATM   41  C7  UNL     1      67.644  -7.184  20.763  1.00  0.00     0.016 A 
HETATM   42  C15 UNL     1      66.688  -6.857  22.873  1.00  0.00    -0.014 A 
HETATM   43  C8  UNL     1      67.279  -5.898  20.356  1.00  0.00     0.021 A 
HETATM   44  S1  UNL     1      68.471  -8.447  19.982  1.00  0.00    -0.089 SA
HETATM   45  C9  UNL     1      66.604  -5.076  21.228  1.00  0.00     0.013 A 
HETATM   46  C10 UNL     1      66.333  -5.601  22.472  1.00  0.00    -0.025 A 
HETATM   47  C11 UNL     1      65.657  -4.758  23.333  1.00  0.00     0.012 A 
HETATM   48  C12 UNL     1      65.329  -5.163  24.606  1.00  0.00     0.001 A 
HETATM   49  C13 UNL     1      65.690  -6.427  25.000  1.00  0.00     0.001 A 
HETATM   50  C14 UNL     1      66.363  -7.273  24.150  1.00  0.00     0.013 A 
ENDBRANCH   4  38
BRANCH   8  51
HETATM   51  O1  UNL     1      72.249 -11.615  16.580  1.00  0.00    -0.360 OA
ATOM     52  H1  UNL     1      72.580 -10.843  16.138  1.00  0.00     0.217 HD
ENDBRANCH   8  51
TORSDOF 2
ENDMDL
MODEL 5
REMARK VINA RESULT: -9.661386230      0.870      1.112
REMARK  2 active torsions:
REMARK  status: ('A' for Active; 'I' for Inactive)
REMARK    1  A    between atoms: C3_4  and  C4_5 
REMARK    2  A    between atoms: C19_21  and  O1_22 
ROOT
HETATM    1  C1  UNL     1      71.591  -6.360  16.517  1.00  0.00     0.150 C 
HETATM    2  N1  UNL     1      71.931  -7.415  17.548  1.00  0.00    -0.373 N 
HETATM    3  C2  UNL     1      71.559  -8.290  18.494  1.00  0.00     0.054 C 
HETATM    4  C3  UNL     1      70.935  -8.646  19.614  1.00  0.00     0.022 C 
HETATM    5  C16 UNL     1      71.412 -10.032  20.174  1.00  0.00     0.022 A 
HETATM    6  C17 UNL     1      72.809 -10.336  20.149  1.00  0.00     0.084 A 
HETATM    7  C18 UNL     1      73.052 -11.476  20.894  1.00  0.00     0.075 A 
HETATM    8  C19 UNL     1      72.156 -12.257  21.574  1.00  0.00     0.080 A 
HETATM    9  C20 UNL     1      70.846 -11.925  21.549  1.00  0.00     0.019 A 
HETATM   10  C21 UNL     1      70.464 -10.762  20.813  1.00  0.00    -0.008 A 
HETATM   11  C22 UNL     1      69.111 -10.491  20.696  1.00  0.00     0.014 A 
HETATM   12  C23 UNL     1      68.177 -11.302  21.280  1.00  0.00     0.013 A 
HETATM   13  C24 UNL     1      68.563 -12.411  21.995  1.00  0.00    -0.025 A 
HETATM   14  C25 UNL     1      67.615 -13.218  22.580  1.00  0.00     0.012 A 
HETATM   15  C26 UNL     1      67.988 -14.329  23.294  1.00  0.00     0.001 A 
HETATM   16  C27 UNL     1      69.325 -14.637  23.427  1.00  0.00     0.001 A 
HETATM   17  C28 UNL     1      70.302 -13.836  22.845  1.00  0.00     0.013 A 
HETATM   18  C29 UNL     1      69.903 -12.733  22.135  1.00  0.00    -0.012 A 
HETATM   19  O2  UNL     1      73.861  -9.762  19.553  1.00  0.00    -0.340 OA
HETATM   20  C30 UNL     1      74.714  -9.330  18.554  1.00  0.00     0.183 C 
HETATM   21  C31 UNL     1      74.399  -7.850  18.477  1.00  0.00     0.133 C 
HETATM   22  C32 UNL     1      73.309  -7.823  17.724  1.00  0.00     0.143 C 
HETATM   23  C33 UNL     1      72.331  -9.295  17.930  1.00  0.00     0.020 C 
HETATM   24  C34 UNL     1      72.903 -10.291  17.248  1.00  0.00     0.039 C 
HETATM   25  C35 UNL     1      71.957 -10.620  16.192  1.00  0.00     0.030 C 
HETATM   26  C36 UNL     1      72.617 -10.586  14.962  1.00  0.00     0.002 C 
HETATM   27  C37 UNL     1      74.097 -10.223  14.862  1.00  0.00    -0.001 C 
HETATM   28  C38 UNL     1      75.005 -10.022  15.870  1.00  0.00     0.007 C 
HETATM   29  C39 UNL     1      75.106 -10.037  17.319  1.00  0.00     0.091 C 
HETATM   30  C40 UNL     1      76.556 -10.217  17.532  1.00  0.00     0.195 C 
HETATM   31  S2  UNL     1      76.958  -8.446  17.723  1.00  0.00     0.214 S 
HETATM   32  O3  UNL     1      78.037  -8.326  18.798  1.00  0.00    -0.211 OA
HETATM   33  O4  UNL     1      77.714  -8.005  16.470  1.00  0.00    -0.211 OA
HETATM   34  N2  UNL     1      75.689  -7.383  17.943  1.00  0.00    -0.205 NA
HETATM   35  C41 UNL     1      76.121  -6.316  18.849  1.00  0.00     0.130 C 
HETATM   36  N3  UNL     1      74.110 -11.059  17.606  1.00  0.00    -0.373 N 
ATOM     37  H3  UNL     1      74.215 -12.013  17.949  1.00  0.00     0.161 HD
ENDROOT
BRANCH   4  38
HETATM   38  C4  UNL     1      70.108  -7.825  20.514  1.00  0.00     0.020 A 
HETATM   39  C5  UNL     1      70.388  -7.262  21.730  1.00  0.00     0.033 A 
HETATM   40  C6  UNL     1      69.422  -6.574  22.344  1.00  0.00    -0.007 A 
HETATM   41  C7  UNL     1      68.217  -6.478  21.720  1.00  0.00     0.016 A 
HETATM   42  C15 UNL     1      69.505  -5.916  23.590  1.00  0.00    -0.014 A 
HETATM   43  C8  UNL     1      67.111  -5.791  22.227  1.00  0.00     0.021 A 
HETATM   44  S1  UNL     1      68.469  -7.354  20.285  1.00  0.00    -0.089 SA
HETATM   45  C9  UNL     1      67.206  -5.156  23.443  1.00  0.00     0.013 A 
HETATM   46  C10 UNL     1      68.422  -5.247  24.084  1.00  0.00    -0.025 A 
HETATM   47  C11 UNL     1      68.497  -4.598  25.301  1.00  0.00     0.012 A 
HETATM   48  C12 UNL     1      69.657  -4.612  26.039  1.00  0.00     0.001 A 
HETATM   49  C13 UNL     1      70.741  -5.287  25.535  1.00  0.00     0.001 A 
HETATM   50  C14 UNL     1      70.675  -5.936  24.324  1.00  0.00     0.013 A 
ENDBRANCH   4  38
BRANCH   8  51
HETATM   51  O1  UNL     1      72.618 -13.359  22.266  1.00  0.00    -0.360 OA
ATOM     52  H1  UNL     1      72.389 -13.457  23.183  1.00  0.00     0.217 HD
ENDBRANCH   8  51
TORSDOF 2
ENDMDL
