MODEL 1
REMARK VINA RESULT: -11.216008574      0.000      0.000
REMARK  2 active torsions:
REMARK  status: ('A' for Active; 'I' for Inactive)
REMARK    1  A    between atoms: N2_5  and  C4_6 
REMARK    2  A    between atoms: C15_19  and  C16_20 
ROOT
HETATM    1  C4  UNL     1      73.669  -9.624  17.870  1.00  0.00     0.039 C 
HETATM    2  C5  UNL     1      73.180  -8.494  18.660  1.00  0.00     0.138 C 
HETATM    3  C6  UNL     1      71.770  -8.166  18.519  1.00  0.00     0.117 A 
HETATM    4  N3  UNL     1      71.269  -7.607  17.397  1.00  0.00    -0.243 N 
HETATM    5  N4  UNL     1      71.697  -7.932  16.106  1.00  0.00    -0.278 N 
HETATM    6  C7  UNL     1      70.964  -7.492  15.080  1.00  0.00     0.055 A 
HETATM    7  C8  UNL     1      71.147  -7.673  13.687  1.00  0.00     0.031 A 
HETATM    8  C9  UNL     1      70.122  -7.047  12.940  1.00  0.00    -0.001 A 
HETATM    9  C10 UNL     1      69.052  -6.334  13.510  1.00  0.00    -0.016 A 
HETATM   10  C11 UNL     1      68.900  -6.172  14.959  1.00  0.00     0.054 A 
HETATM   11  C12 UNL     1      69.262  -6.368  16.385  1.00  0.00     0.081 A 
HETATM   12  C13 UNL     1      70.038  -6.849  17.513  1.00  0.00     0.047 A 
HETATM   13  C14 UNL     1      69.401  -6.724  18.694  1.00  0.00     0.059 A 
HETATM   14  C15 UNL     1      69.902  -7.345  19.876  1.00  0.00     0.056 A 
HETATM   15  N6  UNL     1      71.019  -7.999  19.668  1.00  0.00    -0.292 N 
HETATM   16  C25 UNL     1      71.348  -8.895  20.685  1.00  0.00     0.126 A 
HETATM   17  C26 UNL     1      71.876  -8.545  21.880  1.00  0.00     0.276 A 
HETATM   18  O1  UNL     1      71.951  -7.365  22.302  1.00  0.00    -0.266 OA
HETATM   19  N7  UNL     1      72.283  -9.675  22.476  1.00  0.00    -0.288 N 
ATOM     20  H7  UNL     1      72.725  -9.724  23.393  1.00  0.00     0.172 HD
HETATM   21  C27 UNL     1      72.022 -10.740  21.685  1.00  0.00     0.262 A 
HETATM   22  O2  UNL     1      72.325 -11.950  22.001  1.00  0.00    -0.267 OA
HETATM   23  C28 UNL     1      71.388 -10.287  20.484  1.00  0.00     0.078 A 
HETATM   24  C29 UNL     1      70.843 -11.112  19.472  1.00  0.00     0.020 A 
HETATM   25  C30 UNL     1      71.092 -11.271  18.139  1.00  0.00     0.044 A 
HETATM   26  C31 UNL     1      70.503 -12.417  17.507  1.00  0.00     0.031 A 
HETATM   27  C32 UNL     1      69.717 -13.349  18.087  1.00  0.00     0.014 A 
HETATM   28  C33 UNL     1      69.465 -13.156  19.418  1.00  0.00    -0.025 A 
HETATM   29  C34 UNL     1      68.572 -14.058  19.996  1.00  0.00     0.012 A 
HETATM   30  C35 UNL     1      68.168 -13.906  21.298  1.00  0.00     0.001 A 
HETATM   31  C36 UNL     1      68.658 -12.846  22.021  1.00  0.00     0.001 A 
HETATM   32  C37 UNL     1      69.538 -11.988  21.402  1.00  0.00     0.013 A 
HETATM   33  C38 UNL     1      69.989 -12.095  20.098  1.00  0.00    -0.012 A 
HETATM   34  N8  UNL     1      71.650 -10.495  17.157  1.00  0.00    -0.356 N 
ATOM     35  H8  UNL     1      71.008 -10.435  16.366  1.00  0.00     0.166 HD
HETATM   36  C39 UNL     1      72.726  -9.806  16.894  1.00  0.00     0.052 C 
HETATM   37  C40 UNL     1      72.596  -8.988  15.616  1.00  0.00     0.208 C 
HETATM   38  C41 UNL     1      69.953  -6.829  15.366  1.00  0.00    -0.032 A 
ENDROOT
BRANCH  14  39
HETATM   39  C16 UNL     1      69.156  -7.106  21.058  1.00  0.00     0.019 A 
HETATM   40  C17 UNL     1      69.227  -6.087  21.947  1.00  0.00     0.105 A 
HETATM   41  N5  UNL     1      68.288  -6.200  22.901  1.00  0.00    -0.360 N 
HETATM   42  C18 UNL     1      68.023  -5.319  24.036  1.00  0.00     0.156 C 
HETATM   43  C19 UNL     1      67.570  -7.297  22.668  1.00  0.00     0.045 A 
HETATM   44  C20 UNL     1      66.485  -7.894  23.312  1.00  0.00     0.030 A 
HETATM   45  C24 UNL     1      68.070  -7.875  21.555  1.00  0.00     0.005 A 
HETATM   46  C21 UNL     1      65.890  -9.052  22.862  1.00  0.00     0.002 A 
HETATM   47  C22 UNL     1      66.436  -9.601  21.721  1.00  0.00     0.001 A 
HETATM   48  C23 UNL     1      67.512  -9.048  21.048  1.00  0.00     0.014 A 
ENDBRANCH  14  39
BRANCH   1  49
HETATM   49  N2  UNL     1      74.875 -10.173  18.229  1.00  0.00    -0.379 N 
HETATM   50  C3  UNL     1      74.846 -11.504  18.896  1.00  0.00     0.153 C 
HETATM   51  C2  UNL     1      75.724 -12.469  18.143  1.00  0.00     0.291 C 
HETATM   52  N1  UNL     1      77.053 -11.955  18.011  1.00  0.00     0.087 N 
HETATM   53  C1  UNL     1      77.736 -11.947  19.268  1.00  0.00     0.310 C 
HETATM   54  C43 UNL     1      77.044 -10.683  17.323  1.00  0.00     0.291 C 
HETATM   55  C42 UNL     1      76.217  -9.668  18.086  1.00  0.00     0.153 C 
ENDBRANCH   1  49
TORSDOF 2
ENDMDL
MODEL 2
REMARK VINA RESULT: -10.872951799      2.104      8.009
REMARK  2 active torsions:
REMARK  status: ('A' for Active; 'I' for Inactive)
REMARK    1  A    between atoms: N2_5  and  C4_6 
REMARK    2  A    between atoms: C15_19  and  C16_20 
ROOT
HETATM    1  C4  UNL     1      70.544  -7.959  21.681  1.00  0.00     0.039 C 
HETATM    2  C5  UNL     1      71.492  -9.031  21.381  1.00  0.00     0.138 C 
HETATM    3  C6  UNL     1      71.054 -10.034  20.423  1.00  0.00     0.117 A 
HETATM    4  N3  UNL     1      70.105 -10.947  20.719  1.00  0.00    -0.243 N 
HETATM    5  N4  UNL     1      68.977 -10.675  21.500  1.00  0.00    -0.278 N 
HETATM    6  C7  UNL     1      68.001 -11.585  21.520  1.00  0.00     0.055 A 
HETATM    7  C8  UNL     1      66.760 -11.574  22.202  1.00  0.00     0.031 A 
HETATM    8  C9  UNL     1      66.006 -12.742  21.935  1.00  0.00    -0.001 A 
HETATM    9  C10 UNL     1      66.437 -13.784  21.095  1.00  0.00    -0.016 A 
HETATM   10  C11 UNL     1      67.731 -13.755  20.407  1.00  0.00     0.054 A 
HETATM   11  C12 UNL     1      69.034 -13.168  20.007  1.00  0.00     0.081 A 
HETATM   12  C13 UNL     1      70.100 -12.185  19.963  1.00  0.00     0.047 A 
HETATM   13  C14 UNL     1      70.996 -12.409  18.982  1.00  0.00     0.059 A 
HETATM   14  C15 UNL     1      71.977 -11.434  18.636  1.00  0.00     0.056 A 
HETATM   15  N6  UNL     1      71.902 -10.357  19.380  1.00  0.00    -0.292 N 
HETATM   16  C25 UNL     1      72.587  -9.260  18.858  1.00  0.00     0.126 A 
HETATM   17  C26 UNL     1      73.929  -9.095  18.906  1.00  0.00     0.276 A 
HETATM   18  O1  UNL     1      74.741  -9.992  19.242  1.00  0.00    -0.266 OA
HETATM   19  N7  UNL     1      74.183  -7.831  18.539  1.00  0.00    -0.288 N 
ATOM     20  H7  UNL     1      75.113  -7.416  18.483  1.00  0.00     0.172 HD
HETATM   21  C27 UNL     1      73.030  -7.186  18.255  1.00  0.00     0.262 A 
HETATM   22  O2  UNL     1      72.976  -5.952  17.894  1.00  0.00    -0.267 OA
HETATM   23  C28 UNL     1      71.933  -8.088  18.436  1.00  0.00     0.078 A 
HETATM   24  C29 UNL     1      70.581  -7.826  18.111  1.00  0.00     0.020 A 
HETATM   25  C30 UNL     1      69.420  -7.791  18.829  1.00  0.00     0.044 A 
HETATM   26  C31 UNL     1      68.279  -7.213  18.178  1.00  0.00     0.031 A 
HETATM   27  C32 UNL     1      68.227  -6.713  16.925  1.00  0.00     0.014 A 
HETATM   28  C33 UNL     1      69.396  -6.779  16.219  1.00  0.00    -0.025 A 
HETATM   29  C34 UNL     1      69.320  -6.357  14.892  1.00  0.00     0.012 A 
HETATM   30  C35 UNL     1      70.404  -6.469  14.058  1.00  0.00     0.001 A 
HETATM   31  C36 UNL     1      71.565  -7.007  14.556  1.00  0.00     0.001 A 
HETATM   32  C37 UNL     1      71.585  -7.404  15.873  1.00  0.00     0.013 A 
HETATM   33  C38 UNL     1      70.531  -7.308  16.763  1.00  0.00    -0.012 A 
HETATM   34  N8  UNL     1      68.993  -8.339  20.010  1.00  0.00    -0.356 N 
ATOM     35  H8  UNL     1      68.119  -8.841  19.853  1.00  0.00     0.166 HD
HETATM   36  C39 UNL     1      69.329  -8.435  21.266  1.00  0.00     0.052 C 
HETATM   37  C40 UNL     1      68.445  -9.411  22.033  1.00  0.00     0.208 C 
HETATM   38  C41 UNL     1      68.180 -12.604  20.831  1.00  0.00    -0.032 A 
ENDROOT
BRANCH  14  39
HETATM   39  C16 UNL     1      72.881 -11.809  17.611  1.00  0.00     0.019 A 
HETATM   40  C17 UNL     1      73.019 -11.340  16.348  1.00  0.00     0.105 A 
HETATM   41  N5  UNL     1      74.052 -11.920  15.716  1.00  0.00    -0.360 N 
HETATM   42  C18 UNL     1      74.538 -11.698  14.356  1.00  0.00     0.156 C 
HETATM   43  C19 UNL     1      74.627 -12.790  16.545  1.00  0.00     0.045 A 
HETATM   44  C20 UNL     1      75.721 -13.650  16.433  1.00  0.00     0.030 A 
HETATM   45  C24 UNL     1      73.941 -12.750  17.707  1.00  0.00     0.005 A 
HETATM   46  C21 UNL     1      76.142 -14.467  17.459  1.00  0.00     0.002 A 
HETATM   47  C22 UNL     1      75.409 -14.387  18.625  1.00  0.00     0.001 A 
HETATM   48  C23 UNL     1      74.317 -13.551  18.784  1.00  0.00     0.014 A 
ENDBRANCH  14  39
BRANCH   1  49
HETATM   49  N2  UNL     1      71.035  -6.832  22.293  1.00  0.00    -0.379 N 
HETATM   50  C3  UNL     1      71.429  -5.696  21.414  1.00  0.00     0.153 C 
HETATM   51  C2  UNL     1      70.708  -4.445  21.845  1.00  0.00     0.291 C 
HETATM   52  N1  UNL     1      70.945  -4.171  23.229  1.00  0.00     0.087 N 
HETATM   53  C1  UNL     1      72.294  -3.753  23.454  1.00  0.00     0.310 C 
HETATM   54  C43 UNL     1      70.512  -5.278  24.052  1.00  0.00     0.291 C 
HETATM   55  C42 UNL     1      71.262  -6.542  23.686  1.00  0.00     0.153 C 
ENDBRANCH   1  49
TORSDOF 2
ENDMDL
MODEL 3
REMARK VINA RESULT: -10.861989231      1.999      7.887
REMARK  2 active torsions:
REMARK  status: ('A' for Active; 'I' for Inactive)
REMARK    1  A    between atoms: N2_5  and  C4_6 
REMARK    2  A    between atoms: C15_19  and  C16_20 
ROOT
HETATM    1  C4  UNL     1      69.533  -8.284  22.021  1.00  0.00     0.039 C 
HETATM    2  C5  UNL     1      70.598  -9.276  21.883  1.00  0.00     0.138 C 
HETATM    3  C6  UNL     1      70.444 -10.250  20.814  1.00  0.00     0.117 A 
HETATM    4  N3  UNL     1      69.523 -11.235  20.863  1.00  0.00    -0.243 N 
HETATM    5  N4  UNL     1      68.241 -11.078  21.398  1.00  0.00    -0.278 N 
HETATM    6  C7  UNL     1      67.351 -12.048  21.172  1.00  0.00     0.055 A 
HETATM    7  C8  UNL     1      65.998 -12.152  21.575  1.00  0.00     0.031 A 
HETATM    8  C9  UNL     1      65.403 -13.348  21.106  1.00  0.00    -0.001 A 
HETATM    9  C10 UNL     1      66.074 -14.312  20.334  1.00  0.00    -0.016 A 
HETATM   10  C11 UNL     1      67.478 -14.164  19.937  1.00  0.00     0.054 A 
HETATM   11  C12 UNL     1      68.790 -13.475  19.848  1.00  0.00     0.081 A 
HETATM   12  C13 UNL     1      69.766 -12.427  20.071  1.00  0.00     0.047 A 
HETATM   13  C14 UNL     1      70.862 -12.538  19.294  1.00  0.00     0.059 A 
HETATM   14  C15 UNL     1      71.819 -11.486  19.205  1.00  0.00     0.056 A 
HETATM   15  N6  UNL     1      71.512 -10.459  19.961  1.00  0.00    -0.292 N 
HETATM   16  C25 UNL     1      72.210  -9.294  19.642  1.00  0.00     0.126 A 
HETATM   17  C26 UNL     1      73.496  -9.049  19.981  1.00  0.00     0.276 A 
HETATM   18  O1  UNL     1      74.283  -9.911  20.443  1.00  0.00    -0.266 OA
HETATM   19  N7  UNL     1      73.728  -7.752  19.729  1.00  0.00    -0.288 N 
ATOM     20  H7  UNL     1      74.616  -7.277  19.888  1.00  0.00     0.172 HD
HETATM   21  C27 UNL     1      72.615  -7.166  19.235  1.00  0.00     0.262 A 
HETATM   22  O2  UNL     1      72.549  -5.919  18.923  1.00  0.00    -0.267 OA
HETATM   23  C28 UNL     1      71.574  -8.143  19.141  1.00  0.00     0.078 A 
HETATM   24  C29 UNL     1      70.304  -7.949  18.548  1.00  0.00     0.020 A 
HETATM   25  C30 UNL     1      69.020  -8.026  19.005  1.00  0.00     0.044 A 
HETATM   26  C31 UNL     1      68.000  -7.485  18.152  1.00  0.00     0.031 A 
HETATM   27  C32 UNL     1      68.174  -6.919  16.939  1.00  0.00     0.014 A 
HETATM   28  C33 UNL     1      69.466  -6.872  16.494  1.00  0.00    -0.025 A 
HETATM   29  C34 UNL     1      69.638  -6.381  15.200  1.00  0.00     0.012 A 
HETATM   30  C35 UNL     1      70.877  -6.378  14.611  1.00  0.00     0.001 A 
HETATM   31  C36 UNL     1      71.946  -6.870  15.320  1.00  0.00     0.001 A 
HETATM   32  C37 UNL     1      71.719  -7.339  16.594  1.00  0.00     0.013 A 
HETATM   33  C38 UNL     1      70.498  -7.359  17.243  1.00  0.00    -0.012 A 
HETATM   34  N8  UNL     1      68.397  -8.666  20.044  1.00  0.00    -0.356 N 
ATOM     35  H8  UNL     1      67.613  -9.212  19.685  1.00  0.00     0.166 HD
HETATM   36  C39 UNL     1      68.469  -8.811  21.339  1.00  0.00     0.052 C 
HETATM   37  C40 UNL     1      67.519  -9.883  21.859  1.00  0.00     0.208 C 
HETATM   38  C41 UNL     1      67.743 -13.013  20.495  1.00  0.00    -0.032 A 
ENDROOT
BRANCH  14  39
HETATM   39  C16 UNL     1      72.942 -11.746  18.380  1.00  0.00     0.019 A 
HETATM   40  C17 UNL     1      74.021 -12.536  18.592  1.00  0.00     0.105 A 
HETATM   41  N5  UNL     1      74.831 -12.562  17.521  1.00  0.00    -0.360 N 
HETATM   42  C18 UNL     1      76.087 -13.286  17.337  1.00  0.00     0.156 C 
HETATM   43  C19 UNL     1      74.309 -11.788  16.570  1.00  0.00     0.045 A 
HETATM   44  C20 UNL     1      74.705 -11.455  15.274  1.00  0.00     0.030 A 
HETATM   45  C24 UNL     1      73.160 -11.274  17.057  1.00  0.00     0.005 A 
HETATM   46  C21 UNL     1      73.973 -10.621  14.457  1.00  0.00     0.002 A 
HETATM   47  C22 UNL     1      72.807 -10.125  15.000  1.00  0.00     0.001 A 
HETATM   48  C23 UNL     1      72.373 -10.425  16.280  1.00  0.00     0.014 A 
ENDBRANCH  14  39
BRANCH   1  49
HETATM   49  N2  UNL     1      69.802  -7.165  22.770  1.00  0.00    -0.379 N 
HETATM   50  C3  UNL     1      71.234  -6.840  23.018  1.00  0.00     0.153 C 
HETATM   51  C2  UNL     1      71.520  -5.430  22.570  1.00  0.00     0.291 C 
HETATM   52  N1  UNL     1      70.633  -4.503  23.203  1.00  0.00     0.087 N 
HETATM   53  C1  UNL     1      70.926  -4.371  24.597  1.00  0.00     0.310 C 
HETATM   54  C43 UNL     1      69.256  -4.828  22.906  1.00  0.00     0.291 C 
HETATM   55  C42 UNL     1      68.915  -6.219  23.397  1.00  0.00     0.153 C 
ENDBRANCH   1  49
TORSDOF 2
ENDMDL
MODEL 4
REMARK VINA RESULT: -9.524033077      2.917      7.573
REMARK  2 active torsions:
REMARK  status: ('A' for Active; 'I' for Inactive)
REMARK    1  A    between atoms: N2_5  and  C4_6 
REMARK    2  A    between atoms: C15_19  and  C16_20 
ROOT
HETATM    1  C4  UNL     1      69.224 -13.788  22.109  1.00  0.00     0.039 C 
HETATM    2  C5  UNL     1      70.593 -13.391  21.782  1.00  0.00     0.138 C 
HETATM    3  C6  UNL     1      70.888 -13.181  20.374  1.00  0.00     0.117 A 
HETATM    4  N3  UNL     1      70.966 -14.200  19.494  1.00  0.00    -0.243 N 
HETATM    5  N4  UNL     1      70.134 -15.324  19.525  1.00  0.00    -0.278 N 
HETATM    6  C7  UNL     1      70.151 -16.139  18.468  1.00  0.00     0.055 A 
HETATM    7  C8  UNL     1      69.419 -17.326  18.222  1.00  0.00     0.031 A 
HETATM    8  C9  UNL     1      69.728 -17.879  16.957  1.00  0.00    -0.001 A 
HETATM    9  C10 UNL     1      70.649 -17.318  16.054  1.00  0.00    -0.016 A 
HETATM   10  C11 UNL     1      71.386 -16.085  16.349  1.00  0.00     0.054 A 
HETATM   11  C12 UNL     1      71.767 -14.900  17.157  1.00  0.00     0.081 A 
HETATM   12  C13 UNL     1      71.752 -13.996  18.291  1.00  0.00     0.047 A 
HETATM   13  C14 UNL     1      72.365 -12.820  18.048  1.00  0.00     0.059 A 
HETATM   14  C15 UNL     1      72.254 -11.724  18.953  1.00  0.00     0.056 A 
HETATM   15  N6  UNL     1      71.531 -12.012  20.008  1.00  0.00    -0.292 N 
HETATM   16  C25 UNL     1      71.108 -10.894  20.727  1.00  0.00     0.126 A 
HETATM   17  C26 UNL     1      71.890 -10.176  21.565  1.00  0.00     0.276 A 
HETATM   18  O1  UNL     1      73.136 -10.298  21.650  1.00  0.00    -0.266 OA
HETATM   19  N7  UNL     1      71.081  -9.354  22.249  1.00  0.00    -0.288 N 
ATOM     20  H7  UNL     1      71.389  -8.690  22.959  1.00  0.00     0.172 HD
HETATM   21  C27 UNL     1      69.798  -9.531  21.861  1.00  0.00     0.262 A 
HETATM   22  O2  UNL     1      68.807  -8.885  22.367  1.00  0.00    -0.267 OA
HETATM   23  C28 UNL     1      69.753 -10.534  20.841  1.00  0.00     0.078 A 
HETATM   24  C29 UNL     1      68.612 -10.904  20.091  1.00  0.00     0.020 A 
HETATM   25  C30 UNL     1      67.921 -12.070  19.924  1.00  0.00     0.044 A 
HETATM   26  C31 UNL     1      66.640 -11.972  19.284  1.00  0.00     0.031 A 
HETATM   27  C32 UNL     1      66.050 -10.851  18.816  1.00  0.00     0.014 A 
HETATM   28  C33 UNL     1      66.771  -9.700  18.976  1.00  0.00    -0.025 A 
HETATM   29  C34 UNL     1      66.211  -8.558  18.404  1.00  0.00     0.012 A 
HETATM   30  C35 UNL     1      66.889  -7.365  18.416  1.00  0.00     0.001 A 
HETATM   31  C36 UNL     1      68.132  -7.319  18.999  1.00  0.00     0.001 A 
HETATM   32  C37 UNL     1      68.634  -8.475  19.551  1.00  0.00     0.013 A 
HETATM   33  C38 UNL     1      67.995  -9.701  19.579  1.00  0.00    -0.012 A 
HETATM   34  N8  UNL     1      68.215 -13.401  20.066  1.00  0.00    -0.356 N 
ATOM     35  H8  UNL     1      67.975 -13.894  19.205  1.00  0.00     0.166 HD
HETATM   36  C39 UNL     1      68.699 -14.248  20.931  1.00  0.00     0.052 C 
HETATM   37  C40 UNL     1      68.938 -15.626  20.326  1.00  0.00     0.208 C 
HETATM   38  C41 UNL     1      70.910 -15.822  17.536  1.00  0.00    -0.032 A 
ENDROOT
BRANCH  14  39
HETATM   39  C16 UNL     1      72.976 -10.557  18.596  1.00  0.00     0.019 A 
HETATM   40  C17 UNL     1      74.283 -10.248  18.769  1.00  0.00     0.105 A 
HETATM   41  N5  UNL     1      74.586  -9.061  18.220  1.00  0.00    -0.360 N 
HETATM   42  C18 UNL     1      75.871  -8.367  18.183  1.00  0.00     0.156 C 
HETATM   43  C19 UNL     1      73.485  -8.551  17.667  1.00  0.00     0.045 A 
HETATM   44  C20 UNL     1      73.215  -7.375  16.967  1.00  0.00     0.030 A 
HETATM   45  C24 UNL     1      72.486  -9.434  17.877  1.00  0.00     0.005 A 
HETATM   46  C21 UNL     1      71.967  -7.067  16.471  1.00  0.00     0.002 A 
HETATM   47  C22 UNL     1      70.982  -8.002  16.710  1.00  0.00     0.001 A 
HETATM   48  C23 UNL     1      71.201  -9.182  17.399  1.00  0.00     0.014 A 
ENDBRANCH  14  39
BRANCH   1  49
HETATM   49  N2  UNL     1      68.821 -13.659  23.415  1.00  0.00    -0.379 N 
HETATM   50  C3  UNL     1      67.740 -12.675  23.701  1.00  0.00     0.153 C 
HETATM   51  C2  UNL     1      66.612 -13.357  24.430  1.00  0.00     0.291 C 
HETATM   52  N1  UNL     1      67.087 -14.004  25.615  1.00  0.00     0.087 N 
HETATM   53  C1  UNL     1      67.469 -13.051  26.611  1.00  0.00     0.310 C 
HETATM   54  C43 UNL     1      68.105 -14.979  25.293  1.00  0.00     0.291 C 
HETATM   55  C42 UNL     1      69.284 -14.317  24.610  1.00  0.00     0.153 C 
ENDBRANCH   1  49
TORSDOF 2
ENDMDL
MODEL 5
REMARK VINA RESULT: -9.325069090      0.694      1.722
REMARK  2 active torsions:
REMARK  status: ('A' for Active; 'I' for Inactive)
REMARK    1  A    between atoms: N2_5  and  C4_6 
REMARK    2  A    between atoms: C15_19  and  C16_20 
ROOT
HETATM    1  C4  UNL     1      73.723  -9.906  17.848  1.00  0.00     0.039 C 
HETATM    2  C5  UNL     1      73.328  -8.742  18.641  1.00  0.00     0.138 C 
HETATM    3  C6  UNL     1      71.937  -8.330  18.540  1.00  0.00     0.117 A 
HETATM    4  N3  UNL     1      71.436  -7.752  17.428  1.00  0.00    -0.243 N 
HETATM    5  N4  UNL     1      71.803  -8.113  16.127  1.00  0.00    -0.278 N 
HETATM    6  C7  UNL     1      71.066  -7.638  15.120  1.00  0.00     0.055 A 
HETATM    7  C8  UNL     1      71.194  -7.842  13.725  1.00  0.00     0.031 A 
HETATM    8  C9  UNL     1      70.185  -7.161  13.002  1.00  0.00    -0.001 A 
HETATM    9  C10 UNL     1      69.179  -6.380  13.598  1.00  0.00    -0.016 A 
HETATM   10  C11 UNL     1      69.082  -6.196  15.049  1.00  0.00     0.054 A 
HETATM   11  C12 UNL     1      69.476  -6.402  16.465  1.00  0.00     0.081 A 
HETATM   12  C13 UNL     1      70.257  -6.919  17.573  1.00  0.00     0.047 A 
HETATM   13  C14 UNL     1      69.666  -6.746  18.773  1.00  0.00     0.059 A 
HETATM   14  C15 UNL     1      70.165  -7.385  19.945  1.00  0.00     0.056 A 
HETATM   15  N6  UNL     1      71.234  -8.108  19.709  1.00  0.00    -0.292 N 
HETATM   16  C25 UNL     1      71.539  -9.013  20.725  1.00  0.00     0.126 A 
HETATM   17  C26 UNL     1      72.125  -8.685  21.899  1.00  0.00     0.276 A 
HETATM   18  O1  UNL     1      72.284  -7.509  22.307  1.00  0.00    -0.266 OA
HETATM   19  N7  UNL     1      72.481  -9.833  22.494  1.00  0.00    -0.288 N 
ATOM     20  H7  UNL     1      72.948  -9.901  23.398  1.00  0.00     0.172 HD
HETATM   21  C27 UNL     1      72.132 -10.887  21.724  1.00  0.00     0.262 A 
HETATM   22  O2  UNL     1      72.371 -12.110  22.043  1.00  0.00    -0.267 OA
HETATM   23  C28 UNL     1      71.489 -10.407  20.538  1.00  0.00     0.078 A 
HETATM   24  C29 UNL     1      70.864 -11.205  19.552  1.00  0.00     0.020 A 
HETATM   25  C30 UNL     1      71.061 -11.391  18.214  1.00  0.00     0.044 A 
HETATM   26  C31 UNL     1      70.384 -12.505  17.612  1.00  0.00     0.031 A 
HETATM   27  C32 UNL     1      69.562 -13.382  18.226  1.00  0.00     0.014 A 
HETATM   28  C33 UNL     1      69.364 -13.163  19.562  1.00  0.00    -0.025 A 
HETATM   29  C34 UNL     1      68.437 -14.004  20.176  1.00  0.00     0.012 A 
HETATM   30  C35 UNL     1      68.084 -13.816  21.489  1.00  0.00     0.001 A 
HETATM   31  C36 UNL     1      68.659 -12.782  22.185  1.00  0.00     0.001 A 
HETATM   32  C37 UNL     1      69.569 -11.985  21.530  1.00  0.00     0.013 A 
HETATM   33  C38 UNL     1      69.972 -12.130  20.215  1.00  0.00    -0.012 A 
HETATM   34  N8  UNL     1      71.634 -10.659  17.207  1.00  0.00    -0.356 N 
ATOM     35  H8  UNL     1      70.972 -10.567  16.436  1.00  0.00     0.166 HD
HETATM   36  C39 UNL     1      72.741 -10.039  16.904  1.00  0.00     0.052 C 
HETATM   37  C40 UNL     1      72.621  -9.225  15.621  1.00  0.00     0.208 C 
HETATM   38  C41 UNL     1      70.106  -6.912  15.430  1.00  0.00    -0.032 A 
ENDROOT
BRANCH  14  39
HETATM   39  C16 UNL     1      69.473  -7.091  21.146  1.00  0.00     0.019 A 
HETATM   40  C17 UNL     1      68.354  -7.645  21.671  1.00  0.00     0.105 A 
HETATM   41  N5  UNL     1      68.063  -7.123  22.873  1.00  0.00    -0.360 N 
HETATM   42  C18 UNL     1      66.953  -7.441  23.768  1.00  0.00     0.156 C 
HETATM   43  C19 UNL     1      68.983  -6.208  23.177  1.00  0.00     0.045 A 
HETATM   44  C20 UNL     1      69.185  -5.373  24.277  1.00  0.00     0.030 A 
HETATM   45  C24 UNL     1      69.856  -6.161  22.149  1.00  0.00     0.005 A 
HETATM   46  C21 UNL     1      70.244  -4.496  24.369  1.00  0.00     0.002 A 
HETATM   47  C22 UNL     1      71.108  -4.488  23.295  1.00  0.00     0.001 A 
HETATM   48  C23 UNL     1      70.949  -5.296  22.182  1.00  0.00     0.014 A 
ENDBRANCH  14  39
BRANCH   1  49
HETATM   49  N2  UNL     1      74.905 -10.524  18.176  1.00  0.00    -0.379 N 
HETATM   50  C3  UNL     1      74.819 -11.892  18.758  1.00  0.00     0.153 C 
HETATM   51  C2  UNL     1      75.663 -12.843  17.949  1.00  0.00     0.291 C 
HETATM   52  N1  UNL     1      77.011 -12.374  17.853  1.00  0.00     0.087 N 
HETATM   53  C1  UNL     1      77.687 -12.472  19.110  1.00  0.00     0.310 C 
HETATM   54  C43 UNL     1      77.056 -11.062  17.247  1.00  0.00     0.291 C 
HETATM   55  C42 UNL     1      76.266 -10.065  18.069  1.00  0.00     0.153 C 
ENDBRANCH   1  49
TORSDOF 2
ENDMDL
