MODEL 1
REMARK VINA RESULT: -8.540132542      0.000      0.000
REMARK  13 active torsions:
REMARK  status: ('A' for Active; 'I' for Inactive)
REMARK    1  A    between atoms: C2_2  and  C4_4 
REMARK    2  A    between atoms: C4_4  and  C5_5 
REMARK    3  A    between atoms: C5_5  and  C6_6 
REMARK    4  A    between atoms: C5_5  and  N4_23 
REMARK       I    between atoms: C6_6  and  N1_8 
REMARK    5  A    between atoms: N1_8  and  C7_10 
REMARK    6  A    between atoms: C7_10  and  C8_11 
REMARK    7  A    between atoms: C7_10  and  C14_20 
REMARK       I    between atoms: C8_11  and  N2_13 
REMARK       I    between atoms: N4_23  and  C18_25 
REMARK    8  A    between atoms: C18_25  and  C19_27 
REMARK    9  A    between atoms: C19_27  and  S1_28 
REMARK   10  A    between atoms: S1_28  and  C20_29 
REMARK   11  A    between atoms: C20_29  and  C21_30 
REMARK   12  A    between atoms: C21_30  and  C23_32 
REMARK   13  A    between atoms: C26_35  and  O4_36 
ROOT
HETATM    1  C5  UNL     1       1.661   0.123 -21.126  1.00  0.00     0.101 C 
ENDROOT
BRANCH   1   2
HETATM    2  C4  UNL     1       1.107   0.681 -19.877  1.00  0.00     0.012 C 
BRANCH   2   3
HETATM    3  C2  UNL     1      -0.169   1.385 -19.813  1.00  0.00     0.002 C 
HETATM    4  C1  UNL     1      -0.262   2.846 -19.785  1.00  0.00     0.013 C 
HETATM    5  C3  UNL     1      -0.978   0.820 -18.644  1.00  0.00     0.013 C 
ENDBRANCH   2   3
ENDBRANCH   1   2
BRANCH   1   6
HETATM    6  C6  UNL     1       2.968   0.713 -21.519  1.00  0.00     0.268 C 
HETATM    7  O1  UNL     1       3.959  -0.049 -21.573  1.00  0.00    -0.266 OA
HETATM    8  N1  UNL     1       3.167   2.067 -21.831  1.00  0.00    -0.342 N 
ATOM      9  H1  UNL     1       2.359   2.690 -21.785  1.00  0.00     0.163 HD
BRANCH   8  10
HETATM   10  C7  UNL     1       4.466   2.652 -22.221  1.00  0.00     0.180 C 
BRANCH  10  11
HETATM   11  C8  UNL     1       4.544   2.815 -23.678  1.00  0.00     0.243 C 
HETATM   12  O2  UNL     1       3.505   3.368 -24.208  1.00  0.00    -0.271 OA
HETATM   13  N2  UNL     1       5.577   2.454 -24.560  1.00  0.00    -0.347 N 
HETATM   14  C9  UNL     1       6.815   1.810 -24.253  1.00  0.00     0.156 C 
HETATM   15  C13 UNL     1       5.378   2.763 -25.987  1.00  0.00     0.156 C 
HETATM   16  C10 UNL     1       8.051   2.536 -24.653  1.00  0.00     0.291 C 
HETATM   17  N3  UNL     1       7.705   3.525 -25.654  1.00  0.00     0.087 N 
HETATM   18  C11 UNL     1       8.937   3.774 -26.404  1.00  0.00     0.310 C 
HETATM   19  C12 UNL     1       6.728   3.039 -26.585  1.00  0.00     0.291 C 
ENDBRANCH  10  11
BRANCH  10  20
HETATM   20  C14 UNL     1       4.545   4.052 -21.607  1.00  0.00     0.009 C 
HETATM   21  C15 UNL     1       5.920   4.617 -21.595  1.00  0.00     0.012 C 
HETATM   22  C16 UNL     1       3.792   4.146 -20.318  1.00  0.00     0.012 C 
ENDBRANCH  10  20
ENDBRANCH   8  10
ENDBRANCH   1   6
BRANCH   1  23
HETATM   23  N4  UNL     1       1.456  -1.227 -21.488  1.00  0.00    -0.317 N 
HETATM   24  C17 UNL     1       1.458  -2.286 -20.506  1.00  0.00     0.159 C 
HETATM   25  C18 UNL     1       1.284  -1.642 -22.819  1.00  0.00     0.233 C 
HETATM   26  O3  UNL     1       1.149  -2.858 -23.092  1.00  0.00    -0.272 OA
BRANCH  25  27
HETATM   27  C19 UNL     1       1.258  -0.669 -23.935  1.00  0.00     0.181 C 
BRANCH  27  28
HETATM   28  S1  UNL     1       2.710  -0.662 -24.910  1.00  0.00    -0.132 SA
BRANCH  28  29
HETATM   29  C20 UNL     1       3.023  -1.886 -26.120  1.00  0.00     0.048 C 
BRANCH  29  30
HETATM   30  C21 UNL     1       3.977  -3.000 -25.891  1.00  0.00    -0.070 C 
HETATM   31  C22 UNL     1       4.798  -3.404 -27.075  1.00  0.00     0.044 C 
BRANCH  30  32
HETATM   32  C23 UNL     1       4.722  -2.902 -24.612  1.00  0.00     0.052 C 
HETATM   33  C24 UNL     1       5.698  -1.836 -24.399  1.00  0.00     0.024 C 
HETATM   34  C25 UNL     1       6.676  -1.520 -25.475  1.00  0.00     0.013 C 
HETATM   35  C26 UNL     1       6.537  -2.349 -23.212  1.00  0.00     0.154 C 
HETATM   36  C27 UNL     1       6.410  -3.849 -23.206  1.00  0.00     0.184 C 
HETATM   37  O5  UNL     1       5.898  -4.281 -21.978  1.00  0.00    -0.345 OA
HETATM   38  C31 UNL     1       5.384  -4.214 -24.250  1.00  0.00     0.165 C 
HETATM   39  C28 UNL     1       4.978  -5.262 -22.296  1.00  0.00     0.158 C 
HETATM   40  C29 UNL     1       3.754  -5.245 -21.381  1.00  0.00     0.078 C 
HETATM   41  C30 UNL     1       5.558  -6.667 -22.242  1.00  0.00     0.078 C 
HETATM   42  O6  UNL     1       4.528  -5.062 -23.572  1.00  0.00    -0.347 OA
BRANCH  35  43
HETATM   43  O4  UNL     1       7.885  -2.036 -23.380  1.00  0.00    -0.393 OA
ATOM     44  H4  UNL     1       8.157  -1.361 -22.771  1.00  0.00     0.210 HD
ENDBRANCH  35  43
ENDBRANCH  30  32
ENDBRANCH  29  30
ENDBRANCH  28  29
ENDBRANCH  27  28
ENDBRANCH  25  27
ENDBRANCH   1  23
TORSDOF 13
ENDMDL
MODEL 2
REMARK VINA RESULT: -8.493497705      0.979      2.282
REMARK  13 active torsions:
REMARK  status: ('A' for Active; 'I' for Inactive)
REMARK    1  A    between atoms: C2_2  and  C4_4 
REMARK    2  A    between atoms: C4_4  and  C5_5 
REMARK    3  A    between atoms: C5_5  and  C6_6 
REMARK    4  A    between atoms: C5_5  and  N4_23 
REMARK       I    between atoms: C6_6  and  N1_8 
REMARK    5  A    between atoms: N1_8  and  C7_10 
REMARK    6  A    between atoms: C7_10  and  C8_11 
REMARK    7  A    between atoms: C7_10  and  C14_20 
REMARK       I    between atoms: C8_11  and  N2_13 
REMARK       I    between atoms: N4_23  and  C18_25 
REMARK    8  A    between atoms: C18_25  and  C19_27 
REMARK    9  A    between atoms: C19_27  and  S1_28 
REMARK   10  A    between atoms: S1_28  and  C20_29 
REMARK   11  A    between atoms: C20_29  and  C21_30 
REMARK   12  A    between atoms: C21_30  and  C23_32 
REMARK   13  A    between atoms: C26_35  and  O4_36 
ROOT
HETATM    1  C5  UNL     1       1.563   0.067 -21.108  1.00  0.00     0.101 C 
ENDROOT
BRANCH   1   2
HETATM    2  C4  UNL     1       1.026   0.524 -19.813  1.00  0.00     0.012 C 
BRANCH   2   3
HETATM    3  C2  UNL     1      -0.146   1.384 -19.692  1.00  0.00     0.002 C 
HETATM    4  C1  UNL     1      -0.056   2.845 -19.709  1.00  0.00     0.013 C 
HETATM    5  C3  UNL     1      -0.937   0.956 -18.454  1.00  0.00     0.013 C 
ENDBRANCH   2   3
ENDBRANCH   1   2
BRANCH   1   6
HETATM    6  C6  UNL     1       2.878   0.668 -21.458  1.00  0.00     0.268 C 
HETATM    7  O1  UNL     1       3.891  -0.064 -21.388  1.00  0.00    -0.266 OA
HETATM    8  N1  UNL     1       3.060   2.001 -21.861  1.00  0.00    -0.342 N 
ATOM      9  H1  UNL     1       2.235   2.598 -21.917  1.00  0.00     0.163 HD
BRANCH   8  10
HETATM   10  C7  UNL     1       4.366   2.596 -22.208  1.00  0.00     0.180 C 
BRANCH  10  11
HETATM   11  C8  UNL     1       4.443   2.872 -23.648  1.00  0.00     0.243 C 
HETATM   12  O2  UNL     1       3.515   3.651 -24.091  1.00  0.00    -0.271 OA
HETATM   13  N2  UNL     1       5.373   2.409 -24.594  1.00  0.00    -0.347 N 
HETATM   14  C9  UNL     1       6.477   1.524 -24.389  1.00  0.00     0.156 C 
HETATM   15  C13 UNL     1       5.206   2.876 -25.982  1.00  0.00     0.156 C 
HETATM   16  C10 UNL     1       7.817   2.045 -24.771  1.00  0.00     0.291 C 
HETATM   17  N3  UNL     1       7.640   3.167 -25.672  1.00  0.00     0.087 N 
HETATM   18  C11 UNL     1       8.881   3.252 -26.443  1.00  0.00     0.310 C 
HETATM   19  C12 UNL     1       6.571   2.952 -26.603  1.00  0.00     0.291 C 
ENDBRANCH  10  11
BRANCH  10  20
HETATM   20  C14 UNL     1       4.466   3.942 -21.486  1.00  0.00     0.009 C 
HETATM   21  C15 UNL     1       5.806   4.577 -21.598  1.00  0.00     0.012 C 
HETATM   22  C16 UNL     1       3.885   3.889 -20.109  1.00  0.00     0.012 C 
ENDBRANCH  10  20
ENDBRANCH   8  10
ENDBRANCH   1   6
BRANCH   1  23
HETATM   23  N4  UNL     1       1.335  -1.244 -21.584  1.00  0.00    -0.317 N 
HETATM   24  C17 UNL     1       1.378  -2.389 -20.705  1.00  0.00     0.159 C 
HETATM   25  C18 UNL     1       1.099  -1.533 -22.938  1.00  0.00     0.233 C 
HETATM   26  O3  UNL     1       0.944  -2.719 -23.316  1.00  0.00    -0.272 OA
BRANCH  25  27
HETATM   27  C19 UNL     1       1.026  -0.460 -23.957  1.00  0.00     0.181 C 
BRANCH  27  28
HETATM   28  S1  UNL     1       2.487  -0.269 -24.897  1.00  0.00    -0.132 SA
BRANCH  28  29
HETATM   29  C20 UNL     1       3.907  -1.254 -24.621  1.00  0.00     0.048 C 
BRANCH  29  30
HETATM   30  C21 UNL     1       4.081  -2.586 -25.252  1.00  0.00    -0.070 C 
HETATM   31  C22 UNL     1       3.947  -2.620 -26.741  1.00  0.00     0.044 C 
BRANCH  30  32
HETATM   32  C23 UNL     1       5.217  -3.368 -24.705  1.00  0.00     0.052 C 
HETATM   33  C24 UNL     1       4.988  -4.434 -23.733  1.00  0.00     0.024 C 
HETATM   34  C25 UNL     1       4.064  -4.191 -22.592  1.00  0.00     0.013 C 
HETATM   35  C26 UNL     1       6.377  -4.652 -23.104  1.00  0.00     0.154 C 
HETATM   36  C27 UNL     1       7.143  -3.369 -23.287  1.00  0.00     0.184 C 
HETATM   37  O5  UNL     1       8.325  -3.613 -23.995  1.00  0.00    -0.345 OA
HETATM   38  C31 UNL     1       6.302  -2.468 -24.156  1.00  0.00     0.165 C 
HETATM   39  C28 UNL     1       8.430  -2.568 -24.892  1.00  0.00     0.158 C 
HETATM   40  C29 UNL     1       9.008  -3.001 -26.239  1.00  0.00     0.078 C 
HETATM   41  C30 UNL     1       9.292  -1.424 -24.381  1.00  0.00     0.078 C 
HETATM   42  O6  UNL     1       7.185  -2.055 -25.137  1.00  0.00    -0.347 OA
BRANCH  35  43
HETATM   43  O4  UNL     1       6.274  -4.894 -21.734  1.00  0.00    -0.393 OA
ATOM     44  H4  UNL     1       6.692  -5.714 -21.501  1.00  0.00     0.210 HD
ENDBRANCH  35  43
ENDBRANCH  30  32
ENDBRANCH  29  30
ENDBRANCH  28  29
ENDBRANCH  27  28
ENDBRANCH  25  27
ENDBRANCH   1  23
TORSDOF 13
ENDMDL
MODEL 3
REMARK VINA RESULT: -8.418757680      2.140      3.483
REMARK  13 active torsions:
REMARK  status: ('A' for Active; 'I' for Inactive)
REMARK    1  A    between atoms: C2_2  and  C4_4 
REMARK    2  A    between atoms: C4_4  and  C5_5 
REMARK    3  A    between atoms: C5_5  and  C6_6 
REMARK    4  A    between atoms: C5_5  and  N4_23 
REMARK       I    between atoms: C6_6  and  N1_8 
REMARK    5  A    between atoms: N1_8  and  C7_10 
REMARK    6  A    between atoms: C7_10  and  C8_11 
REMARK    7  A    between atoms: C7_10  and  C14_20 
REMARK       I    between atoms: C8_11  and  N2_13 
REMARK       I    between atoms: N4_23  and  C18_25 
REMARK    8  A    between atoms: C18_25  and  C19_27 
REMARK    9  A    between atoms: C19_27  and  S1_28 
REMARK   10  A    between atoms: S1_28  and  C20_29 
REMARK   11  A    between atoms: C20_29  and  C21_30 
REMARK   12  A    between atoms: C21_30  and  C23_32 
REMARK   13  A    between atoms: C26_35  and  O4_36 
ROOT
HETATM    1  C5  UNL     1       1.636  -0.079 -21.148  1.00  0.00     0.101 C 
ENDROOT
BRANCH   1   2
HETATM    2  C4  UNL     1       1.076   0.419 -19.878  1.00  0.00     0.012 C 
BRANCH   2   3
HETATM    3  C2  UNL     1      -0.092   1.291 -19.807  1.00  0.00     0.002 C 
HETATM    4  C1  UNL     1       0.016   2.749 -19.743  1.00  0.00     0.013 C 
HETATM    5  C3  UNL     1      -0.983   0.815 -18.657  1.00  0.00     0.013 C 
ENDBRANCH   2   3
ENDBRANCH   1   2
BRANCH   1   6
HETATM    6  C6  UNL     1       2.941   0.535 -21.511  1.00  0.00     0.268 C 
HETATM    7  O1  UNL     1       3.935  -0.220 -21.602  1.00  0.00    -0.266 OA
HETATM    8  N1  UNL     1       3.135   1.904 -21.755  1.00  0.00    -0.342 N 
ATOM      9  H1  UNL     1       2.325   2.519 -21.680  1.00  0.00     0.163 HD
BRANCH   8  10
HETATM   10  C7  UNL     1       4.431   2.512 -22.115  1.00  0.00     0.180 C 
BRANCH  10  11
HETATM   11  C8  UNL     1       4.466   2.851 -23.543  1.00  0.00     0.243 C 
HETATM   12  O2  UNL     1       3.511   3.628 -23.929  1.00  0.00    -0.271 OA
HETATM   13  N2  UNL     1       5.381   2.450 -24.531  1.00  0.00    -0.347 N 
HETATM   14  C9  UNL     1       6.507   1.580 -24.392  1.00  0.00     0.156 C 
HETATM   15  C13 UNL     1       5.169   2.972 -25.892  1.00  0.00     0.156 C 
HETATM   16  C10 UNL     1       7.826   2.145 -24.784  1.00  0.00     0.291 C 
HETATM   17  N3  UNL     1       7.604   3.301 -25.630  1.00  0.00     0.087 N 
HETATM   18  C11 UNL     1       8.823   3.446 -26.427  1.00  0.00     0.310 C 
HETATM   19  C12 UNL     1       6.515   3.104 -26.544  1.00  0.00     0.291 C 
ENDBRANCH  10  11
BRANCH  10  20
HETATM   20  C14 UNL     1       4.557   3.824 -21.337  1.00  0.00     0.009 C 
HETATM   21  C15 UNL     1       5.851   4.523 -21.559  1.00  0.00     0.012 C 
HETATM   22  C16 UNL     1       4.132   3.678 -19.911  1.00  0.00     0.012 C 
ENDBRANCH  10  20
ENDBRANCH   8  10
ENDBRANCH   1   6
BRANCH   1  23
HETATM   23  N4  UNL     1       1.439  -1.413 -21.571  1.00  0.00    -0.317 N 
HETATM   24  C17 UNL     1       1.492  -2.520 -20.645  1.00  0.00     0.159 C 
HETATM   25  C18 UNL     1       1.228  -1.764 -22.915  1.00  0.00     0.233 C 
HETATM   26  O3  UNL     1       1.102  -2.966 -23.245  1.00  0.00    -0.272 OA
BRANCH  25  27
HETATM   27  C19 UNL     1       1.148  -0.736 -23.979  1.00  0.00     0.181 C 
BRANCH  27  28
HETATM   28  S1  UNL     1       2.589  -0.611 -24.960  1.00  0.00    -0.132 SA
BRANCH  28  29
HETATM   29  C20 UNL     1       3.096  -1.894 -26.037  1.00  0.00     0.048 C 
BRANCH  29  30
HETATM   30  C21 UNL     1       4.077  -1.670 -27.128  1.00  0.00    -0.070 C 
HETATM   31  C22 UNL     1       4.922  -0.442 -26.997  1.00  0.00     0.044 C 
BRANCH  30  32
HETATM   32  C23 UNL     1       4.806  -2.893 -27.543  1.00  0.00     0.052 C 
HETATM   33  C24 UNL     1       5.295  -3.843 -26.547  1.00  0.00     0.024 C 
HETATM   34  C25 UNL     1       5.996  -3.332 -25.339  1.00  0.00     0.013 C 
HETATM   35  C26 UNL     1       6.343  -4.667 -27.320  1.00  0.00     0.154 C 
HETATM   36  C27 UNL     1       6.818  -3.805 -28.459  1.00  0.00     0.184 C 
HETATM   37  O5  UNL     1       6.600  -4.459 -29.677  1.00  0.00    -0.345 OA
HETATM   38  C31 UNL     1       5.953  -2.570 -28.476  1.00  0.00     0.165 C 
HETATM   39  C28 UNL     1       6.122  -3.483 -30.530  1.00  0.00     0.158 C 
HETATM   40  C29 UNL     1       5.053  -4.006 -31.489  1.00  0.00     0.078 C 
HETATM   41  C30 UNL     1       7.211  -2.844 -31.378  1.00  0.00     0.078 C 
HETATM   42  O6  UNL     1       5.546  -2.483 -29.794  1.00  0.00    -0.347 OA
BRANCH  35  43
HETATM   43  O4  UNL     1       7.446  -4.954 -26.516  1.00  0.00    -0.393 OA
ATOM     44  H4  UNL     1       7.988  -4.184 -26.394  1.00  0.00     0.210 HD
ENDBRANCH  35  43
ENDBRANCH  30  32
ENDBRANCH  29  30
ENDBRANCH  28  29
ENDBRANCH  27  28
ENDBRANCH  25  27
ENDBRANCH   1  23
TORSDOF 13
ENDMDL
MODEL 4
REMARK VINA RESULT: -8.374628639      1.364      1.948
REMARK  13 active torsions:
REMARK  status: ('A' for Active; 'I' for Inactive)
REMARK    1  A    between atoms: C2_2  and  C4_4 
REMARK    2  A    between atoms: C4_4  and  C5_5 
REMARK    3  A    between atoms: C5_5  and  C6_6 
REMARK    4  A    between atoms: C5_5  and  N4_23 
REMARK       I    between atoms: C6_6  and  N1_8 
REMARK    5  A    between atoms: N1_8  and  C7_10 
REMARK    6  A    between atoms: C7_10  and  C8_11 
REMARK    7  A    between atoms: C7_10  and  C14_20 
REMARK       I    between atoms: C8_11  and  N2_13 
REMARK       I    between atoms: N4_23  and  C18_25 
REMARK    8  A    between atoms: C18_25  and  C19_27 
REMARK    9  A    between atoms: C19_27  and  S1_28 
REMARK   10  A    between atoms: S1_28  and  C20_29 
REMARK   11  A    between atoms: C20_29  and  C21_30 
REMARK   12  A    between atoms: C21_30  and  C23_32 
REMARK   13  A    between atoms: C26_35  and  O4_36 
ROOT
HETATM    1  C5  UNL     1       1.616   0.389 -21.174  1.00  0.00     0.101 C 
ENDROOT
BRANCH   1   2
HETATM    2  C4  UNL     1       1.053   1.036 -19.974  1.00  0.00     0.012 C 
BRANCH   2   3
HETATM    3  C2  UNL     1      -0.329   1.498 -19.889  1.00  0.00     0.002 C 
HETATM    4  C1  UNL     1      -0.678   2.914 -19.760  1.00  0.00     0.013 C 
HETATM    5  C3  UNL     1      -1.035   0.715 -18.780  1.00  0.00     0.013 C 
ENDBRANCH   2   3
ENDBRANCH   1   2
BRANCH   1   6
HETATM    6  C6  UNL     1       2.948   0.918 -21.572  1.00  0.00     0.268 C 
HETATM    7  O1  UNL     1       3.921   0.131 -21.544  1.00  0.00    -0.266 OA
HETATM    8  N1  UNL     1       3.189   2.242 -21.975  1.00  0.00    -0.342 N 
ATOM      9  H1  UNL     1       2.397   2.884 -21.997  1.00  0.00     0.163 HD
BRANCH   8  10
HETATM   10  C7  UNL     1       4.512   2.766 -22.370  1.00  0.00     0.180 C 
BRANCH  10  11
HETATM   11  C8  UNL     1       4.587   2.939 -23.825  1.00  0.00     0.243 C 
HETATM   12  O2  UNL     1       3.621   3.629 -24.330  1.00  0.00    -0.271 OA
HETATM   13  N2  UNL     1       5.551   2.462 -24.730  1.00  0.00    -0.347 N 
HETATM   14  C9  UNL     1       6.701   1.659 -24.454  1.00  0.00     0.156 C 
HETATM   15  C13 UNL     1       5.371   2.815 -26.149  1.00  0.00     0.156 C 
HETATM   16  C10 UNL     1       8.013   2.225 -24.866  1.00  0.00     0.291 C 
HETATM   17  N3  UNL     1       7.782   3.266 -25.849  1.00  0.00     0.087 N 
HETATM   18  C11 UNL     1       9.024   3.365 -26.617  1.00  0.00     0.310 C 
HETATM   19  C12 UNL     1       6.735   2.923 -26.768  1.00  0.00     0.291 C 
ENDBRANCH  10  11
BRANCH  10  20
HETATM   20  C14 UNL     1       4.664   4.154 -21.743  1.00  0.00     0.009 C 
HETATM   21  C15 UNL     1       6.079   4.593 -21.612  1.00  0.00     0.012 C 
HETATM   22  C16 UNL     1       3.816   4.318 -20.522  1.00  0.00     0.012 C 
ENDBRANCH  10  20
ENDBRANCH   8  10
ENDBRANCH   1   6
BRANCH   1  23
HETATM   23  N4  UNL     1       1.380  -0.974 -21.460  1.00  0.00    -0.317 N 
HETATM   24  C17 UNL     1       1.324  -1.971 -20.416  1.00  0.00     0.159 C 
HETATM   25  C18 UNL     1       1.232  -1.465 -22.768  1.00  0.00     0.233 C 
HETATM   26  O3  UNL     1       1.068  -2.691 -22.971  1.00  0.00    -0.272 OA
BRANCH  25  27
HETATM   27  C19 UNL     1       1.266  -0.561 -23.941  1.00  0.00     0.181 C 
BRANCH  27  28
HETATM   28  S1  UNL     1       2.630  -0.823 -25.004  1.00  0.00    -0.132 SA
BRANCH  28  29
HETATM   29  C20 UNL     1       2.933  -2.369 -25.765  1.00  0.00     0.048 C 
BRANCH  29  30
HETATM   30  C21 UNL     1       4.304  -2.910 -25.940  1.00  0.00    -0.070 C 
HETATM   31  C22 UNL     1       5.398  -1.891 -26.016  1.00  0.00     0.044 C 
BRANCH  30  32
HETATM   32  C23 UNL     1       4.601  -4.088 -25.089  1.00  0.00     0.052 C 
HETATM   33  C24 UNL     1       4.278  -4.078 -23.664  1.00  0.00     0.024 C 
HETATM   34  C25 UNL     1       4.621  -2.881 -22.850  1.00  0.00     0.013 C 
HETATM   35  C26 UNL     1       5.131  -5.227 -23.094  1.00  0.00     0.154 C 
HETATM   36  C27 UNL     1       6.286  -5.421 -24.039  1.00  0.00     0.184 C 
HETATM   37  O5  UNL     1       6.299  -6.736 -24.517  1.00  0.00    -0.345 OA
HETATM   38  C31 UNL     1       6.039  -4.534 -25.234  1.00  0.00     0.165 C 
HETATM   39  C28 UNL     1       6.588  -6.627 -25.864  1.00  0.00     0.158 C 
HETATM   40  C29 UNL     1       5.837  -7.651 -26.715  1.00  0.00     0.078 C 
HETATM   41  C30 UNL     1       8.069  -6.788 -26.173  1.00  0.00     0.078 C 
HETATM   42  O6  UNL     1       6.217  -5.387 -26.307  1.00  0.00    -0.347 OA
BRANCH  35  43
HETATM   43  O4  UNL     1       5.654  -4.891 -21.846  1.00  0.00    -0.393 OA
ATOM     44  H4  UNL     1       5.354  -4.033 -21.571  1.00  0.00     0.210 HD
ENDBRANCH  35  43
ENDBRANCH  30  32
ENDBRANCH  29  30
ENDBRANCH  28  29
ENDBRANCH  27  28
ENDBRANCH  25  27
ENDBRANCH   1  23
TORSDOF 13
ENDMDL
MODEL 5
REMARK VINA RESULT: -8.196086797      2.016      6.246
REMARK  13 active torsions:
REMARK  status: ('A' for Active; 'I' for Inactive)
REMARK    1  A    between atoms: C2_2  and  C4_4 
REMARK    2  A    between atoms: C4_4  and  C5_5 
REMARK    3  A    between atoms: C5_5  and  C6_6 
REMARK    4  A    between atoms: C5_5  and  N4_23 
REMARK       I    between atoms: C6_6  and  N1_8 
REMARK    5  A    between atoms: N1_8  and  C7_10 
REMARK    6  A    between atoms: C7_10  and  C8_11 
REMARK    7  A    between atoms: C7_10  and  C14_20 
REMARK       I    between atoms: C8_11  and  N2_13 
REMARK       I    between atoms: N4_23  and  C18_25 
REMARK    8  A    between atoms: C18_25  and  C19_27 
REMARK    9  A    between atoms: C19_27  and  S1_28 
REMARK   10  A    between atoms: S1_28  and  C20_29 
REMARK   11  A    between atoms: C20_29  and  C21_30 
REMARK   12  A    between atoms: C21_30  and  C23_32 
REMARK   13  A    between atoms: C26_35  and  O4_36 
ROOT
HETATM    1  C5  UNL     1       5.207   2.535 -24.670  1.00  0.00     0.101 C 
ENDROOT
BRANCH   1   2
HETATM    2  C4  UNL     1       6.244   3.513 -25.051  1.00  0.00     0.012 C 
BRANCH   2   3
HETATM    3  C2  UNL     1       7.596   3.498 -24.503  1.00  0.00     0.002 C 
HETATM    4  C1  UNL     1       7.927   4.090 -23.206  1.00  0.00     0.013 C 
HETATM    5  C3  UNL     1       8.553   4.061 -25.557  1.00  0.00     0.013 C 
ENDBRANCH   2   3
ENDBRANCH   1   2
BRANCH   1   6
HETATM    6  C6  UNL     1       4.499   2.873 -23.406  1.00  0.00     0.268 C 
HETATM    7  O1  UNL     1       3.934   3.987 -23.334  1.00  0.00    -0.266 OA
HETATM    8  N1  UNL     1       4.424   2.028 -22.287  1.00  0.00    -0.342 N 
ATOM      9  H1  UNL     1       4.886   1.120 -22.345  1.00  0.00     0.163 HD
BRANCH   8  10
HETATM   10  C7  UNL     1       3.721   2.364 -21.033  1.00  0.00     0.180 C 
BRANCH  10  11
HETATM   11  C8  UNL     1       2.691   1.363 -20.732  1.00  0.00     0.243 C 
HETATM   12  O2  UNL     1       3.106   0.141 -20.779  1.00  0.00    -0.271 OA
HETATM   13  N2  UNL     1       1.337   1.548 -20.406  1.00  0.00    -0.347 N 
HETATM   14  C9  UNL     1       0.612   2.776 -20.309  1.00  0.00     0.156 C 
HETATM   15  C13 UNL     1       0.541   0.339 -20.133  1.00  0.00     0.156 C 
HETATM   16  C10 UNL     1      -0.046   3.051 -19.004  1.00  0.00     0.291 C 
HETATM   17  N3  UNL     1      -0.167   1.804 -18.274  1.00  0.00     0.087 N 
HETATM   18  C11 UNL     1      -1.277   2.000 -17.341  1.00  0.00     0.310 C 
HETATM   19  C12 UNL     1      -0.513   0.705 -19.128  1.00  0.00     0.291 C 
ENDBRANCH  10  11
BRANCH  10  20
HETATM   20  C14 UNL     1       4.748   2.309 -19.900  1.00  0.00     0.009 C 
HETATM   21  C15 UNL     1       4.503   3.311 -18.828  1.00  0.00     0.012 C 
HETATM   22  C16 UNL     1       6.151   2.235 -20.412  1.00  0.00     0.012 C 
ENDBRANCH  10  20
ENDBRANCH   8  10
ENDBRANCH   1   6
BRANCH   1  23
HETATM   23  N4  UNL     1       4.447   1.846 -25.641  1.00  0.00    -0.317 N 
HETATM   24  C17 UNL     1       3.031   2.083 -25.807  1.00  0.00     0.159 C 
HETATM   25  C18 UNL     1       4.992   0.856 -26.475  1.00  0.00     0.233 C 
HETATM   26  O3  UNL     1       4.265   0.243 -27.291  1.00  0.00    -0.272 OA
BRANCH  25  27
HETATM   27  C19 UNL     1       6.430   0.505 -26.420  1.00  0.00     0.181 C 
BRANCH  27  28
HETATM   28  S1  UNL     1       6.739  -1.191 -26.123  1.00  0.00    -0.132 SA
BRANCH  28  29
HETATM   29  C20 UNL     1       5.503  -2.270 -25.515  1.00  0.00     0.048 C 
BRANCH  29  30
HETATM   30  C21 UNL     1       5.079  -2.266 -24.093  1.00  0.00    -0.070 C 
HETATM   31  C22 UNL     1       5.343  -0.999 -23.342  1.00  0.00     0.044 C 
BRANCH  30  32
HETATM   32  C23 UNL     1       3.743  -2.867 -23.861  1.00  0.00     0.052 C 
HETATM   33  C24 UNL     1       2.693  -2.762 -24.871  1.00  0.00     0.024 C 
HETATM   34  C25 UNL     1       2.449  -1.451 -25.531  1.00  0.00     0.013 C 
HETATM   35  C26 UNL     1       1.406  -3.078 -24.085  1.00  0.00     0.154 C 
HETATM   36  C27 UNL     1       1.688  -2.759 -22.642  1.00  0.00     0.184 C 
HETATM   37  O5  UNL     1       1.479  -3.894 -21.851  1.00  0.00    -0.345 OA
HETATM   38  C31 UNL     1       3.156  -2.430 -22.537  1.00  0.00     0.165 C 
HETATM   39  C28 UNL     1       2.530  -3.909 -20.955  1.00  0.00     0.158 C 
HETATM   40  C29 UNL     1       3.026  -5.322 -20.647  1.00  0.00     0.078 C 
HETATM   41  C30 UNL     1       2.194  -3.252 -19.625  1.00  0.00     0.078 C 
HETATM   42  O6  UNL     1       3.586  -3.220 -21.487  1.00  0.00    -0.347 OA
BRANCH  35  43
HETATM   43  O4  UNL     1       0.352  -2.265 -24.503  1.00  0.00    -0.393 OA
ATOM     44  H4  UNL     1      -0.480  -2.601 -24.194  1.00  0.00     0.210 HD
ENDBRANCH  35  43
ENDBRANCH  30  32
ENDBRANCH  29  30
ENDBRANCH  28  29
ENDBRANCH  27  28
ENDBRANCH  25  27
ENDBRANCH   1  23
TORSDOF 13
ENDMDL
