MODEL 1
REMARK VINA RESULT: -5.883510252      0.000      0.000
REMARK  7 active torsions:
REMARK  status: ('A' for Active; 'I' for Inactive)
REMARK    1  A    between atoms: C2_2  and  C3_3 
REMARK    2  A    between atoms: C3_3  and  C4_4 
REMARK    3  A    between atoms: C4_4  and  C5_5 
REMARK    4  A    between atoms: C5_5  and  C6_7 
REMARK    5  A    between atoms: C8_9  and  C9_10 
REMARK    6  A    between atoms: C10_11  and  O2_12 
REMARK    7  A    between atoms: C18_24  and  O4_25 
ROOT
HETATM    1  C6  UNL     1     -23.775  33.425  -0.393  1.00  0.00     0.022 C 
HETATM    2  C7  UNL     1     -23.363  34.583  -0.881  1.00  0.00     0.026 C 
HETATM    3  C8  UNL     1     -22.929  35.689  -0.051  1.00  0.00     0.189 C 
HETATM    4  O3  UNL     1     -22.795  35.346   1.275  1.00  0.00    -0.336 OA
HETATM    5  C16 UNL     1     -23.224  34.177   1.846  1.00  0.00     0.084 A 
HETATM    6  C17 UNL     1     -23.154  34.009   3.233  1.00  0.00     0.076 A 
HETATM    7  C18 UNL     1     -23.579  32.845   3.833  1.00  0.00     0.090 A 
HETATM    8  C19 UNL     1     -24.075  31.857   3.019  1.00  0.00     0.068 A 
HETATM    9 CL3  UNL     1     -24.627  30.359   3.737  1.00  0.00    -0.081 Cl
HETATM   10  C20 UNL     1     -24.157  31.997   1.628  1.00  0.00     0.042 A 
HETATM   11  C21 UNL     1     -23.730  33.164   1.036  1.00  0.00     0.013 A 
ENDROOT
BRANCH   3  12
HETATM   12  C9  UNL     1     -21.748  36.451  -0.511  1.00  0.00     0.016 A 
HETATM   13  C10 UNL     1     -20.499  35.932  -0.252  1.00  0.00     0.077 A 
HETATM   14  C11 UNL     1     -19.323  36.598  -0.617  1.00  0.00     0.062 A 
HETATM   15  C12 UNL     1     -19.389  37.813  -1.257  1.00  0.00     0.059 A 
HETATM   16 CL1  UNL     1     -17.927  38.658  -1.721  1.00  0.00    -0.082 Cl
HETATM   17  C13 UNL     1     -20.642  38.311  -1.503  1.00  0.00     0.062 A 
HETATM   18 CL2  UNL     1     -20.759  39.855  -2.314  1.00  0.00    -0.082 Cl
HETATM   19  C14 UNL     1     -21.828  37.661  -1.145  1.00  0.00    -0.027 A 
HETATM   20  C15 UNL     1     -23.136  38.353  -1.435  1.00  0.00     0.050 C 
BRANCH  13  21
HETATM   21  O2  UNL     1     -20.323  34.708   0.391  1.00  0.00    -0.360 OA
ATOM     22  H2  UNL     1     -20.262  34.638   1.336  1.00  0.00     0.217 HD
ENDBRANCH  13  21
ENDBRANCH   3  12
BRANCH   1  23
HETATM   23  C5  UNL     1     -24.208  32.355  -1.326  1.00  0.00     0.160 C 
HETATM   24  O1  UNL     1     -23.479  31.576  -1.935  1.00  0.00    -0.292 OA
BRANCH  23  25
HETATM   25  C4  UNL     1     -25.675  32.177  -1.574  1.00  0.00     0.084 C 
BRANCH  25  26
HETATM   26  C3  UNL     1     -26.144  30.893  -0.929  1.00  0.00     0.007 C 
BRANCH  26  27
HETATM   27  C2  UNL     1     -27.409  31.170  -0.150  1.00  0.00    -0.004 C 
HETATM   28  C1  UNL     1     -27.478  30.425   1.146  1.00  0.00     0.005 C 
ENDBRANCH  26  27
ENDBRANCH  25  26
ENDBRANCH  23  25
ENDBRANCH   1  23
BRANCH   7  29
HETATM   29  O4  UNL     1     -23.487  32.733   5.212  1.00  0.00    -0.359 OA
ATOM     30  H4  UNL     1     -22.626  32.708   5.612  1.00  0.00     0.217 HD
ENDBRANCH   7  29
TORSDOF 7
ENDMDL
MODEL 2
REMARK VINA RESULT: -5.740944598      2.142      4.238
REMARK  7 active torsions:
REMARK  status: ('A' for Active; 'I' for Inactive)
REMARK    1  A    between atoms: C2_2  and  C3_3 
REMARK    2  A    between atoms: C3_3  and  C4_4 
REMARK    3  A    between atoms: C4_4  and  C5_5 
REMARK    4  A    between atoms: C5_5  and  C6_7 
REMARK    5  A    between atoms: C8_9  and  C9_10 
REMARK    6  A    between atoms: C10_11  and  O2_12 
REMARK    7  A    between atoms: C18_24  and  O4_25 
ROOT
HETATM    1  C6  UNL     1     -23.354  33.296   1.273  1.00  0.00     0.022 C 
HETATM    2  C7  UNL     1     -22.219  33.976   1.298  1.00  0.00     0.026 C 
HETATM    3  C8  UNL     1     -21.610  34.555   0.117  1.00  0.00     0.189 C 
HETATM    4  O3  UNL     1     -22.426  34.502  -0.990  1.00  0.00    -0.336 OA
HETATM    5  C16 UNL     1     -23.596  33.796  -1.088  1.00  0.00     0.084 A 
HETATM    6  C17 UNL     1     -24.262  33.713  -2.315  1.00  0.00     0.076 A 
HETATM    7  C18 UNL     1     -25.439  33.009  -2.442  1.00  0.00     0.090 A 
HETATM    8  C19 UNL     1     -25.934  32.394  -1.319  1.00  0.00     0.068 A 
HETATM    9 CL3  UNL     1     -27.428  31.489  -1.432  1.00  0.00    -0.081 Cl
HETATM   10  C20 UNL     1     -25.289  32.461  -0.077  1.00  0.00     0.042 A 
HETATM   11  C21 UNL     1     -24.113  33.165   0.041  1.00  0.00     0.013 A 
ENDROOT
BRANCH   3  12
HETATM   12  C9  UNL     1     -21.015  35.900   0.258  1.00  0.00     0.016 A 
HETATM   13  C10 UNL     1     -21.865  36.981   0.342  1.00  0.00     0.077 A 
HETATM   14  C11 UNL     1     -21.394  38.295   0.442  1.00  0.00     0.062 A 
HETATM   15  C12 UNL     1     -20.042  38.544   0.460  1.00  0.00     0.059 A 
HETATM   16 CL1  UNL     1     -19.438  40.183   0.585  1.00  0.00    -0.082 Cl
HETATM   17  C13 UNL     1     -19.216  37.455   0.374  1.00  0.00     0.062 A 
HETATM   18 CL2  UNL     1     -17.491  37.739   0.393  1.00  0.00    -0.082 Cl
HETATM   19  C14 UNL     1     -19.666  36.135   0.272  1.00  0.00    -0.027 A 
HETATM   20  C15 UNL     1     -18.640  35.039   0.134  1.00  0.00     0.050 C 
BRANCH  13  21
HETATM   21  O2  UNL     1     -23.251  36.836   0.333  1.00  0.00    -0.360 OA
ATOM     22  H2  UNL     1     -23.714  36.367   1.018  1.00  0.00     0.217 HD
ENDBRANCH  13  21
ENDBRANCH   3  12
BRANCH   1  23
HETATM   23  C5  UNL     1     -23.893  32.736   2.536  1.00  0.00     0.160 C 
HETATM   24  O1  UNL     1     -24.624  33.311   3.340  1.00  0.00    -0.292 OA
BRANCH  23  25
HETATM   25  C4  UNL     1     -23.533  31.327   2.902  1.00  0.00     0.084 C 
BRANCH  25  26
HETATM   26  C3  UNL     1     -24.794  30.507   3.054  1.00  0.00     0.007 C 
BRANCH  26  27
HETATM   27  C2  UNL     1     -24.779  29.834   4.407  1.00  0.00    -0.004 C 
HETATM   28  C1  UNL     1     -25.912  30.259   5.288  1.00  0.00     0.005 C 
ENDBRANCH  26  27
ENDBRANCH  25  26
ENDBRANCH  23  25
ENDBRANCH   1  23
BRANCH   7  29
HETATM   29  O4  UNL     1     -26.055  32.959  -3.683  1.00  0.00    -0.359 OA
ATOM     30  H4  UNL     1     -26.252  33.774  -4.129  1.00  0.00     0.217 HD
ENDBRANCH   7  29
TORSDOF 7
ENDMDL
MODEL 3
REMARK VINA RESULT: -5.715913617      0.981      1.815
REMARK  7 active torsions:
REMARK  status: ('A' for Active; 'I' for Inactive)
REMARK    1  A    between atoms: C2_2  and  C3_3 
REMARK    2  A    between atoms: C3_3  and  C4_4 
REMARK    3  A    between atoms: C4_4  and  C5_5 
REMARK    4  A    between atoms: C5_5  and  C6_7 
REMARK    5  A    between atoms: C8_9  and  C9_10 
REMARK    6  A    between atoms: C10_11  and  O2_12 
REMARK    7  A    between atoms: C18_24  and  O4_25 
ROOT
HETATM    1  C6  UNL     1     -23.824  33.405  -0.533  1.00  0.00     0.022 C 
HETATM    2  C7  UNL     1     -23.381  34.575  -0.963  1.00  0.00     0.026 C 
HETATM    3  C8  UNL     1     -22.964  35.644  -0.076  1.00  0.00     0.189 C 
HETATM    4  O3  UNL     1     -22.883  35.250   1.240  1.00  0.00    -0.336 OA
HETATM    5  C16 UNL     1     -23.347  34.067   1.751  1.00  0.00     0.084 A 
HETATM    6  C17 UNL     1     -23.329  33.846   3.132  1.00  0.00     0.076 A 
HETATM    7  C18 UNL     1     -23.789  32.666   3.672  1.00  0.00     0.090 A 
HETATM    8  C19 UNL     1     -24.266  31.715   2.804  1.00  0.00     0.068 A 
HETATM    9 CL3  UNL     1     -24.862  30.199   3.445  1.00  0.00    -0.081 Cl
HETATM   10  C20 UNL     1     -24.296  31.909   1.417  1.00  0.00     0.042 A 
HETATM   11  C21 UNL     1     -23.834  33.091   0.885  1.00  0.00     0.013 A 
ENDROOT
BRANCH   3  12
HETATM   12  C9  UNL     1     -21.759  36.407  -0.464  1.00  0.00     0.016 A 
HETATM   13  C10 UNL     1     -20.526  35.865  -0.176  1.00  0.00     0.077 A 
HETATM   14  C11 UNL     1     -19.330  36.529  -0.473  1.00  0.00     0.062 A 
HETATM   15  C12 UNL     1     -19.359  37.766  -1.072  1.00  0.00     0.059 A 
HETATM   16 CL1  UNL     1     -17.871  38.609  -1.450  1.00  0.00    -0.082 Cl
HETATM   17  C13 UNL     1     -20.596  38.287  -1.348  1.00  0.00     0.062 A 
HETATM   18 CL2  UNL     1     -20.666  39.859  -2.109  1.00  0.00    -0.082 Cl
HETATM   19  C14 UNL     1     -21.801  37.639  -1.059  1.00  0.00    -0.027 A 
HETATM   20  C15 UNL     1     -23.090  38.356  -1.374  1.00  0.00     0.050 C 
BRANCH  13  21
HETATM   21  O2  UNL     1     -20.388  34.617   0.430  1.00  0.00    -0.360 OA
ATOM     22  H2  UNL     1     -19.593  34.360   0.881  1.00  0.00     0.217 HD
ENDBRANCH  13  21
ENDBRANCH   3  12
BRANCH   1  23
HETATM   23  C5  UNL     1     -24.235  32.377  -1.521  1.00  0.00     0.160 C 
HETATM   24  O1  UNL     1     -23.508  31.539  -2.051  1.00  0.00    -0.292 OA
BRANCH  23  25
HETATM   25  C4  UNL     1     -25.673  32.323  -1.938  1.00  0.00     0.084 C 
BRANCH  25  26
HETATM   26  C3  UNL     1     -26.014  33.563  -2.734  1.00  0.00     0.007 C 
BRANCH  26  27
HETATM   27  C2  UNL     1     -25.602  33.349  -4.172  1.00  0.00    -0.004 C 
HETATM   28  C1  UNL     1     -24.454  34.214  -4.589  1.00  0.00     0.005 C 
ENDBRANCH  26  27
ENDBRANCH  25  26
ENDBRANCH  23  25
ENDBRANCH   1  23
BRANCH   7  29
HETATM   29  O4  UNL     1     -23.749  32.502   5.048  1.00  0.00    -0.359 OA
ATOM     30  H4  UNL     1     -23.022  32.024   5.430  1.00  0.00     0.217 HD
ENDBRANCH   7  29
TORSDOF 7
ENDMDL
MODEL 4
REMARK VINA RESULT: -5.585860846      2.075      7.511
REMARK  7 active torsions:
REMARK  status: ('A' for Active; 'I' for Inactive)
REMARK    1  A    between atoms: C2_2  and  C3_3 
REMARK    2  A    between atoms: C3_3  and  C4_4 
REMARK    3  A    between atoms: C4_4  and  C5_5 
REMARK    4  A    between atoms: C5_5  and  C6_7 
REMARK    5  A    between atoms: C8_9  and  C9_10 
REMARK    6  A    between atoms: C10_11  and  O2_12 
REMARK    7  A    between atoms: C18_24  and  O4_25 
ROOT
HETATM    1  C6  UNL     1     -21.603  36.995  -0.556  1.00  0.00     0.022 C 
HETATM    2  C7  UNL     1     -22.462  36.005  -0.735  1.00  0.00     0.026 C 
HETATM    3  C8  UNL     1     -22.114  34.607  -0.572  1.00  0.00     0.189 C 
HETATM    4  O3  UNL     1     -20.868  34.425  -0.017  1.00  0.00    -0.336 OA
HETATM    5  C16 UNL     1     -19.925  35.401   0.170  1.00  0.00     0.084 A 
HETATM    6  C17 UNL     1     -18.644  35.061   0.616  1.00  0.00     0.076 A 
HETATM    7  C18 UNL     1     -17.677  36.021   0.811  1.00  0.00     0.090 A 
HETATM    8  C19 UNL     1     -18.018  37.325   0.552  1.00  0.00     0.068 A 
HETATM    9 CL3  UNL     1     -16.821  38.581   0.786  1.00  0.00    -0.081 Cl
HETATM   10  C20 UNL     1     -19.293  37.696   0.104  1.00  0.00     0.042 A 
HETATM   11  C21 UNL     1     -20.253  36.730  -0.088  1.00  0.00     0.013 A 
ENDROOT
BRANCH   3  12
HETATM   12  C9  UNL     1     -23.109  33.741   0.095  1.00  0.00     0.016 A 
HETATM   13  C10 UNL     1     -23.193  33.785   1.469  1.00  0.00     0.077 A 
HETATM   14  C11 UNL     1     -24.080  32.977   2.189  1.00  0.00     0.062 A 
HETATM   15  C12 UNL     1     -24.906  32.099   1.527  1.00  0.00     0.059 A 
HETATM   16 CL1  UNL     1     -26.021  31.081   2.415  1.00  0.00    -0.082 Cl
HETATM   17  C13 UNL     1     -24.804  32.070   0.162  1.00  0.00     0.062 A 
HETATM   18 CL2  UNL     1     -25.840  30.964  -0.709  1.00  0.00    -0.082 Cl
HETATM   19  C14 UNL     1     -23.924  32.870  -0.576  1.00  0.00    -0.027 A 
HETATM   20  C15 UNL     1     -23.886  32.694  -2.073  1.00  0.00     0.050 C 
BRANCH  13  21
HETATM   21  O2  UNL     1     -22.401  34.641   2.232  1.00  0.00    -0.360 OA
ATOM     22  H2  UNL     1     -21.983  34.358   3.037  1.00  0.00     0.217 HD
ENDBRANCH  13  21
ENDBRANCH   3  12
BRANCH   1  23
HETATM   23  C5  UNL     1     -22.054  38.394  -0.756  1.00  0.00     0.160 C 
HETATM   24  O1  UNL     1     -22.426  39.175   0.117  1.00  0.00    -0.292 OA
BRANCH  23  25
HETATM   25  C4  UNL     1     -22.070  38.946  -2.150  1.00  0.00     0.084 C 
BRANCH  25  26
HETATM   26  C3  UNL     1     -20.844  39.803  -2.367  1.00  0.00     0.007 C 
BRANCH  26  27
HETATM   27  C2  UNL     1     -20.110  39.305  -3.591  1.00  0.00    -0.004 C 
HETATM   28  C1  UNL     1     -18.723  38.829  -3.292  1.00  0.00     0.005 C 
ENDBRANCH  26  27
ENDBRANCH  25  26
ENDBRANCH  23  25
ENDBRANCH   1  23
BRANCH   7  29
HETATM   29  O4  UNL     1     -16.424  35.626   1.254  1.00  0.00    -0.359 OA
ATOM     30  H4  UNL     1     -15.795  35.304   0.619  1.00  0.00     0.217 HD
ENDBRANCH   7  29
TORSDOF 7
ENDMDL
MODEL 5
REMARK VINA RESULT: -5.572865850      1.598      3.745
REMARK  7 active torsions:
REMARK  status: ('A' for Active; 'I' for Inactive)
REMARK    1  A    between atoms: C2_2  and  C3_3 
REMARK    2  A    between atoms: C3_3  and  C4_4 
REMARK    3  A    between atoms: C4_4  and  C5_5 
REMARK    4  A    between atoms: C5_5  and  C6_7 
REMARK    5  A    between atoms: C8_9  and  C9_10 
REMARK    6  A    between atoms: C10_11  and  O2_12 
REMARK    7  A    between atoms: C18_24  and  O4_25 
ROOT
HETATM    1  C6  UNL     1     -23.235  34.181   2.303  1.00  0.00     0.022 C 
HETATM    2  C7  UNL     1     -22.090  34.720   1.917  1.00  0.00     0.026 C 
HETATM    3  C8  UNL     1     -21.500  34.491   0.613  1.00  0.00     0.189 C 
HETATM    4  O3  UNL     1     -22.343  33.828  -0.250  1.00  0.00    -0.336 OA
HETATM    5  C16 UNL     1     -23.526  33.227   0.092  1.00  0.00     0.084 A 
HETATM    6  C17 UNL     1     -24.222  32.465  -0.852  1.00  0.00     0.076 A 
HETATM    7  C18 UNL     1     -25.412  31.849  -0.536  1.00  0.00     0.090 A 
HETATM    8  C19 UNL     1     -25.889  32.011   0.742  1.00  0.00     0.068 A 
HETATM    9 CL3  UNL     1     -27.399  31.247   1.190  1.00  0.00    -0.081 Cl
HETATM   10  C20 UNL     1     -25.214  32.768   1.708  1.00  0.00     0.042 A 
HETATM   11  C21 UNL     1     -24.025  33.380   1.383  1.00  0.00     0.013 A 
ENDROOT
BRANCH   3  12
HETATM   12  C9  UNL     1     -20.882  35.654  -0.058  1.00  0.00     0.016 A 
HETATM   13  C10 UNL     1     -19.509  35.692  -0.160  1.00  0.00     0.077 A 
HETATM   14  C11 UNL     1     -18.834  36.768  -0.747  1.00  0.00     0.062 A 
HETATM   15  C12 UNL     1     -19.541  37.837  -1.247  1.00  0.00     0.059 A 
HETATM   16 CL1  UNL     1     -18.709  39.190  -1.985  1.00  0.00    -0.082 Cl
HETATM   17  C13 UNL     1     -20.904  37.778  -1.134  1.00  0.00     0.062 A 
HETATM   18 CL2  UNL     1     -21.831  39.122  -1.758  1.00  0.00    -0.082 Cl
HETATM   19  C14 UNL     1     -21.598  36.712  -0.550  1.00  0.00    -0.027 A 
HETATM   20  C15 UNL     1     -23.099  36.808  -0.449  1.00  0.00     0.050 C 
BRANCH  13  21
HETATM   21  O2  UNL     1     -18.702  34.660   0.314  1.00  0.00    -0.360 OA
ATOM     22  H2  UNL     1     -18.653  33.816  -0.121  1.00  0.00     0.217 HD
ENDBRANCH  13  21
ENDBRANCH   3  12
BRANCH   1  23
HETATM   23  C5  UNL     1     -23.753  34.470   3.663  1.00  0.00     0.160 C 
HETATM   24  O1  UNL     1     -24.563  35.342   3.968  1.00  0.00    -0.292 OA
BRANCH  23  25
HETATM   25  C4  UNL     1     -23.261  33.634   4.805  1.00  0.00     0.084 C 
BRANCH  25  26
HETATM   26  C3  UNL     1     -24.243  32.516   5.072  1.00  0.00     0.007 C 
BRANCH  26  27
HETATM   27  C2  UNL     1     -23.675  31.226   4.529  1.00  0.00    -0.004 C 
HETATM   28  C1  UNL     1     -24.694  30.134   4.419  1.00  0.00     0.005 C 
ENDBRANCH  26  27
ENDBRANCH  25  26
ENDBRANCH  23  25
ENDBRANCH   1  23
BRANCH   7  29
HETATM   29  O4  UNL     1     -26.058  31.106  -1.511  1.00  0.00    -0.359 OA
ATOM     30  H4  UNL     1     -26.148  30.168  -1.387  1.00  0.00     0.217 HD
ENDBRANCH   7  29
TORSDOF 7
ENDMDL
