MODEL 1
REMARK VINA RESULT: -6.514893522      0.000      0.000
REMARK  7 active torsions:
REMARK  status: ('A' for Active; 'I' for Inactive)
REMARK    1  A    between atoms: C2_2  and  C3_3 
REMARK    2  A    between atoms: C3_3  and  C4_4 
REMARK    3  A    between atoms: C5_5  and  O1_6 
REMARK    4  A    between atoms: O1_6  and  C6_7 
REMARK    5  A    between atoms: C6_7  and  C7_8 
REMARK    6  A    between atoms: C10_12  and  O2_13 
REMARK    7  A    between atoms: C12_16  and  O3_17 
ROOT
HETATM    1  C4  UNL     1     -24.954  31.984   0.700  1.00  0.00    -0.011 A 
HETATM    2  C5  UNL     1     -24.051  32.024   1.782  1.00  0.00     0.084 A 
HETATM    3  C13 UNL     1     -24.239  31.384   2.980  1.00  0.00    -0.004 A 
HETATM    4  C14 UNL     1     -23.193  31.519   4.041  1.00  0.00     0.053 C 
HETATM    5  C15 UNL     1     -25.370  30.661   3.136  1.00  0.00     0.077 A 
HETATM    6 CL2  UNL     1     -25.662  29.823   4.650  1.00  0.00    -0.081 Cl
HETATM    7  C16 UNL     1     -26.296  30.573   2.122  1.00  0.00     0.113 A 
HETATM    8  O4  UNL     1     -27.379  29.860   2.314  1.00  0.00    -0.272 OA
HETATM    9  C17 UNL     1     -28.293  29.724   1.416  1.00  0.00     0.310 A 
HETATM   10  O5  UNL     1     -29.304  29.028   1.664  1.00  0.00    -0.258 OA
HETATM   11  C18 UNL     1     -28.171  30.330   0.200  1.00  0.00     0.116 A 
HETATM   12 CL3  UNL     1     -29.400  30.170  -1.048  1.00  0.00    -0.077 Cl
HETATM   13  C19 UNL     1     -27.035  31.125  -0.105  1.00  0.00    -0.020 A 
HETATM   14  C20 UNL     1     -26.885  31.729  -1.409  1.00  0.00     0.051 C 
HETATM   15  C21 UNL     1     -26.094  31.237   0.888  1.00  0.00     0.017 A 
ENDROOT
BRANCH   2  16
HETATM   16  O1  UNL     1     -22.881  32.772   1.594  1.00  0.00    -0.345 OA
BRANCH  16  17
HETATM   17  C6  UNL     1     -22.885  34.143   1.972  1.00  0.00     0.217 C 
BRANCH  17  18
HETATM   18  C7  UNL     1     -21.965  34.940   1.137  1.00  0.00     0.001 A 
HETATM   19  C8  UNL     1     -20.592  34.831   1.175  1.00  0.00     0.038 A 
HETATM   20  C9  UNL     1     -19.750  35.596   0.382  1.00  0.00     0.067 A 
HETATM   21 CL1  UNL     1     -18.012  35.438   0.451  1.00  0.00    -0.081 Cl
HETATM   22  C10 UNL     1     -20.277  36.512  -0.493  1.00  0.00     0.090 A 
HETATM   23  C11 UNL     1     -21.659  36.643  -0.553  1.00  0.00     0.075 A 
HETATM   24  C12 UNL     1     -22.477  35.872   0.246  1.00  0.00     0.076 A 
BRANCH  22  25
HETATM   25  O2  UNL     1     -19.529  37.323  -1.328  1.00  0.00    -0.359 OA
ATOM     26  H2  UNL     1     -19.811  37.623  -2.185  1.00  0.00     0.217 HD
ENDBRANCH  22  25
BRANCH  24  27
HETATM   27  O3  UNL     1     -23.859  36.020   0.169  1.00  0.00    -0.360 OA
ATOM     28  H3  UNL     1     -24.252  36.140  -0.688  1.00  0.00     0.217 HD
ENDBRANCH  24  27
ENDBRANCH  17  18
ENDBRANCH  16  17
ENDBRANCH   2  16
BRANCH   1  29
HETATM   29  C3  UNL     1     -24.738  32.756  -0.500  1.00  0.00     0.042 C 
BRANCH  29  30
HETATM   30  C2  UNL     1     -23.568  32.291  -1.362  1.00  0.00     0.000 C 
HETATM   31  C1  UNL     1     -23.568  33.080  -2.623  1.00  0.00     0.005 C 
ENDBRANCH  29  30
ENDBRANCH   1  29
TORSDOF 7
ENDMDL
MODEL 2
REMARK VINA RESULT: -6.508529384      6.406      9.494
REMARK  7 active torsions:
REMARK  status: ('A' for Active; 'I' for Inactive)
REMARK    1  A    between atoms: C2_2  and  C3_3 
REMARK    2  A    between atoms: C3_3  and  C4_4 
REMARK    3  A    between atoms: C5_5  and  O1_6 
REMARK    4  A    between atoms: O1_6  and  C6_7 
REMARK    5  A    between atoms: C6_7  and  C7_8 
REMARK    6  A    between atoms: C10_12  and  O2_13 
REMARK    7  A    between atoms: C12_16  and  O3_17 
ROOT
HETATM    1  C4  UNL     1     -17.474  35.638   2.622  1.00  0.00    -0.011 A 
HETATM    2  C5  UNL     1     -17.039  35.576   3.961  1.00  0.00     0.084 A 
HETATM    3  C13 UNL     1     -17.820  35.857   5.051  1.00  0.00    -0.004 A 
HETATM    4  C14 UNL     1     -17.218  35.751   6.416  1.00  0.00     0.053 C 
HETATM    5  C15 UNL     1     -19.103  36.220   4.828  1.00  0.00     0.077 A 
HETATM    6 CL2  UNL     1     -20.148  36.594   6.188  1.00  0.00    -0.081 Cl
HETATM    7  C16 UNL     1     -19.601  36.299   3.548  1.00  0.00     0.113 A 
HETATM    8  O4  UNL     1     -20.851  36.653   3.376  1.00  0.00    -0.272 OA
HETATM    9  C17 UNL     1     -21.395  36.750   2.211  1.00  0.00     0.310 A 
HETATM   10  O5  UNL     1     -22.595  37.093   2.117  1.00  0.00    -0.258 OA
HETATM   11  C18 UNL     1     -20.677  36.481   1.082  1.00  0.00     0.116 A 
HETATM   12 CL3  UNL     1     -21.385  36.605  -0.523  1.00  0.00    -0.077 Cl
HETATM   13  C19 UNL     1     -19.315  36.090   1.164  1.00  0.00    -0.020 A 
HETATM   14  C20 UNL     1     -18.569  35.763  -0.029  1.00  0.00     0.051 C 
HETATM   15  C21 UNL     1     -18.786  36.006   2.428  1.00  0.00     0.017 A 
ENDROOT
BRANCH   2  16
HETATM   16  O1  UNL     1     -15.708  35.188   4.168  1.00  0.00    -0.345 OA
BRANCH  16  17
HETATM   17  C6  UNL     1     -15.381  33.807   4.075  1.00  0.00     0.217 C 
BRANCH  17  18
HETATM   18  C7  UNL     1     -13.953  33.566   4.359  1.00  0.00     0.001 A 
HETATM   19  C8  UNL     1     -13.101  32.880   3.522  1.00  0.00     0.038 A 
HETATM   20  C9  UNL     1     -11.763  32.664   3.815  1.00  0.00     0.067 A 
HETATM   21 CL1  UNL     1     -10.704  31.790   2.735  1.00  0.00    -0.081 Cl
HETATM   22  C10 UNL     1     -11.232  33.144   4.986  1.00  0.00     0.090 A 
HETATM   23  C11 UNL     1     -12.068  33.840   5.850  1.00  0.00     0.075 A 
HETATM   24  C12 UNL     1     -13.396  34.042   5.537  1.00  0.00     0.076 A 
BRANCH  22  25
HETATM   25  O2  UNL     1      -9.914  32.985   5.375  1.00  0.00    -0.359 OA
ATOM     26  H2  UNL     1      -9.577  33.186   6.241  1.00  0.00     0.217 HD
ENDBRANCH  22  25
BRANCH  24  27
HETATM   27  O3  UNL     1     -14.215  34.743   6.418  1.00  0.00    -0.360 OA
ATOM     28  H3  UNL     1     -13.805  35.310   7.060  1.00  0.00     0.217 HD
ENDBRANCH  24  27
ENDBRANCH  17  18
ENDBRANCH  16  17
ENDBRANCH   2  16
BRANCH   1  29
HETATM   29  C3  UNL     1     -16.574  35.418   1.516  1.00  0.00     0.042 C 
BRANCH  29  30
HETATM   30  C2  UNL     1     -15.458  36.450   1.380  1.00  0.00     0.000 C 
HETATM   31  C1  UNL     1     -14.181  35.732   1.122  1.00  0.00     0.005 C 
ENDBRANCH  29  30
ENDBRANCH   1  29
TORSDOF 7
ENDMDL
MODEL 3
REMARK VINA RESULT: -6.153801593      6.773      9.932
REMARK  7 active torsions:
REMARK  status: ('A' for Active; 'I' for Inactive)
REMARK    1  A    between atoms: C2_2  and  C3_3 
REMARK    2  A    between atoms: C3_3  and  C4_4 
REMARK    3  A    between atoms: C5_5  and  O1_6 
REMARK    4  A    between atoms: O1_6  and  C6_7 
REMARK    5  A    between atoms: C6_7  and  C7_8 
REMARK    6  A    between atoms: C10_12  and  O2_13 
REMARK    7  A    between atoms: C12_16  and  O3_17 
ROOT
HETATM    1  C4  UNL     1     -17.042  35.498   2.798  1.00  0.00    -0.011 A 
HETATM    2  C5  UNL     1     -16.507  35.556   4.100  1.00  0.00     0.084 A 
HETATM    3  C13 UNL     1     -17.231  35.831   5.231  1.00  0.00    -0.004 A 
HETATM    4  C14 UNL     1     -16.525  35.862   6.549  1.00  0.00     0.053 C 
HETATM    5  C15 UNL     1     -18.555  36.062   5.089  1.00  0.00     0.077 A 
HETATM    6 CL2  UNL     1     -19.530  36.421   6.503  1.00  0.00    -0.081 Cl
HETATM    7  C16 UNL     1     -19.149  36.019   3.849  1.00  0.00     0.113 A 
HETATM    8  O4  UNL     1     -20.436  36.246   3.755  1.00  0.00    -0.272 OA
HETATM    9  C17 UNL     1     -21.070  36.223   2.633  1.00  0.00     0.310 A 
HETATM   10  O5  UNL     1     -22.301  36.450   2.614  1.00  0.00    -0.258 OA
HETATM   11  C18 UNL     1     -20.413  35.952   1.468  1.00  0.00     0.116 A 
HETATM   12 CL3  UNL     1     -21.244  35.915  -0.082  1.00  0.00    -0.077 Cl
HETATM   13  C19 UNL     1     -19.018  35.692   1.464  1.00  0.00    -0.020 A 
HETATM   14  C20 UNL     1     -18.332  35.363   0.236  1.00  0.00     0.051 C 
HETATM   15  C21 UNL     1     -18.394  35.733   2.686  1.00  0.00     0.017 A 
ENDROOT
BRANCH   2  16
HETATM   16  O1  UNL     1     -15.134  35.304   4.224  1.00  0.00    -0.345 OA
BRANCH  16  17
HETATM   17  C6  UNL     1     -14.691  33.953   4.237  1.00  0.00     0.217 C 
BRANCH  17  18
HETATM   18  C7  UNL     1     -13.408  33.808   4.954  1.00  0.00     0.001 A 
HETATM   19  C8  UNL     1     -13.183  34.250   6.239  1.00  0.00     0.038 A 
HETATM   20  C9  UNL     1     -11.966  34.104   6.887  1.00  0.00     0.067 A 
HETATM   21 CL1  UNL     1     -11.708  34.676   8.517  1.00  0.00    -0.081 Cl
HETATM   22  C10 UNL     1     -10.917  33.494   6.247  1.00  0.00     0.090 A 
HETATM   23  C11 UNL     1     -11.116  33.037   4.950  1.00  0.00     0.075 A 
HETATM   24  C12 UNL     1     -12.336  33.193   4.324  1.00  0.00     0.076 A 
BRANCH  22  25
HETATM   25  O2  UNL     1      -9.665  33.297   6.800  1.00  0.00    -0.359 OA
ATOM     26  H2  UNL     1      -9.392  32.508   7.253  1.00  0.00     0.217 HD
ENDBRANCH  22  25
BRANCH  24  27
HETATM   27  O3  UNL     1     -12.511  32.728   3.025  1.00  0.00    -0.360 OA
ATOM     28  H3  UNL     1     -12.104  33.209   2.315  1.00  0.00     0.217 HD
ENDBRANCH  24  27
ENDBRANCH  17  18
ENDBRANCH  16  17
ENDBRANCH   2  16
BRANCH   1  29
HETATM   29  C3  UNL     1     -16.207  35.293   1.639  1.00  0.00     0.042 C 
BRANCH  29  30
HETATM   30  C2  UNL     1     -15.199  36.406   1.368  1.00  0.00     0.000 C 
HETATM   31  C1  UNL     1     -13.878  35.786   1.077  1.00  0.00     0.005 C 
ENDBRANCH  29  30
ENDBRANCH   1  29
TORSDOF 7
ENDMDL
MODEL 4
REMARK VINA RESULT: -5.820485084      4.289      7.759
REMARK  7 active torsions:
REMARK  status: ('A' for Active; 'I' for Inactive)
REMARK    1  A    between atoms: C2_2  and  C3_3 
REMARK    2  A    between atoms: C3_3  and  C4_4 
REMARK    3  A    between atoms: C5_5  and  O1_6 
REMARK    4  A    between atoms: O1_6  and  C6_7 
REMARK    5  A    between atoms: C6_7  and  C7_8 
REMARK    6  A    between atoms: C10_12  and  O2_13 
REMARK    7  A    between atoms: C12_16  and  O3_17 
ROOT
HETATM    1  C4  UNL     1     -24.816  32.257   3.399  1.00  0.00    -0.011 A 
HETATM    2  C5  UNL     1     -24.288  32.970   4.494  1.00  0.00     0.084 A 
HETATM    3  C13 UNL     1     -23.371  33.984   4.398  1.00  0.00    -0.004 A 
HETATM    4  C14 UNL     1     -22.898  34.650   5.651  1.00  0.00     0.053 C 
HETATM    5  C15 UNL     1     -22.941  34.327   3.163  1.00  0.00     0.077 A 
HETATM    6 CL2  UNL     1     -21.765  35.617   2.981  1.00  0.00    -0.081 Cl
HETATM    7  C16 UNL     1     -23.414  33.678   2.046  1.00  0.00     0.113 A 
HETATM    8  O4  UNL     1     -22.973  34.043   0.867  1.00  0.00    -0.272 OA
HETATM    9  C17 UNL     1     -23.366  33.488  -0.228  1.00  0.00     0.310 A 
HETATM   10  O5  UNL     1     -22.904  33.885  -1.321  1.00  0.00    -0.258 OA
HETATM   11  C18 UNL     1     -24.280  32.475  -0.207  1.00  0.00     0.116 A 
HETATM   12 CL3  UNL     1     -24.837  31.693  -1.681  1.00  0.00    -0.077 Cl
HETATM   13  C19 UNL     1     -24.818  32.008   1.021  1.00  0.00    -0.020 A 
HETATM   14  C20 UNL     1     -25.818  30.965   1.039  1.00  0.00     0.051 C 
HETATM   15  C21 UNL     1     -24.362  32.632   2.155  1.00  0.00     0.017 A 
ENDROOT
BRANCH   2  16
HETATM   16  O1  UNL     1     -24.756  32.603   5.764  1.00  0.00    -0.345 OA
BRANCH  16  17
HETATM   17  C6  UNL     1     -25.944  33.215   6.251  1.00  0.00     0.217 C 
BRANCH  17  18
HETATM   18  C7  UNL     1     -26.158  32.922   7.683  1.00  0.00     0.001 A 
HETATM   19  C8  UNL     1     -25.443  33.500   8.708  1.00  0.00     0.038 A 
HETATM   20  C9  UNL     1     -25.663  33.203  10.045  1.00  0.00     0.067 A 
HETATM   21 CL1  UNL     1     -24.740  33.951  11.326  1.00  0.00    -0.081 Cl
HETATM   22  C10 UNL     1     -26.630  32.297  10.396  1.00  0.00     0.090 A 
HETATM   23  C11 UNL     1     -27.368  31.698   9.382  1.00  0.00     0.075 A 
HETATM   24  C12 UNL     1     -27.132  32.008   8.059  1.00  0.00     0.076 A 
BRANCH  22  25
HETATM   25  O2  UNL     1     -26.931  31.930  11.696  1.00  0.00    -0.359 OA
ATOM     26  H2  UNL     1     -27.587  31.287  11.938  1.00  0.00     0.217 HD
ENDBRANCH  22  25
BRANCH  24  27
HETATM   27  O3  UNL     1     -27.883  31.396   7.060  1.00  0.00    -0.360 OA
ATOM     28  H3  UNL     1     -28.830  31.421   7.129  1.00  0.00     0.217 HD
ENDBRANCH  24  27
ENDBRANCH  17  18
ENDBRANCH  16  17
ENDBRANCH   2  16
BRANCH   1  29
HETATM   29  C3  UNL     1     -25.711  31.138   3.578  1.00  0.00     0.042 C 
BRANCH  29  30
HETATM   30  C2  UNL     1     -25.030  29.823   3.947  1.00  0.00     0.000 C 
HETATM   31  C1  UNL     1     -25.443  29.449   5.326  1.00  0.00     0.005 C 
ENDBRANCH  29  30
ENDBRANCH   1  29
TORSDOF 7
ENDMDL
MODEL 5
REMARK VINA RESULT: -5.809456441      4.348      7.574
REMARK  7 active torsions:
REMARK  status: ('A' for Active; 'I' for Inactive)
REMARK    1  A    between atoms: C2_2  and  C3_3 
REMARK    2  A    between atoms: C3_3  and  C4_4 
REMARK    3  A    between atoms: C5_5  and  O1_6 
REMARK    4  A    between atoms: O1_6  and  C6_7 
REMARK    5  A    between atoms: C6_7  and  C7_8 
REMARK    6  A    between atoms: C10_12  and  O2_13 
REMARK    7  A    between atoms: C12_16  and  O3_17 
ROOT
HETATM    1  C4  UNL     1     -24.854  32.230   3.360  1.00  0.00    -0.011 A 
HETATM    2  C5  UNL     1     -24.277  32.959   4.419  1.00  0.00     0.084 A 
HETATM    3  C13 UNL     1     -23.371  33.976   4.264  1.00  0.00    -0.004 A 
HETATM    4  C14 UNL     1     -22.840  34.659   5.484  1.00  0.00     0.053 C 
HETATM    5  C15 UNL     1     -23.005  34.306   3.006  1.00  0.00     0.077 A 
HETATM    6 CL2  UNL     1     -21.847  35.600   2.750  1.00  0.00    -0.081 Cl
HETATM    7  C16 UNL     1     -23.530  33.641   1.921  1.00  0.00     0.113 A 
HETATM    8  O4  UNL     1     -23.150  33.994   0.718  1.00  0.00    -0.272 OA
HETATM    9  C17 UNL     1     -23.594  33.424  -0.349  1.00  0.00     0.310 A 
HETATM   10  O5  UNL     1     -23.190  33.810  -1.469  1.00  0.00    -0.258 OA
HETATM   11  C18 UNL     1     -24.500  32.407  -0.271  1.00  0.00     0.116 A 
HETATM   12 CL3  UNL     1     -25.126  31.604  -1.705  1.00  0.00    -0.077 Cl
HETATM   13  C19 UNL     1     -24.973  31.952   0.988  1.00  0.00    -0.020 A 
HETATM   14  C20 UNL     1     -25.966  30.905   1.068  1.00  0.00     0.051 C 
HETATM   15  C21 UNL     1     -24.465  32.592   2.091  1.00  0.00     0.017 A 
ENDROOT
BRANCH   2  16
HETATM   16  O1  UNL     1     -24.678  32.605   5.714  1.00  0.00    -0.345 OA
BRANCH  16  17
HETATM   17  C6  UNL     1     -25.930  33.084   6.190  1.00  0.00     0.217 C 
BRANCH  17  18
HETATM   18  C7  UNL     1     -25.950  33.181   7.664  1.00  0.00     0.001 A 
HETATM   19  C8  UNL     1     -26.165  32.114   8.508  1.00  0.00     0.038 A 
HETATM   20  C9  UNL     1     -26.183  32.235   9.889  1.00  0.00     0.067 A 
HETATM   21 CL1  UNL     1     -26.460  30.865  10.938  1.00  0.00    -0.081 Cl
HETATM   22  C10 UNL     1     -25.978  33.459  10.474  1.00  0.00     0.090 A 
HETATM   23  C11 UNL     1     -25.757  34.553   9.646  1.00  0.00     0.075 A 
HETATM   24  C12 UNL     1     -25.745  34.410   8.274  1.00  0.00     0.076 A 
BRANCH  22  25
HETATM   25  O2  UNL     1     -25.975  33.689  11.838  1.00  0.00    -0.359 OA
ATOM     26  H2  UNL     1     -26.679  33.447  12.429  1.00  0.00     0.217 HD
ENDBRANCH  22  25
BRANCH  24  27
HETATM   27  O3  UNL     1     -25.522  35.519   7.465  1.00  0.00    -0.360 OA
ATOM     28  H3  UNL     1     -24.703  35.990   7.562  1.00  0.00     0.217 HD
ENDBRANCH  24  27
ENDBRANCH  17  18
ENDBRANCH  16  17
ENDBRANCH   2  16
BRANCH   1  29
HETATM   29  C3  UNL     1     -25.733  31.109   3.597  1.00  0.00     0.042 C 
BRANCH  29  30
HETATM   30  C2  UNL     1     -25.031  29.819   4.010  1.00  0.00     0.000 C 
HETATM   31  C1  UNL     1     -25.489  29.450   5.376  1.00  0.00     0.005 C 
ENDBRANCH  29  30
ENDBRANCH   1  29
TORSDOF 7
ENDMDL
