MODEL 1
REMARK VINA RESULT: -5.920632856      0.000      0.000
REMARK  8 active torsions:
REMARK  status: ('A' for Active; 'I' for Inactive)
REMARK    1  A    between atoms: C2_2  and  C3_3 
REMARK    2  A    between atoms: C3_3  and  C5_5 
REMARK    3  A    between atoms: C7_8  and  C8_9 
REMARK    4  A    between atoms: C8_9  and  C9_10 
REMARK    5  A    between atoms: C11_12  and  O1_13 
REMARK    6  A    between atoms: C13_16  and  O2_17 
REMARK    7  A    between atoms: C14_19  and  C15_20 
REMARK    8  A    between atoms: C18_25  and  O3_26 
ROOT
HETATM    1  C5  UNL     1     -25.290  31.444   3.926  1.00  0.00     0.002 A 
HETATM    2  C6  UNL     1     -24.260  32.388   3.674  1.00  0.00     0.052 A 
HETATM    3 CL1  UNL     1     -23.580  33.141   5.140  1.00  0.00    -0.083 Cl
HETATM    4  C7  UNL     1     -23.860  32.787   2.459  1.00  0.00     0.003 A 
HETATM    5  C16 UNL     1     -24.532  32.207   1.362  1.00  0.00     0.091 A 
HETATM    6  C17 UNL     1     -25.534  31.300   1.531  1.00  0.00     0.032 A 
HETATM    7  C18 UNL     1     -25.930  30.902   2.840  1.00  0.00     0.089 A 
HETATM    8  C20 UNL     1     -26.255  30.828   0.370  1.00  0.00     0.016 C 
HETATM    9  C21 UNL     1     -25.946  31.294  -0.841  1.00  0.00     0.012 C 
HETATM   10  C22 UNL     1     -24.889  32.297  -1.083  1.00  0.00     0.078 C 
HETATM   11  C23 UNL     1     -23.903  31.895  -2.172  1.00  0.00     0.051 C 
HETATM   12  C24 UNL     1     -25.635  33.567  -1.532  1.00  0.00     0.051 C 
HETATM   13  O4  UNL     1     -24.141  32.572   0.085  1.00  0.00    -0.335 OA
ENDROOT
BRANCH   4  14
HETATM   14  C8  UNL     1     -22.915  33.843   2.181  1.00  0.00     0.082 C 
BRANCH  14  15
HETATM   15  C9  UNL     1     -23.336  35.229   2.025  1.00  0.00    -0.037 A 
HETATM   16  C10 UNL     1     -24.124  35.928   2.903  1.00  0.00     0.044 A 
HETATM   17  C11 UNL     1     -24.500  37.238   2.619  1.00  0.00     0.068 A 
HETATM   18  C12 UNL     1     -24.109  37.870   1.495  1.00  0.00     0.073 A 
HETATM   19  C13 UNL     1     -23.298  37.180   0.584  1.00  0.00     0.080 A 
HETATM   20  C14 UNL     1     -22.910  35.864   0.837  1.00  0.00     0.045 A 
BRANCH  17  21
HETATM   21  O1  UNL     1     -25.316  37.890   3.553  1.00  0.00    -0.361 OA
ATOM     22  H1  UNL     1     -26.126  38.270   3.234  1.00  0.00     0.217 HD
ENDBRANCH  17  21
BRANCH  19  23
HETATM   23  O2  UNL     1     -22.904  37.853  -0.564  1.00  0.00    -0.360 OA
ATOM     24  H2  UNL     1     -23.280  38.711  -0.722  1.00  0.00     0.217 HD
ENDBRANCH  19  23
BRANCH  20  25
HETATM   25  C15 UNL     1     -22.066  35.150  -0.139  1.00  0.00     0.390 C 
HETATM   26  F1  UNL     1     -20.886  35.893  -0.272  1.00  0.00    -0.209 F 
HETATM   27  F2  UNL     1     -22.708  34.996  -1.373  1.00  0.00    -0.209 F 
ENDBRANCH  20  25
ENDBRANCH  14  15
ENDBRANCH   4  14
BRANCH   1  28
HETATM   28  C3  UNL     1     -25.412  30.922   5.305  1.00  0.00     0.019 C 
HETATM   29  C4  UNL     1     -25.206  29.353   5.164  1.00  0.00     0.015 C 
BRANCH  28  30
HETATM   30  C2  UNL     1     -26.708  31.090   6.015  1.00  0.00     0.004 C 
HETATM   31  C1  UNL     1     -26.448  31.808   7.366  1.00  0.00     0.006 C 
ENDBRANCH  28  30
ENDBRANCH   1  28
BRANCH   7  32
HETATM   32  O3  UNL     1     -26.948  29.992   2.872  1.00  0.00    -0.354 OA
HETATM   33  C19 UNL     1     -28.341  30.262   3.027  1.00  0.00     0.210 C 
ENDBRANCH   7  32
TORSDOF 8
ENDMDL
MODEL 2
REMARK VINA RESULT: -5.902065772      1.995      2.946
REMARK  8 active torsions:
REMARK  status: ('A' for Active; 'I' for Inactive)
REMARK    1  A    between atoms: C2_2  and  C3_3 
REMARK    2  A    between atoms: C3_3  and  C5_5 
REMARK    3  A    between atoms: C7_8  and  C8_9 
REMARK    4  A    between atoms: C8_9  and  C9_10 
REMARK    5  A    between atoms: C11_12  and  O1_13 
REMARK    6  A    between atoms: C13_16  and  O2_17 
REMARK    7  A    between atoms: C14_19  and  C15_20 
REMARK    8  A    between atoms: C18_25  and  O3_26 
ROOT
HETATM    1  C5  UNL     1     -24.614  32.476   2.830  1.00  0.00     0.002 A 
HETATM    2  C6  UNL     1     -23.993  33.717   2.530  1.00  0.00     0.052 A 
HETATM    3 CL1  UNL     1     -23.517  34.664   3.965  1.00  0.00    -0.083 Cl
HETATM    4  C7  UNL     1     -23.840  34.225   1.301  1.00  0.00     0.003 A 
HETATM    5  C16 UNL     1     -24.343  33.445   0.238  1.00  0.00     0.091 A 
HETATM    6  C17 UNL     1     -24.957  32.248   0.454  1.00  0.00     0.032 A 
HETATM    7  C18 UNL     1     -25.101  31.742   1.778  1.00  0.00     0.089 A 
HETATM    8  C20 UNL     1     -25.547  31.552  -0.667  1.00  0.00     0.016 C 
HETATM    9  C21 UNL     1     -25.502  32.092  -1.886  1.00  0.00     0.012 C 
HETATM   10  C22 UNL     1     -24.875  33.398  -2.176  1.00  0.00     0.078 C 
HETATM   11  C23 UNL     1     -23.887  33.358  -3.334  1.00  0.00     0.051 C 
HETATM   12  C24 UNL     1     -26.042  34.330  -2.549  1.00  0.00     0.051 C 
HETATM   13  O4  UNL     1     -24.189  33.919  -1.054  1.00  0.00    -0.335 OA
ENDROOT
BRANCH   4  14
HETATM   14  C8  UNL     1     -23.338  35.542   0.983  1.00  0.00     0.082 C 
BRANCH  14  15
HETATM   15  C9  UNL     1     -21.969  35.754   0.532  1.00  0.00    -0.037 A 
HETATM   16  C10 UNL     1     -20.864  35.083   0.991  1.00  0.00     0.044 A 
HETATM   17  C11 UNL     1     -19.597  35.410   0.515  1.00  0.00     0.068 A 
HETATM   18  C12 UNL     1     -19.402  36.374  -0.405  1.00  0.00     0.073 A 
HETATM   19  C13 UNL     1     -20.515  37.071  -0.895  1.00  0.00     0.080 A 
HETATM   20  C14 UNL     1     -21.797  36.771  -0.433  1.00  0.00     0.045 A 
BRANCH  17  21
HETATM   21  O1  UNL     1     -18.510  34.695   1.036  1.00  0.00    -0.361 OA
ATOM     22  H1  UNL     1     -17.700  35.172   1.172  1.00  0.00     0.217 HD
ENDBRANCH  17  21
BRANCH  19  23
HETATM   23  O2  UNL     1     -20.290  38.056  -1.846  1.00  0.00    -0.360 OA
ATOM     24  H2  UNL     1     -19.515  38.596  -1.745  1.00  0.00     0.217 HD
ENDBRANCH  19  23
BRANCH  20  25
HETATM   25  C15 UNL     1     -22.955  37.522  -0.952  1.00  0.00     0.390 C 
HETATM   26  F1  UNL     1     -23.140  37.114  -2.279  1.00  0.00    -0.209 F 
HETATM   27  F2  UNL     1     -22.761  38.906  -0.872  1.00  0.00    -0.209 F 
ENDBRANCH  20  25
ENDBRANCH  14  15
ENDBRANCH   4  14
BRANCH   1  28
HETATM   28  C3  UNL     1     -24.454  31.948   4.204  1.00  0.00     0.019 C 
HETATM   29  C4  UNL     1     -23.184  30.997   4.126  1.00  0.00     0.015 C 
BRANCH  28  30
HETATM   30  C2  UNL     1     -25.543  31.112   4.773  1.00  0.00     0.004 C 
HETATM   31  C1  UNL     1     -25.007  29.672   4.988  1.00  0.00     0.006 C 
ENDBRANCH  28  30
ENDBRANCH   1  28
BRANCH   7  32
HETATM   32  O3  UNL     1     -25.737  30.537   1.857  1.00  0.00    -0.354 OA
HETATM   33  C19 UNL     1     -27.144  30.308   1.933  1.00  0.00     0.210 C 
ENDBRANCH   7  32
TORSDOF 8
ENDMDL
MODEL 3
REMARK VINA RESULT: -5.670134332      9.476     11.173
REMARK  8 active torsions:
REMARK  status: ('A' for Active; 'I' for Inactive)
REMARK    1  A    between atoms: C2_2  and  C3_3 
REMARK    2  A    between atoms: C3_3  and  C5_5 
REMARK    3  A    between atoms: C7_8  and  C8_9 
REMARK    4  A    between atoms: C8_9  and  C9_10 
REMARK    5  A    between atoms: C11_12  and  O1_13 
REMARK    6  A    between atoms: C13_16  and  O2_17 
REMARK    7  A    between atoms: C14_19  and  C15_20 
REMARK    8  A    between atoms: C18_25  and  O3_26 
ROOT
HETATM    1  C5  UNL     1     -17.021  35.663   7.465  1.00  0.00     0.002 A 
HETATM    2  C6  UNL     1     -15.669  35.729   7.037  1.00  0.00     0.052 A 
HETATM    3 CL1  UNL     1     -14.479  35.730   8.364  1.00  0.00    -0.083 Cl
HETATM    4  C7  UNL     1     -15.269  35.876   5.767  1.00  0.00     0.003 A 
HETATM    5  C16 UNL     1     -16.292  35.969   4.799  1.00  0.00     0.091 A 
HETATM    6  C17 UNL     1     -17.610  35.921   5.140  1.00  0.00     0.032 A 
HETATM    7  C18 UNL     1     -17.995  35.764   6.503  1.00  0.00     0.089 A 
HETATM    8  C20 UNL     1     -18.608  36.132   4.115  1.00  0.00     0.016 C 
HETATM    9  C21 UNL     1     -18.230  36.388   2.862  1.00  0.00     0.012 C 
HETATM   10  C22 UNL     1     -16.818  36.480   2.438  1.00  0.00     0.078 C 
HETATM   11  C23 UNL     1     -16.489  35.630   1.218  1.00  0.00     0.051 C 
HETATM   12  C24 UNL     1     -16.600  37.962   2.085  1.00  0.00     0.051 C 
HETATM   13  O4  UNL     1     -15.929  36.101   3.470  1.00  0.00    -0.335 OA
ENDROOT
BRANCH   4  14
HETATM   14  C8  UNL     1     -13.910  36.083   5.323  1.00  0.00     0.082 C 
BRANCH  14  15
HETATM   15  C9  UNL     1     -13.022  34.968   5.023  1.00  0.00    -0.037 A 
HETATM   16  C10 UNL     1     -13.288  33.950   4.143  1.00  0.00     0.044 A 
HETATM   17  C11 UNL     1     -12.376  32.911   3.976  1.00  0.00     0.068 A 
HETATM   18  C12 UNL     1     -11.212  32.862   4.652  1.00  0.00     0.073 A 
HETATM   19  C13 UNL     1     -10.913  33.893   5.553  1.00  0.00     0.080 A 
HETATM   20  C14 UNL     1     -11.809  34.945   5.746  1.00  0.00     0.045 A 
BRANCH  17  21
HETATM   21  O1  UNL     1     -12.716  31.896   3.071  1.00  0.00    -0.361 OA
ATOM     22  H1  UNL     1     -12.224  31.085   3.120  1.00  0.00     0.217 HD
ENDBRANCH  17  21
BRANCH  19  23
HETATM   23  O2  UNL     1      -9.706  33.824   6.233  1.00  0.00    -0.360 OA
ATOM     24  H2  UNL     1      -9.467  32.990   6.620  1.00  0.00     0.217 HD
ENDBRANCH  19  23
BRANCH  20  25
HETATM   25  C15 UNL     1     -11.483  36.016   6.707  1.00  0.00     0.390 C 
HETATM   26  F1  UNL     1     -10.359  36.681   6.203  1.00  0.00    -0.209 F 
HETATM   27  F2  UNL     1     -11.239  35.512   7.989  1.00  0.00    -0.209 F 
ENDBRANCH  20  25
ENDBRANCH  14  15
ENDBRANCH   4  14
BRANCH   1  28
HETATM   28  C3  UNL     1     -17.274  35.229   8.857  1.00  0.00     0.019 C 
HETATM   29  C4  UNL     1     -18.276  34.003   8.723  1.00  0.00     0.015 C 
BRANCH  28  30
HETATM   30  C2  UNL     1     -17.935  36.182   9.788  1.00  0.00     0.004 C 
HETATM   31  C1  UNL     1     -19.157  35.480  10.437  1.00  0.00     0.006 C 
ENDBRANCH  28  30
ENDBRANCH   1  28
BRANCH   7  32
HETATM   32  O3  UNL     1     -19.344  35.735   6.710  1.00  0.00    -0.354 OA
HETATM   33  C19 UNL     1     -20.183  36.829   7.081  1.00  0.00     0.210 C 
ENDBRANCH   7  32
TORSDOF 8
ENDMDL
MODEL 4
REMARK VINA RESULT: -5.649387178      2.478      4.847
REMARK  8 active torsions:
REMARK  status: ('A' for Active; 'I' for Inactive)
REMARK    1  A    between atoms: C2_2  and  C3_3 
REMARK    2  A    between atoms: C3_3  and  C5_5 
REMARK    3  A    between atoms: C7_8  and  C8_9 
REMARK    4  A    between atoms: C8_9  and  C9_10 
REMARK    5  A    between atoms: C11_12  and  O1_13 
REMARK    6  A    between atoms: C13_16  and  O2_17 
REMARK    7  A    between atoms: C14_19  and  C15_20 
REMARK    8  A    between atoms: C18_25  and  O3_26 
ROOT
HETATM    1  C5  UNL     1     -25.380  31.820   3.019  1.00  0.00     0.002 A 
HETATM    2  C6  UNL     1     -25.419  31.612   1.615  1.00  0.00     0.052 A 
HETATM    3 CL1  UNL     1     -26.301  30.145   1.117  1.00  0.00    -0.083 Cl
HETATM    4  C7  UNL     1     -24.785  32.364   0.706  1.00  0.00     0.003 A 
HETATM    5  C16 UNL     1     -24.028  33.443   1.210  1.00  0.00     0.091 A 
HETATM    6  C17 UNL     1     -23.941  33.697   2.545  1.00  0.00     0.032 A 
HETATM    7  C18 UNL     1     -24.630  32.872   3.481  1.00  0.00     0.089 A 
HETATM    8  C20 UNL     1     -23.061  34.749   3.002  1.00  0.00     0.016 C 
HETATM    9  C21 UNL     1     -22.337  35.441   2.121  1.00  0.00     0.012 C 
HETATM   10  C22 UNL     1     -22.368  35.192   0.665  1.00  0.00     0.078 C 
HETATM   11  C23 UNL     1     -22.596  36.449  -0.165  1.00  0.00     0.051 C 
HETATM   12  C24 UNL     1     -20.982  34.616   0.325  1.00  0.00     0.051 C 
HETATM   13  O4  UNL     1     -23.372  34.262   0.307  1.00  0.00    -0.335 OA
ENDROOT
BRANCH   4  14
HETATM   14  C8  UNL     1     -24.697  32.090  -0.710  1.00  0.00     0.082 C 
BRANCH  14  15
HETATM   15  C9  UNL     1     -25.763  32.462  -1.631  1.00  0.00    -0.037 A 
HETATM   16  C10 UNL     1     -27.078  32.087  -1.524  1.00  0.00     0.044 A 
HETATM   17  C11 UNL     1     -27.998  32.467  -2.498  1.00  0.00     0.068 A 
HETATM   18  C12 UNL     1     -27.648  33.212  -3.565  1.00  0.00     0.073 A 
HETATM   19  C13 UNL     1     -26.311  33.613  -3.695  1.00  0.00     0.080 A 
HETATM   20  C14 UNL     1     -25.365  33.243  -2.739  1.00  0.00     0.045 A 
BRANCH  17  21
HETATM   21  O1  UNL     1     -29.322  32.039  -2.334  1.00  0.00    -0.361 OA
ATOM     22  H1  UNL     1     -30.008  32.681  -2.473  1.00  0.00     0.217 HD
ENDBRANCH  17  21
BRANCH  19  23
HETATM   23  O2  UNL     1     -25.976  34.384  -4.798  1.00  0.00    -0.360 OA
ATOM     24  H2  UNL     1     -25.089  34.313  -5.132  1.00  0.00     0.217 HD
ENDBRANCH  19  23
BRANCH  20  25
HETATM   25  C15 UNL     1     -23.961  33.665  -2.898  1.00  0.00     0.390 C 
HETATM   26  F1  UNL     1     -23.956  35.065  -2.878  1.00  0.00    -0.209 F 
HETATM   27  F2  UNL     1     -23.398  33.176  -4.082  1.00  0.00    -0.209 F 
ENDBRANCH  20  25
ENDBRANCH  14  15
ENDBRANCH   4  14
BRANCH   1  28
HETATM   28  C3  UNL     1     -26.349  31.068   3.846  1.00  0.00     0.019 C 
HETATM   29  C4  UNL     1     -27.509  32.108   4.157  1.00  0.00     0.015 C 
BRANCH  28  30
HETATM   30  C2  UNL     1     -25.905  30.560   5.171  1.00  0.00     0.004 C 
HETATM   31  C1  UNL     1     -24.858  29.436   4.950  1.00  0.00     0.006 C 
ENDBRANCH  28  30
ENDBRANCH   1  28
BRANCH   7  32
HETATM   32  O3  UNL     1     -24.456  33.232   4.787  1.00  0.00    -0.354 OA
HETATM   33  C19 UNL     1     -25.193  34.213   5.515  1.00  0.00     0.210 C 
ENDBRANCH   7  32
TORSDOF 8
ENDMDL
MODEL 5
REMARK VINA RESULT: -5.585494707      2.283      3.186
REMARK  8 active torsions:
REMARK  status: ('A' for Active; 'I' for Inactive)
REMARK    1  A    between atoms: C2_2  and  C3_3 
REMARK    2  A    between atoms: C3_3  and  C5_5 
REMARK    3  A    between atoms: C7_8  and  C8_9 
REMARK    4  A    between atoms: C8_9  and  C9_10 
REMARK    5  A    between atoms: C11_12  and  O1_13 
REMARK    6  A    between atoms: C13_16  and  O2_17 
REMARK    7  A    between atoms: C14_19  and  C15_20 
REMARK    8  A    between atoms: C18_25  and  O3_26 
ROOT
HETATM    1  C5  UNL     1     -24.648  32.400   2.906  1.00  0.00     0.002 A 
HETATM    2  C6  UNL     1     -24.006  33.630   2.603  1.00  0.00     0.052 A 
HETATM    3 CL1  UNL     1     -23.511  34.570   4.035  1.00  0.00    -0.083 Cl
HETATM    4  C7  UNL     1     -23.846  34.133   1.372  1.00  0.00     0.003 A 
HETATM    5  C16 UNL     1     -24.364  33.360   0.311  1.00  0.00     0.091 A 
HETATM    6  C17 UNL     1     -24.999  32.174   0.530  1.00  0.00     0.032 A 
HETATM    7  C18 UNL     1     -25.149  31.673   1.855  1.00  0.00     0.089 A 
HETATM    8  C20 UNL     1     -25.603  31.486  -0.589  1.00  0.00     0.016 C 
HETATM    9  C21 UNL     1     -25.550  32.024  -1.808  1.00  0.00     0.012 C 
HETATM   10  C22 UNL     1     -24.901  33.318  -2.102  1.00  0.00     0.078 C 
HETATM   11  C23 UNL     1     -23.915  33.259  -3.262  1.00  0.00     0.051 C 
HETATM   12  C24 UNL     1     -26.052  34.270  -2.475  1.00  0.00     0.051 C 
HETATM   13  O4  UNL     1     -24.205  33.828  -0.982  1.00  0.00    -0.335 OA
ENDROOT
BRANCH   4  14
HETATM   14  C8  UNL     1     -23.322  35.440   1.051  1.00  0.00     0.082 C 
BRANCH  14  15
HETATM   15  C9  UNL     1     -21.897  35.736   1.125  1.00  0.00    -0.037 A 
HETATM   16  C10 UNL     1     -20.898  35.004   0.533  1.00  0.00     0.044 A 
HETATM   17  C11 UNL     1     -19.565  35.361   0.716  1.00  0.00     0.068 A 
HETATM   18  C12 UNL     1     -19.201  36.423   1.461  1.00  0.00     0.073 A 
HETATM   19  C13 UNL     1     -20.203  37.190   2.072  1.00  0.00     0.080 A 
HETATM   20  C14 UNL     1     -21.547  36.854   1.912  1.00  0.00     0.045 A 
BRANCH  17  21
HETATM   21  O1  UNL     1     -18.595  34.564   0.094  1.00  0.00    -0.361 OA
ATOM     22  H1  UNL     1     -18.824  33.659  -0.085  1.00  0.00     0.217 HD
ENDBRANCH  17  21
BRANCH  19  23
HETATM   23  O2  UNL     1     -19.804  38.281   2.830  1.00  0.00    -0.360 OA
ATOM     24  H2  UNL     1     -19.929  38.233   3.771  1.00  0.00     0.217 HD
ENDBRANCH  19  23
BRANCH  20  25
HETATM   25  C15 UNL     1     -22.587  37.667   2.572  1.00  0.00     0.390 C 
HETATM   26  F1  UNL     1     -22.525  38.943   2.000  1.00  0.00    -0.209 F 
HETATM   27  F2  UNL     1     -22.405  37.726   3.958  1.00  0.00    -0.209 F 
ENDBRANCH  20  25
ENDBRANCH  14  15
ENDBRANCH   4  14
BRANCH   1  28
HETATM   28  C3  UNL     1     -24.495  31.872   4.280  1.00  0.00     0.019 C 
HETATM   29  C4  UNL     1     -23.221  30.926   4.210  1.00  0.00     0.015 C 
BRANCH  28  30
HETATM   30  C2  UNL     1     -25.585  31.031   4.841  1.00  0.00     0.004 C 
HETATM   31  C1  UNL     1     -25.054  29.585   5.028  1.00  0.00     0.006 C 
ENDBRANCH  28  30
ENDBRANCH   1  28
BRANCH   7  32
HETATM   32  O3  UNL     1     -25.807  30.479   1.937  1.00  0.00    -0.354 OA
HETATM   33  C19 UNL     1     -27.217  30.275   2.009  1.00  0.00     0.210 C 
ENDBRANCH   7  32
TORSDOF 8
ENDMDL
