MODEL 1
REMARK VINA RESULT: -5.367614452      0.000      0.000
REMARK  6 active torsions:
REMARK  status: ('A' for Active; 'I' for Inactive)
REMARK    1  A    between atoms: C7_8  and  C8_9 
REMARK    2  A    between atoms: C9_10  and  C10_11 
REMARK    3  A    between atoms: C9_10  and  C16_19 
REMARK    4  A    between atoms: C17_20  and  O1_21 
REMARK    5  A    between atoms: C18_24  and  O3_25 
REMARK    6  A    between atoms: C19_27  and  C20_28 
ROOT
HETATM    1  C20 UNL     1     -12.321  35.844   5.318  1.00  0.00    -0.044 C 
HETATM    2  C21 UNL     1     -11.476  36.607   5.696  1.00  0.00     0.010 C 
HETATM    3 CL3  UNL     1     -10.269  37.729   6.226  1.00  0.00    -0.023 Cl
ENDROOT
BRANCH   1   4
HETATM    4  C19 UNL     1     -13.298  34.924   4.851  1.00  0.00     0.093 A 
HETATM    5  C16 UNL     1     -14.655  34.977   4.743  1.00  0.00     0.057 A 
HETATM    6  C17 UNL     1     -15.022  33.766   4.213  1.00  0.00     0.198 A 
HETATM    7  O2  UNL     1     -14.004  32.997   3.996  1.00  0.00    -0.263 OA
HETATM    8  C18 UNL     1     -12.932  33.653   4.366  1.00  0.00     0.205 A 
BRANCH   5   9
HETATM    9  C9  UNL     1     -15.549  36.160   5.140  1.00  0.00    -0.009 C 
HETATM   10  C8  UNL     1     -15.968  36.896   3.982  1.00  0.00     0.011 C 
BRANCH  10  11
HETATM   11  C7  UNL     1     -16.931  36.536   2.936  1.00  0.00     0.107 C 
HETATM   12  N1  UNL     1     -18.002  37.502   2.940  1.00  0.00    -0.386 N 
HETATM   13  C2  UNL     1     -17.991  38.643   3.683  1.00  0.00     0.054 C 
HETATM   14  C3  UNL     1     -19.155  37.083   2.242  1.00  0.00     0.122 C 
HETATM   15  C1  UNL     1     -18.877  38.501   4.916  1.00  0.00     0.054 C 
HETATM   16  C4  UNL     1     -18.751  36.806   0.799  1.00  0.00     0.020 C 
HETATM   17  C5  UNL     1     -17.386  37.433   0.598  1.00  0.00     0.004 C 
HETATM   18  C6  UNL     1     -16.324  36.834   1.505  1.00  0.00     0.029 C 
ENDBRANCH  10  11
BRANCH   9  19
HETATM   19  C10 UNL     1     -16.278  35.776   6.297  1.00  0.00    -0.003 A 
HETATM   20  C11 UNL     1     -17.579  35.248   6.064  1.00  0.00     0.015 A 
HETATM   21  C12 UNL     1     -18.383  34.831   7.095  1.00  0.00     0.025 A 
HETATM   22  C13 UNL     1     -17.962  34.906   8.392  1.00  0.00     0.035 A 
HETATM   23 CL1  UNL     1     -18.938  34.394   9.754  1.00  0.00    -0.084 Cl
HETATM   24  C14 UNL     1     -16.707  35.410   8.649  1.00  0.00     0.048 A 
HETATM   25  C15 UNL     1     -15.901  35.830   7.582  1.00  0.00     0.046 A 
HETATM   26 CL2  UNL     1     -14.307  36.331   7.972  1.00  0.00    -0.083 Cl
ENDBRANCH   9  19
ENDBRANCH   5   9
BRANCH   6  27
HETATM   27  O1  UNL     1     -16.361  33.445   3.955  1.00  0.00    -0.340 OA
ATOM     28  H1  UNL     1     -16.606  32.786   3.317  1.00  0.00     0.220 HD
ENDBRANCH   6  27
BRANCH   8  29
HETATM   29  O3  UNL     1     -11.648  33.130   4.274  1.00  0.00    -0.340 OA
ATOM     30  H3  UNL     1     -11.410  32.437   3.669  1.00  0.00     0.220 HD
ENDBRANCH   8  29
ENDBRANCH   1   4
TORSDOF 6
ENDMDL
MODEL 2
REMARK VINA RESULT: -5.344074605      7.362     10.756
REMARK  6 active torsions:
REMARK  status: ('A' for Active; 'I' for Inactive)
REMARK    1  A    between atoms: C7_8  and  C8_9 
REMARK    2  A    between atoms: C9_10  and  C10_11 
REMARK    3  A    between atoms: C9_10  and  C16_19 
REMARK    4  A    between atoms: C17_20  and  O1_21 
REMARK    5  A    between atoms: C18_24  and  O3_25 
REMARK    6  A    between atoms: C19_27  and  C20_28 
ROOT
HETATM    1  C20 UNL     1     -25.376  35.476  -2.130  1.00  0.00    -0.044 C 
HETATM    2  C21 UNL     1     -26.119  36.391  -2.353  1.00  0.00     0.010 C 
HETATM    3 CL3  UNL     1     -27.181  37.725  -2.650  1.00  0.00    -0.023 Cl
ENDROOT
BRANCH   1   4
HETATM    4  C19 UNL     1     -24.524  34.371  -1.859  1.00  0.00     0.093 A 
HETATM    5  C16 UNL     1     -23.708  34.056  -0.815  1.00  0.00     0.057 A 
HETATM    6  C17 UNL     1     -23.151  32.847  -1.145  1.00  0.00     0.198 A 
HETATM    7  O2  UNL     1     -23.565  32.413  -2.292  1.00  0.00    -0.263 OA
HETATM    8  C18 UNL     1     -24.401  33.303  -2.768  1.00  0.00     0.205 A 
BRANCH   5   9
HETATM    9  C9  UNL     1     -23.485  34.901   0.447  1.00  0.00    -0.009 C 
HETATM   10  C8  UNL     1     -24.140  34.314   1.579  1.00  0.00     0.011 C 
BRANCH  10  11
HETATM   11  C7  UNL     1     -23.803  33.108   2.342  1.00  0.00     0.107 C 
HETATM   12  N1  UNL     1     -24.051  33.361   3.741  1.00  0.00    -0.386 N 
HETATM   13  C2  UNL     1     -24.667  34.481   4.211  1.00  0.00     0.054 C 
HETATM   14  C3  UNL     1     -23.440  32.430   4.609  1.00  0.00     0.122 C 
HETATM   15  C1  UNL     1     -23.653  35.457   4.798  1.00  0.00     0.054 C 
HETATM   16  C4  UNL     1     -23.974  31.047   4.259  1.00  0.00     0.020 C 
HETATM   17  C5  UNL     1     -25.199  31.256   3.391  1.00  0.00     0.004 C 
HETATM   18  C6  UNL     1     -24.882  31.979   2.092  1.00  0.00     0.029 C 
ENDBRANCH  10  11
BRANCH   9  19
HETATM   19  C10 UNL     1     -22.201  35.500   0.339  1.00  0.00    -0.003 A 
HETATM   20  C11 UNL     1     -21.117  34.746   0.870  1.00  0.00     0.015 A 
HETATM   21  C12 UNL     1     -19.825  35.207   0.820  1.00  0.00     0.025 A 
HETATM   22  C13 UNL     1     -19.529  36.414   0.255  1.00  0.00     0.035 A 
HETATM   23 CL1  UNL     1     -17.903  37.062   0.163  1.00  0.00    -0.084 Cl
HETATM   24  C14 UNL     1     -20.556  37.166  -0.269  1.00  0.00     0.048 A 
HETATM   25  C15 UNL     1     -21.868  36.678  -0.209  1.00  0.00     0.046 A 
HETATM   26 CL2  UNL     1     -23.075  37.614  -0.991  1.00  0.00    -0.083 Cl
ENDBRANCH   9  19
ENDBRANCH   5   9
BRANCH   6  27
HETATM   27  O1  UNL     1     -22.242  32.194  -0.302  1.00  0.00    -0.340 OA
ATOM     28  H1  UNL     1     -22.358  31.287  -0.043  1.00  0.00     0.220 HD
ENDBRANCH   6  27
BRANCH   8  29
HETATM   29  O3  UNL     1     -25.045  33.166  -3.992  1.00  0.00    -0.340 OA
ATOM     30  H3  UNL     1     -25.619  33.831  -4.356  1.00  0.00     0.220 HD
ENDBRANCH   8  29
ENDBRANCH   1   4
TORSDOF 6
ENDMDL
MODEL 3
REMARK VINA RESULT: -5.343573250      8.719     11.590
REMARK  6 active torsions:
REMARK  status: ('A' for Active; 'I' for Inactive)
REMARK    1  A    between atoms: C7_8  and  C8_9 
REMARK    2  A    between atoms: C9_10  and  C10_11 
REMARK    3  A    between atoms: C9_10  and  C16_19 
REMARK    4  A    between atoms: C17_20  and  O1_21 
REMARK    5  A    between atoms: C18_24  and  O3_25 
REMARK    6  A    between atoms: C19_27  and  C20_28 
ROOT
HETATM    1  C20 UNL     1     -25.854  35.236   0.672  1.00  0.00    -0.044 C 
HETATM    2  C21 UNL     1     -27.015  35.357   0.950  1.00  0.00     0.010 C 
HETATM    3 CL3  UNL     1     -28.692  35.503   1.349  1.00  0.00    -0.023 Cl
ENDROOT
BRANCH   1   4
HETATM    4  C19 UNL     1     -24.485  35.108   0.312  1.00  0.00     0.093 A 
HETATM    5  C16 UNL     1     -23.569  34.111   0.464  1.00  0.00     0.057 A 
HETATM    6  C17 UNL     1     -22.415  34.593  -0.098  1.00  0.00     0.198 A 
HETATM    7  O2  UNL     1     -22.563  35.788  -0.573  1.00  0.00    -0.263 OA
HETATM    8  C18 UNL     1     -23.802  36.147  -0.349  1.00  0.00     0.205 A 
BRANCH   5   9
HETATM    9  C9  UNL     1     -23.815  32.750   1.129  1.00  0.00    -0.009 C 
HETATM   10  C8  UNL     1     -23.403  32.768   2.503  1.00  0.00     0.011 C 
BRANCH  10  11
HETATM   11  C7  UNL     1     -24.015  33.428   3.660  1.00  0.00     0.107 C 
HETATM   12  N1  UNL     1     -24.200  32.452   4.706  1.00  0.00    -0.386 N 
HETATM   13  C2  UNL     1     -23.708  31.183   4.654  1.00  0.00     0.054 C 
HETATM   14  C3  UNL     1     -25.091  32.861   5.722  1.00  0.00     0.122 C 
HETATM   15  C1  UNL     1     -24.808  30.185   4.308  1.00  0.00     0.054 C 
HETATM   16  C4  UNL     1     -24.539  34.141   6.338  1.00  0.00     0.020 C 
HETATM   17  C5  UNL     1     -23.098  34.259   5.884  1.00  0.00     0.004 C 
HETATM   18  C6  UNL     1     -22.964  34.371   4.374  1.00  0.00     0.029 C 
ENDBRANCH  10  11
BRANCH   9  19
HETATM   19  C10 UNL     1     -24.968  32.180   0.524  1.00  0.00    -0.003 A 
HETATM   20  C11 UNL     1     -26.094  32.007   1.376  1.00  0.00     0.015 A 
HETATM   21  C12 UNL     1     -27.273  31.478   0.914  1.00  0.00     0.025 A 
HETATM   22  C13 UNL     1     -27.410  31.095  -0.390  1.00  0.00     0.035 A 
HETATM   23 CL1  UNL     1     -28.885  30.409  -1.043  1.00  0.00    -0.084 Cl
HETATM   24  C14 UNL     1     -26.338  31.251  -1.239  1.00  0.00     0.048 A 
HETATM   25  C15 UNL     1     -25.144  31.795  -0.748  1.00  0.00     0.046 A 
HETATM   26 CL2  UNL     1     -23.896  32.072  -1.892  1.00  0.00    -0.083 Cl
ENDBRANCH   9  19
ENDBRANCH   5   9
BRANCH   6  27
HETATM   27  O1  UNL     1     -21.234  33.839  -0.131  1.00  0.00    -0.340 OA
ATOM     28  H1  UNL     1     -20.488  34.097  -0.658  1.00  0.00     0.220 HD
ENDBRANCH   6  27
BRANCH   8  29
HETATM   29  O3  UNL     1     -24.320  37.381  -0.728  1.00  0.00    -0.340 OA
ATOM     30  H3  UNL     1     -24.821  37.513  -1.524  1.00  0.00     0.220 HD
ENDBRANCH   8  29
ENDBRANCH   1   4
TORSDOF 6
ENDMDL
MODEL 4
REMARK VINA RESULT: -5.294837795      7.926     10.746
REMARK  6 active torsions:
REMARK  status: ('A' for Active; 'I' for Inactive)
REMARK    1  A    between atoms: C7_8  and  C8_9 
REMARK    2  A    between atoms: C9_10  and  C10_11 
REMARK    3  A    between atoms: C9_10  and  C16_19 
REMARK    4  A    between atoms: C17_20  and  O1_21 
REMARK    5  A    between atoms: C18_24  and  O3_25 
REMARK    6  A    between atoms: C19_27  and  C20_28 
ROOT
HETATM    1  C20 UNL     1     -21.419  35.242   0.087  1.00  0.00    -0.044 C 
HETATM    2  C21 UNL     1     -20.224  35.123   0.095  1.00  0.00     0.010 C 
HETATM    3 CL3  UNL     1     -18.504  34.941   0.134  1.00  0.00    -0.023 Cl
ENDROOT
BRANCH   1   4
HETATM    4  C19 UNL     1     -22.828  35.419   0.076  1.00  0.00     0.093 A 
HETATM    5  C16 UNL     1     -23.869  34.645   0.494  1.00  0.00     0.057 A 
HETATM    6  C17 UNL     1     -24.996  35.375   0.212  1.00  0.00     0.198 A 
HETATM    7  O2  UNL     1     -24.718  36.514  -0.336  1.00  0.00    -0.263 OA
HETATM    8  C18 UNL     1     -23.415  36.590  -0.441  1.00  0.00     0.205 A 
BRANCH   5   9
HETATM    9  C9  UNL     1     -23.763  33.258   1.140  1.00  0.00    -0.009 C 
HETATM   10  C8  UNL     1     -23.233  33.350   2.470  1.00  0.00     0.011 C 
BRANCH  10  11
HETATM   11  C7  UNL     1     -23.852  33.860   3.697  1.00  0.00     0.107 C 
HETATM   12  N1  UNL     1     -23.947  32.781   4.650  1.00  0.00    -0.386 N 
HETATM   13  C2  UNL     1     -23.380  31.556   4.469  1.00  0.00     0.054 C 
HETATM   14  C3  UNL     1     -24.834  33.037   5.719  1.00  0.00     0.122 C 
HETATM   15  C1  UNL     1     -24.425  30.526   4.054  1.00  0.00     0.054 C 
HETATM   16  C4  UNL     1     -24.345  34.287   6.441  1.00  0.00     0.020 C 
HETATM   17  C5  UNL     1     -22.927  34.539   5.969  1.00  0.00     0.004 C 
HETATM   18  C6  UNL     1     -22.842  34.798   4.474  1.00  0.00     0.029 C 
ENDBRANCH  10  11
BRANCH   9  19
HETATM   19  C10 UNL     1     -24.827  32.466   0.630  1.00  0.00    -0.003 A 
HETATM   20  C11 UNL     1     -25.919  32.248   1.517  1.00  0.00     0.015 A 
HETATM   21  C12 UNL     1     -27.014  31.510   1.143  1.00  0.00     0.025 A 
HETATM   22  C13 UNL     1     -27.098  30.953  -0.101  1.00  0.00     0.035 A 
HETATM   23 CL1  UNL     1     -28.465  29.998  -0.639  1.00  0.00    -0.084 Cl
HETATM   24  C14 UNL     1     -26.059  31.148  -0.982  1.00  0.00     0.048 A 
HETATM   25  C15 UNL     1     -24.949  31.906  -0.582  1.00  0.00     0.046 A 
HETATM   26 CL2  UNL     1     -23.752  32.206  -1.773  1.00  0.00    -0.083 Cl
ENDBRANCH   9  19
ENDBRANCH   5   9
BRANCH   6  27
HETATM   27  O1  UNL     1     -26.281  34.898   0.503  1.00  0.00    -0.340 OA
ATOM     28  H1  UNL     1     -26.581  34.773   1.396  1.00  0.00     0.220 HD
ENDBRANCH   6  27
BRANCH   8  29
HETATM   29  O3  UNL     1     -22.756  37.685  -0.987  1.00  0.00    -0.340 OA
ATOM     30  H3  UNL     1     -22.126  37.614  -1.695  1.00  0.00     0.220 HD
ENDBRANCH   8  29
ENDBRANCH   1   4
TORSDOF 6
ENDMDL
MODEL 5
REMARK VINA RESULT: -5.191608598      9.122     12.078
REMARK  6 active torsions:
REMARK  status: ('A' for Active; 'I' for Inactive)
REMARK    1  A    between atoms: C7_8  and  C8_9 
REMARK    2  A    between atoms: C9_10  and  C10_11 
REMARK    3  A    between atoms: C9_10  and  C16_19 
REMARK    4  A    between atoms: C17_20  and  O1_21 
REMARK    5  A    between atoms: C18_24  and  O3_25 
REMARK    6  A    between atoms: C19_27  and  C20_28 
ROOT
HETATM    1  C20 UNL     1     -23.876  33.807   2.394  1.00  0.00    -0.044 C 
HETATM    2  C21 UNL     1     -24.089  34.229   3.497  1.00  0.00     0.010 C 
HETATM    3 CL3  UNL     1     -24.385  34.864   5.079  1.00  0.00    -0.023 Cl
ENDROOT
BRANCH   1   4
HETATM    4  C19 UNL     1     -23.598  33.286   1.102  1.00  0.00     0.093 A 
HETATM    5  C16 UNL     1     -24.328  32.553   0.215  1.00  0.00     0.057 A 
HETATM    6  C17 UNL     1     -23.500  32.364  -0.863  1.00  0.00     0.198 A 
HETATM    7  O2  UNL     1     -22.343  32.920  -0.696  1.00  0.00    -0.263 OA
HETATM    8  C18 UNL     1     -22.351  33.493   0.482  1.00  0.00     0.205 A 
BRANCH   5   9
HETATM    9  C9  UNL     1     -25.768  32.063   0.413  1.00  0.00    -0.009 C 
HETATM   10  C8  UNL     1     -25.836  31.074   1.449  1.00  0.00     0.011 C 
BRANCH  10  11
HETATM   11  C7  UNL     1     -25.700  31.221   2.902  1.00  0.00     0.107 C 
HETATM   12  N1  UNL     1     -26.900  30.728   3.531  1.00  0.00    -0.386 N 
HETATM   13  C2  UNL     1     -27.893  30.076   2.865  1.00  0.00     0.054 C 
HETATM   14  C3  UNL     1     -27.051  31.134   4.875  1.00  0.00     0.122 C 
HETATM   15  C1  UNL     1     -29.082  30.999   2.617  1.00  0.00     0.054 C 
HETATM   16  C4  UNL     1     -25.845  30.624   5.654  1.00  0.00     0.020 C 
HETATM   17  C5  UNL     1     -25.165  29.589   4.781  1.00  0.00     0.004 C 
HETATM   18  C6  UNL     1     -24.664  30.166   3.466  1.00  0.00     0.029 C 
ENDBRANCH  10  11
BRANCH   9  19
HETATM   19  C10 UNL     1     -26.634  33.154   0.129  1.00  0.00    -0.003 A 
HETATM   20  C11 UNL     1     -26.914  34.025   1.218  1.00  0.00     0.015 A 
HETATM   21  C12 UNL     1     -27.727  35.121   1.074  1.00  0.00     0.025 A 
HETATM   22  C13 UNL     1     -28.301  35.420  -0.128  1.00  0.00     0.035 A 
HETATM   23 CL1  UNL     1     -29.351  36.801  -0.379  1.00  0.00    -0.084 Cl
HETATM   24  C14 UNL     1     -28.048  34.596  -1.202  1.00  0.00     0.048 A 
HETATM   25  C15 UNL     1     -27.214  33.482  -1.035  1.00  0.00     0.046 A 
HETATM   26 CL2  UNL     1     -26.848  32.575  -2.444  1.00  0.00    -0.083 Cl
ENDBRANCH   9  19
ENDBRANCH   5   9
BRANCH   6  27
HETATM   27  O1  UNL     1     -23.907  31.644  -1.994  1.00  0.00    -0.340 OA
ATOM     28  H1  UNL     1     -23.326  31.043  -2.444  1.00  0.00     0.220 HD
ENDBRANCH   6  27
BRANCH   8  29
HETATM   29  O3  UNL     1     -21.265  34.190   0.998  1.00  0.00    -0.340 OA
ATOM     30  H3  UNL     1     -20.381  34.102   0.660  1.00  0.00     0.220 HD
ENDBRANCH   8  29
ENDBRANCH   1   4
TORSDOF 6
ENDMDL
