MODEL 1
REMARK VINA RESULT: -5.160969781      0.000      0.000
REMARK  9 active torsions:
REMARK  status: ('A' for Active; 'I' for Inactive)
REMARK    1  A    between atoms: O1_2  and  N1_3 
REMARK    2  A    between atoms: N1_3  and  C2_4 
REMARK    3  A    between atoms: C2_4  and  C4_6 
REMARK    4  A    between atoms: C4_6  and  C5_7 
REMARK    5  A    between atoms: C4_6  and  N2_13 
REMARK    6  A    between atoms: C5_7  and  C6_8 
REMARK    7  A    between atoms: C6_8  and  C7_9 
REMARK    8  A    between atoms: C7_9  and  O3_11 
REMARK       I    between atoms: N2_13  and  C9_15 
REMARK    9  A    between atoms: C9_15  and  C10_17 
ROOT
HETATM    1  C4  UNL     1     -20.460  -5.794 -13.537  1.00  0.00     0.106 C 
ENDROOT
BRANCH   1   2
HETATM    2  C2  UNL     1     -21.293  -6.362 -12.427  1.00  0.00     0.125 C 
HETATM    3  C3  UNL     1     -22.394  -5.348 -12.065  1.00  0.00     0.032 C 
BRANCH   2   4
HETATM    4  N1  UNL     1     -20.564  -6.592 -11.220  1.00  0.00    -0.095 NA
BRANCH   4   5
HETATM    5  O1  UNL     1     -19.683  -7.586 -11.287  1.00  0.00    -0.291 OA
HETATM    6  C1  UNL     1     -18.426  -7.184 -10.780  1.00  0.00     0.231 C 
ENDBRANCH   4   5
ENDBRANCH   2   4
ENDBRANCH   1   2
BRANCH   1   7
HETATM    7  C5  UNL     1     -21.244  -4.831 -14.378  1.00  0.00     0.036 C 
BRANCH   7   8
HETATM    8  C6  UNL     1     -20.331  -3.823 -14.991  1.00  0.00     0.113 C 
BRANCH   8   9
HETATM    9  C7  UNL     1     -20.450  -3.919 -16.480  1.00  0.00     0.258 C 
HETATM   10  O2  UNL     1     -20.870  -2.980 -17.183  1.00  0.00    -0.265 OA
BRANCH   9  11
HETATM   11  O3  UNL     1     -20.079  -5.096 -17.106  1.00  0.00    -0.326 OA
HETATM   12  C8  UNL     1     -20.987  -5.819 -17.930  1.00  0.00     0.213 C 
ENDBRANCH   9  11
ENDBRANCH   8   9
ENDBRANCH   7   8
ENDBRANCH   1   7
BRANCH   1  13
HETATM   13  N2  UNL     1     -19.902  -6.794 -14.391  1.00  0.00    -0.349 N 
HETATM   14  C9  UNL     1     -18.505  -6.848 -14.587  1.00  0.00     0.270 C 
HETATM   15  O4  UNL     1     -17.706  -6.051 -14.042  1.00  0.00    -0.266 OA
ATOM     16  H2  UNL     1     -20.511  -7.467 -14.858  1.00  0.00     0.163 HD
BRANCH  14  17
HETATM   17  C10 UNL     1     -17.940  -7.877 -15.464  1.00  0.00     0.117 A 
HETATM   18  C11 UNL     1     -18.274  -8.135 -16.776  1.00  0.00     0.124 A 
HETATM   19  N3  UNL     1     -17.542  -9.154 -17.249  1.00  0.00    -0.360 N 
HETATM   20  C12 UNL     1     -16.754  -9.528 -16.227  1.00  0.00     0.180 A 
ATOM     21  H3  UNL     1     -17.577  -9.559 -18.185  1.00  0.00     0.166 HD
HETATM   22  N4  UNL     1     -16.980  -8.774 -15.151  1.00  0.00    -0.347 N 
ATOM     23  H4  UNL     1     -16.510  -8.859 -14.250  1.00  0.00     0.167 HD
ENDBRANCH  14  17
ENDBRANCH   1  13
TORSDOF 9
ENDMDL
MODEL 2
REMARK VINA RESULT: -5.133830017      2.431      4.485
REMARK  9 active torsions:
REMARK  status: ('A' for Active; 'I' for Inactive)
REMARK    1  A    between atoms: O1_2  and  N1_3 
REMARK    2  A    between atoms: N1_3  and  C2_4 
REMARK    3  A    between atoms: C2_4  and  C4_6 
REMARK    4  A    between atoms: C4_6  and  C5_7 
REMARK    5  A    between atoms: C4_6  and  N2_13 
REMARK    6  A    between atoms: C5_7  and  C6_8 
REMARK    7  A    between atoms: C6_8  and  C7_9 
REMARK    8  A    between atoms: C7_9  and  O3_11 
REMARK       I    between atoms: N2_13  and  C9_15 
REMARK    9  A    between atoms: C9_15  and  C10_17 
ROOT
HETATM    1  C4  UNL     1     -20.030  -5.972 -14.185  1.00  0.00     0.106 C 
ENDROOT
BRANCH   1   2
HETATM    2  C2  UNL     1     -20.925  -4.781 -14.014  1.00  0.00     0.125 C 
HETATM    3  C3  UNL     1     -20.495  -3.691 -15.013  1.00  0.00     0.032 C 
BRANCH   2   4
HETATM    4  N1  UNL     1     -20.840  -4.179 -12.721  1.00  0.00    -0.095 NA
BRANCH   4   5
HETATM    5  O1  UNL     1     -22.001  -4.078 -12.080  1.00  0.00    -0.291 OA
HETATM    6  C1  UNL     1     -22.797  -5.227 -12.291  1.00  0.00     0.231 C 
ENDBRANCH   4   5
ENDBRANCH   2   4
ENDBRANCH   1   2
BRANCH   1   7
HETATM    7  C5  UNL     1     -18.770  -5.835 -13.383  1.00  0.00     0.036 C 
BRANCH   7   8
HETATM    8  C6  UNL     1     -18.404  -7.146 -12.772  1.00  0.00     0.113 C 
BRANCH   8   9
HETATM    9  C7  UNL     1     -19.273  -7.370 -11.575  1.00  0.00     0.258 C 
HETATM   10  O2  UNL     1     -20.317  -8.048 -11.619  1.00  0.00    -0.265 OA
BRANCH   9  11
HETATM   11  O3  UNL     1     -18.906  -6.803 -10.366  1.00  0.00    -0.326 OA
HETATM   12  C8  UNL     1     -17.543  -6.719  -9.966  1.00  0.00     0.213 C 
ENDBRANCH   9  11
ENDBRANCH   8   9
ENDBRANCH   7   8
ENDBRANCH   1   7
BRANCH   1  13
HETATM   13  N2  UNL     1     -19.678  -6.222 -15.547  1.00  0.00    -0.349 N 
HETATM   14  C9  UNL     1     -19.896  -7.501 -16.103  1.00  0.00     0.270 C 
HETATM   15  O4  UNL     1     -20.393  -8.453 -15.457  1.00  0.00    -0.266 OA
ATOM     16  H2  UNL     1     -19.270  -5.479 -16.115  1.00  0.00     0.163 HD
BRANCH  14  17
HETATM   17  C10 UNL     1     -19.533  -7.749 -17.501  1.00  0.00     0.117 A 
HETATM   18  C11 UNL     1     -18.633  -8.677 -17.980  1.00  0.00     0.124 A 
HETATM   19  N3  UNL     1     -18.566  -8.610 -19.318  1.00  0.00    -0.360 N 
HETATM   20  C12 UNL     1     -19.425  -7.637 -19.667  1.00  0.00     0.180 A 
ATOM     21  H3  UNL     1     -17.987  -9.176 -19.938  1.00  0.00     0.166 HD
HETATM   22  N4  UNL     1     -20.012  -7.111 -18.591  1.00  0.00    -0.347 N 
ATOM     23  H4  UNL     1     -20.702  -6.360 -18.591  1.00  0.00     0.167 HD
ENDBRANCH  14  17
ENDBRANCH   1  13
TORSDOF 9
ENDMDL
MODEL 3
REMARK VINA RESULT: -5.107907002      0.548      1.228
REMARK  9 active torsions:
REMARK  status: ('A' for Active; 'I' for Inactive)
REMARK    1  A    between atoms: O1_2  and  N1_3 
REMARK    2  A    between atoms: N1_3  and  C2_4 
REMARK    3  A    between atoms: C2_4  and  C4_6 
REMARK    4  A    between atoms: C4_6  and  C5_7 
REMARK    5  A    between atoms: C4_6  and  N2_13 
REMARK    6  A    between atoms: C5_7  and  C6_8 
REMARK    7  A    between atoms: C6_8  and  C7_9 
REMARK    8  A    between atoms: C7_9  and  O3_11 
REMARK       I    between atoms: N2_13  and  C9_15 
REMARK    9  A    between atoms: C9_15  and  C10_17 
ROOT
HETATM    1  C4  UNL     1     -20.472  -5.752 -13.514  1.00  0.00     0.106 C 
ENDROOT
BRANCH   1   2
HETATM    2  C2  UNL     1     -21.307  -6.334 -12.413  1.00  0.00     0.125 C 
HETATM    3  C3  UNL     1     -22.404  -5.322 -12.034  1.00  0.00     0.032 C 
BRANCH   2   4
HETATM    4  N1  UNL     1     -20.578  -6.587 -11.211  1.00  0.00    -0.095 NA
BRANCH   4   5
HETATM    5  O1  UNL     1     -19.698  -7.580 -11.296  1.00  0.00    -0.291 OA
HETATM    6  C1  UNL     1     -18.440  -7.187 -10.784  1.00  0.00     0.231 C 
ENDBRANCH   4   5
ENDBRANCH   2   4
ENDBRANCH   1   2
BRANCH   1   7
HETATM    7  C5  UNL     1     -21.244  -4.752 -14.322  1.00  0.00     0.036 C 
BRANCH   7   8
HETATM    8  C6  UNL     1     -20.308  -3.825 -15.023  1.00  0.00     0.113 C 
BRANCH   8   9
HETATM    9  C7  UNL     1     -20.512  -3.973 -16.498  1.00  0.00     0.258 C 
HETATM   10  O2  UNL     1     -20.382  -5.061 -17.090  1.00  0.00    -0.265 OA
BRANCH   9  11
HETATM   11  O3  UNL     1     -20.859  -2.857 -17.241  1.00  0.00    -0.326 OA
HETATM   12  C8  UNL     1     -20.784  -1.546 -16.694  1.00  0.00     0.213 C 
ENDBRANCH   9  11
ENDBRANCH   8   9
ENDBRANCH   7   8
ENDBRANCH   1   7
BRANCH   1  13
HETATM   13  N2  UNL     1     -19.940  -6.739 -14.400  1.00  0.00    -0.349 N 
HETATM   14  C9  UNL     1     -18.545  -6.820 -14.601  1.00  0.00     0.270 C 
HETATM   15  O4  UNL     1     -17.726  -6.059 -14.034  1.00  0.00    -0.266 OA
ATOM     16  H2  UNL     1     -20.566  -7.382 -14.885  1.00  0.00     0.163 HD
BRANCH  14  17
HETATM   17  C10 UNL     1     -18.007  -7.835 -15.511  1.00  0.00     0.117 A 
HETATM   18  C11 UNL     1     -18.360  -8.054 -16.824  1.00  0.00     0.124 A 
HETATM   19  N3  UNL     1     -17.650  -9.072 -17.332  1.00  0.00    -0.360 N 
HETATM   20  C12 UNL     1     -16.856  -9.485 -16.329  1.00  0.00     0.180 A 
ATOM     21  H3  UNL     1     -17.701  -9.452 -18.277  1.00  0.00     0.166 HD
HETATM   22  N4  UNL     1     -17.058  -8.755 -15.231  1.00  0.00    -0.347 N 
ATOM     23  H4  UNL     1     -16.579  -8.870 -14.338  1.00  0.00     0.167 HD
ENDBRANCH  14  17
ENDBRANCH   1  13
TORSDOF 9
ENDMDL
MODEL 4
REMARK VINA RESULT: -5.077825093      1.837      4.521
REMARK  9 active torsions:
REMARK  status: ('A' for Active; 'I' for Inactive)
REMARK    1  A    between atoms: O1_2  and  N1_3 
REMARK    2  A    between atoms: N1_3  and  C2_4 
REMARK    3  A    between atoms: C2_4  and  C4_6 
REMARK    4  A    between atoms: C4_6  and  C5_7 
REMARK    5  A    between atoms: C4_6  and  N2_13 
REMARK    6  A    between atoms: C5_7  and  C6_8 
REMARK    7  A    between atoms: C6_8  and  C7_9 
REMARK    8  A    between atoms: C7_9  and  O3_11 
REMARK       I    between atoms: N2_13  and  C9_15 
REMARK    9  A    between atoms: C9_15  and  C10_17 
ROOT
HETATM    1  C4  UNL     1     -20.465  -5.615 -14.568  1.00  0.00     0.106 C 
ENDROOT
BRANCH   1   2
HETATM    2  C2  UNL     1     -20.811  -4.605 -15.621  1.00  0.00     0.125 C 
HETATM    3  C3  UNL     1     -20.841  -5.308 -16.991  1.00  0.00     0.032 C 
BRANCH   2   4
HETATM    4  N1  UNL     1     -19.854  -3.552 -15.745  1.00  0.00    -0.095 NA
BRANCH   4   5
HETATM    5  O1  UNL     1     -18.856  -3.807 -16.586  1.00  0.00    -0.291 OA
HETATM    6  C1  UNL     1     -17.706  -3.057 -16.250  1.00  0.00     0.231 C 
ENDBRANCH   4   5
ENDBRANCH   2   4
ENDBRANCH   1   2
BRANCH   1   7
HETATM    7  C5  UNL     1     -20.934  -5.181 -13.211  1.00  0.00     0.036 C 
BRANCH   7   8
HETATM    8  C6  UNL     1     -21.644  -6.301 -12.529  1.00  0.00     0.113 C 
BRANCH   8   9
HETATM    9  C7  UNL     1     -20.653  -7.058 -11.703  1.00  0.00     0.258 C 
HETATM   10  O2  UNL     1     -20.839  -8.234 -11.338  1.00  0.00    -0.265 OA
BRANCH   9  11
HETATM   11  O3  UNL     1     -19.478  -6.430 -11.325  1.00  0.00    -0.326 OA
HETATM   12  C8  UNL     1     -18.339  -7.171 -10.906  1.00  0.00     0.213 C 
ENDBRANCH   9  11
ENDBRANCH   8   9
ENDBRANCH   7   8
ENDBRANCH   1   7
BRANCH   1  13
HETATM   13  N2  UNL     1     -19.066  -5.896 -14.496  1.00  0.00    -0.349 N 
HETATM   14  C9  UNL     1     -18.593  -7.184 -14.827  1.00  0.00     0.270 C 
HETATM   15  O4  UNL     1     -19.347  -8.119 -15.189  1.00  0.00    -0.266 OA
ATOM     16  H2  UNL     1     -18.411  -5.169 -14.207  1.00  0.00     0.163 HD
BRANCH  14  17
HETATM   17  C10 UNL     1     -17.157  -7.466 -14.752  1.00  0.00     0.117 A 
HETATM   18  C11 UNL     1     -16.144  -6.845 -15.450  1.00  0.00     0.124 A 
HETATM   19  N3  UNL     1     -14.958  -7.374 -15.116  1.00  0.00    -0.360 N 
HETATM   20  C12 UNL     1     -15.238  -8.327 -14.210  1.00  0.00     0.180 A 
ATOM     21  H3  UNL     1     -14.040  -7.110 -15.473  1.00  0.00     0.166 HD
HETATM   22  N4  UNL     1     -16.551  -8.395 -13.981  1.00  0.00    -0.347 N 
ATOM     23  H4  UNL     1     -17.015  -9.035 -13.337  1.00  0.00     0.167 HD
ENDBRANCH  14  17
ENDBRANCH   1  13
TORSDOF 9
ENDMDL
MODEL 5
REMARK VINA RESULT: -4.965189192      2.155      4.413
REMARK  9 active torsions:
REMARK  status: ('A' for Active; 'I' for Inactive)
REMARK    1  A    between atoms: O1_2  and  N1_3 
REMARK    2  A    between atoms: N1_3  and  C2_4 
REMARK    3  A    between atoms: C2_4  and  C4_6 
REMARK    4  A    between atoms: C4_6  and  C5_7 
REMARK    5  A    between atoms: C4_6  and  N2_13 
REMARK    6  A    between atoms: C5_7  and  C6_8 
REMARK    7  A    between atoms: C6_8  and  C7_9 
REMARK    8  A    between atoms: C7_9  and  O3_11 
REMARK       I    between atoms: N2_13  and  C9_15 
REMARK    9  A    between atoms: C9_15  and  C10_17 
ROOT
HETATM    1  C4  UNL     1     -19.809  -7.486 -15.285  1.00  0.00     0.106 C 
ENDROOT
BRANCH   1   2
HETATM    2  C2  UNL     1     -20.033  -6.024 -15.533  1.00  0.00     0.125 C 
HETATM    3  C3  UNL     1     -20.697  -5.852 -16.912  1.00  0.00     0.032 C 
BRANCH   2   4
HETATM    4  N1  UNL     1     -18.828  -5.258 -15.582  1.00  0.00    -0.095 NA
BRANCH   4   5
HETATM    5  O1  UNL     1     -18.313  -4.959 -14.394  1.00  0.00    -0.291 OA
HETATM    6  C1  UNL     1     -19.075  -3.958 -13.749  1.00  0.00     0.231 C 
ENDBRANCH   4   5
ENDBRANCH   2   4
ENDBRANCH   1   2
BRANCH   1   7
HETATM    7  C5  UNL     1     -20.707  -8.006 -14.203  1.00  0.00     0.036 C 
BRANCH   7   8
HETATM    8  C6  UNL     1     -20.988  -6.932 -13.206  1.00  0.00     0.113 C 
BRANCH   8   9
HETATM    9  C7  UNL     1     -20.397  -7.338 -11.893  1.00  0.00     0.258 C 
HETATM   10  O2  UNL     1     -20.724  -8.384 -11.302  1.00  0.00    -0.265 OA
BRANCH   9  11
HETATM   11  O3  UNL     1     -19.446  -6.520 -11.306  1.00  0.00    -0.326 OA
HETATM   12  C8  UNL     1     -18.190  -7.029 -10.875  1.00  0.00     0.213 C 
ENDBRANCH   9  11
ENDBRANCH   8   9
ENDBRANCH   7   8
ENDBRANCH   1   7
BRANCH   1  13
HETATM   13  N2  UNL     1     -18.457  -7.798 -14.942  1.00  0.00    -0.349 N 
HETATM   14  C9  UNL     1     -17.680  -8.592 -15.813  1.00  0.00     0.270 C 
HETATM   15  O4  UNL     1     -18.117  -9.051 -16.895  1.00  0.00    -0.266 OA
ATOM     16  H2  UNL     1     -18.055  -7.448 -14.072  1.00  0.00     0.163 HD
BRANCH  14  17
HETATM   17  C10 UNL     1     -16.294  -8.908 -15.456  1.00  0.00     0.117 A 
HETATM   18  C11 UNL     1     -15.210  -8.057 -15.473  1.00  0.00     0.124 A 
HETATM   19  N3  UNL     1     -14.104  -8.707 -15.081  1.00  0.00    -0.360 N 
HETATM   20  C12 UNL     1     -14.506  -9.963 -14.822  1.00  0.00     0.180 A 
ATOM     21  H3  UNL     1     -13.161  -8.328 -14.998  1.00  0.00     0.166 HD
HETATM   22  N4  UNL     1     -15.814 -10.101 -15.042  1.00  0.00    -0.347 N 
ATOM     23  H4  UNL     1     -16.356 -10.955 -14.918  1.00  0.00     0.167 HD
ENDBRANCH  14  17
ENDBRANCH   1  13
TORSDOF 9
ENDMDL
