MODEL 1
REMARK VINA RESULT: -5.620972072      0.000      0.000
REMARK  8 active torsions:
REMARK  status: ('A' for Active; 'I' for Inactive)
REMARK    1  A    between atoms: C1_2  and  C2_4 
REMARK    2  A    between atoms: N1_5  and  N2_7 
REMARK       I    between atoms: N2_7  and  C3_9 
REMARK    3  A    between atoms: C3_9  and  C4_11 
REMARK    4  A    between atoms: C4_11  and  C5_12 
REMARK    5  A    between atoms: C5_12  and  C6_13 
REMARK    6  A    between atoms: C6_13  and  C7_14 
REMARK    7  A    between atoms: N3_17  and  N4_19 
REMARK    8  A    between atoms: N4_19  and  C8_21 
ROOT
HETATM    1  C4  UNL     1     -20.628  -5.053 -14.475  1.00  0.00     0.095 C 
HETATM    2  N3  UNL     1     -20.758  -4.066 -15.269  1.00  0.00    -0.299 N 
ATOM      3  H3  UNL     1     -21.196  -3.220 -14.902  1.00  0.00     0.186 HD
ENDROOT
BRANCH   1   4
HETATM    4  C3  UNL     1     -20.009  -6.282 -14.956  1.00  0.00     0.283 C 
HETATM    5  N2  UNL     1     -18.741  -6.722 -14.416  1.00  0.00    -0.265 N 
ATOM      6  H2  UNL     1     -18.288  -6.159 -13.696  1.00  0.00     0.190 HD
HETATM    7  O3  UNL     1     -20.488  -7.024 -15.826  1.00  0.00    -0.265 OA
BRANCH   5   8
HETATM    8  N1  UNL     1     -18.124  -7.883 -14.846  1.00  0.00    -0.302 N 
HETATM    9  C2  UNL     1     -16.966  -7.879 -15.380  1.00  0.00     0.191 C 
ATOM     10  H1  UNL     1     -18.612  -8.771 -14.733  1.00  0.00     0.186 HD
BRANCH   9  11
HETATM   11  C1  UNL     1     -16.349  -9.139 -15.823  1.00  0.00     0.216 C 
HETATM   12  O1  UNL     1     -15.100  -9.284 -15.844  1.00  0.00    -0.643 OA
HETATM   13  O2  UNL     1     -17.140 -10.193 -16.230  1.00  0.00    -0.643 OA
ENDBRANCH   9  11
ENDBRANCH   5   8
ENDBRANCH   1   4
BRANCH   1  14
HETATM   14  C5  UNL     1     -21.085  -5.015 -13.077  1.00  0.00     0.075 C 
BRANCH  14  15
HETATM   15  C6  UNL     1     -21.629  -6.270 -12.511  1.00  0.00     0.119 C 
BRANCH  15  16
HETATM   16  C7  UNL     1     -20.713  -7.062 -11.670  1.00  0.00     0.172 C 
HETATM   17  O4  UNL     1     -21.007  -8.215 -11.314  1.00  0.00    -0.648 OA
HETATM   18  O5  UNL     1     -19.485  -6.573 -11.232  1.00  0.00    -0.648 OA
ENDBRANCH  15  16
ENDBRANCH  14  15
ENDBRANCH   1  14
BRANCH   2  19
HETATM   19  N4  UNL     1     -20.355  -4.053 -16.581  1.00  0.00    -0.301 N 
ATOM     20  H4  UNL     1     -19.741  -4.792 -16.922  1.00  0.00     0.187 HD
BRANCH  19  21
HETATM   21  C8  UNL     1     -20.784  -3.010 -17.489  1.00  0.00     0.048 A 
HETATM   22  C9  UNL     1     -21.033  -2.975 -18.787  1.00  0.00     0.031 A 
HETATM   23  C10 UNL     1     -21.370  -1.576 -18.709  1.00  0.00     0.005 A 
HETATM   24  C11 UNL     1     -21.124  -1.602 -17.421  1.00  0.00     0.031 A 
ENDBRANCH  19  21
ENDBRANCH   2  19
TORSDOF 8
ENDMDL
MODEL 2
REMARK VINA RESULT: -5.618647929      1.545      1.845
REMARK  8 active torsions:
REMARK  status: ('A' for Active; 'I' for Inactive)
REMARK    1  A    between atoms: C1_2  and  C2_4 
REMARK    2  A    between atoms: N1_5  and  N2_7 
REMARK       I    between atoms: N2_7  and  C3_9 
REMARK    3  A    between atoms: C3_9  and  C4_11 
REMARK    4  A    between atoms: C4_11  and  C5_12 
REMARK    5  A    between atoms: C5_12  and  C6_13 
REMARK    6  A    between atoms: C6_13  and  C7_14 
REMARK    7  A    between atoms: N3_17  and  N4_19 
REMARK    8  A    between atoms: N4_19  and  C8_21 
ROOT
HETATM    1  C4  UNL     1     -19.097  -6.262 -13.992  1.00  0.00     0.095 C 
HETATM    2  N3  UNL     1     -19.805  -5.310 -14.453  1.00  0.00    -0.299 N 
ATOM      3  H3  UNL     1     -19.903  -4.473 -13.877  1.00  0.00     0.186 HD
ENDROOT
BRANCH   1   4
HETATM    4  C3  UNL     1     -18.930  -7.478 -14.779  1.00  0.00     0.283 C 
HETATM    5  N2  UNL     1     -17.606  -7.969 -15.095  1.00  0.00    -0.265 N 
ATOM      6  H2  UNL     1     -16.794  -7.452 -14.759  1.00  0.00     0.190 HD
HETATM    7  O3  UNL     1     -19.859  -8.165 -15.226  1.00  0.00    -0.265 OA
BRANCH   5   8
HETATM    8  N1  UNL     1     -17.409  -9.118 -15.838  1.00  0.00    -0.302 N 
HETATM    9  C2  UNL     1     -16.304  -9.755 -15.823  1.00  0.00     0.191 C 
ATOM     10  H1  UNL     1     -18.172  -9.468 -16.417  1.00  0.00     0.186 HD
BRANCH   9  11
HETATM   11  C1  UNL     1     -16.139 -10.974 -16.631  1.00  0.00     0.216 C 
HETATM   12  O1  UNL     1     -15.030 -11.559 -16.714  1.00  0.00    -0.643 OA
HETATM   13  O2  UNL     1     -17.213 -11.500 -17.319  1.00  0.00    -0.643 OA
ENDBRANCH   9  11
ENDBRANCH   5   8
ENDBRANCH   1   4
BRANCH   1  14
HETATM   14  C5  UNL     1     -18.434  -6.197 -12.680  1.00  0.00     0.075 C 
BRANCH  14  15
HETATM   15  C6  UNL     1     -19.024  -7.002 -11.586  1.00  0.00     0.119 C 
BRANCH  15  16
HETATM   16  C7  UNL     1     -20.496  -7.030 -11.511  1.00  0.00     0.172 C 
HETATM   17  O4  UNL     1     -21.115  -8.107 -11.482  1.00  0.00    -0.648 OA
HETATM   18  O5  UNL     1     -21.268  -5.871 -11.470  1.00  0.00    -0.648 OA
ENDBRANCH  15  16
ENDBRANCH  14  15
ENDBRANCH   1  14
BRANCH   2  19
HETATM   19  N4  UNL     1     -20.447  -5.324 -15.666  1.00  0.00    -0.301 N 
ATOM     20  H4  UNL     1     -20.843  -6.197 -16.012  1.00  0.00     0.187 HD
BRANCH  19  21
HETATM   21  C8  UNL     1     -20.572  -4.121 -16.463  1.00  0.00     0.048 A 
HETATM   22  C9  UNL     1     -20.733  -3.896 -17.756  1.00  0.00     0.031 A 
HETATM   23  C10 UNL     1     -20.741  -2.472 -17.532  1.00  0.00     0.005 A 
HETATM   24  C11 UNL     1     -20.580  -2.687 -16.248  1.00  0.00     0.031 A 
ENDBRANCH  19  21
ENDBRANCH   2  19
TORSDOF 8
ENDMDL
MODEL 3
REMARK VINA RESULT: -5.508242677      1.587      1.978
REMARK  8 active torsions:
REMARK  status: ('A' for Active; 'I' for Inactive)
REMARK    1  A    between atoms: C1_2  and  C2_4 
REMARK    2  A    between atoms: N1_5  and  N2_7 
REMARK       I    between atoms: N2_7  and  C3_9 
REMARK    3  A    between atoms: C3_9  and  C4_11 
REMARK    4  A    between atoms: C4_11  and  C5_12 
REMARK    5  A    between atoms: C5_12  and  C6_13 
REMARK    6  A    between atoms: C6_13  and  C7_14 
REMARK    7  A    between atoms: N3_17  and  N4_19 
REMARK    8  A    between atoms: N4_19  and  C8_21 
ROOT
HETATM    1  C4  UNL     1     -20.303  -4.630 -14.406  1.00  0.00     0.095 C 
HETATM    2  N3  UNL     1     -20.645  -3.995 -15.454  1.00  0.00    -0.299 N 
ATOM      3  H3  UNL     1     -21.436  -3.354 -15.381  1.00  0.00     0.186 HD
ENDROOT
BRANCH   1   4
HETATM    4  C3  UNL     1     -19.179  -5.557 -14.463  1.00  0.00     0.283 C 
HETATM    5  N2  UNL     1     -19.395  -6.949 -14.792  1.00  0.00    -0.265 N 
ATOM      6  H2  UNL     1     -20.345  -7.271 -14.981  1.00  0.00     0.190 HD
HETATM    7  O3  UNL     1     -17.998  -5.251 -14.248  1.00  0.00    -0.265 OA
BRANCH   5   8
HETATM    8  N1  UNL     1     -18.354  -7.857 -14.857  1.00  0.00    -0.302 N 
HETATM    9  C2  UNL     1     -17.906  -8.297 -15.966  1.00  0.00     0.191 C 
ATOM     10  H1  UNL     1     -17.932  -8.185 -13.989  1.00  0.00     0.186 HD
BRANCH   9  11
HETATM   11  C1  UNL     1     -16.796  -9.263 -15.988  1.00  0.00     0.216 C 
HETATM   12  O1  UNL     1     -16.978 -10.462 -16.317  1.00  0.00    -0.643 OA
HETATM   13  O2  UNL     1     -15.522  -8.863 -15.640  1.00  0.00    -0.643 OA
ENDBRANCH   9  11
ENDBRANCH   5   8
ENDBRANCH   1   4
BRANCH   1  14
HETATM   14  C5  UNL     1     -21.004  -4.478 -13.121  1.00  0.00     0.075 C 
BRANCH  14  15
HETATM   15  C6  UNL     1     -21.967  -5.538 -12.748  1.00  0.00     0.119 C 
BRANCH  15  16
HETATM   16  C7  UNL     1     -21.403  -6.748 -12.122  1.00  0.00     0.172 C 
HETATM   17  O4  UNL     1     -21.551  -7.866 -12.643  1.00  0.00    -0.648 OA
HETATM   18  O5  UNL     1     -20.684  -6.711 -10.930  1.00  0.00    -0.648 OA
ENDBRANCH  15  16
ENDBRANCH  14  15
ENDBRANCH   1  14
BRANCH   2  19
HETATM   19  N4  UNL     1     -20.030  -4.105 -16.676  1.00  0.00    -0.301 N 
ATOM     20  H4  UNL     1     -19.146  -3.622 -16.837  1.00  0.00     0.187 HD
BRANCH  19  21
HETATM   21  C8  UNL     1     -20.611  -4.896 -17.741  1.00  0.00     0.048 A 
HETATM   22  C9  UNL     1     -21.107  -6.121 -17.803  1.00  0.00     0.031 A 
HETATM   23  C10 UNL     1     -21.401  -5.956 -19.204  1.00  0.00     0.005 A 
HETATM   24  C11 UNL     1     -20.911  -4.741 -19.151  1.00  0.00     0.031 A 
ENDBRANCH  19  21
ENDBRANCH   2  19
TORSDOF 8
ENDMDL
MODEL 4
REMARK VINA RESULT: -5.489801697      1.072      1.082
REMARK  8 active torsions:
REMARK  status: ('A' for Active; 'I' for Inactive)
REMARK    1  A    between atoms: C1_2  and  C2_4 
REMARK    2  A    between atoms: N1_5  and  N2_7 
REMARK       I    between atoms: N2_7  and  C3_9 
REMARK    3  A    between atoms: C3_9  and  C4_11 
REMARK    4  A    between atoms: C4_11  and  C5_12 
REMARK    5  A    between atoms: C5_12  and  C6_13 
REMARK    6  A    between atoms: C6_13  and  C7_14 
REMARK    7  A    between atoms: N3_17  and  N4_19 
REMARK    8  A    between atoms: N4_19  and  C8_21 
ROOT
HETATM    1  C4  UNL     1     -20.466  -4.656 -14.416  1.00  0.00     0.095 C 
HETATM    2  N3  UNL     1     -20.941  -4.100 -15.458  1.00  0.00    -0.299 N 
ATOM      3  H3  UNL     1     -21.748  -3.487 -15.339  1.00  0.00     0.186 HD
ENDROOT
BRANCH   1   4
HETATM    4  C3  UNL     1     -19.314  -5.542 -14.538  1.00  0.00     0.283 C 
HETATM    5  N2  UNL     1     -19.502  -6.958 -14.763  1.00  0.00    -0.265 N 
ATOM      6  H2  UNL     1     -20.451  -7.326 -14.834  1.00  0.00     0.190 HD
HETATM    7  O3  UNL     1     -18.131  -5.180 -14.464  1.00  0.00    -0.265 OA
BRANCH   5   8
HETATM    8  N1  UNL     1     -18.434  -7.829 -14.886  1.00  0.00    -0.302 N 
HETATM    9  C2  UNL     1     -18.026  -8.247 -16.018  1.00  0.00     0.191 C 
ATOM     10  H1  UNL     1     -17.959  -8.147 -14.041  1.00  0.00     0.186 HD
BRANCH   9  11
HETATM   11  C1  UNL     1     -16.885  -9.174 -16.100  1.00  0.00     0.216 C 
HETATM   12  O1  UNL     1     -15.709  -8.785 -15.887  1.00  0.00    -0.643 OA
HETATM   13  O2  UNL     1     -17.091 -10.500 -16.418  1.00  0.00    -0.643 OA
ENDBRANCH   9  11
ENDBRANCH   5   8
ENDBRANCH   1   4
BRANCH   1  14
HETATM   14  C5  UNL     1     -21.036  -4.450 -13.075  1.00  0.00     0.075 C 
BRANCH  14  15
HETATM   15  C6  UNL     1     -22.019  -5.450 -12.601  1.00  0.00     0.119 C 
BRANCH  15  16
HETATM   16  C7  UNL     1     -21.470  -6.703 -12.052  1.00  0.00     0.172 C 
HETATM   17  O4  UNL     1     -21.717  -7.798 -12.584  1.00  0.00    -0.648 OA
HETATM   18  O5  UNL     1     -20.655  -6.734 -10.922  1.00  0.00    -0.648 OA
ENDBRANCH  15  16
ENDBRANCH  14  15
ENDBRANCH   1  14
BRANCH   2  19
HETATM   19  N4  UNL     1     -20.451  -4.263 -16.729  1.00  0.00    -0.301 N 
ATOM     20  H4  UNL     1     -19.810  -5.033 -16.923  1.00  0.00     0.187 HD
BRANCH  19  21
HETATM   21  C8  UNL     1     -20.826  -3.364 -17.801  1.00  0.00     0.048 A 
HETATM   22  C9  UNL     1     -20.967  -3.510 -19.108  1.00  0.00     0.031 A 
HETATM   23  C10 UNL     1     -21.340  -2.125 -19.246  1.00  0.00     0.005 A 
HETATM   24  C11 UNL     1     -21.201  -1.972 -17.951  1.00  0.00     0.031 A 
ENDBRANCH  19  21
ENDBRANCH   2  19
TORSDOF 8
ENDMDL
MODEL 5
REMARK VINA RESULT: -5.458289205      3.085      4.732
REMARK  8 active torsions:
REMARK  status: ('A' for Active; 'I' for Inactive)
REMARK    1  A    between atoms: C1_2  and  C2_4 
REMARK    2  A    between atoms: N1_5  and  N2_7 
REMARK       I    between atoms: N2_7  and  C3_9 
REMARK    3  A    between atoms: C3_9  and  C4_11 
REMARK    4  A    between atoms: C4_11  and  C5_12 
REMARK    5  A    between atoms: C5_12  and  C6_13 
REMARK    6  A    between atoms: C6_13  and  C7_14 
REMARK    7  A    between atoms: N3_17  and  N4_19 
REMARK    8  A    between atoms: N4_19  and  C8_21 
ROOT
HETATM    1  C4  UNL     1     -19.672  -7.294 -13.265  1.00  0.00     0.095 C 
HETATM    2  N3  UNL     1     -18.412  -7.314 -13.085  1.00  0.00    -0.299 N 
ATOM      3  H3  UNL     1     -18.068  -7.155 -12.137  1.00  0.00     0.186 HD
ENDROOT
BRANCH   1   4
HETATM    4  C3  UNL     1     -20.208  -7.516 -14.602  1.00  0.00     0.283 C 
HETATM    5  N2  UNL     1     -20.344  -6.412 -15.528  1.00  0.00    -0.265 N 
ATOM      6  H2  UNL     1     -20.060  -5.479 -15.229  1.00  0.00     0.190 HD
HETATM    7  O3  UNL     1     -20.577  -8.613 -15.045  1.00  0.00    -0.265 OA
BRANCH   5   8
HETATM    8  N1  UNL     1     -20.848  -6.584 -16.804  1.00  0.00    -0.302 N 
HETATM    9  C2  UNL     1     -20.111  -6.498 -17.842  1.00  0.00     0.191 C 
ATOM     10  H1  UNL     1     -21.841  -6.785 -16.919  1.00  0.00     0.186 HD
BRANCH   9  11
HETATM   11  C1  UNL     1     -20.691  -6.688 -19.181  1.00  0.00     0.216 C 
HETATM   12  O1  UNL     1     -21.665  -5.999 -19.576  1.00  0.00    -0.643 OA
HETATM   13  O2  UNL     1     -20.168  -7.638 -20.034  1.00  0.00    -0.643 OA
ENDBRANCH   9  11
ENDBRANCH   5   8
ENDBRANCH   1   4
BRANCH   1  14
HETATM   14  C5  UNL     1     -20.627  -7.047 -12.173  1.00  0.00     0.075 C 
BRANCH  14  15
HETATM   15  C6  UNL     1     -21.885  -6.350 -12.523  1.00  0.00     0.119 C 
BRANCH  15  16
HETATM   16  C7  UNL     1     -21.830  -4.877 -12.566  1.00  0.00     0.172 C 
HETATM   17  O4  UNL     1     -21.598  -4.276 -13.628  1.00  0.00    -0.648 OA
HETATM   18  O5  UNL     1     -22.030  -4.085 -11.438  1.00  0.00    -0.648 OA
ENDBRANCH  15  16
ENDBRANCH  14  15
ENDBRANCH   1  14
BRANCH   2  19
HETATM   19  N4  UNL     1     -17.481  -7.534 -14.068  1.00  0.00    -0.301 N 
ATOM     20  H4  UNL     1     -17.228  -8.491 -14.313  1.00  0.00     0.187 HD
BRANCH  19  21
HETATM   21  C8  UNL     1     -16.849  -6.432 -14.765  1.00  0.00     0.048 A 
HETATM   22  C9  UNL     1     -17.141  -5.149 -14.897  1.00  0.00     0.031 A 
HETATM   23  C10 UNL     1     -15.976  -4.944 -15.719  1.00  0.00     0.005 A 
HETATM   24  C11 UNL     1     -15.680  -6.216 -15.594  1.00  0.00     0.031 A 
ENDBRANCH  19  21
ENDBRANCH   2  19
TORSDOF 8
ENDMDL
