MODEL 1
REMARK VINA RESULT: -5.189163138      0.000      0.000
REMARK  9 active torsions:
REMARK  status: ('A' for Active; 'I' for Inactive)
REMARK    1  A    between atoms: N1_1  and  C1_5 
REMARK    2  A    between atoms: C1_5  and  C2_6 
REMARK    3  A    between atoms: C2_6  and  C3_7 
REMARK    4  A    between atoms: C3_7  and  N2_8 
REMARK    5  A    between atoms: C4_10  and  N3_11 
REMARK    6  A    between atoms: N3_11  and  N4_13 
REMARK    7  A    between atoms: C5_15  and  C6_17 
REMARK    8  A    between atoms: C9_24  and  N8_25 
REMARK    9  A    between atoms: N8_25  and  C10_27 
ROOT
HETATM    1  N4  UNL     1     -21.473  -4.162 -13.730  1.00  0.00    -0.285 N 
ATOM      2  H4  UNL     1     -22.334  -4.040 -14.263  1.00  0.00     0.188 HD
HETATM    3  C5  UNL     1     -20.380  -3.809 -14.255  1.00  0.00     0.161 C 
HETATM    4  N5  UNL     1     -19.219  -4.029 -13.407  1.00  0.00    -0.079 NA
ENDROOT
BRANCH   3   5
HETATM    5  C6  UNL     1     -20.184  -3.233 -15.559  1.00  0.00     0.119 A 
HETATM    6  N6  UNL     1     -20.745  -1.990 -15.782  1.00  0.00    -0.359 N 
HETATM    7  C7  UNL     1     -20.652  -1.330 -16.928  1.00  0.00     0.105 A 
ATOM      8  H6  UNL     1     -21.263  -1.553 -15.019  1.00  0.00     0.165 HD
HETATM    9  C8  UNL     1     -19.938  -1.956 -17.950  1.00  0.00     0.106 A 
HETATM   10  N7  UNL     1     -19.380  -3.149 -17.790  1.00  0.00    -0.349 N 
HETATM   11  C9  UNL     1     -19.500  -3.807 -16.573  1.00  0.00     0.132 A 
ATOM     12  H7  UNL     1     -18.864  -3.580 -18.557  1.00  0.00     0.167 HD
BRANCH  11  13
HETATM   13  N8  UNL     1     -18.886  -5.074 -16.458  1.00  0.00    -0.370 N 
ATOM     14  H8  UNL     1     -18.074  -5.204 -15.854  1.00  0.00     0.161 HD
BRANCH  13  15
HETATM   15  C10 UNL     1     -19.442  -6.218 -17.232  1.00  0.00     0.083 A 
HETATM   16  C11 UNL     1     -20.906  -6.325 -17.300  1.00  0.00     0.027 A 
HETATM   17  C12 UNL     1     -20.181  -7.273 -16.389  1.00  0.00     0.027 A 
ENDBRANCH  13  15
ENDBRANCH  11  13
ENDBRANCH   3   5
BRANCH   1  18
HETATM   18  N3  UNL     1     -21.549  -4.710 -12.459  1.00  0.00    -0.295 N 
ATOM     19  H3  UNL     1     -21.055  -4.256 -11.691  1.00  0.00     0.187 HD
BRANCH  18  20
HETATM   20  C4  UNL     1     -22.300  -5.889 -12.201  1.00  0.00     0.192 C 
HETATM   21  N2  UNL     1     -21.702  -7.012 -12.218  1.00  0.00    -0.385 N 
ATOM     22  H2  UNL     1     -22.268  -7.839 -12.030  1.00  0.00     0.160 HD
BRANCH  21  23
HETATM   23  C3  UNL     1     -20.310  -7.225 -12.476  1.00  0.00     0.122 C 
BRANCH  23  24
HETATM   24  C2  UNL     1     -19.596  -7.551 -11.175  1.00  0.00     0.047 C 
BRANCH  24  25
HETATM   25  C1  UNL     1     -18.221  -6.896 -11.261  1.00  0.00     0.231 C 
BRANCH  25  26
HETATM   26  N1  UNL     1     -17.717  -6.762  -9.911  1.00  0.00    -0.079 N 
ATOM     27  H13 UNL     1     -17.760  -5.804  -9.564  1.00  0.00     0.274 HD
ATOM     28  H12 UNL     1     -18.331  -7.184  -9.213  1.00  0.00     0.274 HD
ATOM     29  H11 UNL     1     -16.773  -7.149  -9.895  1.00  0.00     0.274 HD
ENDBRANCH  25  26
ENDBRANCH  24  25
ENDBRANCH  23  24
ENDBRANCH  21  23
ENDBRANCH  18  20
ENDBRANCH   1  18
TORSDOF 9
ENDMDL
MODEL 2
REMARK VINA RESULT: -5.100750451      1.412      3.167
REMARK  9 active torsions:
REMARK  status: ('A' for Active; 'I' for Inactive)
REMARK    1  A    between atoms: N1_1  and  C1_5 
REMARK    2  A    between atoms: C1_5  and  C2_6 
REMARK    3  A    between atoms: C2_6  and  C3_7 
REMARK    4  A    between atoms: C3_7  and  N2_8 
REMARK    5  A    between atoms: C4_10  and  N3_11 
REMARK    6  A    between atoms: N3_11  and  N4_13 
REMARK    7  A    between atoms: C5_15  and  C6_17 
REMARK    8  A    between atoms: C9_24  and  N8_25 
REMARK    9  A    between atoms: N8_25  and  C10_27 
ROOT
HETATM    1  N4  UNL     1     -21.476  -4.410 -14.067  1.00  0.00    -0.285 N 
ATOM      2  H4  UNL     1     -22.396  -4.563 -14.481  1.00  0.00     0.188 HD
HETATM    3  C5  UNL     1     -20.538  -4.004 -14.808  1.00  0.00     0.161 C 
HETATM    4  N5  UNL     1     -19.274  -3.820 -14.112  1.00  0.00    -0.079 NA
ENDROOT
BRANCH   3   5
HETATM    5  C6  UNL     1     -20.600  -3.718 -16.217  1.00  0.00     0.119 A 
HETATM    6  N6  UNL     1     -20.660  -4.803 -17.071  1.00  0.00    -0.359 N 
HETATM    7  C7  UNL     1     -20.721  -4.703 -18.391  1.00  0.00     0.105 A 
ATOM      8  H6  UNL     1     -20.658  -5.737 -16.661  1.00  0.00     0.165 HD
HETATM    9  C8  UNL     1     -20.722  -3.411 -18.918  1.00  0.00     0.106 A 
HETATM   10  N7  UNL     1     -20.664  -2.335 -18.144  1.00  0.00    -0.349 N 
HETATM   11  C9  UNL     1     -20.602  -2.483 -16.764  1.00  0.00     0.132 A 
ATOM     12  H7  UNL     1     -20.666  -1.404 -18.560  1.00  0.00     0.167 HD
BRANCH  11  13
HETATM   13  N8  UNL     1     -20.542  -1.304 -15.988  1.00  0.00    -0.370 N 
ATOM     14  H8  UNL     1     -21.272  -1.095 -15.307  1.00  0.00     0.161 HD
BRANCH  13  15
HETATM   15  C10 UNL     1     -19.398  -0.371 -16.180  1.00  0.00     0.083 A 
HETATM   16  C11 UNL     1     -18.346  -0.391 -15.155  1.00  0.00     0.027 A 
HETATM   17  C12 UNL     1     -19.307   0.764 -15.144  1.00  0.00     0.027 A 
ENDBRANCH  13  15
ENDBRANCH  11  13
ENDBRANCH   3   5
BRANCH   1  18
HETATM   18  N3  UNL     1     -21.307  -4.655 -12.713  1.00  0.00    -0.295 N 
ATOM     19  H3  UNL     1     -20.648  -4.085 -12.182  1.00  0.00     0.187 HD
BRANCH  18  20
HETATM   20  C4  UNL     1     -22.029  -5.683 -12.048  1.00  0.00     0.192 C 
HETATM   21  N2  UNL     1     -21.470  -6.813 -11.876  1.00  0.00    -0.385 N 
ATOM     22  H2  UNL     1     -22.015  -7.529 -11.396  1.00  0.00     0.160 HD
BRANCH  21  23
HETATM   23  C3  UNL     1     -20.150  -7.174 -12.293  1.00  0.00     0.122 C 
BRANCH  23  24
HETATM   24  C2  UNL     1     -19.340  -7.622 -11.087  1.00  0.00     0.047 C 
BRANCH  24  25
HETATM   25  C1  UNL     1     -18.055  -6.802 -11.101  1.00  0.00     0.231 C 
BRANCH  25  26
HETATM   26  N1  UNL     1     -17.576  -6.718  -9.737  1.00  0.00    -0.079 N 
ATOM     27  H13 UNL     1     -17.144  -5.820  -9.523  1.00  0.00     0.274 HD
ATOM     28  H12 UNL     1     -18.332  -6.669  -9.053  1.00  0.00     0.274 HD
ATOM     29  H11 UNL     1     -16.950  -7.508  -9.582  1.00  0.00     0.274 HD
ENDBRANCH  25  26
ENDBRANCH  24  25
ENDBRANCH  23  24
ENDBRANCH  21  23
ENDBRANCH  18  20
ENDBRANCH   1  18
TORSDOF 9
ENDMDL
MODEL 3
REMARK VINA RESULT: -5.064819381      2.483      4.699
REMARK  9 active torsions:
REMARK  status: ('A' for Active; 'I' for Inactive)
REMARK    1  A    between atoms: N1_1  and  C1_5 
REMARK    2  A    between atoms: C1_5  and  C2_6 
REMARK    3  A    between atoms: C2_6  and  C3_7 
REMARK    4  A    between atoms: C3_7  and  N2_8 
REMARK    5  A    between atoms: C4_10  and  N3_11 
REMARK    6  A    between atoms: N3_11  and  N4_13 
REMARK    7  A    between atoms: C5_15  and  C6_17 
REMARK    8  A    between atoms: C9_24  and  N8_25 
REMARK    9  A    between atoms: N8_25  and  C10_27 
ROOT
HETATM    1  N4  UNL     1     -18.685  -7.544 -13.397  1.00  0.00    -0.285 N 
ATOM      2  H4  UNL     1     -18.794  -8.545 -13.228  1.00  0.00     0.188 HD
HETATM    3  C5  UNL     1     -18.351  -7.158 -14.551  1.00  0.00     0.161 C 
HETATM    4  N5  UNL     1     -18.224  -5.714 -14.677  1.00  0.00    -0.079 NA
ENDROOT
BRANCH   3   5
HETATM    5  C6  UNL     1     -18.094  -7.977 -15.706  1.00  0.00     0.119 A 
HETATM    6  N6  UNL     1     -17.026  -8.851 -15.626  1.00  0.00    -0.359 N 
HETATM    7  C7  UNL     1     -16.663  -9.668 -16.603  1.00  0.00     0.105 A 
ATOM      8  H6  UNL     1     -16.484  -8.867 -14.761  1.00  0.00     0.165 HD
HETATM    9  C8  UNL     1     -17.426  -9.619 -17.771  1.00  0.00     0.106 A 
HETATM   10  N7  UNL     1     -18.460  -8.799 -17.901  1.00  0.00    -0.349 N 
HETATM   11  C9  UNL     1     -18.808  -7.957 -16.853  1.00  0.00     0.132 A 
ATOM     12  H7  UNL     1     -18.997  -8.786 -18.768  1.00  0.00     0.167 HD
BRANCH  11  13
HETATM   13  N8  UNL     1     -19.918  -7.105 -17.046  1.00  0.00    -0.370 N 
ATOM     14  H8  UNL     1     -20.707  -7.127 -16.400  1.00  0.00     0.161 HD
BRANCH  13  15
HETATM   15  C10 UNL     1     -19.918  -6.173 -18.207  1.00  0.00     0.083 A 
HETATM   16  C11 UNL     1     -20.711  -4.944 -18.073  1.00  0.00     0.027 A 
HETATM   17  C12 UNL     1     -21.270  -6.041 -18.932  1.00  0.00     0.027 A 
ENDBRANCH  13  15
ENDBRANCH  11  13
ENDBRANCH   3   5
BRANCH   1  18
HETATM   18  N3  UNL     1     -18.909  -6.664 -12.349  1.00  0.00    -0.295 N 
ATOM     19  H3  UNL     1     -18.501  -5.731 -12.387  1.00  0.00     0.187 HD
BRANCH  18  20
HETATM   20  C4  UNL     1     -19.697  -7.033 -11.224  1.00  0.00     0.192 C 
HETATM   21  N2  UNL     1     -20.964  -6.961 -11.313  1.00  0.00    -0.385 N 
ATOM     22  H2  UNL     1     -21.500  -7.231 -10.489  1.00  0.00     0.160 HD
BRANCH  21  23
HETATM   23  C3  UNL     1     -21.708  -6.537 -12.459  1.00  0.00     0.122 C 
BRANCH  23  24
HETATM   24  C2  UNL     1     -22.241  -5.133 -12.229  1.00  0.00     0.047 C 
BRANCH  24  25
HETATM   25  C1  UNL     1     -21.438  -4.211 -13.141  1.00  0.00     0.231 C 
BRANCH  25  26
HETATM   26  N1  UNL     1     -21.189  -4.927 -14.374  1.00  0.00    -0.079 N 
ATOM     27  H13 UNL     1     -21.513  -5.893 -14.345  1.00  0.00     0.274 HD
ATOM     28  H12 UNL     1     -21.780  -4.611 -15.144  1.00  0.00     0.274 HD
ATOM     29  H11 UNL     1     -20.193  -4.848 -14.580  1.00  0.00     0.274 HD
ENDBRANCH  25  26
ENDBRANCH  24  25
ENDBRANCH  23  24
ENDBRANCH  21  23
ENDBRANCH  18  20
ENDBRANCH   1  18
TORSDOF 9
ENDMDL
MODEL 4
REMARK VINA RESULT: -4.971121468      2.706      4.589
REMARK  9 active torsions:
REMARK  status: ('A' for Active; 'I' for Inactive)
REMARK    1  A    between atoms: N1_1  and  C1_5 
REMARK    2  A    between atoms: C1_5  and  C2_6 
REMARK    3  A    between atoms: C2_6  and  C3_7 
REMARK    4  A    between atoms: C3_7  and  N2_8 
REMARK    5  A    between atoms: C4_10  and  N3_11 
REMARK    6  A    between atoms: N3_11  and  N4_13 
REMARK    7  A    between atoms: C5_15  and  C6_17 
REMARK    8  A    between atoms: C9_24  and  N8_25 
REMARK    9  A    between atoms: N8_25  and  C10_27 
ROOT
HETATM    1  N4  UNL     1     -19.351  -7.582 -13.510  1.00  0.00    -0.285 N 
ATOM      2  H4  UNL     1     -18.517  -7.010 -13.375  1.00  0.00     0.188 HD
HETATM    3  C5  UNL     1     -19.690  -7.892 -14.686  1.00  0.00     0.161 C 
HETATM    4  N5  UNL     1     -20.892  -8.708 -14.760  1.00  0.00    -0.079 NA
ENDROOT
BRANCH   3   5
HETATM    5  C6  UNL     1     -19.026  -7.529 -15.911  1.00  0.00     0.119 A 
HETATM    6  N6  UNL     1     -19.634  -6.561 -16.687  1.00  0.00    -0.359 N 
HETATM    7  C7  UNL     1     -19.147  -6.121 -17.838  1.00  0.00     0.105 A 
ATOM      8  H6  UNL     1     -20.511  -6.160 -16.353  1.00  0.00     0.165 HD
HETATM    9  C8  UNL     1     -17.947  -6.691 -18.264  1.00  0.00     0.106 A 
HETATM   10  N7  UNL     1     -17.322  -7.624 -17.559  1.00  0.00    -0.349 N 
HETATM   11  C9  UNL     1     -17.865  -8.058 -16.357  1.00  0.00     0.132 A 
ATOM     12  H7  UNL     1     -16.446  -8.021 -17.898  1.00  0.00     0.167 HD
BRANCH  11  13
HETATM   13  N8  UNL     1     -17.158  -9.053 -15.647  1.00  0.00    -0.370 N 
ATOM     14  H8  UNL     1     -17.629  -9.904 -15.339  1.00  0.00     0.161 HD
BRANCH  13  15
HETATM   15  C10 UNL     1     -15.713  -8.843 -15.356  1.00  0.00     0.083 A 
HETATM   16  C11 UNL     1     -15.033  -9.888 -14.578  1.00  0.00     0.027 A 
HETATM   17  C12 UNL     1     -15.379  -8.609 -13.871  1.00  0.00     0.027 A 
ENDBRANCH  13  15
ENDBRANCH  11  13
ENDBRANCH   3   5
BRANCH   1  18
HETATM   18  N3  UNL     1     -20.067  -7.988 -12.395  1.00  0.00    -0.295 N 
ATOM     19  H3  UNL     1     -20.497  -8.913 -12.388  1.00  0.00     0.187 HD
BRANCH  18  20
HETATM   20  C4  UNL     1     -20.217  -7.144 -11.260  1.00  0.00     0.192 C 
HETATM   21  N2  UNL     1     -21.147  -6.276 -11.260  1.00  0.00    -0.385 N 
ATOM     22  H2  UNL     1     -21.227  -5.686 -10.432  1.00  0.00     0.160 HD
BRANCH  21  23
HETATM   23  C3  UNL     1     -22.090  -6.048 -12.312  1.00  0.00     0.122 C 
BRANCH  23  24
HETATM   24  C2  UNL     1     -22.013  -4.598 -12.759  1.00  0.00     0.047 C 
BRANCH  24  25
HETATM   25  C1  UNL     1     -21.198  -4.585 -14.048  1.00  0.00     0.231 C 
BRANCH  25  26
HETATM   26  N1  UNL     1     -19.860  -4.145 -13.714  1.00  0.00    -0.079 N 
ATOM     27  H13 UNL     1     -19.499  -3.445 -14.362  1.00  0.00     0.274 HD
ATOM     28  H12 UNL     1     -19.829  -3.573 -12.869  1.00  0.00     0.274 HD
ATOM     29  H11 UNL     1     -19.269  -4.974 -13.655  1.00  0.00     0.274 HD
ENDBRANCH  25  26
ENDBRANCH  24  25
ENDBRANCH  23  24
ENDBRANCH  21  23
ENDBRANCH  18  20
ENDBRANCH   1  18
TORSDOF 9
ENDMDL
MODEL 5
REMARK VINA RESULT: -4.963390315      2.154      4.202
REMARK  9 active torsions:
REMARK  status: ('A' for Active; 'I' for Inactive)
REMARK    1  A    between atoms: N1_1  and  C1_5 
REMARK    2  A    between atoms: C1_5  and  C2_6 
REMARK    3  A    between atoms: C2_6  and  C3_7 
REMARK    4  A    between atoms: C3_7  and  N2_8 
REMARK    5  A    between atoms: C4_10  and  N3_11 
REMARK    6  A    between atoms: N3_11  and  N4_13 
REMARK    7  A    between atoms: C5_15  and  C6_17 
REMARK    8  A    between atoms: C9_24  and  N8_25 
REMARK    9  A    between atoms: N8_25  and  C10_27 
ROOT
HETATM    1  N4  UNL     1     -19.054  -7.447 -13.651  1.00  0.00    -0.285 N 
ATOM      2  H4  UNL     1     -18.219  -7.045 -13.225  1.00  0.00     0.188 HD
HETATM    3  C5  UNL     1     -19.116  -7.522 -14.910  1.00  0.00     0.161 C 
HETATM    4  N5  UNL     1     -20.349  -8.111 -15.407  1.00  0.00    -0.079 NA
ENDROOT
BRANCH   3   5
HETATM    5  C6  UNL     1     -18.121  -7.097 -15.860  1.00  0.00     0.119 A 
HETATM    6  N6  UNL     1     -16.877  -7.692 -15.768  1.00  0.00    -0.359 N 
HETATM    7  C7  UNL     1     -15.860  -7.408 -16.568  1.00  0.00     0.105 A 
ATOM      8  H6  UNL     1     -16.733  -8.392 -15.039  1.00  0.00     0.165 HD
HETATM    9  C8  UNL     1     -16.092  -6.447 -17.552  1.00  0.00     0.106 A 
HETATM   10  N7  UNL     1     -17.266  -5.844 -17.684  1.00  0.00    -0.349 N 
HETATM   11  C9  UNL     1     -18.308  -6.170 -16.825  1.00  0.00     0.132 A 
ATOM     12  H7  UNL     1     -17.403  -5.144 -18.413  1.00  0.00     0.167 HD
BRANCH  11  13
HETATM   13  N8  UNL     1     -19.536  -5.498 -17.010  1.00  0.00    -0.370 N 
ATOM     14  H8  UNL     1     -20.401  -5.887 -16.635  1.00  0.00     0.161 HD
BRANCH  13  15
HETATM   15  C10 UNL     1     -19.549  -4.213 -17.762  1.00  0.00     0.083 A 
HETATM   16  C11 UNL     1     -20.641  -3.277 -17.460  1.00  0.00     0.027 A 
HETATM   17  C12 UNL     1     -20.722  -4.049 -18.746  1.00  0.00     0.027 A 
ENDBRANCH  13  15
ENDBRANCH  11  13
ENDBRANCH   3   5
BRANCH   1  18
HETATM   18  N3  UNL     1     -20.076  -7.890 -12.826  1.00  0.00    -0.295 N 
ATOM     19  H3  UNL     1     -20.689  -8.637 -13.150  1.00  0.00     0.187 HD
BRANCH  18  20
HETATM   20  C4  UNL     1     -20.288  -7.326 -11.538  1.00  0.00     0.192 C 
HETATM   21  N2  UNL     1     -21.232  -6.487 -11.384  1.00  0.00    -0.385 N 
ATOM     22  H2  UNL     1     -21.358  -6.100 -10.449  1.00  0.00     0.160 HD
BRANCH  21  23
HETATM   23  C3  UNL     1     -22.134  -6.034 -12.399  1.00  0.00     0.122 C 
BRANCH  23  24
HETATM   24  C2  UNL     1     -21.902  -4.555 -12.662  1.00  0.00     0.047 C 
BRANCH  24  25
HETATM   25  C1  UNL     1     -21.089  -4.468 -13.949  1.00  0.00     0.231 C 
BRANCH  25  26
HETATM   26  N1  UNL     1     -19.729  -4.127 -13.584  1.00  0.00    -0.079 N 
ATOM     27  H13 UNL     1     -19.573  -4.142 -12.576  1.00  0.00     0.274 HD
ATOM     28  H12 UNL     1     -19.057  -4.852 -13.834  1.00  0.00     0.274 HD
ATOM     29  H11 UNL     1     -19.515  -3.223 -14.005  1.00  0.00     0.274 HD
ENDBRANCH  25  26
ENDBRANCH  24  25
ENDBRANCH  23  24
ENDBRANCH  21  23
ENDBRANCH  18  20
ENDBRANCH   1  18
TORSDOF 9
ENDMDL
