MODEL 1
REMARK VINA RESULT: -5.920838552      0.000      0.000
REMARK  8 active torsions:
REMARK  status: ('A' for Active; 'I' for Inactive)
REMARK    1  A    between atoms: C2_2  and  C3_3 
REMARK    2  A    between atoms: C3_3  and  N1_4 
REMARK    3  A    between atoms: N1_4  and  C4_7 
REMARK    4  A    between atoms: C4_7  and  C5_8 
REMARK    5  A    between atoms: C5_8  and  C6_9 
REMARK    6  A    between atoms: C6_9  and  C7_11 
REMARK    7  A    between atoms: C7_11  and  S1_13 
REMARK    8  A    between atoms: S1_13  and  C9_14 
ROOT
HETATM    1  C9  UNL     1     -20.277  -6.463 -13.951  1.00  0.00     0.164 A 
HETATM    2  N2  UNL     1     -19.804  -7.444 -13.180  1.00  0.00    -0.288 N 
ATOM      3  H2  UNL     1     -19.053  -8.042 -13.526  1.00  0.00     0.172 HD
HETATM    4  C10 UNL     1     -20.315  -7.654 -11.930  1.00  0.00     0.340 A 
HETATM    5  O2  UNL     1     -19.887  -8.568 -11.190  1.00  0.00    -0.246 OA
HETATM    6  N3  UNL     1     -21.297  -6.874 -11.470  1.00  0.00    -0.141 N 
ATOM      7  H3  UNL     1     -21.680  -7.029 -10.537  1.00  0.00     0.189 HD
HETATM    8  C11 UNL     1     -21.770  -5.897 -12.234  1.00  0.00     0.681 A 
HETATM    9  N4  UNL     1     -22.718  -5.091 -11.878  1.00  0.00    -0.234 N 
ATOM     10  H41 UNL     1     -23.081  -4.340 -12.465  1.00  0.00     0.174 HD
ATOM     11  H42 UNL     1     -23.099  -5.248 -10.945  1.00  0.00     0.174 HD
HETATM   12  N5  UNL     1     -21.258  -5.686 -13.487  1.00  0.00    -0.170 N 
ATOM     13  H5  UNL     1     -21.628  -4.934 -14.067  1.00  0.00     0.186 HD
ENDROOT
BRANCH   1  14
HETATM   14  S1  UNL     1     -19.609  -6.199 -15.566  1.00  0.00    -0.081 SA
BRANCH  14  15
HETATM   15  C7  UNL     1     -20.742  -5.189 -16.516  1.00  0.00     0.120 C 
HETATM   16  C8  UNL     1     -21.082  -5.823 -17.847  1.00  0.00     0.030 C 
BRANCH  15  17
HETATM   17  C6  UNL     1     -20.260  -3.810 -16.729  1.00  0.00     0.142 C 
HETATM   18  O1  UNL     1     -19.727  -3.417 -17.750  1.00  0.00    -0.297 OA
BRANCH  17  19
HETATM   19  C5  UNL     1     -20.439  -2.841 -15.614  1.00  0.00     0.107 C 
BRANCH  19  20
HETATM   20  C4  UNL     1     -20.099  -1.425 -16.033  1.00  0.00     0.240 C 
BRANCH  20  21
HETATM   21  N1  UNL     1     -21.279  -0.880 -16.673  1.00  0.00    -0.072 N 
ATOM     22  H12 UNL     1     -21.836  -0.345 -16.006  1.00  0.00     0.277 HD
ATOM     23  H11 UNL     1     -21.944  -1.621 -16.894  1.00  0.00     0.277 HD
BRANCH  21  24
HETATM   24  C3  UNL     1     -20.992  -0.096 -17.833  1.00  0.00     0.259 C 
BRANCH  24  25
HETATM   25  C2  UNL     1     -22.010  -0.407 -18.866  1.00  0.00    -0.010 C 
HETATM   26  C1  UNL     1     -21.906  -1.528 -19.563  1.00  0.00     0.008 C 
ENDBRANCH  24  25
ENDBRANCH  21  24
ENDBRANCH  20  21
ENDBRANCH  19  20
ENDBRANCH  17  19
ENDBRANCH  15  17
ENDBRANCH  14  15
ENDBRANCH   1  14
TORSDOF 8
ENDMDL
MODEL 2
REMARK VINA RESULT: -5.919400317      1.152      1.952
REMARK  8 active torsions:
REMARK  status: ('A' for Active; 'I' for Inactive)
REMARK    1  A    between atoms: C2_2  and  C3_3 
REMARK    2  A    between atoms: C3_3  and  N1_4 
REMARK    3  A    between atoms: N1_4  and  C4_7 
REMARK    4  A    between atoms: C4_7  and  C5_8 
REMARK    5  A    between atoms: C5_8  and  C6_9 
REMARK    6  A    between atoms: C6_9  and  C7_11 
REMARK    7  A    between atoms: C7_11  and  S1_13 
REMARK    8  A    between atoms: S1_13  and  C9_14 
ROOT
HETATM    1  C9  UNL     1     -20.370  -6.359 -13.910  1.00  0.00     0.164 A 
HETATM    2  N2  UNL     1     -19.940  -7.391 -13.180  1.00  0.00    -0.288 N 
ATOM      3  H2  UNL     1     -19.226  -8.014 -13.558  1.00  0.00     0.172 HD
HETATM    4  C10 UNL     1     -20.447  -7.619 -11.932  1.00  0.00     0.340 A 
HETATM    5  O2  UNL     1     -20.058  -8.581 -11.230  1.00  0.00    -0.246 OA
HETATM    6  N3  UNL     1     -21.380  -6.807 -11.431  1.00  0.00    -0.141 N 
ATOM      7  H3  UNL     1     -21.760  -6.974 -10.499  1.00  0.00     0.189 HD
HETATM    8  C11 UNL     1     -21.811  -5.780 -12.153  1.00  0.00     0.681 A 
HETATM    9  N4  UNL     1     -22.711  -4.939 -11.756  1.00  0.00    -0.234 N 
ATOM     10  H41 UNL     1     -23.042  -4.149 -12.311  1.00  0.00     0.174 HD
ATOM     11  H42 UNL     1     -23.089  -5.109 -10.824  1.00  0.00     0.174 HD
HETATM   12  N5  UNL     1     -21.304  -5.550 -13.405  1.00  0.00    -0.170 N 
ATOM     13  H5  UNL     1     -21.641  -4.759 -13.953  1.00  0.00     0.186 HD
ENDROOT
BRANCH   1  14
HETATM   14  S1  UNL     1     -19.709  -6.073 -15.523  1.00  0.00    -0.081 SA
BRANCH  14  15
HETATM   15  C7  UNL     1     -20.796  -4.968 -16.420  1.00  0.00     0.120 C 
HETATM   16  C8  UNL     1     -20.800  -5.261 -17.903  1.00  0.00     0.030 C 
BRANCH  15  17
HETATM   17  C6  UNL     1     -20.494  -3.540 -16.195  1.00  0.00     0.142 C 
HETATM   18  O1  UNL     1     -20.486  -3.001 -15.104  1.00  0.00    -0.297 OA
BRANCH  17  19
HETATM   19  C5  UNL     1     -20.179  -2.709 -17.390  1.00  0.00     0.107 C 
BRANCH  19  20
HETATM   20  C4  UNL     1     -21.230  -1.646 -17.634  1.00  0.00     0.240 C 
BRANCH  20  21
HETATM   21  N1  UNL     1     -21.106  -0.676 -16.566  1.00  0.00    -0.072 N 
ATOM     22  H12 UNL     1     -21.051  -1.142 -15.660  1.00  0.00     0.277 HD
ATOM     23  H11 UNL     1     -21.980  -0.164 -16.440  1.00  0.00     0.277 HD
BRANCH  21  24
HETATM   24  C3  UNL     1     -20.012   0.228 -16.735  1.00  0.00     0.259 C 
BRANCH  24  25
HETATM   25  C2  UNL     1     -19.351   0.409 -15.420  1.00  0.00    -0.010 C 
HETATM   26  C1  UNL     1     -18.243  -0.264 -15.153  1.00  0.00     0.008 C 
ENDBRANCH  24  25
ENDBRANCH  21  24
ENDBRANCH  20  21
ENDBRANCH  19  20
ENDBRANCH  17  19
ENDBRANCH  15  17
ENDBRANCH  14  15
ENDBRANCH   1  14
TORSDOF 8
ENDMDL
MODEL 3
REMARK VINA RESULT: -5.894131583      3.150      5.635
REMARK  8 active torsions:
REMARK  status: ('A' for Active; 'I' for Inactive)
REMARK    1  A    between atoms: C2_2  and  C3_3 
REMARK    2  A    between atoms: C3_3  and  N1_4 
REMARK    3  A    between atoms: N1_4  and  C4_7 
REMARK    4  A    between atoms: C4_7  and  C5_8 
REMARK    5  A    between atoms: C5_8  and  C6_9 
REMARK    6  A    between atoms: C6_9  and  C7_11 
REMARK    7  A    between atoms: C7_11  and  S1_13 
REMARK    8  A    between atoms: S1_13  and  C9_14 
ROOT
HETATM    1  C9  UNL     1     -20.069  -5.852 -13.693  1.00  0.00     0.164 A 
HETATM    2  N2  UNL     1     -19.763  -6.953 -13.002  1.00  0.00    -0.288 N 
ATOM      3  H2  UNL     1     -18.935  -7.494 -13.254  1.00  0.00     0.172 HD
HETATM    4  C10 UNL     1     -20.546  -7.360 -11.960  1.00  0.00     0.340 A 
HETATM    5  O2  UNL     1     -20.278  -8.389 -11.299  1.00  0.00    -0.246 OA
HETATM    6  N3  UNL     1     -21.630  -6.656 -11.623  1.00  0.00    -0.141 N 
ATOM      7  H3  UNL     1     -22.217  -6.958 -10.844  1.00  0.00     0.189 HD
HETATM    8  C11 UNL     1     -21.938  -5.561 -12.307  1.00  0.00     0.681 A 
HETATM    9  N4  UNL     1     -22.965  -4.814 -12.058  1.00  0.00    -0.234 N 
ATOM     10  H41 UNL     1     -23.202  -3.973 -12.584  1.00  0.00     0.174 HD
ATOM     11  H42 UNL     1     -23.550  -5.119 -11.280  1.00  0.00     0.174 HD
HETATM   12  N5  UNL     1     -21.153  -5.152 -13.352  1.00  0.00    -0.170 N 
ATOM     13  H5  UNL     1     -21.398  -4.310 -13.873  1.00  0.00     0.186 HD
ENDROOT
BRANCH   1  14
HETATM   14  S1  UNL     1     -19.050  -5.333 -15.039  1.00  0.00    -0.081 SA
BRANCH  14  15
HETATM   15  C7  UNL     1     -19.577  -6.164 -16.535  1.00  0.00     0.120 C 
HETATM   16  C8  UNL     1     -20.966  -5.741 -16.955  1.00  0.00     0.030 C 
BRANCH  15  17
HETATM   17  C6  UNL     1     -19.511  -7.636 -16.440  1.00  0.00     0.142 C 
HETATM   18  O1  UNL     1     -20.215  -8.312 -15.712  1.00  0.00    -0.297 OA
BRANCH  17  19
HETATM   19  C5  UNL     1     -18.513  -8.336 -17.294  1.00  0.00     0.107 C 
BRANCH  19  20
HETATM   20  C4  UNL     1     -17.121  -8.286 -16.698  1.00  0.00     0.240 C 
BRANCH  20  21
HETATM   21  N1  UNL     1     -17.252  -8.615 -15.293  1.00  0.00    -0.072 N 
ATOM     22  H12 UNL     1     -17.228  -9.626 -15.155  1.00  0.00     0.277 HD
ATOM     23  H11 UNL     1     -18.198  -8.421 -14.964  1.00  0.00     0.277 HD
BRANCH  21  24
HETATM   24  C3  UNL     1     -16.287  -7.970 -14.460  1.00  0.00     0.259 C 
BRANCH  24  25
HETATM   25  C2  UNL     1     -15.254  -8.966 -14.088  1.00  0.00    -0.010 C 
HETATM   26  C1  UNL     1     -14.039  -8.553 -13.763  1.00  0.00     0.008 C 
ENDBRANCH  24  25
ENDBRANCH  21  24
ENDBRANCH  20  21
ENDBRANCH  19  20
ENDBRANCH  17  19
ENDBRANCH  15  17
ENDBRANCH  14  15
ENDBRANCH   1  14
TORSDOF 8
ENDMDL
MODEL 4
REMARK VINA RESULT: -5.834794464      2.240      3.045
REMARK  8 active torsions:
REMARK  status: ('A' for Active; 'I' for Inactive)
REMARK    1  A    between atoms: C2_2  and  C3_3 
REMARK    2  A    between atoms: C3_3  and  N1_4 
REMARK    3  A    between atoms: N1_4  and  C4_7 
REMARK    4  A    between atoms: C4_7  and  C5_8 
REMARK    5  A    between atoms: C5_8  and  C6_9 
REMARK    6  A    between atoms: C6_9  and  C7_11 
REMARK    7  A    between atoms: C7_11  and  S1_13 
REMARK    8  A    between atoms: S1_13  and  C9_14 
ROOT
HETATM    1  C9  UNL     1     -19.924  -5.491 -13.184  1.00  0.00     0.164 A 
HETATM    2  N2  UNL     1     -19.631  -6.681 -12.656  1.00  0.00    -0.288 N 
ATOM      3  H2  UNL     1     -18.711  -7.092 -12.816  1.00  0.00     0.172 HD
HETATM    4  C10 UNL     1     -20.551  -7.354 -11.904  1.00  0.00     0.340 A 
HETATM    5  O2  UNL     1     -20.298  -8.472 -11.400  1.00  0.00    -0.246 OA
HETATM    6  N3  UNL     1     -21.757  -6.823 -11.689  1.00  0.00    -0.141 N 
ATOM      7  H3  UNL     1     -22.446  -7.323 -11.128  1.00  0.00     0.189 HD
HETATM    8  C11 UNL     1     -22.053  -5.639 -12.212  1.00  0.00     0.681 A 
HETATM    9  N4  UNL     1     -23.192  -5.043 -12.062  1.00  0.00    -0.234 N 
ATOM     10  H41 UNL     1     -23.419  -4.133 -12.464  1.00  0.00     0.174 HD
ATOM     11  H42 UNL     1     -23.879  -5.546 -11.500  1.00  0.00     0.174 HD
HETATM   12  N5  UNL     1     -21.131  -4.964 -12.967  1.00  0.00    -0.170 N 
ATOM     13  H5  UNL     1     -21.367  -4.055 -13.365  1.00  0.00     0.186 HD
ENDROOT
BRANCH   1  14
HETATM   14  S1  UNL     1     -18.727  -4.628 -14.156  1.00  0.00    -0.081 SA
BRANCH  14  15
HETATM   15  C7  UNL     1     -18.816  -5.202 -15.849  1.00  0.00     0.120 C 
HETATM   16  C8  UNL     1     -18.191  -4.217 -16.812  1.00  0.00     0.030 C 
BRANCH  15  17
HETATM   17  C6  UNL     1     -20.188  -5.525 -16.287  1.00  0.00     0.142 C 
HETATM   18  O1  UNL     1     -21.138  -4.770 -16.190  1.00  0.00    -0.297 OA
BRANCH  17  19
HETATM   19  C5  UNL     1     -20.420  -6.869 -16.885  1.00  0.00     0.107 C 
BRANCH  19  20
HETATM   20  C4  UNL     1     -20.335  -6.839 -18.397  1.00  0.00     0.240 C 
BRANCH  20  21
HETATM   21  N1  UNL     1     -21.527  -6.169 -18.874  1.00  0.00    -0.072 N 
ATOM     22  H12 UNL     1     -21.903  -5.548 -18.157  1.00  0.00     0.277 HD
ATOM     23  H11 UNL     1     -22.303  -6.827 -18.954  1.00  0.00     0.277 HD
BRANCH  21  24
HETATM   24  C3  UNL     1     -21.337  -5.463 -20.102  1.00  0.00     0.259 C 
BRANCH  24  25
HETATM   25  C2  UNL     1     -20.545  -4.242 -19.819  1.00  0.00    -0.010 C 
HETATM   26  C1  UNL     1     -21.145  -3.187 -19.291  1.00  0.00     0.008 C 
ENDBRANCH  24  25
ENDBRANCH  21  24
ENDBRANCH  20  21
ENDBRANCH  19  20
ENDBRANCH  17  19
ENDBRANCH  15  17
ENDBRANCH  14  15
ENDBRANCH   1  14
TORSDOF 8
ENDMDL
MODEL 5
REMARK VINA RESULT: -5.810239606      4.029      6.251
REMARK  8 active torsions:
REMARK  status: ('A' for Active; 'I' for Inactive)
REMARK    1  A    between atoms: C2_2  and  C3_3 
REMARK    2  A    between atoms: C3_3  and  N1_4 
REMARK    3  A    between atoms: N1_4  and  C4_7 
REMARK    4  A    between atoms: C4_7  and  C5_8 
REMARK    5  A    between atoms: C5_8  and  C6_9 
REMARK    6  A    between atoms: C6_9  and  C7_11 
REMARK    7  A    between atoms: C7_11  and  S1_13 
REMARK    8  A    between atoms: S1_13  and  C9_14 
ROOT
HETATM    1  C9  UNL     1     -20.107  -5.874 -13.643  1.00  0.00     0.164 A 
HETATM    2  N2  UNL     1     -19.819  -6.986 -12.964  1.00  0.00    -0.288 N 
ATOM      3  H2  UNL     1     -18.991  -7.528 -13.209  1.00  0.00     0.172 HD
HETATM    4  C10 UNL     1     -20.624  -7.404 -11.942  1.00  0.00     0.340 A 
HETATM    5  O2  UNL     1     -20.373  -8.444 -11.291  1.00  0.00    -0.246 OA
HETATM    6  N3  UNL     1     -21.709  -6.699 -11.613  1.00  0.00    -0.141 N 
ATOM      7  H3  UNL     1     -22.311  -7.009 -10.850  1.00  0.00     0.189 HD
HETATM    8  C11 UNL     1     -21.999  -5.592 -12.286  1.00  0.00     0.681 A 
HETATM    9  N4  UNL     1     -23.026  -4.843 -12.044  1.00  0.00    -0.234 N 
ATOM     10  H41 UNL     1     -23.249  -3.992 -12.561  1.00  0.00     0.174 HD
ATOM     11  H42 UNL     1     -23.626  -5.155 -11.281  1.00  0.00     0.174 HD
HETATM   12  N5  UNL     1     -21.194  -5.172 -13.311  1.00  0.00    -0.170 N 
ATOM     13  H5  UNL     1     -21.424  -4.321 -13.823  1.00  0.00     0.186 HD
ENDROOT
BRANCH   1  14
HETATM   14  S1  UNL     1     -19.062  -5.341 -14.964  1.00  0.00    -0.081 SA
BRANCH  14  15
HETATM   15  C7  UNL     1     -17.730  -6.519 -15.176  1.00  0.00     0.120 C 
HETATM   16  C8  UNL     1     -16.498  -5.876 -15.771  1.00  0.00     0.030 C 
BRANCH  15  17
HETATM   17  C6  UNL     1     -18.114  -7.697 -15.977  1.00  0.00     0.142 C 
HETATM   18  O1  UNL     1     -19.142  -8.330 -15.823  1.00  0.00    -0.297 OA
BRANCH  17  19
HETATM   19  C5  UNL     1     -17.174  -8.137 -17.045  1.00  0.00     0.107 C 
BRANCH  19  20
HETATM   20  C4  UNL     1     -16.825  -9.607 -16.924  1.00  0.00     0.240 C 
BRANCH  20  21
HETATM   21  N1  UNL     1     -16.615  -9.876 -15.516  1.00  0.00    -0.072 N 
ATOM     22  H12 UNL     1     -17.065 -10.751 -15.245  1.00  0.00     0.277 HD
ATOM     23  H11 UNL     1     -17.149  -9.225 -14.940  1.00  0.00     0.277 HD
BRANCH  21  24
HETATM   24  C3  UNL     1     -15.238  -9.877 -15.131  1.00  0.00     0.259 C 
BRANCH  24  25
HETATM   25  C2  UNL     1     -15.063  -8.898 -14.031  1.00  0.00    -0.010 C 
HETATM   26  C1  UNL     1     -13.840  -8.559 -13.653  1.00  0.00     0.008 C 
ENDBRANCH  24  25
ENDBRANCH  21  24
ENDBRANCH  20  21
ENDBRANCH  19  20
ENDBRANCH  17  19
ENDBRANCH  15  17
ENDBRANCH  14  15
ENDBRANCH   1  14
TORSDOF 8
ENDMDL
