MODEL 1
REMARK VINA RESULT: -5.503360051      0.000      0.000
REMARK  9 active torsions:
REMARK  status: ('A' for Active; 'I' for Inactive)
REMARK    1  A    between atoms: N1_1  and  C1_5 
REMARK    2  A    between atoms: C1_5  and  C2_6 
REMARK    3  A    between atoms: C2_6  and  C3_7 
REMARK    4  A    between atoms: C3_7  and  N2_8 
REMARK    5  A    between atoms: C3_7  and  C11_18 
REMARK    6  A    between atoms: N2_8  and  C4_11 
REMARK    7  A    between atoms: C4_11  and  C5_12 
REMARK    8  A    between atoms: C11_18  and  O1_19 
REMARK    9  A    between atoms: N3_21  and  N4_23 
ROOT
HETATM    1  C3  UNL     1     -17.764  -4.690 -15.033  1.00  0.00     0.262 C 
ENDROOT
BRANCH   1   2
HETATM    2  C2  UNL     1     -16.886  -5.777 -15.417  1.00  0.00     0.069 C 
BRANCH   2   3
HETATM    3  C1  UNL     1     -17.344  -7.187 -15.331  1.00  0.00     0.232 C 
BRANCH   3   4
HETATM    4  N1  UNL     1     -17.030  -7.665 -13.955  1.00  0.00    -0.079 N 
ATOM      5  H13 UNL     1     -16.809  -6.907 -13.309  1.00  0.00     0.274 HD
ATOM      6  H12 UNL     1     -17.846  -8.024 -13.460  1.00  0.00     0.274 HD
ATOM      7  H11 UNL     1     -16.280  -8.350 -14.041  1.00  0.00     0.274 HD
ENDBRANCH   3   4
ENDBRANCH   2   3
ENDBRANCH   1   2
BRANCH   1   8
HETATM    8  N2  UNL     1     -18.376  -4.053 -16.206  1.00  0.00    -0.063 N 
ATOM      9  H22 UNL     1     -17.843  -4.249 -17.054  1.00  0.00     0.278 HD
ATOM     10  H21 UNL     1     -19.254  -4.507 -16.459  1.00  0.00     0.278 HD
BRANCH   8  11
HETATM   11  C4  UNL     1     -18.554  -2.644 -16.017  1.00  0.00     0.237 C 
BRANCH  11  12
HETATM   12  C5  UNL     1     -19.397  -2.088 -17.189  1.00  0.00     0.011 C 
HETATM   13  C6  UNL     1     -20.184  -0.912 -16.666  1.00  0.00     0.006 C 
HETATM   14  C7  UNL     1     -21.534  -0.787 -17.303  1.00  0.00     0.000 C 
HETATM   15  C8  UNL     1     -21.575  -1.356 -18.705  1.00  0.00     0.000 C 
HETATM   16  C9  UNL     1     -21.179  -2.795 -18.774  1.00  0.00     0.000 C 
HETATM   17  C10 UNL     1     -20.384  -3.172 -17.544  1.00  0.00     0.006 C 
ENDBRANCH  11  12
ENDBRANCH   8  11
ENDBRANCH   1   8
BRANCH   1  18
HETATM   18  C11 UNL     1     -18.884  -4.913 -14.086  1.00  0.00     0.162 C 
HETATM   19  N3  UNL     1     -20.215  -5.133 -14.297  1.00  0.00    -0.274 N 
ATOM     20  H3  UNL     1     -20.541  -5.145 -15.263  1.00  0.00     0.189 HD
BRANCH  18  21
HETATM   21  O1  UNL     1     -18.463  -4.875 -12.854  1.00  0.00    -0.347 OA
ATOM     22  H1  UNL     1     -18.909  -4.194 -12.365  1.00  0.00     0.219 HD
ENDBRANCH  18  21
BRANCH  19  23
HETATM   23  N4  UNL     1     -21.164  -5.343 -13.298  1.00  0.00    -0.243 N 
HETATM   24  C12 UNL     1     -21.395  -6.523 -12.652  1.00  0.00     0.224 A 
HETATM   25  N5  UNL     1     -22.363  -6.300 -11.781  1.00  0.00    -0.293 N 
HETATM   26  N6  UNL     1     -22.772  -5.063 -11.821  1.00  0.00    -0.293 N 
ATOM     27  H5  UNL     1     -22.744  -7.008 -11.154  1.00  0.00     0.187 HD
HETATM   28  C13 UNL     1     -22.008  -4.462 -12.785  1.00  0.00     0.224 A 
ATOM     29  H6  UNL     1     -23.505  -4.634 -11.255  1.00  0.00     0.187 HD
ENDBRANCH  19  23
ENDBRANCH   1  18
TORSDOF 9
ENDMDL
MODEL 2
REMARK VINA RESULT: -5.493551125      1.194      1.478
REMARK  9 active torsions:
REMARK  status: ('A' for Active; 'I' for Inactive)
REMARK    1  A    between atoms: N1_1  and  C1_5 
REMARK    2  A    between atoms: C1_5  and  C2_6 
REMARK    3  A    between atoms: C2_6  and  C3_7 
REMARK    4  A    between atoms: C3_7  and  N2_8 
REMARK    5  A    between atoms: C3_7  and  C11_18 
REMARK    6  A    between atoms: N2_8  and  C4_11 
REMARK    7  A    between atoms: C4_11  and  C5_12 
REMARK    8  A    between atoms: C11_18  and  O1_19 
REMARK    9  A    between atoms: N3_21  and  N4_23 
ROOT
HETATM    1  C3  UNL     1     -17.505  -6.083 -14.601  1.00  0.00     0.262 C 
ENDROOT
BRANCH   1   2
HETATM    2  C2  UNL     1     -16.961  -7.425 -14.678  1.00  0.00     0.069 C 
BRANCH   2   3
HETATM    3  C1  UNL     1     -17.276  -8.305 -15.830  1.00  0.00     0.232 C 
BRANCH   3   4
HETATM    4  N1  UNL     1     -16.735  -9.656 -15.509  1.00  0.00    -0.079 N 
ATOM      5  H13 UNL     1     -16.144 -10.037 -16.248  1.00  0.00     0.274 HD
ATOM      6  H12 UNL     1     -16.029  -9.640 -14.773  1.00  0.00     0.274 HD
ATOM      7  H11 UNL     1     -17.532 -10.252 -15.285  1.00  0.00     0.274 HD
ENDBRANCH   3   4
ENDBRANCH   2   3
ENDBRANCH   1   2
BRANCH   1   8
HETATM    8  N2  UNL     1     -17.801  -5.547 -15.935  1.00  0.00    -0.063 N 
ATOM      9  H22 UNL     1     -17.470  -6.174 -16.669  1.00  0.00     0.278 HD
ATOM     10  H21 UNL     1     -18.801  -5.580 -16.135  1.00  0.00     0.278 HD
BRANCH   8  11
HETATM   11  C4  UNL     1     -17.281  -4.223 -16.107  1.00  0.00     0.237 C 
BRANCH  11  12
HETATM   12  C5  UNL     1     -18.380  -3.334 -16.733  1.00  0.00     0.011 C 
HETATM   13  C6  UNL     1     -18.992  -2.517 -15.623  1.00  0.00     0.006 C 
HETATM   14  C7  UNL     1     -20.457  -2.271 -15.822  1.00  0.00     0.000 C 
HETATM   15  C8  UNL     1     -20.855  -2.262 -17.282  1.00  0.00     0.000 C 
HETATM   16  C9  UNL     1     -20.512  -3.527 -18.000  1.00  0.00     0.000 C 
HETATM   17  C10 UNL     1     -19.442  -4.277 -17.240  1.00  0.00     0.006 C 
ENDBRANCH  11  12
ENDBRANCH   8  11
ENDBRANCH   1   8
BRANCH   1  18
HETATM   18  C11 UNL     1     -18.714  -5.797 -13.791  1.00  0.00     0.162 C 
HETATM   19  N3  UNL     1     -20.044  -5.890 -14.089  1.00  0.00    -0.274 N 
ATOM     20  H3  UNL     1     -20.293  -6.200 -15.028  1.00  0.00     0.189 HD
BRANCH  18  21
HETATM   21  O1  UNL     1     -18.386  -5.382 -12.601  1.00  0.00    -0.347 OA
ATOM     22  H1  UNL     1     -18.897  -5.827 -11.935  1.00  0.00     0.219 HD
ENDBRANCH  18  21
BRANCH  19  23
HETATM   23  N4  UNL     1     -21.086  -5.596 -13.213  1.00  0.00    -0.243 N 
HETATM   24  C12 UNL     1     -21.688  -6.480 -12.363  1.00  0.00     0.224 A 
HETATM   25  N5  UNL     1     -22.619  -5.808 -11.708  1.00  0.00    -0.293 N 
HETATM   26  N6  UNL     1     -22.660  -4.558 -12.075  1.00  0.00    -0.293 N 
ATOM     27  H5  UNL     1     -23.230  -6.217 -11.002  1.00  0.00     0.187 HD
HETATM   28  C13 UNL     1     -21.686  -4.431 -13.030  1.00  0.00     0.224 A 
ATOM     29  H6  UNL     1     -23.284  -3.831 -11.727  1.00  0.00     0.187 HD
ENDBRANCH  19  23
ENDBRANCH   1  18
TORSDOF 9
ENDMDL
MODEL 3
REMARK VINA RESULT: -5.473028564      2.673      4.771
REMARK  9 active torsions:
REMARK  status: ('A' for Active; 'I' for Inactive)
REMARK    1  A    between atoms: N1_1  and  C1_5 
REMARK    2  A    between atoms: C1_5  and  C2_6 
REMARK    3  A    between atoms: C2_6  and  C3_7 
REMARK    4  A    between atoms: C3_7  and  N2_8 
REMARK    5  A    between atoms: C3_7  and  C11_18 
REMARK    6  A    between atoms: N2_8  and  C4_11 
REMARK    7  A    between atoms: C4_11  and  C5_12 
REMARK    8  A    between atoms: C11_18  and  O1_19 
REMARK    9  A    between atoms: N3_21  and  N4_23 
ROOT
HETATM    1  C3  UNL     1     -20.133  -6.972 -12.685  1.00  0.00     0.262 C 
ENDROOT
BRANCH   1   2
HETATM    2  C2  UNL     1     -19.476  -7.356 -11.451  1.00  0.00     0.069 C 
BRANCH   2   3
HETATM    3  C1  UNL     1     -18.015  -7.158 -11.277  1.00  0.00     0.232 C 
BRANCH   3   4
HETATM    4  N1  UNL     1     -17.794  -6.772  -9.854  1.00  0.00    -0.079 N 
ATOM      5  H13 UNL     1     -18.660  -6.565  -9.356  1.00  0.00     0.274 HD
ATOM      6  H12 UNL     1     -17.490  -7.551  -9.271  1.00  0.00     0.274 HD
ATOM      7  H11 UNL     1     -17.136  -5.992  -9.855  1.00  0.00     0.274 HD
ENDBRANCH   3   4
ENDBRANCH   2   3
ENDBRANCH   1   2
BRANCH   1   8
HETATM    8  N2  UNL     1     -20.024  -5.527 -12.924  1.00  0.00    -0.063 N 
ATOM      9  H22 UNL     1     -19.807  -5.025 -12.063  1.00  0.00     0.278 HD
ATOM     10  H21 UNL     1     -19.185  -5.302 -13.458  1.00  0.00     0.278 HD
BRANCH   8  11
HETATM   11  C4  UNL     1     -21.198  -5.000 -13.552  1.00  0.00     0.237 C 
BRANCH  11  12
HETATM   12  C5  UNL     1     -20.769  -3.965 -14.617  1.00  0.00     0.011 C 
HETATM   13  C6  UNL     1     -20.927  -4.611 -15.971  1.00  0.00     0.006 C 
HETATM   14  C7  UNL     1     -19.887  -4.166 -16.953  1.00  0.00     0.000 C 
HETATM   15  C8  UNL     1     -19.371  -2.773 -16.667  1.00  0.00     0.000 C 
HETATM   16  C9  UNL     1     -18.788  -2.623 -15.299  1.00  0.00     0.000 C 
HETATM   17  C10 UNL     1     -19.296  -3.726 -14.399  1.00  0.00     0.006 C 
ENDBRANCH  11  12
ENDBRANCH   8  11
ENDBRANCH   1   8
BRANCH   1  18
HETATM   18  C11 UNL     1     -19.764  -7.607 -13.974  1.00  0.00     0.162 C 
HETATM   19  N3  UNL     1     -18.841  -7.262 -14.919  1.00  0.00    -0.274 N 
ATOM     20  H3  UNL     1     -18.292  -6.419 -14.752  1.00  0.00     0.189 HD
BRANCH  18  21
HETATM   21  O1  UNL     1     -20.484  -8.670 -14.188  1.00  0.00    -0.347 OA
ATOM     22  H1  UNL     1     -20.033  -9.450 -13.887  1.00  0.00     0.219 HD
ENDBRANCH  18  21
BRANCH  19  23
HETATM   23  N4  UNL     1     -18.589  -7.968 -16.093  1.00  0.00    -0.243 N 
HETATM   24  C12 UNL     1     -17.514  -8.779 -16.322  1.00  0.00     0.224 A 
HETATM   25  N5  UNL     1     -17.651  -9.260 -17.545  1.00  0.00    -0.293 N 
HETATM   26  N6  UNL     1     -18.734  -8.818 -18.119  1.00  0.00    -0.293 N 
ATOM     27  H5  UNL     1     -16.990  -9.900 -17.986  1.00  0.00     0.187 HD
HETATM   28  C13 UNL     1     -19.324  -7.999 -17.193  1.00  0.00     0.224 A 
ATOM     29  H6  UNL     1     -19.070  -9.035 -19.057  1.00  0.00     0.187 HD
ENDBRANCH  19  23
ENDBRANCH   1  18
TORSDOF 9
ENDMDL
MODEL 4
REMARK VINA RESULT: -5.434127427      2.584      4.772
REMARK  9 active torsions:
REMARK  status: ('A' for Active; 'I' for Inactive)
REMARK    1  A    between atoms: N1_1  and  C1_5 
REMARK    2  A    between atoms: C1_5  and  C2_6 
REMARK    3  A    between atoms: C2_6  and  C3_7 
REMARK    4  A    between atoms: C3_7  and  N2_8 
REMARK    5  A    between atoms: C3_7  and  C11_18 
REMARK    6  A    between atoms: N2_8  and  C4_11 
REMARK    7  A    between atoms: C4_11  and  C5_12 
REMARK    8  A    between atoms: C11_18  and  O1_19 
REMARK    9  A    between atoms: N3_21  and  N4_23 
ROOT
HETATM    1  C3  UNL     1     -20.165  -6.974 -12.876  1.00  0.00     0.262 C 
ENDROOT
BRANCH   1   2
HETATM    2  C2  UNL     1     -19.279  -6.523 -11.821  1.00  0.00     0.069 C 
BRANCH   2   3
HETATM    3  C1  UNL     1     -18.463  -7.495 -11.051  1.00  0.00     0.232 C 
BRANCH   3   4
HETATM    4  N1  UNL     1     -17.749  -6.724  -9.994  1.00  0.00    -0.079 N 
ATOM      5  H13 UNL     1     -18.364  -6.108  -9.462  1.00  0.00     0.274 HD
ATOM      6  H12 UNL     1     -17.440  -7.304  -9.214  1.00  0.00     0.274 HD
ATOM      7  H11 UNL     1     -16.984  -6.229 -10.451  1.00  0.00     0.274 HD
ENDBRANCH   3   4
ENDBRANCH   2   3
ENDBRANCH   1   2
BRANCH   1   8
HETATM    8  N2  UNL     1     -20.959  -5.865 -13.421  1.00  0.00    -0.063 N 
ATOM      9  H22 UNL     1     -21.398  -6.124 -14.305  1.00  0.00     0.278 HD
ATOM     10  H21 UNL     1     -21.799  -5.703 -12.865  1.00  0.00     0.278 HD
BRANCH   8  11
HETATM   11  C4  UNL     1     -20.184  -4.668 -13.555  1.00  0.00     0.237 C 
BRANCH  11  12
HETATM   12  C5  UNL     1     -20.710  -3.869 -14.769  1.00  0.00     0.011 C 
HETATM   13  C6  UNL     1     -20.822  -4.826 -15.930  1.00  0.00     0.006 C 
HETATM   14  C7  UNL     1     -20.514  -4.181 -17.247  1.00  0.00     0.000 C 
HETATM   15  C8  UNL     1     -20.822  -2.699 -17.259  1.00  0.00     0.000 C 
HETATM   16  C9  UNL     1     -20.093  -1.932 -16.204  1.00  0.00     0.000 C 
HETATM   17  C10 UNL     1     -19.634  -2.869 -15.110  1.00  0.00     0.006 C 
ENDBRANCH  11  12
ENDBRANCH   8  11
ENDBRANCH   1   8
BRANCH   1  18
HETATM   18  C11 UNL     1     -19.634  -7.690 -14.062  1.00  0.00     0.162 C 
HETATM   19  N3  UNL     1     -18.533  -7.461 -14.837  1.00  0.00    -0.274 N 
ATOM     20  H3  UNL     1     -17.949  -6.661 -14.597  1.00  0.00     0.189 HD
BRANCH  18  21
HETATM   21  O1  UNL     1     -20.397  -8.698 -14.374  1.00  0.00    -0.347 OA
ATOM     22  H1  UNL     1     -20.846  -8.540 -15.196  1.00  0.00     0.219 HD
ENDBRANCH  18  21
BRANCH  19  23
HETATM   23  N4  UNL     1     -18.143  -8.234 -15.928  1.00  0.00    -0.243 N 
HETATM   24  C12 UNL     1     -18.741  -8.239 -17.157  1.00  0.00     0.224 A 
HETATM   25  N5  UNL     1     -18.070  -9.097 -17.905  1.00  0.00    -0.293 N 
HETATM   26  N6  UNL     1     -17.087  -9.645 -17.248  1.00  0.00    -0.293 N 
ATOM     27  H5  UNL     1     -18.295  -9.306 -18.878  1.00  0.00     0.187 HD
HETATM   28  C13 UNL     1     -17.139  -9.093 -15.996  1.00  0.00     0.224 A 
ATOM     29  H6  UNL     1     -16.421 -10.336 -17.593  1.00  0.00     0.187 HD
ENDBRANCH  19  23
ENDBRANCH   1  18
TORSDOF 9
ENDMDL
MODEL 5
REMARK VINA RESULT: -5.421610336      0.528      1.239
REMARK  9 active torsions:
REMARK  status: ('A' for Active; 'I' for Inactive)
REMARK    1  A    between atoms: N1_1  and  C1_5 
REMARK    2  A    between atoms: C1_5  and  C2_6 
REMARK    3  A    between atoms: C2_6  and  C3_7 
REMARK    4  A    between atoms: C3_7  and  N2_8 
REMARK    5  A    between atoms: C3_7  and  C11_18 
REMARK    6  A    between atoms: N2_8  and  C4_11 
REMARK    7  A    between atoms: C4_11  and  C5_12 
REMARK    8  A    between atoms: C11_18  and  O1_19 
REMARK    9  A    between atoms: N3_21  and  N4_23 
ROOT
HETATM    1  C3  UNL     1     -17.652  -4.843 -14.899  1.00  0.00     0.262 C 
ENDROOT
BRANCH   1   2
HETATM    2  C2  UNL     1     -16.861  -5.972 -15.349  1.00  0.00     0.069 C 
BRANCH   2   3
HETATM    3  C1  UNL     1     -17.354  -7.361 -15.172  1.00  0.00     0.232 C 
BRANCH   3   4
HETATM    4  N1  UNL     1     -16.881  -7.825 -13.837  1.00  0.00    -0.079 N 
ATOM      5  H13 UNL     1     -15.885  -8.044 -13.819  1.00  0.00     0.274 HD
ATOM      6  H12 UNL     1     -16.864  -7.083 -13.138  1.00  0.00     0.274 HD
ATOM      7  H11 UNL     1     -17.470  -8.613 -13.569  1.00  0.00     0.274 HD
ENDBRANCH   3   4
ENDBRANCH   2   3
ENDBRANCH   1   2
BRANCH   1   8
HETATM    8  N2  UNL     1     -18.189  -4.078 -16.031  1.00  0.00    -0.063 N 
ATOM      9  H22 UNL     1     -17.746  -4.353 -16.908  1.00  0.00     0.278 HD
ATOM     10  H21 UNL     1     -19.149  -4.352 -16.242  1.00  0.00     0.278 HD
BRANCH   8  11
HETATM   11  C4  UNL     1     -18.087  -2.665 -15.817  1.00  0.00     0.237 C 
BRANCH  11  12
HETATM   12  C5  UNL     1     -19.464  -2.020 -16.095  1.00  0.00     0.011 C 
HETATM   13  C6  UNL     1     -20.181  -2.889 -17.098  1.00  0.00     0.006 C 
HETATM   14  C7  UNL     1     -21.040  -2.102 -18.041  1.00  0.00     0.000 C 
HETATM   15  C8  UNL     1     -21.545  -0.812 -17.433  1.00  0.00     0.000 C 
HETATM   16  C9  UNL     1     -20.452   0.092 -16.963  1.00  0.00     0.000 C 
HETATM   17  C10 UNL     1     -19.179  -0.698 -16.764  1.00  0.00     0.006 C 
ENDBRANCH  11  12
ENDBRANCH   8  11
ENDBRANCH   1   8
BRANCH   1  18
HETATM   18  C11 UNL     1     -18.802  -5.037 -13.982  1.00  0.00     0.162 C 
HETATM   19  N3  UNL     1     -20.138  -5.176 -14.226  1.00  0.00    -0.274 N 
ATOM     20  H3  UNL     1     -20.444  -5.138 -15.198  1.00  0.00     0.189 HD
BRANCH  18  21
HETATM   21  O1  UNL     1     -18.405  -5.064 -12.742  1.00  0.00    -0.347 OA
ATOM     22  H1  UNL     1     -18.938  -5.661 -12.230  1.00  0.00     0.219 HD
ENDBRANCH  18  21
BRANCH  19  23
HETATM   23  N4  UNL     1     -21.118  -5.367 -13.254  1.00  0.00    -0.243 N 
HETATM   24  C12 UNL     1     -21.392  -6.543 -12.616  1.00  0.00     0.224 A 
HETATM   25  N5  UNL     1     -22.378  -6.300 -11.771  1.00  0.00    -0.293 N 
HETATM   26  N6  UNL     1     -22.759  -5.055 -11.820  1.00  0.00    -0.293 N 
ATOM     27  H5  UNL     1     -22.791  -7.001 -11.156  1.00  0.00     0.187 HD
HETATM   28  C13 UNL     1     -21.957  -4.469 -12.762  1.00  0.00     0.224 A 
ATOM     29  H6  UNL     1     -23.498  -4.611 -11.274  1.00  0.00     0.187 HD
ENDBRANCH  19  23
ENDBRANCH   1  18
TORSDOF 9
ENDMDL
