MODEL 1
REMARK VINA RESULT: -6.226190552      0.000      0.000
REMARK  8 active torsions:
REMARK  status: ('A' for Active; 'I' for Inactive)
REMARK    1  A    between atoms: C1_2  and  C2_3 
REMARK    2  A    between atoms: C1_2  and  C9_12 
REMARK    3  A    between atoms: N1_4  and  C3_6 
REMARK    4  A    between atoms: C9_12  and  N2_13 
REMARK    5  A    between atoms: N2_13  and  C10_16 
REMARK    6  A    between atoms: C10_16  and  O2_17 
REMARK    7  A    between atoms: C10_16  and  C11_19 
REMARK    8  A    between atoms: C11_19  and  C12_21 
ROOT
HETATM    1  N2  UNL     1     -17.778  -7.632 -12.867  1.00  0.00    -0.035 N 
ATOM      2  H21 UNL     1     -16.822  -7.881 -12.609  1.00  0.00     0.281 HD
ATOM      3  H22 UNL     1     -18.128  -8.564 -13.087  1.00  0.00     0.281 HD
ENDROOT
BRANCH   1   4
HETATM    4  C9  UNL     1     -17.808  -6.761 -14.030  1.00  0.00     0.320 C 
BRANCH   4   5
HETATM    5  C1  UNL     1     -18.186  -7.582 -15.235  1.00  0.00     0.189 C 
HETATM    6  O1  UNL     1     -17.262  -8.050 -15.835  1.00  0.00    -0.290 OA
BRANCH   5   7
HETATM    7  C2  UNL     1     -19.580  -7.774 -15.618  1.00  0.00     0.135 C 
HETATM    8  N1  UNL     1     -20.320  -6.722 -16.017  1.00  0.00    -0.391 N 
ATOM      9  H1  UNL     1     -21.058  -6.517 -15.344  1.00  0.00     0.159 HD
BRANCH   8  10
HETATM   10  C3  UNL     1     -20.361  -5.860 -17.057  1.00  0.00     0.081 C 
HETATM   11  C4  UNL     1     -21.417  -6.134 -18.091  1.00  0.00     0.025 C 
HETATM   12  C5  UNL     1     -20.842  -5.693 -19.447  1.00  0.00     0.002 C 
HETATM   13  C6  UNL     1     -20.240  -4.337 -19.202  1.00  0.00     0.000 C 
HETATM   14  C7  UNL     1     -20.839  -3.638 -18.002  1.00  0.00     0.002 C 
HETATM   15  C8  UNL     1     -20.533  -4.378 -16.709  1.00  0.00     0.025 C 
ENDBRANCH   8  10
ENDBRANCH   5   7
ENDBRANCH   4   5
ENDBRANCH   1   4
BRANCH   1  16
HETATM   16  C10 UNL     1     -18.494  -7.041 -11.753  1.00  0.00     0.398 C 
BRANCH  16  17
HETATM   17  O2  UNL     1     -18.182  -5.740 -11.480  1.00  0.00    -0.364 OA
ATOM     18  H2  UNL     1     -18.155  -5.513 -10.558  1.00  0.00     0.212 HD
ENDBRANCH  16  17
BRANCH  16  19
HETATM   19  C11 UNL     1     -19.948  -7.241 -11.782  1.00  0.00     0.248 C 
HETATM   20  O3  UNL     1     -20.339  -8.419 -11.454  1.00  0.00    -0.284 OA
BRANCH  19  21
HETATM   21  C12 UNL     1     -20.956  -6.253 -12.136  1.00  0.00     0.156 A 
HETATM   22  N3  UNL     1     -20.713  -5.218 -13.000  1.00  0.00    -0.348 N 
HETATM   23  C13 UNL     1     -21.808  -4.466 -13.147  1.00  0.00     0.107 A 
ATOM     24  H3  UNL     1     -19.821  -5.046 -13.465  1.00  0.00     0.167 HD
HETATM   25  C14 UNL     1     -22.777  -5.033 -12.357  1.00  0.00     0.107 A 
HETATM   26  N4  UNL     1     -22.226  -6.107 -11.763  1.00  0.00    -0.348 N 
ATOM     27  H4  UNL     1     -22.715  -6.725 -11.115  1.00  0.00     0.167 HD
ENDBRANCH  19  21
ENDBRANCH  16  19
ENDBRANCH   1  16
TORSDOF 8
ENDMDL
MODEL 2
REMARK VINA RESULT: -6.066073994      1.352      1.767
REMARK  8 active torsions:
REMARK  status: ('A' for Active; 'I' for Inactive)
REMARK    1  A    between atoms: C1_2  and  C2_3 
REMARK    2  A    between atoms: C1_2  and  C9_12 
REMARK    3  A    between atoms: N1_4  and  C3_6 
REMARK    4  A    between atoms: C9_12  and  N2_13 
REMARK    5  A    between atoms: N2_13  and  C10_16 
REMARK    6  A    between atoms: C10_16  and  O2_17 
REMARK    7  A    between atoms: C10_16  and  C11_19 
REMARK    8  A    between atoms: C11_19  and  C12_21 
ROOT
HETATM    1  N2  UNL     1     -17.976  -7.518 -12.991  1.00  0.00    -0.035 N 
ATOM      2  H21 UNL     1     -17.194  -8.156 -12.842  1.00  0.00     0.281 HD
ATOM      3  H22 UNL     1     -18.562  -8.122 -13.568  1.00  0.00     0.281 HD
ENDROOT
BRANCH   1   4
HETATM    4  C9  UNL     1     -17.563  -6.327 -13.714  1.00  0.00     0.320 C 
BRANCH   4   5
HETATM    5  C1  UNL     1     -18.172  -6.365 -15.091  1.00  0.00     0.189 C 
HETATM    6  O1  UNL     1     -19.169  -7.020 -15.182  1.00  0.00    -0.290 OA
BRANCH   5   7
HETATM    7  C2  UNL     1     -17.569  -5.649 -16.209  1.00  0.00     0.135 C 
HETATM    8  N1  UNL     1     -18.348  -4.980 -17.080  1.00  0.00    -0.391 N 
ATOM      9  H1  UNL     1     -18.325  -5.416 -18.002  1.00  0.00     0.159 HD
BRANCH   8  10
HETATM   10  C3  UNL     1     -19.153  -3.894 -17.078  1.00  0.00     0.081 C 
HETATM   11  C4  UNL     1     -20.567  -4.129 -17.530  1.00  0.00     0.025 C 
HETATM   12  C5  UNL     1     -21.032  -2.845 -18.237  1.00  0.00     0.002 C 
HETATM   13  C6  UNL     1     -20.617  -1.719 -17.331  1.00  0.00     0.000 C 
HETATM   14  C7  UNL     1     -20.436  -2.159 -15.895  1.00  0.00     0.002 C 
HETATM   15  C8  UNL     1     -19.288  -3.146 -15.749  1.00  0.00     0.025 C 
ENDBRANCH   8  10
ENDBRANCH   5   7
ENDBRANCH   4   5
ENDBRANCH   1   4
BRANCH   1  16
HETATM   16  C10 UNL     1     -18.629  -7.173 -11.744  1.00  0.00     0.398 C 
BRANCH  16  17
HETATM   17  O2  UNL     1     -18.242  -5.987 -11.188  1.00  0.00    -0.364 OA
ATOM     18  H2  UNL     1     -17.624  -6.056 -10.470  1.00  0.00     0.212 HD
ENDBRANCH  16  17
BRANCH  16  19
HETATM   19  C11 UNL     1     -20.092  -7.294 -11.762  1.00  0.00     0.248 C 
HETATM   20  O3  UNL     1     -20.544  -8.440 -11.398  1.00  0.00    -0.284 OA
BRANCH  19  21
HETATM   21  C12 UNL     1     -21.047  -6.264 -12.141  1.00  0.00     0.156 A 
HETATM   22  N3  UNL     1     -20.759  -5.280 -13.049  1.00  0.00    -0.348 N 
HETATM   23  C13 UNL     1     -21.812  -4.472 -13.211  1.00  0.00     0.107 A 
ATOM     24  H3  UNL     1     -19.867  -5.178 -13.533  1.00  0.00     0.167 HD
HETATM   25  C14 UNL     1     -22.798  -4.950 -12.386  1.00  0.00     0.107 A 
HETATM   26  N4  UNL     1     -22.301  -6.030 -11.756  1.00  0.00    -0.348 N 
ATOM     27  H4  UNL     1     -22.814  -6.593 -11.078  1.00  0.00     0.167 HD
ENDBRANCH  19  21
ENDBRANCH  16  19
ENDBRANCH   1  16
TORSDOF 8
ENDMDL
MODEL 3
REMARK VINA RESULT: -6.056302184      1.214      1.944
REMARK  8 active torsions:
REMARK  status: ('A' for Active; 'I' for Inactive)
REMARK    1  A    between atoms: C1_2  and  C2_3 
REMARK    2  A    between atoms: C1_2  and  C9_12 
REMARK    3  A    between atoms: N1_4  and  C3_6 
REMARK    4  A    between atoms: C9_12  and  N2_13 
REMARK    5  A    between atoms: N2_13  and  C10_16 
REMARK    6  A    between atoms: C10_16  and  O2_17 
REMARK    7  A    between atoms: C10_16  and  C11_19 
REMARK    8  A    between atoms: C11_19  and  C12_21 
ROOT
HETATM    1  N2  UNL     1     -17.939  -7.556 -13.165  1.00  0.00    -0.035 N 
ATOM      2  H21 UNL     1     -16.994  -7.891 -12.974  1.00  0.00     0.281 HD
ATOM      3  H22 UNL     1     -18.369  -8.444 -13.424  1.00  0.00     0.281 HD
ENDROOT
BRANCH   1   4
HETATM    4  C9  UNL     1     -17.957  -6.611 -14.269  1.00  0.00     0.320 C 
BRANCH   4   5
HETATM    5  C1  UNL     1     -18.664  -7.250 -15.436  1.00  0.00     0.189 C 
HETATM    6  O1  UNL     1     -19.253  -8.259 -15.177  1.00  0.00    -0.290 OA
BRANCH   5   7
HETATM    7  C2  UNL     1     -18.616  -6.660 -16.770  1.00  0.00     0.135 C 
HETATM    8  N1  UNL     1     -19.529  -5.739 -17.132  1.00  0.00    -0.391 N 
ATOM      9  H1  UNL     1     -20.143  -6.100 -17.862  1.00  0.00     0.159 HD
BRANCH   8  10
HETATM   10  C3  UNL     1     -19.862  -4.472 -16.802  1.00  0.00     0.081 C 
HETATM   11  C4  UNL     1     -18.716  -3.564 -16.452  1.00  0.00     0.025 C 
HETATM   12  C5  UNL     1     -19.229  -2.583 -15.386  1.00  0.00     0.002 C 
HETATM   13  C6  UNL     1     -20.557  -2.098 -15.898  1.00  0.00     0.000 C 
HETATM   14  C7  UNL     1     -20.691  -2.232 -17.398  1.00  0.00     0.002 C 
HETATM   15  C8  UNL     1     -20.676  -3.689 -17.836  1.00  0.00     0.025 C 
ENDBRANCH   8  10
ENDBRANCH   5   7
ENDBRANCH   4   5
ENDBRANCH   1   4
BRANCH   1  16
HETATM   16  C10 UNL     1     -18.554  -6.988 -11.982  1.00  0.00     0.398 C 
BRANCH  16  17
HETATM   17  O2  UNL     1     -18.209  -5.696 -11.704  1.00  0.00    -0.364 OA
ATOM     18  H2  UNL     1     -17.301  -5.560 -11.460  1.00  0.00     0.212 HD
ENDBRANCH  16  17
BRANCH  16  19
HETATM   19  C11 UNL     1     -20.007  -7.177 -11.893  1.00  0.00     0.248 C 
HETATM   20  O3  UNL     1     -20.378  -8.338 -11.489  1.00  0.00    -0.284 OA
BRANCH  19  21
HETATM   21  C12 UNL     1     -21.034  -6.196 -12.212  1.00  0.00     0.156 A 
HETATM   22  N3  UNL     1     -20.845  -5.189 -13.121  1.00  0.00    -0.348 N 
HETATM   23  C13 UNL     1     -21.946  -4.437 -13.220  1.00  0.00     0.107 A 
ATOM     24  H3  UNL     1     -19.985  -5.034 -13.647  1.00  0.00     0.167 HD
HETATM   25  C14 UNL     1     -22.862  -4.976 -12.353  1.00  0.00     0.107 A 
HETATM   26  N4  UNL     1     -22.277  -6.034 -11.762  1.00  0.00    -0.348 N 
ATOM     27  H4  UNL     1     -22.725  -6.630 -11.066  1.00  0.00     0.167 HD
ENDBRANCH  19  21
ENDBRANCH  16  19
ENDBRANCH   1  16
TORSDOF 8
ENDMDL
MODEL 4
REMARK VINA RESULT: -6.031474319      1.535      3.974
REMARK  8 active torsions:
REMARK  status: ('A' for Active; 'I' for Inactive)
REMARK    1  A    between atoms: C1_2  and  C2_3 
REMARK    2  A    between atoms: C1_2  and  C9_12 
REMARK    3  A    between atoms: N1_4  and  C3_6 
REMARK    4  A    between atoms: C9_12  and  N2_13 
REMARK    5  A    between atoms: N2_13  and  C10_16 
REMARK    6  A    between atoms: C10_16  and  O2_17 
REMARK    7  A    between atoms: C10_16  and  C11_19 
REMARK    8  A    between atoms: C11_19  and  C12_21 
ROOT
HETATM    1  N2  UNL     1     -21.068  -6.553 -11.267  1.00  0.00    -0.035 N 
ATOM      2  H21 UNL     1     -21.665  -6.894 -10.513  1.00  0.00     0.281 HD
ATOM      3  H22 UNL     1     -20.842  -5.635 -10.883  1.00  0.00     0.281 HD
ENDROOT
BRANCH   1   4
HETATM    4  C9  UNL     1     -21.797  -6.444 -12.519  1.00  0.00     0.320 C 
BRANCH   4   5
HETATM    5  C1  UNL     1     -22.047  -4.987 -12.804  1.00  0.00     0.189 C 
HETATM    6  O1  UNL     1     -23.202  -4.682 -12.891  1.00  0.00    -0.290 OA
BRANCH   5   7
HETATM    7  C2  UNL     1     -20.947  -4.042 -12.958  1.00  0.00     0.135 C 
HETATM    8  N1  UNL     1     -20.106  -4.153 -14.004  1.00  0.00    -0.391 N 
ATOM      9  H1  UNL     1     -19.170  -4.416 -13.694  1.00  0.00     0.159 HD
BRANCH   8  10
HETATM   10  C3  UNL     1     -20.150  -4.013 -15.347  1.00  0.00     0.081 C 
HETATM   11  C4  UNL     1     -21.062  -4.962 -16.073  1.00  0.00     0.025 C 
HETATM   12  C5  UNL     1     -20.417  -5.249 -17.439  1.00  0.00     0.002 C 
HETATM   13  C6  UNL     1     -20.005  -3.906 -17.975  1.00  0.00     0.000 C 
HETATM   14  C7  UNL     1     -20.794  -2.767 -17.369  1.00  0.00     0.002 C 
HETATM   15  C8  UNL     1     -20.527  -2.628 -15.878  1.00  0.00     0.025 C 
ENDBRANCH   8  10
ENDBRANCH   5   7
ENDBRANCH   4   5
ENDBRANCH   1   4
BRANCH   1  16
HETATM   16  C10 UNL     1     -19.883  -7.375 -11.421  1.00  0.00     0.398 C 
BRANCH  16  17
HETATM   17  O2  UNL     1     -20.112  -8.671 -11.785  1.00  0.00    -0.364 OA
ATOM     18  H2  UNL     1     -19.900  -9.322 -11.126  1.00  0.00     0.212 HD
ENDBRANCH  16  17
BRANCH  16  19
HETATM   19  C11 UNL     1     -18.823  -6.776 -12.241  1.00  0.00     0.248 C 
HETATM   20  O3  UNL     1     -18.288  -5.719 -11.746  1.00  0.00    -0.284 OA
BRANCH  19  21
HETATM   21  C12 UNL     1     -18.337  -7.259 -13.525  1.00  0.00     0.156 A 
HETATM   22  N3  UNL     1     -19.170  -7.575 -14.565  1.00  0.00    -0.348 N 
HETATM   23  C13 UNL     1     -18.462  -7.989 -15.621  1.00  0.00     0.107 A 
ATOM     24  H3  UNL     1     -20.187  -7.504 -14.538  1.00  0.00     0.167 HD
HETATM   25  C14 UNL     1     -17.143  -7.938 -15.247  1.00  0.00     0.107 A 
HETATM   26  N4  UNL     1     -17.106  -7.494 -13.977  1.00  0.00    -0.348 N 
ATOM     27  H4  UNL     1     -16.253  -7.357 -13.436  1.00  0.00     0.167 HD
ENDBRANCH  19  21
ENDBRANCH  16  19
ENDBRANCH   1  16
TORSDOF 8
ENDMDL
MODEL 5
REMARK VINA RESULT: -6.003631335      1.557      4.073
REMARK  8 active torsions:
REMARK  status: ('A' for Active; 'I' for Inactive)
REMARK    1  A    between atoms: C1_2  and  C2_3 
REMARK    2  A    between atoms: C1_2  and  C9_12 
REMARK    3  A    between atoms: N1_4  and  C3_6 
REMARK    4  A    between atoms: C9_12  and  N2_13 
REMARK    5  A    between atoms: N2_13  and  C10_16 
REMARK    6  A    between atoms: C10_16  and  O2_17 
REMARK    7  A    between atoms: C10_16  and  C11_19 
REMARK    8  A    between atoms: C11_19  and  C12_21 
ROOT
HETATM    1  N2  UNL     1     -21.019  -6.576 -11.408  1.00  0.00    -0.035 N 
ATOM      2  H21 UNL     1     -21.428  -6.852 -10.515  1.00  0.00     0.281 HD
ATOM      3  H22 UNL     1     -20.691  -5.646 -11.149  1.00  0.00     0.281 HD
ENDROOT
BRANCH   1   4
HETATM    4  C9  UNL     1     -22.022  -6.515 -12.458  1.00  0.00     0.320 C 
BRANCH   4   5
HETATM    5  C1  UNL     1     -22.272  -5.070 -12.801  1.00  0.00     0.189 C 
HETATM    6  O1  UNL     1     -23.354  -4.660 -12.495  1.00  0.00    -0.290 OA
BRANCH   5   7
HETATM    7  C2  UNL     1     -21.254  -4.256 -13.456  1.00  0.00     0.135 C 
HETATM    8  N1  UNL     1     -20.505  -4.781 -14.445  1.00  0.00    -0.391 N 
ATOM      9  H1  UNL     1     -19.530  -4.870 -14.158  1.00  0.00     0.159 HD
BRANCH   8  10
HETATM   10  C3  UNL     1     -20.679  -5.223 -15.709  1.00  0.00     0.081 C 
HETATM   11  C4  UNL     1     -19.906  -4.491 -16.770  1.00  0.00     0.025 C 
HETATM   12  C5  UNL     1     -20.767  -4.503 -18.044  1.00  0.00     0.002 C 
HETATM   13  C6  UNL     1     -21.249  -5.921 -18.184  1.00  0.00     0.000 C 
HETATM   14  C7  UNL     1     -20.361  -6.915 -17.468  1.00  0.00     0.002 C 
HETATM   15  C8  UNL     1     -20.381  -6.703 -15.962  1.00  0.00     0.025 C 
ENDBRANCH   8  10
ENDBRANCH   5   7
ENDBRANCH   4   5
ENDBRANCH   1   4
BRANCH   1  16
HETATM   16  C10 UNL     1     -19.921  -7.445 -11.784  1.00  0.00     0.398 C 
BRANCH  16  17
HETATM   17  O2  UNL     1     -20.188  -8.324 -12.795  1.00  0.00    -0.364 OA
ATOM     18  H2  UNL     1     -19.447  -8.835 -13.097  1.00  0.00     0.212 HD
ENDBRANCH  16  17
BRANCH  16  19
HETATM   19  C11 UNL     1     -18.642  -6.760 -12.005  1.00  0.00     0.248 C 
HETATM   20  O3  UNL     1     -18.163  -6.163 -10.974  1.00  0.00    -0.284 OA
BRANCH  19  21
HETATM   21  C12 UNL     1     -17.890  -6.699 -13.249  1.00  0.00     0.156 A 
HETATM   22  N3  UNL     1     -17.406  -7.813 -13.881  1.00  0.00    -0.348 N 
HETATM   23  C13 UNL     1     -16.758  -7.471 -14.999  1.00  0.00     0.107 A 
ATOM     24  H3  UNL     1     -17.523  -8.770 -13.546  1.00  0.00     0.167 HD
HETATM   25  C14 UNL     1     -16.829  -6.104 -15.085  1.00  0.00     0.107 A 
HETATM   26  N4  UNL     1     -17.518  -5.673 -14.013  1.00  0.00    -0.348 N 
ATOM     27  H4  UNL     1     -17.726  -4.695 -13.812  1.00  0.00     0.167 HD
ENDBRANCH  19  21
ENDBRANCH  16  19
ENDBRANCH   1  16
TORSDOF 8
ENDMDL
