MODEL 1
REMARK VINA RESULT: -5.738555845      0.000      0.000
REMARK  9 active torsions:
REMARK  status: ('A' for Active; 'I' for Inactive)
REMARK    1  A    between atoms: O1_2  and  C2_3 
REMARK    2  A    between atoms: C5_6  and  C6_7 
REMARK    3  A    between atoms: C6_7  and  C7_8 
REMARK    4  A    between atoms: C7_8  and  N1_9 
REMARK       I    between atoms: C8_11  and  N3_13 
REMARK    5  A    between atoms: N3_13  and  N4_15 
REMARK    6  A    between atoms: N4_15  and  O2_16 
REMARK    7  A    between atoms: N5_18  and  N6_20 
REMARK    8  A    between atoms: C9_23  and  N7_24 
REMARK    9  A    between atoms: N7_24  and  C10_26 
ROOT
HETATM    1  C7  UNL     1     -57.102  -1.603   2.802  1.00  0.00     0.127 C 
ENDROOT
BRANCH   1   2
HETATM    2  C6  UNL     1     -56.981  -0.461   1.788  1.00  0.00     0.060 C 
BRANCH   2   3
HETATM    3  C5  UNL     1     -57.616   0.780   2.297  1.00  0.00    -0.030 A 
HETATM    4  C4  UNL     1     -57.047   1.456   3.377  1.00  0.00     0.012 A 
HETATM    5  C3  UNL     1     -57.657   2.594   3.864  1.00  0.00     0.037 A 
HETATM    6  C2  UNL     1     -58.813   3.071   3.302  1.00  0.00     0.070 A 
HETATM    7  C11 UNL     1     -59.339   2.363   2.230  1.00  0.00     0.066 A 
HETATM    8  C9  UNL     1     -58.801   1.232   1.689  1.00  0.00     0.043 A 
BRANCH   6   9
HETATM    9  O1  UNL     1     -59.401   4.205   3.805  1.00  0.00    -0.356 OA
HETATM   10  C1  UNL     1     -59.153   4.560   5.149  1.00  0.00     0.210 C 
ENDBRANCH   6   9
BRANCH   8  11
HETATM   11  N7  UNL     1     -59.315   0.527   0.583  1.00  0.00    -0.334 N 
ATOM     12  H7  UNL     1     -58.825   0.624  -0.307  1.00  0.00     0.168 HD
BRANCH  11  13
HETATM   13  C10 UNL     1     -60.449  -0.297   0.612  1.00  0.00     0.353 C 
HETATM   14  O3  UNL     1     -60.576  -1.416   1.144  1.00  0.00    -0.283 OA
ENDBRANCH  11  13
ENDBRANCH   8  11
ENDBRANCH   2   3
ENDBRANCH   1   2
BRANCH   1  15
HETATM   15  N1  UNL     1     -58.036  -2.544   2.223  1.00  0.00    -0.363 N 
HETATM   16  C8  UNL     1     -57.575  -3.582   1.631  1.00  0.00     0.206 C 
HETATM   17  N2  UNL     1     -56.181  -3.859   1.513  1.00  0.00    -0.062 NA
HETATM   18  N3  UNL     1     -58.498  -4.499   1.067  1.00  0.00    -0.230 N 
ATOM     19  H3  UNL     1     -59.220  -4.181   0.421  1.00  0.00     0.194 HD
ATOM     20  H1  UNL     1     -59.041  -2.383   2.286  1.00  0.00     0.162 HD
BRANCH  18  21
HETATM   21  N4  UNL     1     -58.397  -5.839   1.414  1.00  0.00    -0.078 N 
HETATM   22  N5  UNL     1     -57.534  -6.551   0.829  1.00  0.00    -0.207 N 
ATOM     23  H5  UNL     1     -56.930  -6.139   0.118  1.00  0.00     0.212 HD
BRANCH  21  24
HETATM   24  O2  UNL     1     -59.212  -6.382   2.368  1.00  0.00    -0.252 OA
ATOM     25  H2  UNL     1     -59.430  -7.307   2.356  1.00  0.00     0.248 HD
ENDBRANCH  21  24
BRANCH  22  26
HETATM   26  N6  UNL     1     -57.407  -7.899   1.153  1.00  0.00    -0.328 N 
ATOM     27  H62 UNL     1     -56.568  -8.212   1.642  1.00  0.00     0.178 HD
ATOM     28  H61 UNL     1     -58.144  -8.556   0.903  1.00  0.00     0.178 HD
ENDBRANCH  22  26
ENDBRANCH  18  21
ENDBRANCH   1  15
TORSDOF 9
ENDMDL
MODEL 2
REMARK VINA RESULT: -5.728929570      1.784      2.231
REMARK  9 active torsions:
REMARK  status: ('A' for Active; 'I' for Inactive)
REMARK    1  A    between atoms: O1_2  and  C2_3 
REMARK    2  A    between atoms: C5_6  and  C6_7 
REMARK    3  A    between atoms: C6_7  and  C7_8 
REMARK    4  A    between atoms: C7_8  and  N1_9 
REMARK       I    between atoms: C8_11  and  N3_13 
REMARK    5  A    between atoms: N3_13  and  N4_15 
REMARK    6  A    between atoms: N4_15  and  O2_16 
REMARK    7  A    between atoms: N5_18  and  N6_20 
REMARK    8  A    between atoms: C9_23  and  N7_24 
REMARK    9  A    between atoms: N7_24  and  C10_26 
ROOT
HETATM    1  C7  UNL     1     -56.394  -1.091   0.904  1.00  0.00     0.127 C 
ENDROOT
BRANCH   1   2
HETATM    2  C6  UNL     1     -56.993   0.251   0.471  1.00  0.00     0.060 C 
BRANCH   2   3
HETATM    3  C5  UNL     1     -57.384   1.069   1.646  1.00  0.00    -0.030 A 
HETATM    4  C4  UNL     1     -56.404   1.536   2.522  1.00  0.00     0.012 A 
HETATM    5  C3  UNL     1     -56.777   2.273   3.628  1.00  0.00     0.037 A 
HETATM    6  C2  UNL     1     -58.095   2.553   3.879  1.00  0.00     0.070 A 
HETATM    7  C11 UNL     1     -59.032   2.065   2.977  1.00  0.00     0.066 A 
HETATM    8  C9  UNL     1     -58.750   1.331   1.862  1.00  0.00     0.043 A 
BRANCH   6   9
HETATM    9  O1  UNL     1     -58.440   3.287   4.986  1.00  0.00    -0.356 OA
HETATM   10  C1  UNL     1     -59.044   4.549   4.802  1.00  0.00     0.210 C 
ENDBRANCH   6   9
BRANCH   8  11
HETATM   11  N7  UNL     1     -59.694   0.860   0.930  1.00  0.00    -0.334 N 
ATOM     12  H7  UNL     1     -59.780   1.367   0.049  1.00  0.00     0.168 HD
BRANCH  11  13
HETATM   13  C10 UNL     1     -60.525  -0.253   1.121  1.00  0.00     0.353 C 
HETATM   14  O3  UNL     1     -60.328  -1.248   1.844  1.00  0.00    -0.283 OA
ENDBRANCH  11  13
ENDBRANCH   8  11
ENDBRANCH   2   3
ENDBRANCH   1   2
BRANCH   1  15
HETATM   15  N1  UNL     1     -57.419  -1.742   1.690  1.00  0.00    -0.363 N 
HETATM   16  C8  UNL     1     -57.193  -2.921   2.140  1.00  0.00     0.206 C 
HETATM   17  N2  UNL     1     -55.977  -3.626   1.904  1.00  0.00    -0.062 NA
HETATM   18  N3  UNL     1     -58.203  -3.550   2.910  1.00  0.00    -0.230 N 
ATOM     19  H3  UNL     1     -59.156  -3.631   2.555  1.00  0.00     0.194 HD
ATOM     20  H1  UNL     1     -58.303  -1.272   1.882  1.00  0.00     0.162 HD
BRANCH  18  21
HETATM   21  N4  UNL     1     -57.867  -4.056   4.158  1.00  0.00    -0.078 N 
HETATM   22  N5  UNL     1     -56.839  -3.606   4.735  1.00  0.00    -0.207 N 
ATOM     23  H5  UNL     1     -56.275  -2.886   4.284  1.00  0.00     0.212 HD
BRANCH  21  24
HETATM   24  O2  UNL     1     -58.630  -5.022   4.755  1.00  0.00    -0.252 OA
ATOM     25  H2  UNL     1     -58.866  -5.815   4.288  1.00  0.00     0.248 HD
ENDBRANCH  21  24
BRANCH  22  26
HETATM   26  N6  UNL     1     -56.473  -4.091   5.988  1.00  0.00    -0.328 N 
ATOM     27  H62 UNL     1     -56.920  -4.937   6.340  1.00  0.00     0.178 HD
ATOM     28  H61 UNL     1     -55.768  -3.602   6.539  1.00  0.00     0.178 HD
ENDBRANCH  22  26
ENDBRANCH  18  21
ENDBRANCH   1  15
TORSDOF 9
ENDMDL
MODEL 3
REMARK VINA RESULT: -5.720932192      2.231      2.911
REMARK  9 active torsions:
REMARK  status: ('A' for Active; 'I' for Inactive)
REMARK    1  A    between atoms: O1_2  and  C2_3 
REMARK    2  A    between atoms: C5_6  and  C6_7 
REMARK    3  A    between atoms: C6_7  and  C7_8 
REMARK    4  A    between atoms: C7_8  and  N1_9 
REMARK       I    between atoms: C8_11  and  N3_13 
REMARK    5  A    between atoms: N3_13  and  N4_15 
REMARK    6  A    between atoms: N4_15  and  O2_16 
REMARK    7  A    between atoms: N5_18  and  N6_20 
REMARK    8  A    between atoms: C9_23  and  N7_24 
REMARK    9  A    between atoms: N7_24  and  C10_26 
ROOT
HETATM    1  C7  UNL     1     -57.164  -2.552  -0.027  1.00  0.00     0.127 C 
ENDROOT
BRANCH   1   2
HETATM    2  C6  UNL     1     -58.106  -1.349  -0.144  1.00  0.00     0.060 C 
BRANCH   2   3
HETATM    3  C5  UNL     1     -57.681  -0.245   0.751  1.00  0.00    -0.030 A 
HETATM    4  C4  UNL     1     -56.510   0.461   0.473  1.00  0.00     0.012 A 
HETATM    5  C3  UNL     1     -56.106   1.469   1.325  1.00  0.00     0.037 A 
HETATM    6  C2  UNL     1     -56.837   1.787   2.440  1.00  0.00     0.070 A 
HETATM    7  C11 UNL     1     -57.994   1.056   2.672  1.00  0.00     0.066 A 
HETATM    8  C9  UNL     1     -58.464   0.047   1.883  1.00  0.00     0.043 A 
BRANCH   6   9
HETATM    9  O1  UNL     1     -56.413   2.793   3.272  1.00  0.00    -0.356 OA
HETATM   10  C1  UNL     1     -56.558   2.627   4.666  1.00  0.00     0.210 C 
ENDBRANCH   6   9
BRANCH   8  11
HETATM   11  N7  UNL     1     -59.652  -0.678   2.099  1.00  0.00    -0.334 N 
ATOM     12  H7  UNL     1     -60.434  -0.501   1.468  1.00  0.00     0.168 HD
BRANCH  11  13
HETATM   13  C10 UNL     1     -59.843  -1.624   3.117  1.00  0.00     0.353 C 
HETATM   14  O3  UNL     1     -60.263  -2.792   3.015  1.00  0.00    -0.283 OA
ENDBRANCH  11  13
ENDBRANCH   8  11
ENDBRANCH   2   3
ENDBRANCH   1   2
BRANCH   1  15
HETATM   15  N1  UNL     1     -57.792  -3.451   0.916  1.00  0.00    -0.363 N 
HETATM   16  C8  UNL     1     -57.092  -3.912   1.885  1.00  0.00     0.206 C 
HETATM   17  N2  UNL     1     -55.719  -3.584   2.082  1.00  0.00    -0.062 NA
HETATM   18  N3  UNL     1     -57.717  -4.792   2.805  1.00  0.00    -0.230 N 
ATOM     19  H3  UNL     1     -58.213  -5.621   2.479  1.00  0.00     0.194 HD
ATOM     20  H1  UNL     1     -58.773  -3.711   0.812  1.00  0.00     0.162 HD
BRANCH  18  21
HETATM   21  N4  UNL     1     -57.637  -4.500   4.159  1.00  0.00    -0.078 N 
HETATM   22  N5  UNL     1     -56.502  -4.276   4.664  1.00  0.00    -0.207 N 
ATOM     23  H5  UNL     1     -55.668  -4.313   4.079  1.00  0.00     0.212 HD
BRANCH  21  24
HETATM   24  O2  UNL     1     -58.762  -4.454   4.937  1.00  0.00    -0.252 OA
ATOM     25  H2  UNL     1     -59.504  -3.913   4.691  1.00  0.00     0.248 HD
ENDBRANCH  21  24
BRANCH  22  26
HETATM   26  N6  UNL     1     -56.387  -3.980   6.019  1.00  0.00    -0.328 N 
ATOM     27  H62 UNL     1     -55.459  -3.951   6.442  1.00  0.00     0.178 HD
ATOM     28  H61 UNL     1     -57.222  -3.796   6.574  1.00  0.00     0.178 HD
ENDBRANCH  22  26
ENDBRANCH  18  21
ENDBRANCH   1  15
TORSDOF 9
ENDMDL
MODEL 4
REMARK VINA RESULT: -5.640161001      3.002      3.979
REMARK  9 active torsions:
REMARK  status: ('A' for Active; 'I' for Inactive)
REMARK    1  A    between atoms: O1_2  and  C2_3 
REMARK    2  A    between atoms: C5_6  and  C6_7 
REMARK    3  A    between atoms: C6_7  and  C7_8 
REMARK    4  A    between atoms: C7_8  and  N1_9 
REMARK       I    between atoms: C8_11  and  N3_13 
REMARK    5  A    between atoms: N3_13  and  N4_15 
REMARK    6  A    between atoms: N4_15  and  O2_16 
REMARK    7  A    between atoms: N5_18  and  N6_20 
REMARK    8  A    between atoms: C9_23  and  N7_24 
REMARK    9  A    between atoms: N7_24  and  C10_26 
ROOT
HETATM    1  C7  UNL     1     -58.500  -4.002  -0.205  1.00  0.00     0.127 C 
ENDROOT
BRANCH   1   2
HETATM    2  C6  UNL     1     -59.179  -2.633  -0.096  1.00  0.00     0.060 C 
BRANCH   2   3
HETATM    3  C5  UNL     1     -58.178  -1.539  -0.039  1.00  0.00    -0.030 A 
HETATM    4  C4  UNL     1     -57.636  -1.034  -1.221  1.00  0.00     0.012 A 
HETATM    5  C3  UNL     1     -56.685  -0.036  -1.160  1.00  0.00     0.037 A 
HETATM    6  C2  UNL     1     -56.265   0.467   0.044  1.00  0.00     0.070 A 
HETATM    7  C11 UNL     1     -56.834  -0.069   1.191  1.00  0.00     0.066 A 
HETATM    8  C9  UNL     1     -57.778  -1.054   1.220  1.00  0.00     0.043 A 
BRANCH   6   9
HETATM    9  O1  UNL     1     -55.317   1.459   0.079  1.00  0.00    -0.356 OA
HETATM   10  C1  UNL     1     -55.599   2.644   0.792  1.00  0.00     0.210 C 
ENDBRANCH   6   9
BRANCH   8  11
HETATM   11  N7  UNL     1     -58.379  -1.581   2.379  1.00  0.00    -0.334 N 
ATOM     12  H7  UNL     1     -57.774  -2.049   3.054  1.00  0.00     0.168 HD
BRANCH  11  13
HETATM   13  C10 UNL     1     -59.748  -1.510   2.678  1.00  0.00     0.353 C 
HETATM   14  O3  UNL     1     -60.435  -2.313   3.336  1.00  0.00    -0.283 OA
ENDBRANCH  11  13
ENDBRANCH   8  11
ENDBRANCH   2   3
ENDBRANCH   1   2
BRANCH   1  15
HETATM   15  N1  UNL     1     -58.786  -4.681   1.040  1.00  0.00    -0.363 N 
HETATM   16  C8  UNL     1     -57.855  -4.777   1.916  1.00  0.00     0.206 C 
HETATM   17  N2  UNL     1     -56.545  -4.247   1.723  1.00  0.00    -0.062 NA
HETATM   18  N3  UNL     1     -58.144  -5.443   3.133  1.00  0.00    -0.230 N 
ATOM     19  H3  UNL     1     -58.542  -6.382   3.133  1.00  0.00     0.194 HD
ATOM     20  H1  UNL     1     -59.710  -5.074   1.218  1.00  0.00     0.162 HD
BRANCH  18  21
HETATM   21  N4  UNL     1     -57.873  -4.789   4.327  1.00  0.00    -0.078 N 
HETATM   22  N5  UNL     1     -56.683  -4.761   4.745  1.00  0.00    -0.207 N 
ATOM     23  H5  UNL     1     -55.943  -5.214   4.208  1.00  0.00     0.212 HD
BRANCH  21  24
HETATM   24  O2  UNL     1     -58.873  -4.185   5.040  1.00  0.00    -0.252 OA
ATOM     25  H2  UNL     1     -58.673  -3.603   5.764  1.00  0.00     0.248 HD
ENDBRANCH  21  24
BRANCH  22  26
HETATM   26  N6  UNL     1     -56.377  -4.113   5.938  1.00  0.00    -0.328 N 
ATOM     27  H62 UNL     1     -57.119  -3.960   6.621  1.00  0.00     0.178 HD
ATOM     28  H61 UNL     1     -55.424  -3.799   6.119  1.00  0.00     0.178 HD
ENDBRANCH  22  26
ENDBRANCH  18  21
ENDBRANCH   1  15
TORSDOF 9
ENDMDL
MODEL 5
REMARK VINA RESULT: -5.614233052      3.443      5.185
REMARK  9 active torsions:
REMARK  status: ('A' for Active; 'I' for Inactive)
REMARK    1  A    between atoms: O1_2  and  C2_3 
REMARK    2  A    between atoms: C5_6  and  C6_7 
REMARK    3  A    between atoms: C6_7  and  C7_8 
REMARK    4  A    between atoms: C7_8  and  N1_9 
REMARK       I    between atoms: C8_11  and  N3_13 
REMARK    5  A    between atoms: N3_13  and  N4_15 
REMARK    6  A    between atoms: N4_15  and  O2_16 
REMARK    7  A    between atoms: N5_18  and  N6_20 
REMARK    8  A    between atoms: C9_23  and  N7_24 
REMARK    9  A    between atoms: N7_24  and  C10_26 
ROOT
HETATM    1  C7  UNL     1     -58.591  -3.432  -0.196  1.00  0.00     0.127 C 
ENDROOT
BRANCH   1   2
HETATM    2  C6  UNL     1     -58.655  -1.995  -0.723  1.00  0.00     0.060 C 
BRANCH   2   3
HETATM    3  C5  UNL     1     -57.296  -1.443  -0.951  1.00  0.00    -0.030 A 
HETATM    4  C4  UNL     1     -56.542  -1.887  -2.037  1.00  0.00     0.012 A 
HETATM    5  C3  UNL     1     -55.269  -1.392  -2.228  1.00  0.00     0.037 A 
HETATM    6  C2  UNL     1     -54.733  -0.469  -1.367  1.00  0.00     0.070 A 
HETATM    7  C11 UNL     1     -55.524  -0.059  -0.302  1.00  0.00     0.066 A 
HETATM    8  C9  UNL     1     -56.789  -0.498  -0.041  1.00  0.00     0.043 A 
BRANCH   6   9
HETATM    9  O1  UNL     1     -53.464   0.008  -1.578  1.00  0.00    -0.356 OA
HETATM   10  C1  UNL     1     -52.522  -0.827  -2.218  1.00  0.00     0.210 C 
ENDBRANCH   6   9
BRANCH   8  11
HETATM   11  N7  UNL     1     -57.605  -0.063   1.022  1.00  0.00    -0.334 N 
ATOM     12  H7  UNL     1     -58.405   0.527   0.791  1.00  0.00     0.168 HD
BRANCH  11  13
HETATM   13  C10 UNL     1     -57.402  -0.379   2.373  1.00  0.00     0.353 C 
HETATM   14  O3  UNL     1     -57.117  -1.484   2.871  1.00  0.00    -0.283 OA
ENDBRANCH  11  13
ENDBRANCH   8  11
ENDBRANCH   2   3
ENDBRANCH   1   2
BRANCH   1  15
HETATM   15  N1  UNL     1     -58.833  -3.338   1.227  1.00  0.00    -0.363 N 
HETATM   16  C8  UNL     1     -58.608  -4.366   1.958  1.00  0.00     0.206 C 
HETATM   17  N2  UNL     1     -58.127  -5.604   1.437  1.00  0.00    -0.062 NA
HETATM   18  N3  UNL     1     -58.848  -4.265   3.352  1.00  0.00    -0.230 N 
ATOM     19  H3  UNL     1     -59.748  -3.940   3.703  1.00  0.00     0.194 HD
ATOM     20  H1  UNL     1     -59.177  -2.471   1.640  1.00  0.00     0.162 HD
BRANCH  18  21
HETATM   21  N4  UNL     1     -57.831  -4.619   4.227  1.00  0.00    -0.078 N 
HETATM   22  N5  UNL     1     -57.272  -3.711   4.903  1.00  0.00    -0.207 N 
ATOM     23  H5  UNL     1     -57.570  -2.742   4.799  1.00  0.00     0.212 HD
BRANCH  21  24
HETATM   24  O2  UNL     1     -57.437  -5.923   4.357  1.00  0.00    -0.252 OA
ATOM     25  H2  UNL     1     -57.337  -6.481   3.595  1.00  0.00     0.248 HD
ENDBRANCH  21  24
BRANCH  22  26
HETATM   26  N6  UNL     1     -56.248  -4.032   5.789  1.00  0.00    -0.328 N 
ATOM     27  H62 UNL     1     -55.372  -3.512   5.742  1.00  0.00     0.178 HD
ATOM     28  H61 UNL     1     -56.380  -4.777   6.473  1.00  0.00     0.178 HD
ENDBRANCH  22  26
ENDBRANCH  18  21
ENDBRANCH   1  15
TORSDOF 9
ENDMDL
