MODEL 1
REMARK VINA RESULT: -6.445956509      0.000      0.000
REMARK  7 active torsions:
REMARK  status: ('A' for Active; 'I' for Inactive)
REMARK    1  A    between atoms: N1_1  and  N2_4 
REMARK       I    between atoms: N2_4  and  C1_5 
REMARK       I    between atoms: C1_5  and  N3_6 
REMARK       I    between atoms: C1_5  and  N4_10 
REMARK       I    between atoms: N4_10  and  C2_12 
REMARK    2  A    between atoms: C2_12  and  C3_14 
REMARK    3  A    between atoms: C3_14  and  C4_15 
REMARK    4  A    between atoms: C4_15  and  C5_16 
REMARK    5  A    between atoms: C5_16  and  N5_17 
REMARK    6  A    between atoms: N5_17  and  C6_19 
REMARK    7  A    between atoms: C9_22  and  N6_23 
ROOT
HETATM    1  C3  UNL     1     -56.827  -1.495   1.657  1.00  0.00     0.104 C 
ENDROOT
BRANCH   1   2
HETATM    2  C2  UNL     1     -56.695  -2.820   2.285  1.00  0.00     0.220 C 
HETATM    3  N4  UNL     1     -57.491  -3.131   3.432  1.00  0.00    -0.319 N 
HETATM    4  C1  UNL     1     -57.417  -4.405   4.100  1.00  0.00     0.398 C 
ATOM      5  H4  UNL     1     -58.135  -2.426   3.790  1.00  0.00     0.165 HD
HETATM    6  N2  UNL     1     -58.680  -5.118   4.061  1.00  0.00    -0.093 NA
HETATM    7  N3  UNL     1     -56.935  -4.252   5.455  1.00  0.00    -0.042 N 
ATOM      8  H33 UNL     1     -57.633  -3.808   6.051  1.00  0.00     0.278 HD
ATOM      9  H32 UNL     1     -56.870  -5.152   5.931  1.00  0.00     0.278 HD
ATOM     10  H31 UNL     1     -56.047  -3.751   5.482  1.00  0.00     0.278 HD
HETATM   11  O1  UNL     1     -55.914  -3.706   1.868  1.00  0.00    -0.274 OA
BRANCH   6  12
HETATM   12  N1  UNL     1     -59.166  -5.283   2.782  1.00  0.00    -0.345 N 
ATOM     13  H12 UNL     1     -58.558  -5.441   1.978  1.00  0.00     0.172 HD
ATOM     14  H11 UNL     1     -60.184  -5.229   2.733  1.00  0.00     0.172 HD
ENDBRANCH   6  12
ENDBRANCH   1   2
BRANCH   1  15
HETATM   15  C4  UNL     1     -58.129  -0.811   1.834  1.00  0.00     0.029 C 
BRANCH  15  16
HETATM   16  C5  UNL     1     -58.131   0.673   1.572  1.00  0.00     0.120 C 
BRANCH  16  17
HETATM   17  N5  UNL     1     -56.807   1.242   1.672  1.00  0.00    -0.390 N 
ATOM     18  H5  UNL     1     -56.120   1.013   0.954  1.00  0.00     0.159 HD
BRANCH  17  19
HETATM   19  C6  UNL     1     -56.425   2.107   2.732  1.00  0.00     0.028 A 
HETATM   20  C7  UNL     1     -55.669   3.242   2.522  1.00  0.00     0.031 A 
HETATM   21  C8  UNL     1     -55.317   4.059   3.576  1.00  0.00     0.038 A 
HETATM   22  C9  UNL     1     -55.698   3.791   4.882  1.00  0.00     0.103 A 
HETATM   23  C10 UNL     1     -56.454   2.655   5.082  1.00  0.00     0.038 A 
HETATM   24  C11 UNL     1     -56.807   1.836   4.029  1.00  0.00     0.031 A 
BRANCH  22  25
HETATM   25  N6  UNL     1     -55.322   4.649   5.947  1.00  0.00    -0.116 N 
HETATM   26  O2  UNL     1     -56.077   5.535   6.375  1.00  0.00    -0.532 OA
HETATM   27  O3  UNL     1     -54.091   4.508   6.529  1.00  0.00    -0.532 OA
ENDBRANCH  22  25
ENDBRANCH  17  19
ENDBRANCH  16  17
ENDBRANCH  15  16
ENDBRANCH   1  15
TORSDOF 7
ENDMDL
MODEL 2
REMARK VINA RESULT: -6.429037172      0.077      1.055
REMARK  7 active torsions:
REMARK  status: ('A' for Active; 'I' for Inactive)
REMARK    1  A    between atoms: N1_1  and  N2_4 
REMARK       I    between atoms: N2_4  and  C1_5 
REMARK       I    between atoms: C1_5  and  N3_6 
REMARK       I    between atoms: C1_5  and  N4_10 
REMARK       I    between atoms: N4_10  and  C2_12 
REMARK    2  A    between atoms: C2_12  and  C3_14 
REMARK    3  A    between atoms: C3_14  and  C4_15 
REMARK    4  A    between atoms: C4_15  and  C5_16 
REMARK    5  A    between atoms: C5_16  and  N5_17 
REMARK    6  A    between atoms: N5_17  and  C6_19 
REMARK    7  A    between atoms: C9_22  and  N6_23 
ROOT
HETATM    1  C3  UNL     1     -56.789  -1.465   1.659  1.00  0.00     0.104 C 
ENDROOT
BRANCH   1   2
HETATM    2  C2  UNL     1     -56.663  -2.794   2.281  1.00  0.00     0.220 C 
HETATM    3  N4  UNL     1     -57.498  -3.126   3.394  1.00  0.00    -0.319 N 
HETATM    4  C1  UNL     1     -57.432  -4.404   4.055  1.00  0.00     0.398 C 
ATOM      5  H4  UNL     1     -58.165  -2.432   3.733  1.00  0.00     0.165 HD
HETATM    6  N2  UNL     1     -58.681  -5.134   3.961  1.00  0.00    -0.093 NA
HETATM    7  N3  UNL     1     -57.004  -4.255   5.428  1.00  0.00    -0.042 N 
ATOM      8  H33 UNL     1     -57.731  -3.826   6.001  1.00  0.00     0.278 HD
ATOM      9  H32 UNL     1     -56.945  -5.158   5.899  1.00  0.00     0.278 HD
ATOM     10  H31 UNL     1     -56.125  -3.742   5.494  1.00  0.00     0.278 HD
HETATM   11  O1  UNL     1     -55.854  -3.665   1.888  1.00  0.00    -0.274 OA
BRANCH   6  12
HETATM   12  N1  UNL     1     -59.116  -5.295   2.664  1.00  0.00    -0.345 N 
ATOM     13  H12 UNL     1     -59.417  -4.511   2.083  1.00  0.00     0.172 HD
ATOM     14  H11 UNL     1     -59.102  -6.267   2.356  1.00  0.00     0.172 HD
ENDBRANCH   6  12
ENDBRANCH   1   2
BRANCH   1  15
HETATM   15  C4  UNL     1     -58.071  -0.756   1.880  1.00  0.00     0.029 C 
BRANCH  15  16
HETATM   16  C5  UNL     1     -58.068   0.717   1.564  1.00  0.00     0.120 C 
BRANCH  16  17
HETATM   17  N5  UNL     1     -56.751   1.297   1.697  1.00  0.00    -0.390 N 
ATOM     18  H5  UNL     1     -56.051   1.092   0.984  1.00  0.00     0.159 HD
BRANCH  17  19
HETATM   19  C6  UNL     1     -56.393   2.140   2.783  1.00  0.00     0.028 A 
HETATM   20  C7  UNL     1     -56.765   1.867   4.083  1.00  0.00     0.031 A 
HETATM   21  C8  UNL     1     -56.399   2.709   5.112  1.00  0.00     0.038 A 
HETATM   22  C9  UNL     1     -55.650   3.856   4.902  1.00  0.00     0.103 A 
HETATM   23  C10 UNL     1     -55.282   4.121   3.599  1.00  0.00     0.038 A 
HETATM   24  C11 UNL     1     -55.647   3.280   2.567  1.00  0.00     0.031 A 
BRANCH  22  25
HETATM   25  N6  UNL     1     -55.287   4.704   5.980  1.00  0.00    -0.116 N 
HETATM   26  O2  UNL     1     -56.042   5.596   6.396  1.00  0.00    -0.532 OA
HETATM   27  O3  UNL     1     -54.071   4.545   6.588  1.00  0.00    -0.532 OA
ENDBRANCH  22  25
ENDBRANCH  17  19
ENDBRANCH  16  17
ENDBRANCH  15  16
ENDBRANCH   1  15
TORSDOF 7
ENDMDL
MODEL 3
REMARK VINA RESULT: -6.340940946      1.356      1.833
REMARK  7 active torsions:
REMARK  status: ('A' for Active; 'I' for Inactive)
REMARK    1  A    between atoms: N1_1  and  N2_4 
REMARK       I    between atoms: N2_4  and  C1_5 
REMARK       I    between atoms: C1_5  and  N3_6 
REMARK       I    between atoms: C1_5  and  N4_10 
REMARK       I    between atoms: N4_10  and  C2_12 
REMARK    2  A    between atoms: C2_12  and  C3_14 
REMARK    3  A    between atoms: C3_14  and  C4_15 
REMARK    4  A    between atoms: C4_15  and  C5_16 
REMARK    5  A    between atoms: C5_16  and  N5_17 
REMARK    6  A    between atoms: N5_17  and  C6_19 
REMARK    7  A    between atoms: C9_22  and  N6_23 
ROOT
HETATM    1  C3  UNL     1     -58.543  -1.241   2.225  1.00  0.00     0.104 C 
ENDROOT
BRANCH   1   2
HETATM    2  C2  UNL     1     -58.964  -2.532   2.793  1.00  0.00     0.220 C 
HETATM    3  N4  UNL     1     -58.179  -3.700   2.531  1.00  0.00    -0.319 N 
HETATM    4  C1  UNL     1     -58.528  -4.996   3.052  1.00  0.00     0.398 C 
ATOM      5  H4  UNL     1     -57.343  -3.610   1.955  1.00  0.00     0.165 HD
HETATM    6  N2  UNL     1     -57.508  -5.522   3.939  1.00  0.00    -0.093 NA
HETATM    7  N3  UNL     1     -58.829  -5.921   1.981  1.00  0.00    -0.042 N 
ATOM      8  H33 UNL     1     -57.987  -6.184   1.468  1.00  0.00     0.278 HD
ATOM      9  H32 UNL     1     -59.087  -6.839   2.344  1.00  0.00     0.278 HD
ATOM     10  H31 UNL     1     -59.546  -5.551   1.358  1.00  0.00     0.278 HD
HETATM   11  O1  UNL     1     -59.986  -2.673   3.504  1.00  0.00    -0.274 OA
BRANCH   6  12
HETATM   12  N1  UNL     1     -57.199  -4.665   4.973  1.00  0.00    -0.345 N 
ATOM     13  H12 UNL     1     -57.910  -4.257   5.581  1.00  0.00     0.172 HD
ATOM     14  H11 UNL     1     -56.198  -4.489   5.059  1.00  0.00     0.172 HD
ENDBRANCH   6  12
ENDBRANCH   1   2
BRANCH   1  15
HETATM   15  C4  UNL     1     -57.098  -1.091   1.935  1.00  0.00     0.029 C 
BRANCH  15  16
HETATM   16  C5  UNL     1     -56.707   0.151   1.178  1.00  0.00     0.120 C 
BRANCH  16  17
HETATM   17  N5  UNL     1     -57.363   1.330   1.696  1.00  0.00    -0.390 N 
ATOM     18  H5  UNL     1     -58.256   1.610   1.294  1.00  0.00     0.159 HD
BRANCH  17  19
HETATM   19  C6  UNL     1     -56.810   2.113   2.745  1.00  0.00     0.028 A 
HETATM   20  C7  UNL     1     -55.939   3.156   2.507  1.00  0.00     0.031 A 
HETATM   21  C8  UNL     1     -55.423   3.895   3.551  1.00  0.00     0.038 A 
HETATM   22  C9  UNL     1     -55.745   3.635   4.874  1.00  0.00     0.103 A 
HETATM   23  C10 UNL     1     -56.616   2.591   5.103  1.00  0.00     0.038 A 
HETATM   24  C11 UNL     1     -57.134   1.850   4.060  1.00  0.00     0.031 A 
BRANCH  22  25
HETATM   25  N6  UNL     1     -55.199   4.412   5.928  1.00  0.00    -0.116 N 
HETATM   26  O2  UNL     1     -55.781   5.410   6.378  1.00  0.00    -0.532 OA
HETATM   27  O3  UNL     1     -53.994   4.061   6.475  1.00  0.00    -0.532 OA
ENDBRANCH  22  25
ENDBRANCH  17  19
ENDBRANCH  16  17
ENDBRANCH  15  16
ENDBRANCH   1  15
TORSDOF 7
ENDMDL
MODEL 4
REMARK VINA RESULT: -6.332139378      1.352      2.226
REMARK  7 active torsions:
REMARK  status: ('A' for Active; 'I' for Inactive)
REMARK    1  A    between atoms: N1_1  and  N2_4 
REMARK       I    between atoms: N2_4  and  C1_5 
REMARK       I    between atoms: C1_5  and  N3_6 
REMARK       I    between atoms: C1_5  and  N4_10 
REMARK       I    between atoms: N4_10  and  C2_12 
REMARK    2  A    between atoms: C2_12  and  C3_14 
REMARK    3  A    between atoms: C3_14  and  C4_15 
REMARK    4  A    between atoms: C4_15  and  C5_16 
REMARK    5  A    between atoms: C5_16  and  N5_17 
REMARK    6  A    between atoms: N5_17  and  C6_19 
REMARK    7  A    between atoms: C9_22  and  N6_23 
ROOT
HETATM    1  C3  UNL     1     -58.533  -1.235   2.164  1.00  0.00     0.104 C 
ENDROOT
BRANCH   1   2
HETATM    2  C2  UNL     1     -58.963  -2.518   2.746  1.00  0.00     0.220 C 
HETATM    3  N4  UNL     1     -58.190  -3.694   2.491  1.00  0.00    -0.319 N 
HETATM    4  C1  UNL     1     -58.548  -4.983   3.025  1.00  0.00     0.398 C 
ATOM      5  H4  UNL     1     -57.356  -3.618   1.909  1.00  0.00     0.165 HD
HETATM    6  N2  UNL     1     -57.528  -5.511   3.911  1.00  0.00    -0.093 NA
HETATM    7  N3  UNL     1     -58.863  -5.914   1.964  1.00  0.00    -0.042 N 
ATOM      8  H33 UNL     1     -58.027  -6.190   1.449  1.00  0.00     0.278 HD
ATOM      9  H32 UNL     1     -59.128  -6.826   2.335  1.00  0.00     0.278 HD
ATOM     10  H31 UNL     1     -59.580  -5.543   1.341  1.00  0.00     0.278 HD
HETATM   11  O1  UNL     1     -59.982  -2.642   3.464  1.00  0.00    -0.274 OA
BRANCH   6  12
HETATM   12  N1  UNL     1     -57.206  -4.648   4.936  1.00  0.00    -0.345 N 
ATOM     13  H12 UNL     1     -57.875  -3.984   5.328  1.00  0.00     0.172 HD
ATOM     14  H11 UNL     1     -56.241  -4.746   5.252  1.00  0.00     0.172 HD
ENDBRANCH   6  12
ENDBRANCH   1   2
BRANCH   1  15
HETATM   15  C4  UNL     1     -57.082  -1.086   1.904  1.00  0.00     0.029 C 
BRANCH  15  16
HETATM   16  C5  UNL     1     -56.676   0.151   1.145  1.00  0.00     0.120 C 
BRANCH  16  17
HETATM   17  N5  UNL     1     -57.328   1.336   1.654  1.00  0.00    -0.390 N 
ATOM     18  H5  UNL     1     -58.201   1.638   1.223  1.00  0.00     0.159 HD
BRANCH  17  19
HETATM   19  C6  UNL     1     -56.799   2.096   2.731  1.00  0.00     0.028 A 
HETATM   20  C7  UNL     1     -57.113   1.829   4.047  1.00  0.00     0.031 A 
HETATM   21  C8  UNL     1     -56.580   2.589   5.067  1.00  0.00     0.038 A 
HETATM   22  C9  UNL     1     -55.713   3.645   4.831  1.00  0.00     0.103 A 
HETATM   23  C10 UNL     1     -55.404   3.904   3.512  1.00  0.00     0.038 A 
HETATM   24  C11 UNL     1     -55.937   3.145   2.489  1.00  0.00     0.031 A 
BRANCH  22  25
HETATM   25  N6  UNL     1     -55.179   4.409   5.900  1.00  0.00    -0.116 N 
HETATM   26  O2  UNL     1     -54.088   4.136   6.422  1.00  0.00    -0.532 OA
HETATM   27  O3  UNL     1     -55.879   5.484   6.380  1.00  0.00    -0.532 OA
ENDBRANCH  22  25
ENDBRANCH  17  19
ENDBRANCH  16  17
ENDBRANCH  15  16
ENDBRANCH   1  15
TORSDOF 7
ENDMDL
MODEL 5
REMARK VINA RESULT: -6.156332611      0.989      1.376
REMARK  7 active torsions:
REMARK  status: ('A' for Active; 'I' for Inactive)
REMARK    1  A    between atoms: N1_1  and  N2_4 
REMARK       I    between atoms: N2_4  and  C1_5 
REMARK       I    between atoms: C1_5  and  N3_6 
REMARK       I    between atoms: C1_5  and  N4_10 
REMARK       I    between atoms: N4_10  and  C2_12 
REMARK    2  A    between atoms: C2_12  and  C3_14 
REMARK    3  A    between atoms: C3_14  and  C4_15 
REMARK    4  A    between atoms: C4_15  and  C5_16 
REMARK    5  A    between atoms: C5_16  and  N5_17 
REMARK    6  A    between atoms: N5_17  and  C6_19 
REMARK    7  A    between atoms: C9_22  and  N6_23 
ROOT
HETATM    1  C3  UNL     1     -56.794  -1.569   1.598  1.00  0.00     0.104 C 
ENDROOT
BRANCH   1   2
HETATM    2  C2  UNL     1     -56.675  -2.893   2.229  1.00  0.00     0.220 C 
HETATM    3  N4  UNL     1     -57.474  -3.194   3.377  1.00  0.00    -0.319 N 
HETATM    4  C1  UNL     1     -57.413  -4.467   4.048  1.00  0.00     0.398 C 
ATOM      5  H4  UNL     1     -58.111  -2.482   3.733  1.00  0.00     0.165 HD
HETATM    6  N2  UNL     1     -58.682  -5.168   4.010  1.00  0.00    -0.093 NA
HETATM    7  N3  UNL     1     -56.929  -4.316   5.403  1.00  0.00    -0.042 N 
ATOM      8  H33 UNL     1     -57.623  -3.863   5.998  1.00  0.00     0.278 HD
ATOM      9  H32 UNL     1     -56.873  -5.215   5.881  1.00  0.00     0.278 HD
ATOM     10  H31 UNL     1     -56.037  -3.823   5.429  1.00  0.00     0.278 HD
HETATM   11  O1  UNL     1     -55.902  -3.788   1.814  1.00  0.00    -0.274 OA
BRANCH   6  12
HETATM   12  N1  UNL     1     -59.170  -5.331   2.732  1.00  0.00    -0.345 N 
ATOM     13  H12 UNL     1     -59.450  -4.545   2.145  1.00  0.00     0.172 HD
ATOM     14  H11 UNL     1     -59.218  -6.309   2.445  1.00  0.00     0.172 HD
ENDBRANCH   6  12
ENDBRANCH   1   2
BRANCH   1  15
HETATM   15  C4  UNL     1     -58.134  -1.206   1.079  1.00  0.00     0.029 C 
BRANCH  15  16
HETATM   16  C5  UNL     1     -58.973  -0.338   1.980  1.00  0.00     0.120 C 
BRANCH  16  17
HETATM   17  N5  UNL     1     -58.716   1.068   1.769  1.00  0.00    -0.390 N 
ATOM     18  H5  UNL     1     -59.028   1.498   0.899  1.00  0.00     0.159 HD
BRANCH  17  19
HETATM   19  C6  UNL     1     -58.046   1.875   2.727  1.00  0.00     0.028 A 
HETATM   20  C7  UNL     1     -58.701   2.450   3.796  1.00  0.00     0.031 A 
HETATM   21  C8  UNL     1     -58.017   3.227   4.707  1.00  0.00     0.038 A 
HETATM   22  C9  UNL     1     -56.656   3.470   4.601  1.00  0.00     0.103 A 
HETATM   23  C10 UNL     1     -56.009   2.891   3.530  1.00  0.00     0.038 A 
HETATM   24  C11 UNL     1     -56.691   2.112   2.617  1.00  0.00     0.031 A 
BRANCH  22  25
HETATM   25  N6  UNL     1     -55.978   4.274   5.553  1.00  0.00    -0.116 N 
HETATM   26  O2  UNL     1     -56.408   5.384   5.901  1.00  0.00    -0.532 OA
HETATM   27  O3  UNL     1     -54.812   3.824   6.112  1.00  0.00    -0.532 OA
ENDBRANCH  22  25
ENDBRANCH  17  19
ENDBRANCH  16  17
ENDBRANCH  15  16
ENDBRANCH   1  15
TORSDOF 7
ENDMDL
