MODEL 1
REMARK VINA RESULT: -5.465442633      0.000      0.000
REMARK  10 active torsions:
REMARK  status: ('A' for Active; 'I' for Inactive)
REMARK    1  A    between atoms: C2_2  and  C3_3 
REMARK    2  A    between atoms: C3_3  and  N1_4 
REMARK    3  A    between atoms: N1_4  and  C4_6 
REMARK    4  A    between atoms: C5_9  and  C6_10 
REMARK    5  A    between atoms: C6_10  and  O1_11 
REMARK    6  A    between atoms: C6_10  and  C7_13 
REMARK    7  A    between atoms: C7_13  and  N3_14 
REMARK    8  A    between atoms: N3_14  and  C8_16 
REMARK    9  A    between atoms: C8_16  and  C9_17 
REMARK   10  A    between atoms: C9_17  and  C10_18 
ROOT
HETATM    1  C6  UNL     1     -59.398  -1.713   2.171  1.00  0.00     0.224 C 
ENDROOT
BRANCH   1   2
HETATM    2  C5  UNL     1     -59.588  -0.242   1.898  1.00  0.00     0.132 A 
HETATM    3  N2  UNL     1     -58.818   0.634   2.539  1.00  0.00    -0.178 N 
HETATM    4  C4  UNL     1     -58.925   1.957   2.364  1.00  0.00     0.680 A 
ATOM      5  H2  UNL     1     -58.117   0.283   3.191  1.00  0.00     0.185 HD
HETATM    6  N7  UNL     1     -59.868   2.402   1.488  1.00  0.00    -0.188 N 
HETATM    7  C13 UNL     1     -60.655   1.565   0.830  1.00  0.00     0.199 A 
ATOM      8  H7  UNL     1     -59.971   3.405   1.336  1.00  0.00     0.185 HD
HETATM    9  N6  UNL     1     -60.502   0.231   1.047  1.00  0.00    -0.339 N 
ATOM     10  H6  UNL     1     -61.102  -0.426   0.546  1.00  0.00     0.168 HD
BRANCH   4  11
HETATM   11  N1  UNL     1     -58.156   2.772   2.992  1.00  0.00    -0.223 N 
ATOM     12  H1  UNL     1     -58.440   3.739   3.150  1.00  0.00     0.178 HD
BRANCH  11  13
HETATM   13  C3  UNL     1     -56.876   2.286   3.472  1.00  0.00     0.164 C 
BRANCH  13  14
HETATM   14  C2  UNL     1     -56.657   2.515   4.908  1.00  0.00    -0.017 C 
HETATM   15  C1  UNL     1     -55.847   3.487   5.294  1.00  0.00     0.008 C 
ENDBRANCH  13  14
ENDBRANCH  11  13
ENDBRANCH   4  11
ENDBRANCH   1   2
BRANCH   1  16
HETATM   16  O1  UNL     1     -60.510  -2.244   2.756  1.00  0.00    -0.383 OA
ATOM     17  H1  UNL     1     -61.004  -2.762   2.132  1.00  0.00     0.211 HD
ENDBRANCH   1  16
BRANCH   1  18
HETATM   18  C7  UNL     1     -58.980  -2.342   0.876  1.00  0.00     0.099 C 
BRANCH  18  19
HETATM   19  N3  UNL     1     -58.985  -3.750   0.821  1.00  0.00    -0.379 N 
ATOM     20  H3  UNL     1     -59.782  -4.241   0.416  1.00  0.00     0.164 HD
BRANCH  19  21
HETATM   21  C8  UNL     1     -57.893  -4.479   1.323  1.00  0.00     0.066 C 
BRANCH  21  22
HETATM   22  C9  UNL     1     -58.151  -5.075   2.700  1.00  0.00     0.103 C 
BRANCH  22  23
HETATM   23  C10 UNL     1     -57.313  -4.358   3.725  1.00  0.00     0.030 A 
HETATM   24  C11 UNL     1     -56.445  -3.324   3.471  1.00  0.00     0.114 A 
HETATM   25  N4  UNL     1     -55.893  -2.959   4.648  1.00  0.00    -0.360 N 
HETATM   26  C12 UNL     1     -56.402  -3.745   5.612  1.00  0.00     0.180 A 
ATOM     27  H4  UNL     1     -55.209  -2.216   4.782  1.00  0.00     0.166 HD
HETATM   28  N5  UNL     1     -57.266  -4.593   5.043  1.00  0.00    -0.354 N 
ATOM     29  H5  UNL     1     -57.804  -5.306   5.535  1.00  0.00     0.166 HD
ENDBRANCH  22  23
ENDBRANCH  21  22
ENDBRANCH  19  21
ENDBRANCH  18  19
ENDBRANCH   1  18
TORSDOF 10
ENDMDL
MODEL 2
REMARK VINA RESULT: -5.355896035      1.655      1.817
REMARK  10 active torsions:
REMARK  status: ('A' for Active; 'I' for Inactive)
REMARK    1  A    between atoms: C2_2  and  C3_3 
REMARK    2  A    between atoms: C3_3  and  N1_4 
REMARK    3  A    between atoms: N1_4  and  C4_6 
REMARK    4  A    between atoms: C5_9  and  C6_10 
REMARK    5  A    between atoms: C6_10  and  O1_11 
REMARK    6  A    between atoms: C6_10  and  C7_13 
REMARK    7  A    between atoms: C7_13  and  N3_14 
REMARK    8  A    between atoms: N3_14  and  C8_16 
REMARK    9  A    between atoms: C8_16  and  C9_17 
REMARK   10  A    between atoms: C9_17  and  C10_18 
ROOT
HETATM    1  C6  UNL     1     -59.202  -2.239   1.071  1.00  0.00     0.224 C 
ENDROOT
BRANCH   1   2
HETATM    2  C5  UNL     1     -58.245  -1.087   0.891  1.00  0.00     0.132 A 
HETATM    3  N2  UNL     1     -57.888  -0.377   1.957  1.00  0.00    -0.178 N 
HETATM    4  C4  UNL     1     -57.051   0.666   1.887  1.00  0.00     0.680 A 
ATOM      5  H2  UNL     1     -58.268  -0.638   2.867  1.00  0.00     0.185 HD
HETATM    6  N7  UNL     1     -56.557   0.995   0.662  1.00  0.00    -0.188 N 
HETATM    7  C13 UNL     1     -56.886   0.315  -0.426  1.00  0.00     0.199 A 
ATOM      8  H7  UNL     1     -55.918   1.785   0.579  1.00  0.00     0.185 HD
HETATM    9  N6  UNL     1     -57.740  -0.736  -0.296  1.00  0.00    -0.339 N 
ATOM     10  H6  UNL     1     -58.002  -1.269  -1.125  1.00  0.00     0.168 HD
BRANCH   4  11
HETATM   11  N1  UNL     1     -56.721   1.321   2.940  1.00  0.00    -0.223 N 
ATOM     12  H1  UNL     1     -56.912   0.945   3.870  1.00  0.00     0.178 HD
BRANCH  11  13
HETATM   13  C3  UNL     1     -56.071   2.609   2.780  1.00  0.00     0.164 C 
BRANCH  13  14
HETATM   14  C2  UNL     1     -55.981   3.385   4.026  1.00  0.00    -0.017 C 
HETATM   15  C1  UNL     1     -56.385   2.839   5.161  1.00  0.00     0.008 C 
ENDBRANCH  13  14
ENDBRANCH  11  13
ENDBRANCH   4  11
ENDBRANCH   1   2
BRANCH   1  16
HETATM   16  O1  UNL     1     -60.488  -1.839   0.852  1.00  0.00    -0.383 OA
ATOM     17  H1  UNL     1     -60.686  -1.055   1.349  1.00  0.00     0.211 HD
ENDBRANCH   1  16
BRANCH   1  18
HETATM   18  C7  UNL     1     -58.709  -3.352   0.196  1.00  0.00     0.099 C 
BRANCH  18  19
HETATM   19  N3  UNL     1     -58.877  -4.665   0.679  1.00  0.00    -0.379 N 
ATOM     20  H3  UNL     1     -59.687  -5.214   0.389  1.00  0.00     0.164 HD
BRANCH  19  21
HETATM   21  C8  UNL     1     -57.933  -5.220   1.558  1.00  0.00     0.066 C 
BRANCH  21  22
HETATM   22  C9  UNL     1     -58.403  -5.249   3.006  1.00  0.00     0.103 C 
BRANCH  22  23
HETATM   23  C10 UNL     1     -57.468  -4.430   3.857  1.00  0.00     0.030 A 
HETATM   24  C11 UNL     1     -56.647  -3.425   3.407  1.00  0.00     0.114 A 
HETATM   25  N4  UNL     1     -55.975  -2.943   4.474  1.00  0.00    -0.360 N 
HETATM   26  C12 UNL     1     -56.366  -3.628   5.562  1.00  0.00     0.180 A 
ATOM     27  H4  UNL     1     -55.290  -2.188   4.458  1.00  0.00     0.166 HD
HETATM   28  N5  UNL     1     -57.275  -4.531   5.178  1.00  0.00    -0.354 N 
ATOM     29  H5  UNL     1     -57.748  -5.192   5.795  1.00  0.00     0.166 HD
ENDBRANCH  22  23
ENDBRANCH  21  22
ENDBRANCH  19  21
ENDBRANCH  18  19
ENDBRANCH   1  18
TORSDOF 10
ENDMDL
MODEL 3
REMARK VINA RESULT: -5.341081865      0.760      1.113
REMARK  10 active torsions:
REMARK  status: ('A' for Active; 'I' for Inactive)
REMARK    1  A    between atoms: C2_2  and  C3_3 
REMARK    2  A    between atoms: C3_3  and  N1_4 
REMARK    3  A    between atoms: N1_4  and  C4_6 
REMARK    4  A    between atoms: C5_9  and  C6_10 
REMARK    5  A    between atoms: C6_10  and  O1_11 
REMARK    6  A    between atoms: C6_10  and  C7_13 
REMARK    7  A    between atoms: C7_13  and  N3_14 
REMARK    8  A    between atoms: N3_14  and  C8_16 
REMARK    9  A    between atoms: C8_16  and  C9_17 
REMARK   10  A    between atoms: C9_17  and  C10_18 
ROOT
HETATM    1  C6  UNL     1     -59.615  -1.449   1.767  1.00  0.00     0.224 C 
ENDROOT
BRANCH   1   2
HETATM    2  C5  UNL     1     -59.782   0.049   1.699  1.00  0.00     0.132 A 
HETATM    3  N2  UNL     1     -58.991   0.817   2.443  1.00  0.00    -0.178 N 
HETATM    4  C4  UNL     1     -59.077   2.153   2.450  1.00  0.00     0.680 A 
ATOM      5  H2  UNL     1     -58.290   0.370   3.033  1.00  0.00     0.185 HD
HETATM    6  N7  UNL     1     -60.020   2.728   1.654  1.00  0.00    -0.188 N 
HETATM    7  C13 UNL     1     -60.827   2.000   0.897  1.00  0.00     0.199 A 
ATOM      8  H7  UNL     1     -60.108   3.744   1.640  1.00  0.00     0.185 HD
HETATM    9  N6  UNL     1     -60.696   0.647   0.929  1.00  0.00    -0.339 N 
ATOM     10  H6  UNL     1     -61.311   0.074   0.351  1.00  0.00     0.168 HD
BRANCH   4  11
HETATM   11  N1  UNL     1     -58.289   2.863   3.174  1.00  0.00    -0.223 N 
ATOM     12  H1  UNL     1     -58.564   3.795   3.484  1.00  0.00     0.178 HD
BRANCH  11  13
HETATM   13  C3  UNL     1     -56.999   2.309   3.542  1.00  0.00     0.164 C 
BRANCH  13  14
HETATM   14  C2  UNL     1     -56.657   2.496   4.960  1.00  0.00    -0.017 C 
HETATM   15  C1  UNL     1     -55.865   3.497   5.309  1.00  0.00     0.008 C 
ENDBRANCH  13  14
ENDBRANCH  11  13
ENDBRANCH   4  11
ENDBRANCH   1   2
BRANCH   1  16
HETATM   16  O1  UNL     1     -60.395  -1.978   2.754  1.00  0.00    -0.383 OA
ATOM     17  H1  UNL     1     -59.952  -2.701   3.182  1.00  0.00     0.211 HD
ENDBRANCH   1  16
BRANCH   1  18
HETATM   18  C7  UNL     1     -59.865  -1.976   0.387  1.00  0.00     0.099 C 
BRANCH  18  19
HETATM   19  N3  UNL     1     -59.378  -3.266   0.099  1.00  0.00    -0.379 N 
ATOM     20  H3  UNL     1     -59.978  -3.942  -0.376  1.00  0.00     0.164 HD
BRANCH  19  21
HETATM   21  C8  UNL     1     -58.070  -3.624   0.463  1.00  0.00     0.066 C 
BRANCH  21  22
HETATM   22  C9  UNL     1     -58.010  -4.858   1.353  1.00  0.00     0.103 C 
BRANCH  22  23
HETATM   23  C10 UNL     1     -57.721  -4.445   2.772  1.00  0.00     0.030 A 
HETATM   24  C11 UNL     1     -58.375  -4.900   3.890  1.00  0.00     0.114 A 
HETATM   25  N4  UNL     1     -57.821  -4.292   4.960  1.00  0.00    -0.360 N 
HETATM   26  C12 UNL     1     -56.846  -3.478   4.523  1.00  0.00     0.180 A 
ATOM     27  H4  UNL     1     -58.094  -4.428   5.933  1.00  0.00     0.166 HD
HETATM   28  N5  UNL     1     -56.790  -3.576   3.190  1.00  0.00    -0.354 N 
ATOM     29  H5  UNL     1     -56.141  -3.070   2.587  1.00  0.00     0.166 HD
ENDBRANCH  22  23
ENDBRANCH  21  22
ENDBRANCH  19  21
ENDBRANCH  18  19
ENDBRANCH   1  18
TORSDOF 10
ENDMDL
MODEL 4
REMARK VINA RESULT: -5.317161717      1.637      5.640
REMARK  10 active torsions:
REMARK  status: ('A' for Active; 'I' for Inactive)
REMARK    1  A    between atoms: C2_2  and  C3_3 
REMARK    2  A    between atoms: C3_3  and  N1_4 
REMARK    3  A    between atoms: N1_4  and  C4_6 
REMARK    4  A    between atoms: C5_9  and  C6_10 
REMARK    5  A    between atoms: C6_10  and  O1_11 
REMARK    6  A    between atoms: C6_10  and  C7_13 
REMARK    7  A    between atoms: C7_13  and  N3_14 
REMARK    8  A    between atoms: N3_14  and  C8_16 
REMARK    9  A    between atoms: C8_16  and  C9_17 
REMARK   10  A    between atoms: C9_17  and  C10_18 
ROOT
HETATM    1  C6  UNL     1     -60.152  -1.425   0.224  1.00  0.00     0.224 C 
ENDROOT
BRANCH   1   2
HETATM    2  C5  UNL     1     -58.963  -2.249   0.651  1.00  0.00     0.132 A 
HETATM    3  N2  UNL     1     -59.089  -3.064   1.694  1.00  0.00    -0.178 N 
HETATM    4  C4  UNL     1     -58.084  -3.824   2.147  1.00  0.00     0.680 A 
ATOM      5  H2  UNL     1     -59.990  -3.113   2.170  1.00  0.00     0.185 HD
HETATM    6  N7  UNL     1     -56.891  -3.743   1.495  1.00  0.00    -0.188 N 
HETATM    7  C13 UNL     1     -56.723  -2.945   0.451  1.00  0.00     0.199 A 
ATOM      8  H7  UNL     1     -56.108  -4.311   1.818  1.00  0.00     0.185 HD
HETATM    9  N6  UNL     1     -57.778  -2.195   0.036  1.00  0.00    -0.339 N 
ATOM     10  H6  UNL     1     -57.663  -1.576  -0.767  1.00  0.00     0.168 HD
BRANCH   4  11
HETATM   11  N1  UNL     1     -58.247  -4.608   3.150  1.00  0.00    -0.223 N 
ATOM     12  H1  UNL     1     -58.481  -5.591   3.012  1.00  0.00     0.178 HD
BRANCH  11  13
HETATM   13  C3  UNL     1     -58.090  -4.064   4.486  1.00  0.00     0.164 C 
BRANCH  13  14
HETATM   14  C2  UNL     1     -56.710  -4.121   4.991  1.00  0.00    -0.017 C 
HETATM   15  C1  UNL     1     -56.103  -3.000   5.347  1.00  0.00     0.008 C 
ENDBRANCH  13  14
ENDBRANCH  11  13
ENDBRANCH   4  11
ENDBRANCH   1   2
BRANCH   1  16
HETATM   16  O1  UNL     1     -61.254  -2.213   0.062  1.00  0.00    -0.383 OA
ATOM     17  H1  UNL     1     -61.351  -2.811   0.793  1.00  0.00     0.211 HD
ENDBRANCH   1  16
BRANCH   1  18
HETATM   18  C7  UNL     1     -60.288  -0.314   1.220  1.00  0.00     0.099 C 
BRANCH  18  19
HETATM   19  N3  UNL     1     -59.267   0.657   1.236  1.00  0.00    -0.379 N 
ATOM     20  H3  UNL     1     -58.872   0.994   0.358  1.00  0.00     0.164 HD
BRANCH  19  21
HETATM   21  C8  UNL     1     -58.793   1.162   2.459  1.00  0.00     0.066 C 
BRANCH  21  22
HETATM   22  C9  UNL     1     -57.325   0.846   2.711  1.00  0.00     0.103 C 
BRANCH  22  23
HETATM   23  C10 UNL     1     -56.682   1.989   3.450  1.00  0.00     0.030 A 
HETATM   24  C11 UNL     1     -55.937   2.994   2.882  1.00  0.00     0.114 A 
HETATM   25  N4  UNL     1     -55.544   3.818   3.876  1.00  0.00    -0.360 N 
HETATM   26  C12 UNL     1     -56.029   3.342   5.034  1.00  0.00     0.180 A 
ATOM     27  H4  UNL     1     -54.976   4.658   3.767  1.00  0.00     0.166 HD
HETATM   28  N5  UNL     1     -56.722   2.229   4.767  1.00  0.00    -0.354 N 
ATOM     29  H5  UNL     1     -57.205   1.653   5.457  1.00  0.00     0.166 HD
ENDBRANCH  22  23
ENDBRANCH  21  22
ENDBRANCH  19  21
ENDBRANCH  18  19
ENDBRANCH   1  18
TORSDOF 10
ENDMDL
MODEL 5
REMARK VINA RESULT: -5.196659866      1.552      5.998
REMARK  10 active torsions:
REMARK  status: ('A' for Active; 'I' for Inactive)
REMARK    1  A    between atoms: C2_2  and  C3_3 
REMARK    2  A    between atoms: C3_3  and  N1_4 
REMARK    3  A    between atoms: N1_4  and  C4_6 
REMARK    4  A    between atoms: C5_9  and  C6_10 
REMARK    5  A    between atoms: C6_10  and  O1_11 
REMARK    6  A    between atoms: C6_10  and  C7_13 
REMARK    7  A    between atoms: C7_13  and  N3_14 
REMARK    8  A    between atoms: N3_14  and  C8_16 
REMARK    9  A    between atoms: C8_16  and  C9_17 
REMARK   10  A    between atoms: C9_17  and  C10_18 
ROOT
HETATM    1  C6  UNL     1     -59.239  -2.213   0.780  1.00  0.00     0.224 C 
ENDROOT
BRANCH   1   2
HETATM    2  C5  UNL     1     -58.860  -3.566   1.330  1.00  0.00     0.132 A 
HETATM    3  N2  UNL     1     -58.724  -3.708   2.645  1.00  0.00    -0.178 N 
HETATM    4  C4  UNL     1     -58.381  -4.869   3.217  1.00  0.00     0.680 A 
ATOM      5  H2  UNL     1     -58.886  -2.898   3.244  1.00  0.00     0.185 HD
HETATM    6  N7  UNL     1     -58.170  -5.936   2.398  1.00  0.00    -0.188 N 
HETATM    7  C13 UNL     1     -58.295  -5.838   1.084  1.00  0.00     0.199 A 
ATOM      8  H7  UNL     1     -57.908  -6.833   2.807  1.00  0.00     0.185 HD
HETATM    9  N6  UNL     1     -58.645  -4.634   0.557  1.00  0.00    -0.339 N 
ATOM     10  H6  UNL     1     -58.745  -4.544  -0.455  1.00  0.00     0.168 HD
BRANCH   4  11
HETATM   11  N1  UNL     1     -58.270  -4.971   4.492  1.00  0.00    -0.223 N 
ATOM     12  H1  UNL     1     -58.586  -5.811   4.978  1.00  0.00     0.178 HD
BRANCH  11  13
HETATM   13  C3  UNL     1     -57.684  -3.865   5.227  1.00  0.00     0.164 C 
BRANCH  13  14
HETATM   14  C2  UNL     1     -56.216  -3.919   5.307  1.00  0.00    -0.017 C 
HETATM   15  C1  UNL     1     -55.494  -3.234   4.436  1.00  0.00     0.008 C 
ENDBRANCH  13  14
ENDBRANCH  11  13
ENDBRANCH   4  11
ENDBRANCH   1   2
BRANCH   1  16
HETATM   16  O1  UNL     1     -60.594  -2.099   0.666  1.00  0.00    -0.383 OA
ATOM     17  H1  UNL     1     -60.830  -1.697  -0.161  1.00  0.00     0.211 HD
ENDBRANCH   1  16
BRANCH   1  18
HETATM   18  C7  UNL     1     -58.570  -1.191   1.648  1.00  0.00     0.099 C 
BRANCH  18  19
HETATM   19  N3  UNL     1     -59.308  -0.028   1.947  1.00  0.00    -0.379 N 
ATOM     20  H3  UNL     1     -60.299   0.020   1.713  1.00  0.00     0.164 HD
BRANCH  19  21
HETATM   21  C8  UNL     1     -58.680   1.065   2.567  1.00  0.00     0.066 C 
BRANCH  21  22
HETATM   22  C9  UNL     1     -57.181   0.872   2.753  1.00  0.00     0.103 C 
BRANCH  22  23
HETATM   23  C10 UNL     1     -56.608   2.050   3.495  1.00  0.00     0.030 A 
HETATM   24  C11 UNL     1     -55.882   3.074   2.937  1.00  0.00     0.114 A 
HETATM   25  N4  UNL     1     -55.555   3.927   3.931  1.00  0.00    -0.360 N 
HETATM   26  C12 UNL     1     -56.063   3.450   5.079  1.00  0.00     0.180 A 
ATOM     27  H4  UNL     1     -55.016   4.786   3.828  1.00  0.00     0.166 HD
HETATM   28  N5  UNL     1     -56.704   2.308   4.806  1.00  0.00    -0.354 N 
ATOM     29  H5  UNL     1     -57.189   1.725   5.489  1.00  0.00     0.166 HD
ENDBRANCH  22  23
ENDBRANCH  21  22
ENDBRANCH  19  21
ENDBRANCH  18  19
ENDBRANCH   1  18
TORSDOF 10
ENDMDL
