MODEL 1
REMARK VINA RESULT: -5.814443242      0.000      0.000
REMARK  8 active torsions:
REMARK  status: ('A' for Active; 'I' for Inactive)
REMARK    1  A    between atoms: C5_6  and  O2_7 
REMARK    2  A    between atoms: O2_7  and  C6_8 
REMARK    3  A    between atoms: C6_8  and  C7_9 
REMARK    4  A    between atoms: C7_9  and  C8_10 
REMARK    5  A    between atoms: C7_9  and  N2_15 
REMARK    6  A    between atoms: C8_10  and  N1_11 
REMARK    7  A    between atoms: N2_15  and  C9_17 
REMARK    8  A    between atoms: C9_17  and  C11_19 
ROOT
HETATM    1  C1  UNL     1     -13.435 -60.218 -14.398  1.00  0.00     0.210 C 
HETATM    2  O1  UNL     1     -12.619 -60.120 -13.399  1.00  0.00    -0.354 OA
HETATM    3  C2  UNL     1     -11.923 -60.072 -12.325  1.00  0.00     0.092 A 
HETATM    4  C3  UNL     1     -12.469 -60.465 -11.093  1.00  0.00     0.041 A 
HETATM    5  C4  UNL     1     -11.733 -60.418  -9.963  1.00  0.00     0.039 A 
HETATM    6  C5  UNL     1     -10.413 -59.986  -9.948  1.00  0.00     0.070 A 
HETATM    7  C12 UNL     1      -9.850 -59.594 -11.138  1.00  0.00     0.066 A 
HETATM    8  C13 UNL     1     -10.588 -59.634 -12.305  1.00  0.00     0.082 A 
HETATM    9  N3  UNL     1     -10.077 -59.230 -13.569  1.00  0.00    -0.099 NA
ENDROOT
BRANCH   6  10
HETATM   10  O2  UNL     1      -9.664 -59.943  -8.781  1.00  0.00    -0.349 OA
BRANCH  10  11
HETATM   11  C6  UNL     1      -8.657 -58.999  -8.725  1.00  0.00     0.202 C 
BRANCH  11  12
HETATM   12  C7  UNL     1      -8.632 -58.130  -7.478  1.00  0.00     0.131 C 
BRANCH  12  13
HETATM   13  C8  UNL     1      -7.235 -57.561  -7.482  1.00  0.00     0.256 C 
BRANCH  13  14
HETATM   14  N1  UNL     1      -6.663 -57.755  -6.165  1.00  0.00    -0.077 N 
ATOM     15  H13 UNL     1      -6.358 -58.715  -6.006  1.00  0.00     0.274 HD
ATOM     16  H12 UNL     1      -5.755 -57.302  -6.060  1.00  0.00     0.274 HD
ATOM     17  H11 UNL     1      -7.343 -57.440  -5.473  1.00  0.00     0.274 HD
ENDBRANCH  13  14
ENDBRANCH  12  13
BRANCH  12  18
HETATM   18  N2  UNL     1      -9.722 -57.268  -7.471  1.00  0.00    -0.380 N 
ATOM     19  H2  UNL     1     -10.056 -56.887  -8.357  1.00  0.00     0.160 HD
BRANCH  18  20
HETATM   20  C9  UNL     1     -10.380 -56.905  -6.283  1.00  0.00     0.079 C 
HETATM   21  C10 UNL     1     -11.842 -56.655  -6.403  1.00  0.00     0.075 C 
BRANCH  20  22
HETATM   22  C11 UNL     1      -9.985 -57.551  -5.025  1.00  0.00     0.221 C 
HETATM   23  O3  UNL     1     -10.516 -58.632  -4.664  1.00  0.00    -0.643 OA
HETATM   24  O4  UNL     1      -9.018 -57.014  -4.168  1.00  0.00    -0.643 OA
ENDBRANCH  20  22
ENDBRANCH  18  20
ENDBRANCH  12  18
ENDBRANCH  11  12
ENDBRANCH  10  11
ENDBRANCH   6  10
TORSDOF 8
ENDMDL
MODEL 2
REMARK VINA RESULT: -5.811952809      1.292      1.655
REMARK  8 active torsions:
REMARK  status: ('A' for Active; 'I' for Inactive)
REMARK    1  A    between atoms: C5_6  and  O2_7 
REMARK    2  A    between atoms: O2_7  and  C6_8 
REMARK    3  A    between atoms: C6_8  and  C7_9 
REMARK    4  A    between atoms: C7_9  and  C8_10 
REMARK    5  A    between atoms: C7_9  and  N2_15 
REMARK    6  A    between atoms: C8_10  and  N1_11 
REMARK    7  A    between atoms: N2_15  and  C9_17 
REMARK    8  A    between atoms: C9_17  and  C11_19 
ROOT
HETATM    1  C1  UNL     1     -13.702 -60.334 -13.919  1.00  0.00     0.210 C 
HETATM    2  O1  UNL     1     -12.835 -60.245 -12.963  1.00  0.00    -0.354 OA
HETATM    3  C2  UNL     1     -11.877 -60.127 -12.121  1.00  0.00     0.092 A 
HETATM    4  C3  UNL     1     -10.578 -59.809 -12.547  1.00  0.00     0.041 A 
HETATM    5  C4  UNL     1      -9.571 -59.681 -11.658  1.00  0.00     0.039 A 
HETATM    6  C5  UNL     1      -9.753 -59.853 -10.292  1.00  0.00     0.070 A 
HETATM    7  C12 UNL     1     -11.013 -60.165  -9.844  1.00  0.00     0.066 A 
HETATM    8  C13 UNL     1     -12.056 -60.302 -10.738  1.00  0.00     0.082 A 
HETATM    9  N3  UNL     1     -13.383 -60.637 -10.349  1.00  0.00    -0.099 NA
ENDROOT
BRANCH   6  10
HETATM   10  O2  UNL     1      -8.711 -59.717  -9.386  1.00  0.00    -0.349 OA
BRANCH  10  11
HETATM   11  C6  UNL     1      -9.027 -59.867  -8.049  1.00  0.00     0.202 C 
BRANCH  11  12
HETATM   12  C7  UNL     1      -8.800 -58.646  -7.173  1.00  0.00     0.131 C 
BRANCH  12  13
HETATM   13  C8  UNL     1      -7.494 -58.092  -7.684  1.00  0.00     0.256 C 
BRANCH  13  14
HETATM   14  N1  UNL     1      -6.566 -58.024  -6.573  1.00  0.00    -0.077 N 
ATOM     15  H13 UNL     1      -7.032 -58.087  -5.667  1.00  0.00     0.274 HD
ATOM     16  H12 UNL     1      -5.989 -58.860  -6.490  1.00  0.00     0.274 HD
ATOM     17  H11 UNL     1      -6.014 -57.172  -6.671  1.00  0.00     0.274 HD
ENDBRANCH  13  14
ENDBRANCH  12  13
BRANCH  12  18
HETATM   18  N2  UNL     1      -9.932 -57.839  -7.173  1.00  0.00    -0.380 N 
ATOM     19  H2  UNL     1     -10.549 -57.854  -7.985  1.00  0.00     0.160 HD
BRANCH  18  20
HETATM   20  C9  UNL     1     -10.254 -57.004  -6.089  1.00  0.00     0.079 C 
HETATM   21  C10 UNL     1     -11.705 -56.758  -5.869  1.00  0.00     0.075 C 
BRANCH  20  22
HETATM   22  C11 UNL     1      -9.472 -57.112  -4.851  1.00  0.00     0.221 C 
HETATM   23  O3  UNL     1      -9.834 -57.886  -3.928  1.00  0.00    -0.643 OA
HETATM   24  O4  UNL     1      -8.304 -56.375  -4.625  1.00  0.00    -0.643 OA
ENDBRANCH  20  22
ENDBRANCH  18  20
ENDBRANCH  12  18
ENDBRANCH  11  12
ENDBRANCH  10  11
ENDBRANCH   6  10
TORSDOF 8
ENDMDL
MODEL 3
REMARK VINA RESULT: -5.714597254      1.548      1.949
REMARK  8 active torsions:
REMARK  status: ('A' for Active; 'I' for Inactive)
REMARK    1  A    between atoms: C5_6  and  O2_7 
REMARK    2  A    between atoms: O2_7  and  C6_8 
REMARK    3  A    between atoms: C6_8  and  C7_9 
REMARK    4  A    between atoms: C7_9  and  C8_10 
REMARK    5  A    between atoms: C7_9  and  N2_15 
REMARK    6  A    between atoms: C8_10  and  N1_11 
REMARK    7  A    between atoms: N2_15  and  C9_17 
REMARK    8  A    between atoms: C9_17  and  C11_19 
ROOT
HETATM    1  C1  UNL     1     -13.969 -60.843 -12.599  1.00  0.00     0.210 C 
HETATM    2  O1  UNL     1     -12.815 -60.467 -12.151  1.00  0.00    -0.354 OA
HETATM    3  C2  UNL     1     -11.728 -60.117 -11.572  1.00  0.00     0.092 A 
HETATM    4  C3  UNL     1     -11.616 -60.142 -10.173  1.00  0.00     0.041 A 
HETATM    5  C4  UNL     1     -10.467 -59.777  -9.565  1.00  0.00     0.039 A 
HETATM    6  C5  UNL     1      -9.346 -59.362 -10.271  1.00  0.00     0.070 A 
HETATM    7  C12 UNL     1      -9.425 -59.327 -11.642  1.00  0.00     0.066 A 
HETATM    8  C13 UNL     1     -10.592 -59.695 -12.283  1.00  0.00     0.082 A 
HETATM    9  N3  UNL     1     -10.751 -59.670 -13.696  1.00  0.00    -0.099 NA
ENDROOT
BRANCH   6  10
HETATM   10  O2  UNL     1      -8.170 -58.991  -9.636  1.00  0.00    -0.349 OA
BRANCH  10  11
HETATM   11  C6  UNL     1      -8.235 -57.892  -8.801  1.00  0.00     0.202 C 
BRANCH  11  12
HETATM   12  C7  UNL     1      -7.674 -58.088  -7.402  1.00  0.00     0.131 C 
BRANCH  12  13
HETATM   13  C8  UNL     1      -6.362 -58.788  -7.652  1.00  0.00     0.256 C 
BRANCH  13  14
HETATM   14  N1  UNL     1      -6.534 -60.194  -7.349  1.00  0.00    -0.077 N 
ATOM     15  H13 UNL     1      -6.785 -60.359  -6.374  1.00  0.00     0.274 HD
ATOM     16  H12 UNL     1      -7.371 -60.590  -7.776  1.00  0.00     0.274 HD
ATOM     17  H11 UNL     1      -5.683 -60.685  -7.623  1.00  0.00     0.274 HD
ENDBRANCH  13  14
ENDBRANCH  12  13
BRANCH  12  18
HETATM   18  N2  UNL     1      -7.687 -56.885  -6.706  1.00  0.00    -0.380 N 
ATOM     19  H2  UNL     1      -7.628 -56.011  -7.230  1.00  0.00     0.160 HD
BRANCH  18  20
HETATM   20  C9  UNL     1      -7.780 -56.833  -5.305  1.00  0.00     0.079 C 
HETATM   21  C10 UNL     1      -6.954 -55.789  -4.640  1.00  0.00     0.075 C 
BRANCH  20  22
HETATM   22  C11 UNL     1      -9.085 -57.058  -4.669  1.00  0.00     0.221 C 
HETATM   23  O3  UNL     1      -9.215 -57.913  -3.756  1.00  0.00    -0.643 OA
HETATM   24  O4  UNL     1     -10.238 -56.355  -5.035  1.00  0.00    -0.643 OA
ENDBRANCH  20  22
ENDBRANCH  18  20
ENDBRANCH  12  18
ENDBRANCH  11  12
ENDBRANCH  10  11
ENDBRANCH   6  10
TORSDOF 8
ENDMDL
MODEL 4
REMARK VINA RESULT: -5.696066284      1.252      1.330
REMARK  8 active torsions:
REMARK  status: ('A' for Active; 'I' for Inactive)
REMARK    1  A    between atoms: C5_6  and  O2_7 
REMARK    2  A    between atoms: O2_7  and  C6_8 
REMARK    3  A    between atoms: C6_8  and  C7_9 
REMARK    4  A    between atoms: C7_9  and  C8_10 
REMARK    5  A    between atoms: C7_9  and  N2_15 
REMARK    6  A    between atoms: C8_10  and  N1_11 
REMARK    7  A    between atoms: N2_15  and  C9_17 
REMARK    8  A    between atoms: C9_17  and  C11_19 
ROOT
HETATM    1  C1  UNL     1     -14.946 -60.716 -13.616  1.00  0.00     0.210 C 
HETATM    2  O1  UNL     1     -13.844 -60.543 -12.961  1.00  0.00    -0.354 OA
HETATM    3  C2  UNL     1     -12.830 -60.405 -12.191  1.00  0.00     0.092 A 
HETATM    4  C3  UNL     1     -12.937 -60.631 -10.810  1.00  0.00     0.041 A 
HETATM    5  C4  UNL     1     -11.866 -60.489 -10.001  1.00  0.00     0.039 A 
HETATM    6  C5  UNL     1     -10.614 -60.119 -10.475  1.00  0.00     0.070 A 
HETATM    7  C12 UNL     1     -10.478 -59.890 -11.822  1.00  0.00     0.066 A 
HETATM    8  C13 UNL     1     -11.562 -60.029 -12.666  1.00  0.00     0.082 A 
HETATM    9  N3  UNL     1     -11.498 -59.795 -14.068  1.00  0.00    -0.099 NA
ENDROOT
BRANCH   6  10
HETATM   10  O2  UNL     1      -9.519 -59.978  -9.635  1.00  0.00    -0.349 OA
BRANCH  10  11
HETATM   11  C6  UNL     1      -9.329 -58.733  -9.066  1.00  0.00     0.202 C 
BRANCH  11  12
HETATM   12  C7  UNL     1      -9.624 -58.632  -7.579  1.00  0.00     0.131 C 
BRANCH  12  13
HETATM   13  C8  UNL     1      -8.974 -59.869  -7.013  1.00  0.00     0.256 C 
BRANCH  13  14
HETATM   14  N1  UNL     1      -7.537 -59.694  -7.076  1.00  0.00    -0.077 N 
ATOM     15  H13 UNL     1      -7.114 -60.184  -7.864  1.00  0.00     0.274 HD
ATOM     16  H12 UNL     1      -7.267 -58.747  -7.341  1.00  0.00     0.274 HD
ATOM     17  H11 UNL     1      -7.142 -59.980  -6.179  1.00  0.00     0.274 HD
ENDBRANCH  13  14
ENDBRANCH  12  13
BRANCH  12  18
HETATM   18  N2  UNL     1      -9.249 -57.382  -7.099  1.00  0.00    -0.380 N 
ATOM     19  H2  UNL     1      -8.565 -56.836  -7.624  1.00  0.00     0.160 HD
BRANCH  18  20
HETATM   20  C9  UNL     1      -9.782 -56.845  -5.914  1.00  0.00     0.079 C 
HETATM   21  C10 UNL     1     -11.257 -56.956  -5.758  1.00  0.00     0.075 C 
BRANCH  20  22
HETATM   22  C11 UNL     1      -9.033 -57.009  -4.661  1.00  0.00     0.221 C 
HETATM   23  O3  UNL     1      -9.253 -57.991  -3.906  1.00  0.00    -0.643 OA
HETATM   24  O4  UNL     1      -8.056 -56.102  -4.237  1.00  0.00    -0.643 OA
ENDBRANCH  20  22
ENDBRANCH  18  20
ENDBRANCH  12  18
ENDBRANCH  11  12
ENDBRANCH  10  11
ENDBRANCH   6  10
TORSDOF 8
ENDMDL
MODEL 5
REMARK VINA RESULT: -5.593924018      1.683      2.256
REMARK  8 active torsions:
REMARK  status: ('A' for Active; 'I' for Inactive)
REMARK    1  A    between atoms: C5_6  and  O2_7 
REMARK    2  A    between atoms: O2_7  and  C6_8 
REMARK    3  A    between atoms: C6_8  and  C7_9 
REMARK    4  A    between atoms: C7_9  and  C8_10 
REMARK    5  A    between atoms: C7_9  and  N2_15 
REMARK    6  A    between atoms: C8_10  and  N1_11 
REMARK    7  A    between atoms: N2_15  and  C9_17 
REMARK    8  A    between atoms: C9_17  and  C11_19 
ROOT
HETATM    1  C1  UNL     1     -12.929 -60.086 -14.395  1.00  0.00     0.210 C 
HETATM    2  O1  UNL     1     -12.298 -60.073 -13.265  1.00  0.00    -0.354 OA
HETATM    3  C2  UNL     1     -11.552 -60.027 -12.226  1.00  0.00     0.092 A 
HETATM    4  C3  UNL     1     -10.188 -59.711 -12.329  1.00  0.00     0.041 A 
HETATM    5  C4  UNL     1      -9.405 -59.659 -11.232  1.00  0.00     0.039 A 
HETATM    6  C5  UNL     1      -9.889 -59.910  -9.955  1.00  0.00     0.070 A 
HETATM    7  C12 UNL     1     -11.219 -60.223  -9.820  1.00  0.00     0.066 A 
HETATM    8  C13 UNL     1     -12.037 -60.283 -10.932  1.00  0.00     0.082 A 
HETATM    9  N3  UNL     1     -13.419 -60.614 -10.871  1.00  0.00    -0.099 NA
ENDROOT
BRANCH   6  10
HETATM   10  O2  UNL     1      -9.075 -59.851  -8.833  1.00  0.00    -0.349 OA
BRANCH  10  11
HETATM   11  C6  UNL     1      -8.923 -58.612  -8.241  1.00  0.00     0.202 C 
BRANCH  11  12
HETATM   12  C7  UNL     1      -7.787 -58.492  -7.237  1.00  0.00     0.131 C 
BRANCH  12  13
HETATM   13  C8  UNL     1      -6.593 -58.997  -8.006  1.00  0.00     0.256 C 
BRANCH  13  14
HETATM   14  N1  UNL     1      -6.192 -60.268  -7.436  1.00  0.00    -0.077 N 
ATOM     15  H13 UNL     1      -5.267 -60.565  -7.746  1.00  0.00     0.274 HD
ATOM     16  H12 UNL     1      -5.990 -60.205  -6.438  1.00  0.00     0.274 HD
ATOM     17  H11 UNL     1      -6.916 -60.955  -7.648  1.00  0.00     0.274 HD
ENDBRANCH  13  14
ENDBRANCH  12  13
BRANCH  12  18
HETATM   18  N2  UNL     1      -7.760 -57.213  -6.694  1.00  0.00    -0.380 N 
ATOM     19  H2  UNL     1      -7.644 -56.414  -7.318  1.00  0.00     0.160 HD
BRANCH  18  20
HETATM   20  C9  UNL     1      -7.887 -56.984  -5.313  1.00  0.00     0.079 C 
HETATM   21  C10 UNL     1      -7.054 -55.882  -4.759  1.00  0.00     0.075 C 
BRANCH  20  22
HETATM   22  C11 UNL     1      -9.212 -57.104  -4.691  1.00  0.00     0.221 C 
HETATM   23  O3  UNL     1      -9.390 -57.857  -3.699  1.00  0.00    -0.643 OA
HETATM   24  O4  UNL     1     -10.333 -56.405  -5.153  1.00  0.00    -0.643 OA
ENDBRANCH  20  22
ENDBRANCH  18  20
ENDBRANCH  12  18
ENDBRANCH  11  12
ENDBRANCH  10  11
ENDBRANCH   6  10
TORSDOF 8
ENDMDL
