MODEL 1
REMARK VINA RESULT: -6.004197829      0.000      0.000
REMARK  10 active torsions:
REMARK  status: ('A' for Active; 'I' for Inactive)
REMARK    1  A    between atoms: C3_5  and  C4_6 
REMARK    2  A    between atoms: N2_10  and  C8_11 
REMARK    3  A    between atoms: C8_11  and  C9_12 
REMARK    4  A    between atoms: C9_12  and  N3_13 
REMARK    5  A    between atoms: N3_13  and  N4_14 
REMARK       I    between atoms: N4_14  and  C10_16 
REMARK    6  A    between atoms: C10_16  and  C11_18 
REMARK    7  A    between atoms: C11_18  and  N5_19 
REMARK    8  A    between atoms: C11_18  and  C12_23 
REMARK    9  A    between atoms: C12_23  and  C13_24 
REMARK   10  A    between atoms: C13_24  and  N6_25 
ROOT
HETATM    1  N4  UNL     1      -8.154 -59.175  -6.501  1.00  0.00    -0.272 N 
ATOM      2  H4  UNL     1      -7.380 -58.605  -6.843  1.00  0.00     0.185 HD
HETATM    3  C10 UNL     1      -9.081 -58.581  -5.630  1.00  0.00     0.263 C 
HETATM    4  O1  UNL     1     -10.037 -59.316  -5.215  1.00  0.00    -0.270 OA
ENDROOT
BRANCH   1   5
HETATM    5  N3  UNL     1      -8.235 -60.508  -6.924  1.00  0.00    -0.137 NA
BRANCH   5   6
HETATM    6  C9  UNL     1      -7.324 -60.786  -8.000  1.00  0.00     0.155 C 
BRANCH   6   7
HETATM    7  C8  UNL     1      -7.588 -60.076  -9.275  1.00  0.00     0.147 C 
BRANCH   7   8
HETATM    8  N2  UNL     1      -8.758 -60.526  -9.999  1.00  0.00    -0.344 N 
HETATM    9  C2  UNL     1      -8.926 -61.676 -10.697  1.00  0.00     0.079 A 
HETATM   10  C1  UNL     1      -7.863 -62.732 -10.867  1.00  0.00     0.089 C 
HETATM   11  N1  UNL     1     -10.162 -61.670 -11.186  1.00  0.00    -0.348 N 
HETATM   12  C3  UNL     1     -10.816 -60.553 -10.832  1.00  0.00     0.029 A 
ATOM     13  H1  UNL     1     -10.561 -62.417 -11.754  1.00  0.00     0.167 HD
HETATM   14  C7  UNL     1      -9.928 -59.820 -10.077  1.00  0.00     0.117 A 
BRANCH  12  15
HETATM   15  C4  UNL     1     -12.228 -60.170 -11.187  1.00  0.00     0.029 C 
HETATM   16  C5  UNL     1     -12.444 -60.301 -12.676  1.00  0.00     0.016 C 
HETATM   17  C6  UNL     1     -13.170 -61.038 -10.409  1.00  0.00     0.016 C 
ENDBRANCH  12  15
ENDBRANCH   7   8
ENDBRANCH   6   7
ENDBRANCH   5   6
ENDBRANCH   1   5
BRANCH   3  18
HETATM   18  C11 UNL     1      -8.964 -57.174  -5.210  1.00  0.00     0.277 C 
BRANCH  18  19
HETATM   19  N5  UNL     1     -10.188 -56.800  -4.524  1.00  0.00    -0.066 N 
ATOM     20  H53 UNL     1     -10.583 -55.926  -4.872  1.00  0.00     0.275 HD
ATOM     21  H52 UNL     1     -10.973 -57.409  -4.759  1.00  0.00     0.275 HD
ATOM     22  H51 UNL     1      -9.998 -56.773  -3.523  1.00  0.00     0.275 HD
ENDBRANCH  18  19
BRANCH  18  23
HETATM   23  C12 UNL     1      -7.759 -56.968  -4.291  1.00  0.00     0.069 C 
BRANCH  23  24
HETATM   24  C13 UNL     1      -6.921 -55.885  -4.930  1.00  0.00     0.232 C 
BRANCH  24  25
HETATM   25  N6  UNL     1      -6.478 -54.884  -4.009  1.00  0.00    -0.079 N 
ATOM     26  H63 UNL     1      -6.725 -55.140  -3.053  1.00  0.00     0.274 HD
ATOM     27  H62 UNL     1      -5.461 -54.891  -3.931  1.00  0.00     0.274 HD
ATOM     28  H61 UNL     1      -6.817 -53.947  -4.229  1.00  0.00     0.274 HD
ENDBRANCH  24  25
ENDBRANCH  23  24
ENDBRANCH  18  23
ENDBRANCH   3  18
TORSDOF 10
ENDMDL
MODEL 2
REMARK VINA RESULT: -5.993525188      1.132      1.572
REMARK  10 active torsions:
REMARK  status: ('A' for Active; 'I' for Inactive)
REMARK    1  A    between atoms: C3_5  and  C4_6 
REMARK    2  A    between atoms: N2_10  and  C8_11 
REMARK    3  A    between atoms: C8_11  and  C9_12 
REMARK    4  A    between atoms: C9_12  and  N3_13 
REMARK    5  A    between atoms: N3_13  and  N4_14 
REMARK       I    between atoms: N4_14  and  C10_16 
REMARK    6  A    between atoms: C10_16  and  C11_18 
REMARK    7  A    between atoms: C11_18  and  N5_19 
REMARK    8  A    between atoms: C11_18  and  C12_23 
REMARK    9  A    between atoms: C12_23  and  C13_24 
REMARK   10  A    between atoms: C13_24  and  N6_25 
ROOT
HETATM    1  N4  UNL     1      -8.108 -59.138  -6.524  1.00  0.00    -0.272 N 
ATOM      2  H4  UNL     1      -7.345 -58.549  -6.857  1.00  0.00     0.185 HD
HETATM    3  C10 UNL     1      -9.042 -58.579  -5.638  1.00  0.00     0.263 C 
HETATM    4  O1  UNL     1      -9.984 -59.340  -5.236  1.00  0.00    -0.270 OA
ENDROOT
BRANCH   1   5
HETATM    5  N3  UNL     1      -8.166 -60.464  -6.975  1.00  0.00    -0.137 NA
BRANCH   5   6
HETATM    6  C9  UNL     1      -7.934 -60.561  -8.390  1.00  0.00     0.155 C 
BRANCH   6   7
HETATM    7  C8  UNL     1      -8.268 -59.356  -9.188  1.00  0.00     0.147 C 
BRANCH   7   8
HETATM    8  N2  UNL     1      -9.241 -59.565 -10.239  1.00  0.00    -0.344 N 
HETATM    9  C2  UNL     1      -9.175 -59.178 -11.536  1.00  0.00     0.079 A 
HETATM   10  C1  UNL     1      -8.027 -58.407 -12.138  1.00  0.00     0.089 C 
HETATM   11  N1  UNL     1     -10.287 -59.592 -12.134  1.00  0.00    -0.348 N 
HETATM   12  C3  UNL     1     -11.086 -60.240 -11.273  1.00  0.00     0.029 A 
ATOM     13  H1  UNL     1     -10.505 -59.438 -13.118  1.00  0.00     0.167 HD
HETATM   14  C7  UNL     1     -10.427 -60.226 -10.064  1.00  0.00     0.117 A 
BRANCH  12  15
HETATM   15  C4  UNL     1     -12.430 -60.855 -11.559  1.00  0.00     0.029 C 
HETATM   16  C5  UNL     1     -13.388 -60.563 -10.428  1.00  0.00     0.016 C 
HETATM   17  C6  UNL     1     -12.934 -60.322 -12.866  1.00  0.00     0.016 C 
ENDBRANCH  12  15
ENDBRANCH   7   8
ENDBRANCH   6   7
ENDBRANCH   5   6
ENDBRANCH   1   5
BRANCH   3  18
HETATM   18  C11 UNL     1      -8.947 -57.180  -5.190  1.00  0.00     0.277 C 
BRANCH  18  19
HETATM   19  N5  UNL     1     -10.166 -56.848  -4.471  1.00  0.00    -0.066 N 
ATOM     20  H53 UNL     1     -10.149 -55.904  -4.083  1.00  0.00     0.275 HD
ATOM     21  H52 UNL     1     -10.967 -56.728  -5.091  1.00  0.00     0.275 HD
ATOM     22  H51 UNL     1     -10.322 -57.562  -3.761  1.00  0.00     0.275 HD
ENDBRANCH  18  19
BRANCH  18  23
HETATM   23  C12 UNL     1      -7.730 -56.966  -4.290  1.00  0.00     0.069 C 
BRANCH  23  24
HETATM   24  C13 UNL     1      -6.906 -55.880  -4.944  1.00  0.00     0.232 C 
BRANCH  24  25
HETATM   25  N6  UNL     1      -6.469 -54.866  -4.035  1.00  0.00    -0.079 N 
ATOM     26  H63 UNL     1      -7.256 -54.289  -3.734  1.00  0.00     0.274 HD
ATOM     27  H62 UNL     1      -6.205 -55.275  -3.139  1.00  0.00     0.274 HD
ATOM     28  H61 UNL     1      -5.717 -54.284  -4.403  1.00  0.00     0.274 HD
ENDBRANCH  24  25
ENDBRANCH  23  24
ENDBRANCH  18  23
ENDBRANCH   3  18
TORSDOF 10
ENDMDL
MODEL 3
REMARK VINA RESULT: -5.711107448      1.592      2.349
REMARK  10 active torsions:
REMARK  status: ('A' for Active; 'I' for Inactive)
REMARK    1  A    between atoms: C3_5  and  C4_6 
REMARK    2  A    between atoms: N2_10  and  C8_11 
REMARK    3  A    between atoms: C8_11  and  C9_12 
REMARK    4  A    between atoms: C9_12  and  N3_13 
REMARK    5  A    between atoms: N3_13  and  N4_14 
REMARK       I    between atoms: N4_14  and  C10_16 
REMARK    6  A    between atoms: C10_16  and  C11_18 
REMARK    7  A    between atoms: C11_18  and  N5_19 
REMARK    8  A    between atoms: C11_18  and  C12_23 
REMARK    9  A    between atoms: C12_23  and  C13_24 
REMARK   10  A    between atoms: C13_24  and  N6_25 
ROOT
HETATM    1  N4  UNL     1      -7.786 -58.138  -7.396  1.00  0.00    -0.272 N 
ATOM      2  H4  UNL     1      -8.015 -59.124  -7.269  1.00  0.00     0.185 HD
HETATM    3  C10 UNL     1      -8.085 -57.247  -6.354  1.00  0.00     0.263 C 
HETATM    4  O1  UNL     1      -7.790 -56.020  -6.541  1.00  0.00    -0.270 OA
ENDROOT
BRANCH   1   5
HETATM    5  N3  UNL     1      -7.189 -57.747  -8.602  1.00  0.00    -0.137 NA
BRANCH   5   6
HETATM    6  C9  UNL     1      -7.017 -58.854  -9.501  1.00  0.00     0.155 C 
BRANCH   6   7
HETATM    7  C8  UNL     1      -7.633 -60.135  -9.079  1.00  0.00     0.147 C 
BRANCH   7   8
HETATM    8  N2  UNL     1      -8.769 -60.561  -9.869  1.00  0.00    -0.344 N 
HETATM    9  C2  UNL     1      -8.904 -61.687 -10.612  1.00  0.00     0.079 A 
HETATM   10  C1  UNL     1      -7.833 -62.737 -10.769  1.00  0.00     0.089 C 
HETATM   11  N1  UNL     1     -10.116 -61.665 -11.156  1.00  0.00    -0.348 N 
HETATM   12  C3  UNL     1     -10.786 -60.560 -10.797  1.00  0.00     0.029 A 
ATOM     13  H1  UNL     1     -10.488 -62.392 -11.766  1.00  0.00     0.167 HD
HETATM   14  C7  UNL     1      -9.935 -59.853  -9.978  1.00  0.00     0.117 A 
BRANCH  12  15
HETATM   15  C4  UNL     1     -12.181 -60.165 -11.203  1.00  0.00     0.029 C 
HETATM   16  C5  UNL     1     -12.348 -60.304 -12.697  1.00  0.00     0.016 C 
HETATM   17  C6  UNL     1     -13.159 -61.017 -10.452  1.00  0.00     0.016 C 
ENDBRANCH  12  15
ENDBRANCH   7   8
ENDBRANCH   6   7
ENDBRANCH   5   6
ENDBRANCH   1   5
BRANCH   3  18
HETATM   18  C11 UNL     1      -8.710 -57.698  -5.099  1.00  0.00     0.277 C 
BRANCH  18  19
HETATM   19  N5  UNL     1      -7.724 -57.597  -4.037  1.00  0.00    -0.066 N 
ATOM     20  H53 UNL     1      -6.766 -57.661  -4.382  1.00  0.00     0.275 HD
ATOM     21  H52 UNL     1      -7.666 -56.657  -3.642  1.00  0.00     0.275 HD
ATOM     22  H51 UNL     1      -7.937 -58.305  -3.335  1.00  0.00     0.275 HD
ENDBRANCH  18  19
BRANCH  18  23
HETATM   23  C12 UNL     1      -9.941 -56.858  -4.759  1.00  0.00     0.069 C 
BRANCH  23  24
HETATM   24  C13 UNL     1     -10.957 -57.137  -5.843  1.00  0.00     0.232 C 
BRANCH  24  25
HETATM   25  N6  UNL     1     -12.251 -56.592  -5.571  1.00  0.00    -0.079 N 
ATOM     26  H63 UNL     1     -12.587 -56.900  -4.658  1.00  0.00     0.274 HD
ATOM     27  H62 UNL     1     -12.191 -55.589  -5.401  1.00  0.00     0.274 HD
ATOM     28  H61 UNL     1     -12.941 -56.795  -6.295  1.00  0.00     0.274 HD
ENDBRANCH  24  25
ENDBRANCH  23  24
ENDBRANCH  18  23
ENDBRANCH   3  18
TORSDOF 10
ENDMDL
MODEL 4
REMARK VINA RESULT: -5.706421421      1.694      2.505
REMARK  10 active torsions:
REMARK  status: ('A' for Active; 'I' for Inactive)
REMARK    1  A    between atoms: C3_5  and  C4_6 
REMARK    2  A    between atoms: N2_10  and  C8_11 
REMARK    3  A    between atoms: C8_11  and  C9_12 
REMARK    4  A    between atoms: C9_12  and  N3_13 
REMARK    5  A    between atoms: N3_13  and  N4_14 
REMARK       I    between atoms: N4_14  and  C10_16 
REMARK    6  A    between atoms: C10_16  and  C11_18 
REMARK    7  A    between atoms: C11_18  and  N5_19 
REMARK    8  A    between atoms: C11_18  and  C12_23 
REMARK    9  A    between atoms: C12_23  and  C13_24 
REMARK   10  A    between atoms: C13_24  and  N6_25 
ROOT
HETATM    1  N4  UNL     1      -8.138 -59.266  -6.878  1.00  0.00    -0.272 N 
ATOM      2  H4  UNL     1      -7.747 -58.409  -7.268  1.00  0.00     0.185 HD
HETATM    3  C10 UNL     1      -9.160 -59.155  -5.923  1.00  0.00     0.263 C 
HETATM    4  O1  UNL     1      -9.629 -60.243  -5.449  1.00  0.00    -0.270 OA
ENDROOT
BRANCH   1   5
HETATM    5  N3  UNL     1      -7.625 -60.491  -7.324  1.00  0.00    -0.137 NA
BRANCH   5   6
HETATM    6  C9  UNL     1      -7.743 -60.637  -8.748  1.00  0.00     0.155 C 
BRANCH   6   7
HETATM    7  C8  UNL     1      -8.143 -59.420  -9.495  1.00  0.00     0.147 C 
BRANCH   7   8
HETATM    8  N2  UNL     1      -9.188 -59.617 -10.477  1.00  0.00    -0.344 N 
HETATM    9  C2  UNL     1      -9.209 -59.226 -11.774  1.00  0.00     0.079 A 
HETATM   10  C1  UNL     1      -8.099 -58.462 -12.452  1.00  0.00     0.089 C 
HETATM   11  N1  UNL     1     -10.364 -59.628 -12.296  1.00  0.00    -0.348 N 
HETATM   12  C3  UNL     1     -11.106 -60.272 -11.382  1.00  0.00     0.029 A 
ATOM     13  H1  UNL     1     -10.647 -59.469 -13.262  1.00  0.00     0.167 HD
HETATM   14  C7  UNL     1     -10.365 -60.269 -10.223  1.00  0.00     0.117 A 
BRANCH  12  15
HETATM   15  C4  UNL     1     -12.472 -60.876 -11.577  1.00  0.00     0.029 C 
HETATM   16  C5  UNL     1     -13.358 -60.550 -10.397  1.00  0.00     0.016 C 
HETATM   17  C6  UNL     1     -13.046 -60.361 -12.862  1.00  0.00     0.016 C 
ENDBRANCH  12  15
ENDBRANCH   7   8
ENDBRANCH   6   7
ENDBRANCH   5   6
ENDBRANCH   1   5
BRANCH   3  18
HETATM   18  C11 UNL     1      -9.674 -57.848  -5.482  1.00  0.00     0.277 C 
BRANCH  18  19
HETATM   19  N5  UNL     1      -8.654 -57.207  -4.669  1.00  0.00    -0.066 N 
ATOM     20  H53 UNL     1      -7.868 -56.866  -5.223  1.00  0.00     0.275 HD
ATOM     21  H52 UNL     1      -8.958 -56.309  -4.293  1.00  0.00     0.275 HD
ATOM     22  H51 UNL     1      -8.367 -57.861  -3.942  1.00  0.00     0.275 HD
ENDBRANCH  18  19
BRANCH  18  23
HETATM   23  C12 UNL     1     -10.034 -56.962  -6.674  1.00  0.00     0.069 C 
BRANCH  23  24
HETATM   24  C13 UNL     1     -11.531 -56.760  -6.615  1.00  0.00     0.232 C 
BRANCH  24  25
HETATM   25  N6  UNL     1     -11.966 -56.028  -5.466  1.00  0.00    -0.079 N 
ATOM     26  H63 UNL     1     -11.662 -55.056  -5.521  1.00  0.00     0.274 HD
ATOM     27  H62 UNL     1     -12.977 -55.892  -5.487  1.00  0.00     0.274 HD
ATOM     28  H61 UNL     1     -11.677 -56.446  -4.581  1.00  0.00     0.274 HD
ENDBRANCH  24  25
ENDBRANCH  23  24
ENDBRANCH  18  23
ENDBRANCH   3  18
TORSDOF 10
ENDMDL
MODEL 5
REMARK VINA RESULT: -5.693347004      1.263      1.979
REMARK  10 active torsions:
REMARK  status: ('A' for Active; 'I' for Inactive)
REMARK    1  A    between atoms: C3_5  and  C4_6 
REMARK    2  A    between atoms: N2_10  and  C8_11 
REMARK    3  A    between atoms: C8_11  and  C9_12 
REMARK    4  A    between atoms: C9_12  and  N3_13 
REMARK    5  A    between atoms: N3_13  and  N4_14 
REMARK       I    between atoms: N4_14  and  C10_16 
REMARK    6  A    between atoms: C10_16  and  C11_18 
REMARK    7  A    between atoms: C11_18  and  N5_19 
REMARK    8  A    between atoms: C11_18  and  C12_23 
REMARK    9  A    between atoms: C12_23  and  C13_24 
REMARK   10  A    between atoms: C13_24  and  N6_25 
ROOT
HETATM    1  N4  UNL     1      -8.272 -59.321  -6.773  1.00  0.00    -0.272 N 
ATOM      2  H4  UNL     1      -7.739 -58.562  -7.198  1.00  0.00     0.185 HD
HETATM    3  C10 UNL     1      -9.341 -58.988  -5.926  1.00  0.00     0.263 C 
HETATM    4  O1  UNL     1      -9.989 -59.956  -5.406  1.00  0.00    -0.270 OA
ENDROOT
BRANCH   1   5
HETATM    5  N3  UNL     1      -7.898 -60.639  -7.065  1.00  0.00    -0.137 NA
BRANCH   5   6
HETATM    6  C9  UNL     1      -7.055 -60.714  -8.226  1.00  0.00     0.155 C 
BRANCH   6   7
HETATM    7  C8  UNL     1      -7.503 -59.935  -9.406  1.00  0.00     0.147 C 
BRANCH   7   8
HETATM    8  N2  UNL     1      -8.696 -60.435 -10.055  1.00  0.00    -0.344 N 
HETATM    9  C2  UNL     1      -8.889 -61.637 -10.651  1.00  0.00     0.079 A 
HETATM   10  C1  UNL     1      -7.836 -62.711 -10.764  1.00  0.00     0.089 C 
HETATM   11  N1  UNL     1     -10.139 -61.664 -11.103  1.00  0.00    -0.348 N 
HETATM   12  C3  UNL     1     -10.777 -60.517 -10.825  1.00  0.00     0.029 A 
ATOM     13  H1  UNL     1     -10.557 -62.452 -11.596  1.00  0.00     0.167 HD
HETATM   14  C7  UNL     1      -9.865 -59.730 -10.158  1.00  0.00     0.117 A 
BRANCH  12  15
HETATM   15  C4  UNL     1     -12.197 -60.155 -11.169  1.00  0.00     0.029 C 
HETATM   16  C5  UNL     1     -12.417 -60.271 -12.659  1.00  0.00     0.016 C 
HETATM   17  C6  UNL     1     -13.121 -61.050 -10.399  1.00  0.00     0.016 C 
ENDBRANCH  12  15
ENDBRANCH   7   8
ENDBRANCH   6   7
ENDBRANCH   5   6
ENDBRANCH   1   5
BRANCH   3  18
HETATM   18  C11 UNL     1      -9.706 -57.589  -5.646  1.00  0.00     0.277 C 
BRANCH  18  19
HETATM   19  N5  UNL     1      -8.557 -56.929  -5.049  1.00  0.00    -0.066 N 
ATOM     20  H53 UNL     1      -8.806 -56.061  -4.574  1.00  0.00     0.275 HD
ATOM     21  H52 UNL     1      -8.193 -57.431  -4.239  1.00  0.00     0.275 HD
ATOM     22  H51 UNL     1      -7.855 -56.792  -5.775  1.00  0.00     0.275 HD
ENDBRANCH  18  19
BRANCH  18  23
HETATM   23  C12 UNL     1     -10.130 -56.860  -6.921  1.00  0.00     0.069 C 
BRANCH  23  24
HETATM   24  C13 UNL     1     -11.529 -56.346  -6.670  1.00  0.00     0.232 C 
BRANCH  24  25
HETATM   25  N6  UNL     1     -12.046 -56.698  -5.383  1.00  0.00    -0.079 N 
ATOM     26  H63 UNL     1     -12.331 -57.677  -5.364  1.00  0.00     0.274 HD
ATOM     27  H62 UNL     1     -11.299 -56.724  -4.689  1.00  0.00     0.274 HD
ATOM     28  H61 UNL     1     -12.809 -56.096  -5.071  1.00  0.00     0.274 HD
ENDBRANCH  24  25
ENDBRANCH  23  24
ENDBRANCH  18  23
ENDBRANCH   3  18
TORSDOF 10
ENDMDL
