MODEL 1
REMARK VINA RESULT: -5.516842893      0.000      0.000
REMARK  10 active torsions:
REMARK  status: ('A' for Active; 'I' for Inactive)
REMARK    1  A    between atoms: C2_2  and  C3_6 
REMARK    2  A    between atoms: C3_6  and  C4_7 
REMARK    3  A    between atoms: C3_6  and  N2_9 
REMARK    4  A    between atoms: N2_9  and  C5_11 
REMARK    5  A    between atoms: C5_11  and  C6_12 
REMARK    6  A    between atoms: C5_11  and  C10_23 
REMARK    7  A    between atoms: C6_12  and  C7_14 
REMARK    8  A    between atoms: C7_14  and  N3_15 
REMARK    9  A    between atoms: C7_14  and  C8_19 
REMARK   10  A    between atoms: C8_19  and  O3_21 
ROOT
HETATM    1  C5  UNL     1      -7.676 -59.323  -7.536  1.00  0.00     0.185 C 
ENDROOT
BRANCH   1   2
HETATM    2  N2  UNL     1      -6.720 -60.344  -7.340  1.00  0.00    -0.392 N 
ATOM      3  H2  UNL     1      -6.969 -61.028  -6.624  1.00  0.00     0.155 HD
BRANCH   2   4
HETATM    4  C3  UNL     1      -5.513 -60.570  -7.952  1.00  0.00     0.184 C 
BRANCH   4   5
HETATM    5  C2  UNL     1      -4.438 -59.714  -7.387  1.00  0.00     0.005 C 
HETATM    6  C1  UNL     1      -4.065 -58.487  -8.180  1.00  0.00     0.065 C 
HETATM    7  N1  UNL     1      -3.940 -59.998  -6.287  1.00  0.00    -0.404 N 
ATOM      8  H12 UNL     1      -3.201 -59.410  -5.899  1.00  0.00     0.155 HD
ATOM      9  H11 UNL     1      -4.192 -60.828  -5.751  1.00  0.00     0.155 HD
ENDBRANCH   4   5
BRANCH   4  10
HETATM   10  C4  UNL     1      -5.069 -61.973  -8.059  1.00  0.00     0.261 C 
HETATM   11  O1  UNL     1      -5.063 -62.671  -7.043  1.00  0.00    -0.304 OA
ENDBRANCH   4  10
ENDBRANCH   2   4
ENDBRANCH   1   2
BRANCH   1  12
HETATM   12  C6  UNL     1      -8.541 -59.149  -6.334  1.00  0.00     0.186 C 
HETATM   13  O2  UNL     1      -9.034 -60.138  -5.835  1.00  0.00    -0.293 OA
BRANCH  12  14
HETATM   14  C7  UNL     1      -8.805 -57.834  -5.742  1.00  0.00     0.283 C 
BRANCH  14  15
HETATM   15  N3  UNL     1      -7.872 -57.345  -4.812  1.00  0.00    -0.066 N 
ATOM     16  H33 UNL     1      -7.407 -58.128  -4.355  1.00  0.00     0.275 HD
ATOM     17  H32 UNL     1      -7.089 -56.923  -5.310  1.00  0.00     0.275 HD
ATOM     18  H31 UNL     1      -8.213 -56.694  -4.104  1.00  0.00     0.275 HD
ENDBRANCH  14  15
BRANCH  14  19
HETATM   19  C8  UNL     1     -10.219 -57.890  -5.137  1.00  0.00     0.152 C 
HETATM   20  C9  UNL     1     -11.144 -56.895  -5.761  1.00  0.00     0.042 C 
BRANCH  19  21
HETATM   21  O3  UNL     1     -10.150 -57.896  -3.768  1.00  0.00    -0.393 OA
ATOM     22  H3  UNL     1     -11.002 -58.089  -3.396  1.00  0.00     0.210 HD
ENDBRANCH  19  21
ENDBRANCH  14  19
ENDBRANCH  12  14
ENDBRANCH   1  12
BRANCH   1  23
HETATM   23  C10 UNL     1      -8.585 -59.833  -8.628  1.00  0.00    -0.004 A 
HETATM   24  C11 UNL     1      -9.696 -59.095  -8.998  1.00  0.00     0.036 A 
HETATM   25  C12 UNL     1     -10.344 -59.847  -9.953  1.00  0.00     0.142 A 
HETATM   26  O4  UNL     1      -9.684 -60.928 -10.134  1.00  0.00    -0.334 OA
HETATM   27  C13 UNL     1      -8.587 -60.967  -9.338  1.00  0.00     0.150 A 
ENDBRANCH   1  23
TORSDOF 10
ENDMDL
MODEL 2
REMARK VINA RESULT: -5.515516419      1.861      4.997
REMARK  10 active torsions:
REMARK  status: ('A' for Active; 'I' for Inactive)
REMARK    1  A    between atoms: C2_2  and  C3_6 
REMARK    2  A    between atoms: C3_6  and  C4_7 
REMARK    3  A    between atoms: C3_6  and  N2_9 
REMARK    4  A    between atoms: N2_9  and  C5_11 
REMARK    5  A    between atoms: C5_11  and  C6_12 
REMARK    6  A    between atoms: C5_11  and  C10_23 
REMARK    7  A    between atoms: C6_12  and  C7_14 
REMARK    8  A    between atoms: C7_14  and  N3_15 
REMARK    9  A    between atoms: C7_14  and  C8_19 
REMARK   10  A    between atoms: C8_19  and  O3_21 
ROOT
HETATM    1  C5  UNL     1      -9.457 -59.091  -7.789  1.00  0.00     0.185 C 
ENDROOT
BRANCH   1   2
HETATM    2  N2  UNL     1      -8.990 -57.796  -7.472  1.00  0.00    -0.392 N 
ATOM      3  H2  UNL     1      -8.415 -57.363  -8.195  1.00  0.00     0.155 HD
BRANCH   2   4
HETATM    4  C3  UNL     1      -9.181 -57.024  -6.354  1.00  0.00     0.184 C 
BRANCH   4   5
HETATM    5  C2  UNL     1     -10.544 -57.197  -5.789  1.00  0.00     0.005 C 
HETATM    6  C1  UNL     1     -11.673 -56.526  -6.528  1.00  0.00     0.065 C 
HETATM    7  N1  UNL     1     -10.709 -57.915  -4.791  1.00  0.00    -0.404 N 
ATOM      8  H12 UNL     1     -11.644 -58.034  -4.402  1.00  0.00     0.155 HD
ATOM      9  H11 UNL     1      -9.945 -58.369  -4.290  1.00  0.00     0.155 HD
ENDBRANCH   4   5
BRANCH   4  10
HETATM   10  C4  UNL     1      -8.156 -57.110  -5.298  1.00  0.00     0.261 C 
HETATM   11  O1  UNL     1      -8.240 -56.353  -4.328  1.00  0.00    -0.304 OA
ENDBRANCH   4  10
ENDBRANCH   2   4
ENDBRANCH   1   2
BRANCH   1  12
HETATM   12  C6  UNL     1      -8.474 -60.137  -7.388  1.00  0.00     0.186 C 
HETATM   13  O2  UNL     1      -8.572 -60.623  -6.281  1.00  0.00    -0.293 OA
BRANCH  12  14
HETATM   14  C7  UNL     1      -7.408 -60.595  -8.284  1.00  0.00     0.283 C 
BRANCH  14  15
HETATM   15  N3  UNL     1      -7.424 -61.946  -8.672  1.00  0.00    -0.066 N 
ATOM     16  H33 UNL     1      -6.707 -62.455  -8.155  1.00  0.00     0.275 HD
ATOM     17  H32 UNL     1      -8.269 -62.391  -8.312  1.00  0.00     0.275 HD
ATOM     18  H31 UNL     1      -7.332 -62.151  -9.667  1.00  0.00     0.275 HD
ENDBRANCH  14  15
BRANCH  14  19
HETATM   19  C8  UNL     1      -6.071 -60.222  -7.620  1.00  0.00     0.152 C 
HETATM   20  C9  UNL     1      -5.106 -59.615  -8.587  1.00  0.00     0.042 C 
BRANCH  19  21
HETATM   21  O3  UNL     1      -5.610 -61.265  -6.860  1.00  0.00    -0.393 OA
ATOM     22  H3  UNL     1      -6.329 -61.672  -6.390  1.00  0.00     0.210 HD
ENDBRANCH  19  21
ENDBRANCH  14  19
ENDBRANCH  12  14
ENDBRANCH   1  12
BRANCH   1  23
HETATM   23  C10 UNL     1      -9.515 -59.136  -9.296  1.00  0.00    -0.004 A 
HETATM   24  C11 UNL     1     -10.500 -59.879  -9.924  1.00  0.00     0.036 A 
HETATM   25  C12 UNL     1     -10.246 -59.773 -11.274  1.00  0.00     0.142 A 
HETATM   26  O4  UNL     1      -9.211 -59.039 -11.434  1.00  0.00    -0.334 OA
HETATM   27  C13 UNL     1      -8.722 -58.620 -10.241  1.00  0.00     0.150 A 
ENDBRANCH   1  23
TORSDOF 10
ENDMDL
MODEL 3
REMARK VINA RESULT: -5.434396415      1.615      1.900
REMARK  10 active torsions:
REMARK  status: ('A' for Active; 'I' for Inactive)
REMARK    1  A    between atoms: C2_2  and  C3_6 
REMARK    2  A    between atoms: C3_6  and  C4_7 
REMARK    3  A    between atoms: C3_6  and  N2_9 
REMARK    4  A    between atoms: N2_9  and  C5_11 
REMARK    5  A    between atoms: C5_11  and  C6_12 
REMARK    6  A    between atoms: C5_11  and  C10_23 
REMARK    7  A    between atoms: C6_12  and  C7_14 
REMARK    8  A    between atoms: C7_14  and  N3_15 
REMARK    9  A    between atoms: C7_14  and  C8_19 
REMARK   10  A    between atoms: C8_19  and  O3_21 
ROOT
HETATM    1  C5  UNL     1      -8.143 -58.644  -7.554  1.00  0.00     0.185 C 
ENDROOT
BRANCH   1   2
HETATM    2  N2  UNL     1      -6.867 -59.143  -7.210  1.00  0.00    -0.392 N 
ATOM      3  H2  UNL     1      -6.881 -59.988  -6.637  1.00  0.00     0.155 HD
BRANCH   2   4
HETATM    4  C3  UNL     1      -5.612 -58.682  -7.518  1.00  0.00     0.184 C 
BRANCH   4   5
HETATM    5  C2  UNL     1      -4.552 -59.621  -7.070  1.00  0.00     0.005 C 
HETATM    6  C1  UNL     1      -3.207 -59.019  -6.751  1.00  0.00     0.065 C 
HETATM    7  N1  UNL     1      -4.818 -60.824  -6.921  1.00  0.00    -0.404 N 
ATOM      8  H12 UNL     1      -4.090 -61.468  -6.614  1.00  0.00     0.155 HD
ATOM      9  H11 UNL     1      -5.727 -61.231  -7.137  1.00  0.00     0.155 HD
ENDBRANCH   4   5
BRANCH   4  10
HETATM   10  C4  UNL     1      -5.382 -58.251  -8.910  1.00  0.00     0.261 C 
HETATM   11  O1  UNL     1      -5.147 -59.109  -9.764  1.00  0.00    -0.304 OA
ENDBRANCH   4  10
ENDBRANCH   2   4
ENDBRANCH   1   2
BRANCH   1  12
HETATM   12  C6  UNL     1      -9.083 -58.709  -6.399  1.00  0.00     0.186 C 
HETATM   13  O2  UNL     1      -9.117 -59.730  -5.745  1.00  0.00    -0.293 OA
BRANCH  12  14
HETATM   14  C7  UNL     1      -9.952 -57.587  -6.031  1.00  0.00     0.283 C 
BRANCH  14  15
HETATM   15  N3  UNL     1     -10.114 -56.558  -6.974  1.00  0.00    -0.066 N 
ATOM     16  H33 UNL     1     -10.073 -56.951  -7.915  1.00  0.00     0.275 HD
ATOM     17  H32 UNL     1     -11.077 -56.225  -6.949  1.00  0.00     0.275 HD
ATOM     18  H31 UNL     1      -9.478 -55.762  -6.914  1.00  0.00     0.275 HD
ENDBRANCH  14  15
BRANCH  14  19
HETATM   19  C8  UNL     1      -9.434 -57.038  -4.690  1.00  0.00     0.152 C 
HETATM   20  C9  UNL     1      -7.975 -56.718  -4.733  1.00  0.00     0.042 C 
BRANCH  19  21
HETATM   21  O3  UNL     1      -9.864 -57.828  -3.656  1.00  0.00    -0.393 OA
ATOM     22  H3  UNL     1      -9.521 -58.709  -3.750  1.00  0.00     0.210 HD
ENDBRANCH  19  21
ENDBRANCH  14  19
ENDBRANCH  12  14
ENDBRANCH   1  12
BRANCH   1  23
HETATM   23  C10 UNL     1      -8.685 -59.609  -8.581  1.00  0.00    -0.004 A 
HETATM   24  C11 UNL     1      -9.893 -59.345  -9.200  1.00  0.00     0.036 A 
HETATM   25  C12 UNL     1     -10.139 -60.427 -10.019  1.00  0.00     0.142 A 
HETATM   26  O4  UNL     1      -9.170 -61.253  -9.897  1.00  0.00    -0.334 OA
HETATM   27  C13 UNL     1      -8.244 -60.793  -9.020  1.00  0.00     0.150 A 
ENDBRANCH   1  23
TORSDOF 10
ENDMDL
MODEL 4
REMARK VINA RESULT: -5.330849472      1.906      4.999
REMARK  10 active torsions:
REMARK  status: ('A' for Active; 'I' for Inactive)
REMARK    1  A    between atoms: C2_2  and  C3_6 
REMARK    2  A    between atoms: C3_6  and  C4_7 
REMARK    3  A    between atoms: C3_6  and  N2_9 
REMARK    4  A    between atoms: N2_9  and  C5_11 
REMARK    5  A    between atoms: C5_11  and  C6_12 
REMARK    6  A    between atoms: C5_11  and  C10_23 
REMARK    7  A    between atoms: C6_12  and  C7_14 
REMARK    8  A    between atoms: C7_14  and  N3_15 
REMARK    9  A    between atoms: C7_14  and  C8_19 
REMARK   10  A    between atoms: C8_19  and  O3_21 
ROOT
HETATM    1  C5  UNL     1      -8.129 -58.995  -7.533  1.00  0.00     0.185 C 
ENDROOT
BRANCH   1   2
HETATM    2  N2  UNL     1      -8.869 -57.819  -7.279  1.00  0.00    -0.392 N 
ATOM      3  H2  UNL     1      -9.299 -57.401  -8.104  1.00  0.00     0.155 HD
BRANCH   2   4
HETATM    4  C3  UNL     1      -9.107 -57.146  -6.107  1.00  0.00     0.184 C 
BRANCH   4   5
HETATM    5  C2  UNL     1     -10.532 -57.232  -5.699  1.00  0.00     0.005 C 
HETATM    6  C1  UNL     1     -11.532 -56.535  -6.587  1.00  0.00     0.065 C 
HETATM    7  N1  UNL     1     -10.849 -57.903  -4.705  1.00  0.00    -0.404 N 
ATOM      8  H12 UNL     1     -11.828 -57.961  -4.425  1.00  0.00     0.155 HD
ATOM      9  H11 UNL     1     -10.173 -58.374  -4.104  1.00  0.00     0.155 HD
ENDBRANCH   4   5
BRANCH   4  10
HETATM   10  C4  UNL     1      -8.214 -57.445  -4.971  1.00  0.00     0.261 C 
HETATM   11  O1  UNL     1      -8.165 -56.649  -4.031  1.00  0.00    -0.304 OA
ENDBRANCH   4  10
ENDBRANCH   2   4
ENDBRANCH   1   2
BRANCH   1  12
HETATM   12  C6  UNL     1      -6.767 -58.680  -8.051  1.00  0.00     0.186 C 
HETATM   13  O2  UNL     1      -6.614 -57.651  -8.673  1.00  0.00    -0.293 OA
BRANCH  12  14
HETATM   14  C7  UNL     1      -5.619 -59.565  -7.827  1.00  0.00     0.283 C 
BRANCH  14  15
HETATM   15  N3  UNL     1      -5.854 -60.767  -7.139  1.00  0.00    -0.066 N 
ATOM     16  H33 UNL     1      -5.256 -60.808  -6.314  1.00  0.00     0.275 HD
ATOM     17  H32 UNL     1      -6.776 -60.733  -6.703  1.00  0.00     0.275 HD
ATOM     18  H31 UNL     1      -5.761 -61.636  -7.666  1.00  0.00     0.275 HD
ENDBRANCH  14  15
BRANCH  14  19
HETATM   19  C8  UNL     1      -4.535 -58.725  -7.129  1.00  0.00     0.152 C 
HETATM   20  C9  UNL     1      -3.335 -59.538  -6.763  1.00  0.00     0.042 C 
BRANCH  19  21
HETATM   21  O3  UNL     1      -5.091 -57.962  -6.135  1.00  0.00    -0.393 OA
ATOM     22  H3  UNL     1      -4.672 -58.149  -5.303  1.00  0.00     0.210 HD
ENDBRANCH  19  21
ENDBRANCH  14  19
ENDBRANCH  12  14
ENDBRANCH   1  12
BRANCH   1  23
HETATM   23  C10 UNL     1      -8.851 -59.684  -8.665  1.00  0.00    -0.004 A 
HETATM   24  C11 UNL     1     -10.059 -59.181  -9.116  1.00  0.00     0.036 A 
HETATM   25  C12 UNL     1     -10.488 -60.055 -10.092  1.00  0.00     0.142 A 
HETATM   26  O4  UNL     1      -9.620 -60.987 -10.209  1.00  0.00    -0.334 OA
HETATM   27  C13 UNL     1      -8.588 -60.803  -9.349  1.00  0.00     0.150 A 
ENDBRANCH   1  23
TORSDOF 10
ENDMDL
MODEL 5
REMARK VINA RESULT: -5.324278168      1.264      1.419
REMARK  10 active torsions:
REMARK  status: ('A' for Active; 'I' for Inactive)
REMARK    1  A    between atoms: C2_2  and  C3_6 
REMARK    2  A    between atoms: C3_6  and  C4_7 
REMARK    3  A    between atoms: C3_6  and  N2_9 
REMARK    4  A    between atoms: N2_9  and  C5_11 
REMARK    5  A    between atoms: C5_11  and  C6_12 
REMARK    6  A    between atoms: C5_11  and  C10_23 
REMARK    7  A    between atoms: C6_12  and  C7_14 
REMARK    8  A    between atoms: C7_14  and  N3_15 
REMARK    9  A    between atoms: C7_14  and  C8_19 
REMARK   10  A    between atoms: C8_19  and  O3_21 
ROOT
HETATM    1  C5  UNL     1      -7.805 -58.730  -7.567  1.00  0.00     0.185 C 
ENDROOT
BRANCH   1   2
HETATM    2  N2  UNL     1      -6.610 -59.444  -7.325  1.00  0.00    -0.392 N 
ATOM      3  H2  UNL     1      -6.735 -60.328  -6.832  1.00  0.00     0.155 HD
BRANCH   2   4
HETATM    4  C3  UNL     1      -5.309 -59.146  -7.644  1.00  0.00     0.184 C 
BRANCH   4   5
HETATM    5  C2  UNL     1      -4.358 -60.123  -7.057  1.00  0.00     0.005 C 
HETATM    6  C1  UNL     1      -3.008 -59.590  -6.648  1.00  0.00     0.065 C 
HETATM    7  N1  UNL     1      -4.716 -61.297  -6.873  1.00  0.00    -0.404 N 
ATOM      8  H12 UNL     1      -4.062 -61.968  -6.470  1.00  0.00     0.155 HD
ATOM      9  H11 UNL     1      -5.629 -61.658  -7.149  1.00  0.00     0.155 HD
ENDBRANCH   4   5
BRANCH   4  10
HETATM   10  C4  UNL     1      -5.008 -58.906  -9.068  1.00  0.00     0.261 C 
HETATM   11  O1  UNL     1      -4.836 -59.877  -9.808  1.00  0.00    -0.304 OA
ENDBRANCH   4  10
ENDBRANCH   2   4
ENDBRANCH   1   2
BRANCH   1  12
HETATM   12  C6  UNL     1      -8.672 -58.692  -6.355  1.00  0.00     0.186 C 
HETATM   13  O2  UNL     1      -8.926 -59.739  -5.799  1.00  0.00    -0.293 OA
BRANCH  12  14
HETATM   14  C7  UNL     1      -9.213 -57.440  -5.818  1.00  0.00     0.283 C 
BRANCH  14  15
HETATM   15  N3  UNL     1      -8.546 -56.865  -4.723  1.00  0.00    -0.066 N 
ATOM     16  H33 UNL     1      -8.687 -57.446  -3.897  1.00  0.00     0.275 HD
ATOM     17  H32 UNL     1      -7.539 -56.959  -4.852  1.00  0.00     0.275 HD
ATOM     18  H31 UNL     1      -8.768 -55.895  -4.495  1.00  0.00     0.275 HD
ENDBRANCH  14  15
BRANCH  14  19
HETATM   19  C8  UNL     1     -10.696 -57.693  -5.497  1.00  0.00     0.152 C 
HETATM   20  C9  UNL     1     -11.564 -56.533  -5.864  1.00  0.00     0.042 C 
BRANCH  19  21
HETATM   21  O3  UNL     1     -10.830 -58.186  -4.225  1.00  0.00    -0.393 OA
ATOM     22  H3  UNL     1     -11.748 -58.292  -4.007  1.00  0.00     0.210 HD
ENDBRANCH  19  21
ENDBRANCH  14  19
ENDBRANCH  12  14
ENDBRANCH   1  12
BRANCH   1  23
HETATM   23  C10 UNL     1      -8.559 -59.550  -8.587  1.00  0.00    -0.004 A 
HETATM   24  C11 UNL     1      -9.786 -59.110  -9.050  1.00  0.00     0.036 A 
HETATM   25  C12 UNL     1     -10.239 -60.094  -9.902  1.00  0.00     0.142 A 
HETATM   26  O4  UNL     1      -9.366 -61.028  -9.942  1.00  0.00    -0.334 OA
HETATM   27  C13 UNL     1      -8.308 -60.739  -9.146  1.00  0.00     0.150 A 
ENDBRANCH   1  23
TORSDOF 10
ENDMDL
