MODEL 1
REMARK VINA RESULT: -4.915391659      0.000      0.000
REMARK  9 active torsions:
REMARK  status: ('A' for Active; 'I' for Inactive)
REMARK    1  A    between atoms: C2_2  and  O1_5 
REMARK    2  A    between atoms: O1_5  and  N1_6 
REMARK    3  A    between atoms: C5_8  and  C6_9 
REMARK    4  A    between atoms: C6_9  and  N2_10 
REMARK    5  A    between atoms: C6_9  and  C12_21 
REMARK    6  A    between atoms: N2_10  and  O2_11 
REMARK    7  A    between atoms: O2_11  and  C7_12 
REMARK    8  A    between atoms: C7_12  and  C8_13 
REMARK    9  A    between atoms: C8_13  and  C9_14 
ROOT
HETATM    1  C6  UNL     1     -10.128 -57.548  -7.330  1.00  0.00     0.235 C 
ENDROOT
BRANCH   1   2
HETATM    2  C5  UNL     1      -9.216 -56.628  -8.007  1.00  0.00     0.119 C 
HETATM    3  N1  UNL     1      -8.373 -56.011  -7.319  1.00  0.00    -0.279 N 
ATOM      4  H1  UNL     1      -7.793 -55.405  -7.899  1.00  0.00     0.193 HD
BRANCH   3   5
HETATM    5  O1  UNL     1      -8.042 -55.932  -6.094  1.00  0.00    -0.271 OA
BRANCH   5   6
HETATM    6  C2  UNL     1      -7.220 -56.369  -5.101  1.00  0.00     0.078 C 
HETATM    7  C1  UNL     1      -6.132 -57.236  -5.807  1.00  0.00     0.048 C 
HETATM    8  C3  UNL     1      -7.834 -57.266  -4.089  1.00  0.00     0.048 C 
HETATM    9  C4  UNL     1      -6.493 -55.254  -4.379  1.00  0.00     0.048 C 
ENDBRANCH   5   6
ENDBRANCH   3   5
ENDBRANCH   1   2
BRANCH   1  10
HETATM   10  N2  UNL     1      -9.590 -58.754  -6.811  1.00  0.00    -0.082 NA
BRANCH  10  11
HETATM   11  O2  UNL     1      -8.452 -59.048  -7.392  1.00  0.00    -0.285 OA
BRANCH  11  12
HETATM   12  C7  UNL     1      -8.197 -60.440  -7.419  1.00  0.00     0.202 C 
BRANCH  12  13
HETATM   13  C8  UNL     1      -7.964 -60.628  -8.938  1.00  0.00     0.086 C 
BRANCH  13  14
HETATM   14  C9  UNL     1      -9.192 -60.664  -9.734  1.00  0.00     0.027 A 
HETATM   15  C10 UNL     1      -9.267 -61.593 -10.848  1.00  0.00     0.114 A 
HETATM   16  N3  UNL     1     -10.472 -61.527 -11.432  1.00  0.00    -0.360 N 
HETATM   17  C11 UNL     1     -11.175 -60.612 -10.750  1.00  0.00     0.180 A 
ATOM     18  H3  UNL     1     -10.791 -62.068 -12.236  1.00  0.00     0.166 HD
HETATM   19  N4  UNL     1     -10.406 -60.096  -9.745  1.00  0.00    -0.355 N 
ATOM     20  H4  UNL     1     -10.715 -59.377  -9.091  1.00  0.00     0.166 HD
ENDBRANCH  13  14
ENDBRANCH  12  13
ENDBRANCH  11  12
ENDBRANCH  10  11
ENDBRANCH   1  10
BRANCH   1  21
HETATM   21  C12 UNL     1     -10.892 -56.955  -6.212  1.00  0.00     0.257 C 
HETATM   22  N5  UNL     1     -11.474 -55.691  -6.163  1.00  0.00    -0.060 NA
HETATM   23  O3  UNL     1     -10.999 -57.742  -5.194  1.00  0.00    -0.275 OA
ENDBRANCH   1  21
TORSDOF 9
ENDMDL
MODEL 2
REMARK VINA RESULT: -4.836398371      2.289      6.621
REMARK  9 active torsions:
REMARK  status: ('A' for Active; 'I' for Inactive)
REMARK    1  A    between atoms: C2_2  and  O1_5 
REMARK    2  A    between atoms: O1_5  and  N1_6 
REMARK    3  A    between atoms: C5_8  and  C6_9 
REMARK    4  A    between atoms: C6_9  and  N2_10 
REMARK    5  A    between atoms: C6_9  and  C12_21 
REMARK    6  A    between atoms: N2_10  and  O2_11 
REMARK    7  A    between atoms: O2_11  and  C7_12 
REMARK    8  A    between atoms: C7_12  and  C8_13 
REMARK    9  A    between atoms: C8_13  and  C9_14 
ROOT
HETATM    1  C6  UNL     1      -9.039 -60.109  -9.655  1.00  0.00     0.235 C 
ENDROOT
BRANCH   1   2
HETATM    2  C5  UNL     1      -8.767 -61.236 -10.544  1.00  0.00     0.119 C 
HETATM    3  N1  UNL     1      -9.733 -61.802 -11.102  1.00  0.00    -0.279 N 
ATOM      4  H1  UNL     1      -9.420 -62.568 -11.698  1.00  0.00     0.193 HD
BRANCH   3   5
HETATM    5  O1  UNL     1     -10.999 -61.683 -11.129  1.00  0.00    -0.271 OA
BRANCH   5   6
HETATM    6  C2  UNL     1     -12.077 -61.064 -11.682  1.00  0.00     0.078 C 
HETATM    7  C1  UNL     1     -12.813 -62.162 -12.509  1.00  0.00     0.048 C 
HETATM    8  C3  UNL     1     -11.785 -59.978 -12.652  1.00  0.00     0.048 C 
HETATM    9  C4  UNL     1     -13.069 -60.545 -10.661  1.00  0.00     0.048 C 
ENDBRANCH   5   6
ENDBRANCH   3   5
ENDBRANCH   1   2
BRANCH   1  10
HETATM   10  N2  UNL     1      -8.506 -60.157  -8.340  1.00  0.00    -0.082 NA
BRANCH  10  11
HETATM   11  O2  UNL     1      -9.442 -59.943  -7.447  1.00  0.00    -0.285 OA
BRANCH  11  12
HETATM   12  C7  UNL     1      -8.951 -59.988  -6.121  1.00  0.00     0.202 C 
BRANCH  12  13
HETATM   13  C8  UNL     1      -8.746 -58.475  -5.871  1.00  0.00     0.086 C 
BRANCH  13  14
HETATM   14  C9  UNL     1      -9.935 -57.658  -6.122  1.00  0.00     0.027 A 
HETATM   15  C10 UNL     1     -10.893 -57.480  -5.045  1.00  0.00     0.114 A 
HETATM   16  N3  UNL     1     -11.888 -56.670  -5.432  1.00  0.00    -0.360 N 
HETATM   17  C11 UNL     1     -11.618 -56.314  -6.696  1.00  0.00     0.180 A 
ATOM     18  H3  UNL     1     -12.692 -56.381  -4.874  1.00  0.00     0.166 HD
HETATM   19  N4  UNL     1     -10.458 -56.910  -7.104  1.00  0.00    -0.355 N 
ATOM     20  H4  UNL     1     -10.046 -56.801  -8.031  1.00  0.00     0.166 HD
ENDBRANCH  13  14
ENDBRANCH  12  13
ENDBRANCH  11  12
ENDBRANCH  10  11
ENDBRANCH   1  10
BRANCH   1  21
HETATM   21  C12 UNL     1      -8.638 -58.788 -10.184  1.00  0.00     0.257 C 
HETATM   22  N5  UNL     1      -8.245 -57.670  -9.453  1.00  0.00    -0.060 NA
HETATM   23  O3  UNL     1      -8.677 -58.722 -11.473  1.00  0.00    -0.275 OA
ENDBRANCH   1  21
TORSDOF 9
ENDMDL
MODEL 3
REMARK VINA RESULT: -4.764363759      2.255      6.141
REMARK  9 active torsions:
REMARK  status: ('A' for Active; 'I' for Inactive)
REMARK    1  A    between atoms: C2_2  and  O1_5 
REMARK    2  A    between atoms: O1_5  and  N1_6 
REMARK    3  A    between atoms: C5_8  and  C6_9 
REMARK    4  A    between atoms: C6_9  and  N2_10 
REMARK    5  A    between atoms: C6_9  and  C12_21 
REMARK    6  A    between atoms: N2_10  and  O2_11 
REMARK    7  A    between atoms: O2_11  and  C7_12 
REMARK    8  A    between atoms: C7_12  and  C8_13 
REMARK    9  A    between atoms: C8_13  and  C9_14 
ROOT
HETATM    1  C6  UNL     1      -6.850 -60.176  -8.139  1.00  0.00     0.235 C 
ENDROOT
BRANCH   1   2
HETATM    2  C5  UNL     1      -8.066 -60.392  -7.359  1.00  0.00     0.119 C 
HETATM    3  N1  UNL     1      -9.171 -60.183  -7.908  1.00  0.00    -0.279 N 
ATOM      4  H1  UNL     1      -9.944 -60.370  -7.269  1.00  0.00     0.193 HD
BRANCH   3   5
HETATM    5  O1  UNL     1      -9.594 -59.801  -9.045  1.00  0.00    -0.271 OA
BRANCH   5   6
HETATM    6  C2  UNL     1      -9.832 -60.126 -10.344  1.00  0.00     0.078 C 
HETATM    7  C1  UNL     1      -9.049 -59.076 -11.191  1.00  0.00     0.048 C 
HETATM    8  C3  UNL     1     -11.242 -60.019 -10.800  1.00  0.00     0.048 C 
HETATM    9  C4  UNL     1      -9.301 -61.490 -10.737  1.00  0.00     0.048 C 
ENDBRANCH   5   6
ENDBRANCH   3   5
ENDBRANCH   1   2
BRANCH   1  10
HETATM   10  N2  UNL     1      -6.370 -58.846  -8.268  1.00  0.00    -0.082 NA
BRANCH  10  11
HETATM   11  O2  UNL     1      -7.184 -57.997  -7.690  1.00  0.00    -0.285 OA
BRANCH  11  12
HETATM   12  C7  UNL     1      -7.417 -56.844  -8.476  1.00  0.00     0.202 C 
BRANCH  12  13
HETATM   13  C8  UNL     1      -8.870 -56.529  -8.046  1.00  0.00     0.086 C 
BRANCH  13  14
HETATM   14  C9  UNL     1      -9.161 -56.833  -6.643  1.00  0.00     0.027 A 
HETATM   15  C10 UNL     1     -10.513 -57.219  -6.284  1.00  0.00     0.114 A 
HETATM   16  N3  UNL     1     -10.587 -57.506  -4.976  1.00  0.00    -0.360 N 
HETATM   17  C11 UNL     1      -9.355 -57.329  -4.479  1.00  0.00     0.180 A 
ATOM     18  H3  UNL     1     -11.417 -57.801  -4.461  1.00  0.00     0.166 HD
HETATM   19  N4  UNL     1      -8.511 -56.922  -5.473  1.00  0.00    -0.355 N 
ATOM     20  H4  UNL     1      -7.521 -56.715  -5.344  1.00  0.00     0.166 HD
ENDBRANCH  13  14
ENDBRANCH  12  13
ENDBRANCH  11  12
ENDBRANCH  10  11
ENDBRANCH   1  10
BRANCH   1  21
HETATM   21  C12 UNL     1      -5.680 -60.965  -7.698  1.00  0.00     0.257 C 
HETATM   22  N5  UNL     1      -5.562 -62.353  -7.665  1.00  0.00    -0.060 NA
HETATM   23  O3  UNL     1      -4.688 -60.235  -7.312  1.00  0.00    -0.275 OA
ENDBRANCH   1  21
TORSDOF 9
ENDMDL
MODEL 4
REMARK VINA RESULT: -4.684959742      1.739      2.260
REMARK  9 active torsions:
REMARK  status: ('A' for Active; 'I' for Inactive)
REMARK    1  A    between atoms: C2_2  and  O1_5 
REMARK    2  A    between atoms: O1_5  and  N1_6 
REMARK    3  A    between atoms: C5_8  and  C6_9 
REMARK    4  A    between atoms: C6_9  and  N2_10 
REMARK    5  A    between atoms: C6_9  and  C12_21 
REMARK    6  A    between atoms: N2_10  and  O2_11 
REMARK    7  A    between atoms: O2_11  and  C7_12 
REMARK    8  A    between atoms: C7_12  and  C8_13 
REMARK    9  A    between atoms: C8_13  and  C9_14 
ROOT
HETATM    1  C6  UNL     1     -10.075 -57.595  -7.400  1.00  0.00     0.235 C 
ENDROOT
BRANCH   1   2
HETATM    2  C5  UNL     1      -9.148 -56.683  -8.067  1.00  0.00     0.119 C 
HETATM    3  N1  UNL     1      -8.329 -56.048  -7.367  1.00  0.00    -0.279 N 
ATOM      4  H1  UNL     1      -7.735 -55.450  -7.941  1.00  0.00     0.193 HD
BRANCH   3   5
HETATM    5  O1  UNL     1      -8.034 -55.944  -6.134  1.00  0.00    -0.271 OA
BRANCH   5   6
HETATM    6  C2  UNL     1      -7.240 -56.358  -5.110  1.00  0.00     0.078 C 
HETATM    7  C1  UNL     1      -6.146 -57.257  -5.763  1.00  0.00     0.048 C 
HETATM    8  C3  UNL     1      -7.887 -57.217  -4.085  1.00  0.00     0.048 C 
HETATM    9  C4  UNL     1      -6.517 -55.228  -4.406  1.00  0.00     0.048 C 
ENDBRANCH   5   6
ENDBRANCH   3   5
ENDBRANCH   1   2
BRANCH   1  10
HETATM   10  N2  UNL     1      -9.536 -58.753  -6.780  1.00  0.00    -0.082 NA
BRANCH  10  11
HETATM   11  O2  UNL     1      -8.386 -59.079  -7.317  1.00  0.00    -0.285 OA
BRANCH  11  12
HETATM   12  C7  UNL     1      -8.261 -60.473  -7.533  1.00  0.00     0.202 C 
BRANCH  12  13
HETATM   13  C8  UNL     1      -8.024 -60.475  -9.063  1.00  0.00     0.086 C 
BRANCH  13  14
HETATM   14  C9  UNL     1      -7.244 -59.337  -9.552  1.00  0.00     0.027 A 
HETATM   15  C10 UNL     1      -7.657 -58.692 -10.786  1.00  0.00     0.114 A 
HETATM   16  N3  UNL     1      -6.864 -57.646 -11.056  1.00  0.00    -0.360 N 
HETATM   17  C11 UNL     1      -5.968 -57.581 -10.061  1.00  0.00     0.180 A 
ATOM     18  H3  UNL     1      -6.930 -57.022 -11.861  1.00  0.00     0.166 HD
HETATM   19  N4  UNL     1      -6.194 -58.594  -9.172  1.00  0.00    -0.355 N 
ATOM     20  H4  UNL     1      -5.640 -58.762  -8.332  1.00  0.00     0.166 HD
ENDBRANCH  13  14
ENDBRANCH  12  13
ENDBRANCH  11  12
ENDBRANCH  10  11
ENDBRANCH   1  10
BRANCH   1  21
HETATM   21  C12 UNL     1     -10.929 -56.969  -6.368  1.00  0.00     0.257 C 
HETATM   22  N5  UNL     1     -11.611 -55.758  -6.458  1.00  0.00    -0.060 NA
HETATM   23  O3  UNL     1     -11.014 -57.666  -5.285  1.00  0.00    -0.275 OA
ENDBRANCH   1  21
TORSDOF 9
ENDMDL
MODEL 5
REMARK VINA RESULT: -4.660590521      2.905      5.233
REMARK  9 active torsions:
REMARK  status: ('A' for Active; 'I' for Inactive)
REMARK    1  A    between atoms: C2_2  and  O1_5 
REMARK    2  A    between atoms: O1_5  and  N1_6 
REMARK    3  A    between atoms: C5_8  and  C6_9 
REMARK    4  A    between atoms: C6_9  and  N2_10 
REMARK    5  A    between atoms: C6_9  and  C12_21 
REMARK    6  A    between atoms: N2_10  and  O2_11 
REMARK    7  A    between atoms: O2_11  and  C7_12 
REMARK    8  A    between atoms: C7_12  and  C8_13 
REMARK    9  A    between atoms: C8_13  and  C9_14 
ROOT
HETATM    1  C6  UNL     1      -8.487 -57.616  -6.112  1.00  0.00     0.235 C 
ENDROOT
BRANCH   1   2
HETATM    2  C5  UNL     1      -9.656 -57.196  -6.881  1.00  0.00     0.119 C 
HETATM    3  N1  UNL     1     -10.023 -57.907  -7.843  1.00  0.00    -0.279 N 
ATOM      4  H1  UNL     1     -10.847 -57.517  -8.299  1.00  0.00     0.193 HD
BRANCH   3   5
HETATM    5  O1  UNL     1      -9.649 -58.983  -8.408  1.00  0.00    -0.271 OA
BRANCH   5   6
HETATM    6  C2  UNL     1      -9.544 -59.691  -9.565  1.00  0.00     0.078 C 
HETATM    7  C1  UNL     1      -8.561 -60.861  -9.255  1.00  0.00     0.048 C 
HETATM    8  C3  UNL     1      -8.943 -58.975 -10.720  1.00  0.00     0.048 C 
HETATM    9  C4  UNL     1     -10.848 -60.320 -10.013  1.00  0.00     0.048 C 
ENDBRANCH   5   6
ENDBRANCH   3   5
ENDBRANCH   1   2
BRANCH   1  10
HETATM   10  N2  UNL     1      -7.203 -57.304  -6.631  1.00  0.00    -0.082 NA
BRANCH  10  11
HETATM   11  O2  UNL     1      -6.748 -58.284  -7.373  1.00  0.00    -0.285 OA
BRANCH  11  12
HETATM   12  C7  UNL     1      -6.267 -57.840  -8.628  1.00  0.00     0.202 C 
BRANCH  12  13
HETATM   13  C8  UNL     1      -5.378 -59.049  -9.005  1.00  0.00     0.086 C 
BRANCH  13  14
HETATM   14  C9  UNL     1      -4.583 -59.580  -7.896  1.00  0.00     0.027 A 
HETATM   15  C10 UNL     1      -4.760 -60.972  -7.520  1.00  0.00     0.114 A 
HETATM   16  N3  UNL     1      -3.924 -61.299  -6.525  1.00  0.00    -0.360 N 
HETATM   17  C11 UNL     1      -3.217 -60.195  -6.245  1.00  0.00     0.180 A 
ATOM     18  H3  UNL     1      -3.842 -62.209  -6.071  1.00  0.00     0.166 HD
HETATM   19  N4  UNL     1      -3.618 -59.173  -7.059  1.00  0.00    -0.355 N 
ATOM     20  H4  UNL     1      -3.234 -58.228  -7.034  1.00  0.00     0.166 HD
ENDBRANCH  13  14
ENDBRANCH  12  13
ENDBRANCH  11  12
ENDBRANCH  10  11
ENDBRANCH   1  10
BRANCH   1  21
HETATM   21  C12 UNL     1      -8.461 -57.141  -4.712  1.00  0.00     0.257 C 
HETATM   22  N5  UNL     1      -7.712 -56.088  -4.191  1.00  0.00    -0.060 NA
HETATM   23  O3  UNL     1      -9.235 -57.816  -3.929  1.00  0.00    -0.275 OA
ENDBRANCH   1  21
TORSDOF 9
ENDMDL
