MODEL 1
REMARK VINA RESULT: -6.411815786      0.000      0.000
REMARK  9 active torsions:
REMARK  status: ('A' for Active; 'I' for Inactive)
REMARK    1  A    between atoms: C2_2  and  C4_4 
REMARK    2  A    between atoms: C12_12  and  N1_13 
REMARK       I    between atoms: N1_13  and  C13_15 
REMARK    3  A    between atoms: C13_15  and  C14_17 
REMARK    4  A    between atoms: C14_17  and  N2_20 
REMARK    5  A    between atoms: N2_20  and  C17_21 
REMARK    6  A    between atoms: C17_21  and  C18_22 
REMARK    7  A    between atoms: C18_22  and  C19_23 
REMARK    8  A    between atoms: C19_23  and  C20_24 
REMARK    9  A    between atoms: C20_24  and  O2_25 
ROOT
HETATM    1  N1  UNL     1      29.204   0.103  -4.382  1.00  0.00    -0.354 N 
ATOM      2  H1  UNL     1      28.939   0.789  -3.674  1.00  0.00     0.162 HD
HETATM    3  C13 UNL     1      29.316   0.534  -5.731  1.00  0.00     0.254 C 
HETATM    4  O1  UNL     1      29.644  -0.339  -6.569  1.00  0.00    -0.271 OA
ENDROOT
BRANCH   3   5
HETATM    5  C14 UNL     1      29.069   1.920  -6.154  1.00  0.00     0.202 C 
HETATM    6  C15 UNL     1      30.021   2.284  -7.222  1.00  0.00     0.057 C 
HETATM    7  C16 UNL     1      29.310   2.816  -4.954  1.00  0.00     0.057 C 
BRANCH   5   8
HETATM    8  N2  UNL     1      27.649   2.149  -6.544  1.00  0.00    -0.044 N 
HETATM    9  C21 UNL     1      27.040   0.917  -6.896  1.00  0.00     0.266 A 
HETATM   10  C22 UNL     1      26.769   0.943  -8.350  1.00  0.00    -0.002 A 
HETATM   11  C23 UNL     1      27.171   2.095  -8.830  1.00  0.00    -0.002 A 
HETATM   12  C24 UNL     1      27.734   2.914  -7.747  1.00  0.00     0.266 A 
BRANCH   8  13
HETATM   13  C17 UNL     1      27.002   2.911  -5.536  1.00  0.00     0.240 C 
BRANCH  13  14
HETATM   14  C18 UNL     1      25.969   3.895  -5.814  1.00  0.00     0.035 C 
BRANCH  14  15
HETATM   15  C19 UNL     1      24.579   3.483  -6.163  1.00  0.00     0.078 C 
BRANCH  15  16
HETATM   16  C20 UNL     1      24.041   2.421  -5.245  1.00  0.00     0.110 C 
HETATM   17  S1  UNL     1      23.658   2.692  -3.691  1.00  0.00    -0.058 SA
BRANCH  16  18
HETATM   18  O2  UNL     1      23.866   1.149  -5.762  1.00  0.00    -0.354 OA
ATOM     19  H2  UNL     1      24.375   0.442  -5.383  1.00  0.00     0.218 HD
ENDBRANCH  16  18
ENDBRANCH  15  16
ENDBRANCH  14  15
ENDBRANCH  13  14
ENDBRANCH   8  13
ENDBRANCH   5   8
ENDBRANCH   3   5
BRANCH   1  20
HETATM   20  C12 UNL     1      29.447  -1.260  -3.963  1.00  0.00     0.089 C 
HETATM   21  C10 UNL     1      30.912  -1.533  -3.812  1.00  0.00     0.013 C 
HETATM   22  C8  UNL     1      31.146  -2.998  -3.567  1.00  0.00    -0.007 C 
HETATM   23  C11 UNL     1      31.457  -0.774  -2.648  1.00  0.00     0.011 C 
HETATM   24  C7  UNL     1      32.162  -3.002  -2.433  1.00  0.00     0.010 C 
HETATM   25  C9  UNL     1      29.894  -3.677  -3.000  1.00  0.00     0.015 C 
HETATM   26  C6  UNL     1      31.634  -1.836  -1.592  1.00  0.00    -0.013 C 
HETATM   27  C5  UNL     1      30.332  -2.251  -0.978  1.00  0.00     0.014 C 
HETATM   28  C4  UNL     1      29.330  -2.761  -1.962  1.00  0.00    -0.035 C 
HETATM   29  C25 UNL     1      28.724  -1.566  -2.677  1.00  0.00     0.035 C 
BRANCH  28  30
HETATM   30  C2  UNL     1      28.232  -3.454  -1.153  1.00  0.00    -0.014 C 
HETATM   31  C1  UNL     1      26.903  -3.397  -1.828  1.00  0.00     0.010 C 
HETATM   32  C3  UNL     1      28.602  -4.880  -0.870  1.00  0.00     0.010 C 
ENDBRANCH  28  30
ENDBRANCH   1  20
TORSDOF 9
ENDMDL
MODEL 2
REMARK VINA RESULT: -6.200993793      1.250      1.381
REMARK  9 active torsions:
REMARK  status: ('A' for Active; 'I' for Inactive)
REMARK    1  A    between atoms: C2_2  and  C4_4 
REMARK    2  A    between atoms: C12_12  and  N1_13 
REMARK       I    between atoms: N1_13  and  C13_15 
REMARK    3  A    between atoms: C13_15  and  C14_17 
REMARK    4  A    between atoms: C14_17  and  N2_20 
REMARK    5  A    between atoms: N2_20  and  C17_21 
REMARK    6  A    between atoms: C17_21  and  C18_22 
REMARK    7  A    between atoms: C18_22  and  C19_23 
REMARK    8  A    between atoms: C19_23  and  C20_24 
REMARK    9  A    between atoms: C20_24  and  O2_25 
ROOT
HETATM    1  N1  UNL     1      28.869   0.167  -4.353  1.00  0.00    -0.354 N 
ATOM      2  H1  UNL     1      28.427   0.762  -3.653  1.00  0.00     0.162 HD
HETATM    3  C13 UNL     1      28.893   0.613  -5.702  1.00  0.00     0.254 C 
HETATM    4  O1  UNL     1      29.447  -0.149  -6.530  1.00  0.00    -0.271 OA
ENDROOT
BRANCH   3   5
HETATM    5  C14 UNL     1      28.310   1.890  -6.134  1.00  0.00     0.202 C 
HETATM    6  C15 UNL     1      29.184   2.508  -7.153  1.00  0.00     0.057 C 
HETATM    7  C16 UNL     1      28.249   2.800  -4.923  1.00  0.00     0.057 C 
BRANCH   5   8
HETATM    8  N2  UNL     1      26.901   1.743  -6.595  1.00  0.00    -0.044 N 
HETATM    9  C21 UNL     1      26.835   0.803  -7.655  1.00  0.00     0.266 A 
HETATM   10  C22 UNL     1      26.483   1.535  -8.892  1.00  0.00    -0.002 A 
HETATM   11  C23 UNL     1      26.340   2.805  -8.599  1.00  0.00    -0.002 A 
HETATM   12  C24 UNL     1      26.584   3.014  -7.165  1.00  0.00     0.266 A 
BRANCH   8  13
HETATM   13  C17 UNL     1      26.064   1.498  -5.475  1.00  0.00     0.240 C 
BRANCH  13  14
HETATM   14  C18 UNL     1      24.636   1.774  -5.465  1.00  0.00     0.035 C 
BRANCH  14  15
HETATM   15  C19 UNL     1      23.966   2.346  -4.262  1.00  0.00     0.078 C 
BRANCH  15  16
HETATM   16  C20 UNL     1      24.731   3.494  -3.664  1.00  0.00     0.110 C 
HETATM   17  S1  UNL     1      24.817   4.964  -4.346  1.00  0.00    -0.058 SA
BRANCH  16  18
HETATM   18  O2  UNL     1      25.391   3.275  -2.466  1.00  0.00    -0.354 OA
ATOM     19  H2  UNL     1      26.312   3.501  -2.421  1.00  0.00     0.218 HD
ENDBRANCH  16  18
ENDBRANCH  15  16
ENDBRANCH  14  15
ENDBRANCH  13  14
ENDBRANCH   8  13
ENDBRANCH   5   8
ENDBRANCH   3   5
BRANCH   1  20
HETATM   20  C12 UNL     1      29.442  -1.091  -3.924  1.00  0.00     0.089 C 
HETATM   21  C10 UNL     1      30.872  -0.927  -3.508  1.00  0.00     0.013 C 
HETATM   22  C8  UNL     1      31.497  -2.270  -3.253  1.00  0.00    -0.007 C 
HETATM   23  C11 UNL     1      30.951  -0.131  -2.247  1.00  0.00     0.011 C 
HETATM   24  C7  UNL     1      32.256  -2.059  -1.950  1.00  0.00     0.010 C 
HETATM   25  C9  UNL     1      30.436  -3.331  -2.944  1.00  0.00     0.015 C 
HETATM   26  C6  UNL     1      31.261  -1.170  -1.198  1.00  0.00    -0.013 C 
HETATM   27  C5  UNL     1      30.063  -1.998  -0.847  1.00  0.00     0.014 C 
HETATM   28  C4  UNL     1      29.450  -2.707  -2.011  1.00  0.00    -0.035 C 
HETATM   29  C25 UNL     1      28.639  -1.695  -2.802  1.00  0.00     0.035 C 
BRANCH  28  30
HETATM   30  C2  UNL     1      28.495  -3.755  -1.436  1.00  0.00    -0.014 C 
HETATM   31  C1  UNL     1      27.067  -3.463  -1.755  1.00  0.00     0.010 C 
HETATM   32  C3  UNL     1      28.858  -5.127  -1.921  1.00  0.00     0.010 C 
ENDBRANCH  28  30
ENDBRANCH   1  20
TORSDOF 9
ENDMDL
MODEL 3
REMARK VINA RESULT: -5.953073558      2.692      7.704
REMARK  9 active torsions:
REMARK  status: ('A' for Active; 'I' for Inactive)
REMARK    1  A    between atoms: C2_2  and  C4_4 
REMARK    2  A    between atoms: C12_12  and  N1_13 
REMARK       I    between atoms: N1_13  and  C13_15 
REMARK    3  A    between atoms: C13_15  and  C14_17 
REMARK    4  A    between atoms: C14_17  and  N2_20 
REMARK    5  A    between atoms: N2_20  and  C17_21 
REMARK    6  A    between atoms: C17_21  and  C18_22 
REMARK    7  A    between atoms: C18_22  and  C19_23 
REMARK    8  A    between atoms: C19_23  and  C20_24 
REMARK    9  A    between atoms: C20_24  and  O2_25 
ROOT
HETATM    1  N1  UNL     1      28.743   1.154  -5.016  1.00  0.00    -0.354 N 
ATOM      2  H1  UNL     1      28.719   1.987  -4.428  1.00  0.00     0.162 HD
HETATM    3  C13 UNL     1      29.710   0.153  -4.730  1.00  0.00     0.254 C 
HETATM    4  O1  UNL     1      29.705  -0.855  -5.476  1.00  0.00    -0.271 OA
ENDROOT
BRANCH   3   5
HETATM    5  C14 UNL     1      30.676   0.262  -3.628  1.00  0.00     0.202 C 
HETATM    6  C15 UNL     1      31.124   1.663  -3.506  1.00  0.00     0.057 C 
HETATM    7  C16 UNL     1      31.868  -0.607  -3.975  1.00  0.00     0.057 C 
BRANCH   5   8
HETATM    8  N2  UNL     1      30.141  -0.287  -2.349  1.00  0.00    -0.044 N 
HETATM    9  C21 UNL     1      29.567   0.757  -1.579  1.00  0.00     0.266 A 
HETATM   10  C22 UNL     1      30.416   0.963  -0.386  1.00  0.00    -0.002 A 
HETATM   11  C23 UNL     1      31.412   0.110  -0.429  1.00  0.00    -0.002 A 
HETATM   12  C24 UNL     1      31.303  -0.718  -1.639  1.00  0.00     0.266 A 
BRANCH   8  13
HETATM   13  C17 UNL     1      29.309  -1.402  -2.629  1.00  0.00     0.240 C 
BRANCH  13  14
HETATM   14  C18 UNL     1      29.421  -2.678  -1.940  1.00  0.00     0.035 C 
BRANCH  14  15
HETATM   15  C19 UNL     1      29.383  -3.969  -2.687  1.00  0.00     0.078 C 
BRANCH  15  16
HETATM   16  C20 UNL     1      30.392  -4.023  -3.800  1.00  0.00     0.110 C 
HETATM   17  S1  UNL     1      31.964  -4.355  -3.567  1.00  0.00    -0.058 SA
BRANCH  16  18
HETATM   18  O2  UNL     1      29.947  -3.778  -5.088  1.00  0.00    -0.354 OA
ATOM     19  H2  UNL     1      30.336  -4.280  -5.794  1.00  0.00     0.218 HD
ENDBRANCH  16  18
ENDBRANCH  15  16
ENDBRANCH  14  15
ENDBRANCH  13  14
ENDBRANCH   8  13
ENDBRANCH   5   8
ENDBRANCH   3   5
BRANCH   1  20
HETATM   20  C12 UNL     1      27.791   1.049  -6.100  1.00  0.00     0.089 C 
HETATM   21  C10 UNL     1      26.418   1.459  -5.665  1.00  0.00     0.013 C 
HETATM   22  C8  UNL     1      25.417   1.159  -6.746  1.00  0.00    -0.007 C 
HETATM   23  C11 UNL     1      26.383   2.927  -5.394  1.00  0.00     0.011 C 
HETATM   24  C7  UNL     1      24.570   2.423  -6.795  1.00  0.00     0.010 C 
HETATM   25  C9  UNL     1      26.091   1.062  -8.119  1.00  0.00     0.015 C 
HETATM   26  C6  UNL     1      25.654   3.485  -6.590  1.00  0.00    -0.013 C 
HETATM   27  C5  UNL     1      26.515   3.520  -7.816  1.00  0.00     0.014 C 
HETATM   28  C4  UNL     1      27.068   2.189  -8.210  1.00  0.00    -0.035 C 
HETATM   29  C25 UNL     1      28.230   1.871  -7.284  1.00  0.00     0.035 C 
BRANCH  28  30
HETATM   30  C2  UNL     1      27.606   2.340  -9.634  1.00  0.00    -0.014 C 
HETATM   31  C1  UNL     1      26.808   1.568 -10.630  1.00  0.00     0.010 C 
HETATM   32  C3  UNL     1      27.662   3.785 -10.030  1.00  0.00     0.010 C 
ENDBRANCH  28  30
ENDBRANCH   1  20
TORSDOF 9
ENDMDL
MODEL 4
REMARK VINA RESULT: -5.924307990      1.919      2.920
REMARK  9 active torsions:
REMARK  status: ('A' for Active; 'I' for Inactive)
REMARK    1  A    between atoms: C2_2  and  C4_4 
REMARK    2  A    between atoms: C12_12  and  N1_13 
REMARK       I    between atoms: N1_13  and  C13_15 
REMARK    3  A    between atoms: C13_15  and  C14_17 
REMARK    4  A    between atoms: C14_17  and  N2_20 
REMARK    5  A    between atoms: N2_20  and  C17_21 
REMARK    6  A    between atoms: C17_21  and  C18_22 
REMARK    7  A    between atoms: C18_22  and  C19_23 
REMARK    8  A    between atoms: C19_23  and  C20_24 
REMARK    9  A    between atoms: C20_24  and  O2_25 
ROOT
HETATM    1  N1  UNL     1      29.099   0.112  -4.331  1.00  0.00    -0.354 N 
ATOM      2  H1  UNL     1      28.795   0.766  -3.610  1.00  0.00     0.162 HD
HETATM    3  C13 UNL     1      29.129   0.559  -5.679  1.00  0.00     0.254 C 
HETATM    4  O1  UNL     1      29.509  -0.276  -6.534  1.00  0.00    -0.271 OA
ENDROOT
BRANCH   3   5
HETATM    5  C14 UNL     1      28.743   1.919  -6.083  1.00  0.00     0.202 C 
HETATM    6  C15 UNL     1      29.720   2.436  -7.062  1.00  0.00     0.057 C 
HETATM    7  C16 UNL     1      28.779   2.792  -4.844  1.00  0.00     0.057 C 
BRANCH   5   8
HETATM    8  N2  UNL     1      27.339   1.986  -6.577  1.00  0.00    -0.044 N 
HETATM    9  C21 UNL     1      26.935   3.340  -6.701  1.00  0.00     0.266 A 
HETATM   10  C22 UNL     1      25.903   3.603  -5.673  1.00  0.00    -0.002 A 
HETATM   11  C23 UNL     1      25.697   2.499  -4.996  1.00  0.00    -0.002 A 
HETATM   12  C24 UNL     1      26.565   1.431  -5.513  1.00  0.00     0.266 A 
BRANCH   8  13
HETATM   13  C17 UNL     1      27.210   1.177  -7.736  1.00  0.00     0.240 C 
BRANCH  13  14
HETATM   14  C18 UNL     1      26.338   1.508  -8.852  1.00  0.00     0.035 C 
BRANCH  14  15
HETATM   15  C19 UNL     1      26.856   1.568 -10.250  1.00  0.00     0.078 C 
BRANCH  15  16
HETATM   16  C20 UNL     1      27.969   2.566 -10.412  1.00  0.00     0.110 C 
HETATM   17  S1  UNL     1      27.747   4.173 -10.347  1.00  0.00    -0.058 SA
BRANCH  16  18
HETATM   18  O2  UNL     1      29.247   2.078 -10.625  1.00  0.00    -0.354 OA
ATOM     19  H2  UNL     1      29.575   2.071 -11.516  1.00  0.00     0.218 HD
ENDBRANCH  16  18
ENDBRANCH  15  16
ENDBRANCH  14  15
ENDBRANCH  13  14
ENDBRANCH   8  13
ENDBRANCH   5   8
ENDBRANCH   3   5
BRANCH   1  20
HETATM   20  C12 UNL     1      29.479  -1.226  -3.932  1.00  0.00     0.089 C 
HETATM   21  C10 UNL     1      30.949  -1.319  -3.660  1.00  0.00     0.013 C 
HETATM   22  C8  UNL     1      31.347  -2.751  -3.436  1.00  0.00    -0.007 C 
HETATM   23  C11 UNL     1      31.293  -0.544  -2.430  1.00  0.00     0.011 C 
HETATM   24  C7  UNL     1      32.257  -2.673  -2.217  1.00  0.00     0.010 C 
HETATM   25  C9  UNL     1      30.150  -3.603  -3.001  1.00  0.00     0.015 C 
HETATM   26  C6  UNL     1      31.515  -1.616  -1.393  1.00  0.00    -0.013 C 
HETATM   27  C5  UNL     1      30.230  -2.215  -0.909  1.00  0.00     0.014 C 
HETATM   28  C4  UNL     1      29.388  -2.807  -1.992  1.00  0.00    -0.035 C 
HETATM   29  C25 UNL     1      28.696  -1.670  -2.724  1.00  0.00     0.035 C 
BRANCH  28  30
HETATM   30  C2  UNL     1      28.324  -3.664  -1.304  1.00  0.00    -0.014 C 
HETATM   31  C1  UNL     1      26.951  -3.395  -1.822  1.00  0.00     0.010 C 
HETATM   32  C3  UNL     1      28.646  -5.122  -1.440  1.00  0.00     0.010 C 
ENDBRANCH  28  30
ENDBRANCH   1  20
TORSDOF 9
ENDMDL
MODEL 5
REMARK VINA RESULT: -5.873265317      2.321      3.860
REMARK  9 active torsions:
REMARK  status: ('A' for Active; 'I' for Inactive)
REMARK    1  A    between atoms: C2_2  and  C4_4 
REMARK    2  A    between atoms: C12_12  and  N1_13 
REMARK       I    between atoms: N1_13  and  C13_15 
REMARK    3  A    between atoms: C13_15  and  C14_17 
REMARK    4  A    between atoms: C14_17  and  N2_20 
REMARK    5  A    between atoms: N2_20  and  C17_21 
REMARK    6  A    between atoms: C17_21  and  C18_22 
REMARK    7  A    between atoms: C18_22  and  C19_23 
REMARK    8  A    between atoms: C19_23  and  C20_24 
REMARK    9  A    between atoms: C20_24  and  O2_25 
ROOT
HETATM    1  N1  UNL     1      28.730  -0.022  -4.326  1.00  0.00    -0.354 N 
ATOM      2  H1  UNL     1      28.282   0.552  -3.612  1.00  0.00     0.162 HD
HETATM    3  C13 UNL     1      28.786   0.475  -5.656  1.00  0.00     0.254 C 
HETATM    4  O1  UNL     1      29.345  -0.262  -6.503  1.00  0.00    -0.271 OA
ENDROOT
BRANCH   3   5
HETATM    5  C14 UNL     1      28.230   1.777  -6.049  1.00  0.00     0.202 C 
HETATM    6  C15 UNL     1      27.187   2.177  -5.083  1.00  0.00     0.057 C 
HETATM    7  C16 UNL     1      27.596   1.612  -7.416  1.00  0.00     0.057 C 
BRANCH   5   8
HETATM    8  N2  UNL     1      29.285   2.816  -6.223  1.00  0.00    -0.044 N 
HETATM    9  C21 UNL     1      30.411   2.497  -5.421  1.00  0.00     0.266 A 
HETATM   10  C22 UNL     1      30.504   3.507  -4.344  1.00  0.00    -0.002 A 
HETATM   11  C23 UNL     1      29.522   4.365  -4.490  1.00  0.00    -0.002 A 
HETATM   12  C24 UNL     1      28.711   3.996  -5.660  1.00  0.00     0.266 A 
BRANCH   8  13
HETATM   13  C17 UNL     1      29.526   3.013  -7.607  1.00  0.00     0.240 C 
BRANCH  13  14
HETATM   14  C18 UNL     1      30.856   3.165  -8.176  1.00  0.00     0.035 C 
BRANCH  14  15
HETATM   15  C19 UNL     1      31.055   3.705  -9.552  1.00  0.00     0.078 C 
BRANCH  15  16
HETATM   16  C20 UNL     1      30.200   3.011 -10.575  1.00  0.00     0.110 C 
HETATM   17  S1  UNL     1      28.805   3.622 -11.138  1.00  0.00    -0.058 SA
BRANCH  16  18
HETATM   18  O2  UNL     1      30.635   1.789 -11.058  1.00  0.00    -0.354 OA
ATOM     19  H2  UNL     1      30.008   1.076 -11.088  1.00  0.00     0.218 HD
ENDBRANCH  16  18
ENDBRANCH  15  16
ENDBRANCH  14  15
ENDBRANCH  13  14
ENDBRANCH   8  13
ENDBRANCH   5   8
ENDBRANCH   3   5
BRANCH   1  20
HETATM   20  C12 UNL     1      29.277  -1.304  -3.937  1.00  0.00     0.089 C 
HETATM   21  C10 UNL     1      30.721  -1.190  -3.556  1.00  0.00     0.013 C 
HETATM   22  C8  UNL     1      31.313  -2.555  -3.343  1.00  0.00    -0.007 C 
HETATM   23  C11 UNL     1      30.856  -0.422  -2.283  1.00  0.00     0.011 C 
HETATM   24  C7  UNL     1      32.111  -2.391  -2.056  1.00  0.00     0.010 C 
HETATM   25  C9  UNL     1      30.229  -3.591  -3.025  1.00  0.00     0.015 C 
HETATM   26  C6  UNL     1      31.162  -1.488  -1.262  1.00  0.00    -0.013 C 
HETATM   27  C5  UNL     1      29.951  -2.289  -0.895  1.00  0.00     0.014 C 
HETATM   28  C4  UNL     1      29.286  -2.957  -2.054  1.00  0.00    -0.035 C 
HETATM   29  C25 UNL     1      28.485  -1.906  -2.805  1.00  0.00     0.035 C 
BRANCH  28  30
HETATM   30  C2  UNL     1      28.316  -3.987  -1.474  1.00  0.00    -0.014 C 
HETATM   31  C1  UNL     1      28.783  -5.389  -1.677  1.00  0.00     0.010 C 
HETATM   32  C3  UNL     1      28.082  -3.732  -0.014  1.00  0.00     0.010 C 
ENDBRANCH  28  30
ENDBRANCH   1  20
TORSDOF 9
ENDMDL
