MODEL 1
REMARK VINA RESULT: -6.749402153      0.000      0.000
REMARK  9 active torsions:
REMARK  status: ('A' for Active; 'I' for Inactive)
REMARK    1  A    between atoms: N1_2  and  C2_4 
REMARK    2  A    between atoms: C2_4  and  O1_5 
REMARK    3  A    between atoms: C2_4  and  C3_7 
REMARK    4  A    between atoms: C3_7  and  C4_8 
REMARK    5  A    between atoms: C3_7  and  N3_23 
REMARK    6  A    between atoms: C4_8  and  C5_9 
REMARK    7  A    between atoms: C5_9  and  C6_10 
REMARK    8  A    between atoms: C6_10  and  N2_11 
REMARK       I    between atoms: N3_23  and  C18_25 
REMARK    9  A    between atoms: C18_25  and  C19_27 
ROOT
HETATM    1  C3  UNL     1      30.642  -3.245  -3.845  1.00  0.00     0.159 C 
ENDROOT
BRANCH   1   2
HETATM    2  C2  UNL     1      31.313  -4.365  -4.460  1.00  0.00     0.134 C 
BRANCH   2   3
HETATM    3  N1  UNL     1      32.561  -4.946  -4.236  1.00  0.00    -0.377 N 
HETATM    4  C1  UNL     1      33.405  -4.547  -3.093  1.00  0.00     0.148 C 
ATOM      5  H1  UNL     1      32.898  -5.664  -4.877  1.00  0.00     0.160 HD
ENDBRANCH   2   3
BRANCH   2   6
HETATM    6  O1  UNL     1      30.626  -4.942  -5.409  1.00  0.00    -0.348 OA
ATOM      7  H1  UNL     1      29.705  -5.053  -5.203  1.00  0.00     0.219 HD
ENDBRANCH   2   6
ENDBRANCH   1   2
BRANCH   1   8
HETATM    8  C4  UNL     1      30.135  -2.105  -4.598  1.00  0.00     0.035 C 
BRANCH   8   9
HETATM    9  C5  UNL     1      30.587  -0.726  -4.243  1.00  0.00     0.030 C 
BRANCH   9  10
HETATM   10  C6  UNL     1      29.416   0.022  -3.655  1.00  0.00     0.237 C 
BRANCH  10  11
HETATM   11  N2  UNL     1      29.004   1.186  -4.423  1.00  0.00    -0.067 N 
HETATM   12  C7  UNL     1      30.093   1.494  -5.315  1.00  0.00     0.273 C 
HETATM   13  C8  UNL     1      27.885   0.686  -5.199  1.00  0.00     0.238 C 
HETATM   14  C9  UNL     1      27.292   1.535  -6.235  1.00  0.00     0.037 C 
HETATM   15  C10 UNL     1      26.133   2.382  -5.780  1.00  0.00    -0.039 A 
HETATM   16  C11 UNL     1      26.472   3.647  -5.105  1.00  0.00     0.010 C 
HETATM   17  C16 UNL     1      24.927   1.641  -5.259  1.00  0.00     0.010 A 
HETATM   18  C17 UNL     1      24.806   2.305  -6.564  1.00  0.00     0.010 A 
HETATM   19  C12 UNL     1      27.867   4.136  -5.223  1.00  0.00     0.003 C 
HETATM   20  C13 UNL     1      28.830   3.647  -4.216  1.00  0.00     0.033 C 
HETATM   21  C14 UNL     1      28.554   2.280  -3.633  1.00  0.00     0.186 C 
HETATM   22  C15 UNL     1      29.123   2.355  -2.219  1.00  0.00     0.040 C 
ENDBRANCH  10  11
ENDBRANCH   9  10
ENDBRANCH   8   9
ENDBRANCH   1   8
BRANCH   1  23
HETATM   23  N3  UNL     1      29.583  -3.778  -2.988  1.00  0.00    -0.348 N 
HETATM   24  C18 UNL     1      29.420  -3.367  -1.654  1.00  0.00     0.226 C 
HETATM   25  O2  UNL     1      30.194  -2.514  -1.150  1.00  0.00    -0.273 OA
ATOM     26  H3  UNL     1      28.941  -4.471  -3.372  1.00  0.00     0.163 HD
BRANCH  24  27
HETATM   27  C19 UNL     1      28.327  -3.939  -0.824  1.00  0.00     0.037 C 
HETATM   28  C20 UNL     1      27.015  -3.590  -1.461  1.00  0.00     0.025 C 
HETATM   29  C21 UNL     1      28.424  -3.324   0.557  1.00  0.00     0.019 C 
HETATM   30  C22 UNL     1      27.255  -3.727   1.427  1.00  0.00     0.001 C 
HETATM   31  C23 UNL     1      27.099  -5.214   1.408  1.00  0.00     0.000 C 
HETATM   32  C24 UNL     1      28.236  -5.921   0.701  1.00  0.00     0.001 C 
HETATM   33  C25 UNL     1      28.424  -5.432  -0.709  1.00  0.00     0.019 C 
ENDBRANCH  24  27
ENDBRANCH   1  23
TORSDOF 9
ENDMDL
MODEL 2
REMARK VINA RESULT: -6.648866359      1.833      2.547
REMARK  9 active torsions:
REMARK  status: ('A' for Active; 'I' for Inactive)
REMARK    1  A    between atoms: N1_2  and  C2_4 
REMARK    2  A    between atoms: C2_4  and  O1_5 
REMARK    3  A    between atoms: C2_4  and  C3_7 
REMARK    4  A    between atoms: C3_7  and  C4_8 
REMARK    5  A    between atoms: C3_7  and  N3_23 
REMARK    6  A    between atoms: C4_8  and  C5_9 
REMARK    7  A    between atoms: C5_9  and  C6_10 
REMARK    8  A    between atoms: C6_10  and  N2_11 
REMARK       I    between atoms: N3_23  and  C18_25 
REMARK    9  A    between atoms: C18_25  and  C19_27 
ROOT
HETATM    1  C3  UNL     1      29.392  -1.270  -3.471  1.00  0.00     0.159 C 
ENDROOT
BRANCH   1   2
HETATM    2  C2  UNL     1      30.371  -2.068  -4.169  1.00  0.00     0.134 C 
BRANCH   2   3
HETATM    3  N1  UNL     1      30.251  -3.170  -5.013  1.00  0.00    -0.377 N 
HETATM    4  C1  UNL     1      30.844  -4.476  -4.667  1.00  0.00     0.148 C 
ATOM      5  H1  UNL     1      29.740  -3.072  -5.891  1.00  0.00     0.160 HD
ENDBRANCH   2   3
BRANCH   2   6
HETATM    6  O1  UNL     1      31.606  -1.689  -3.969  1.00  0.00    -0.348 OA
ATOM      7  H1  UNL     1      31.701  -0.756  -3.815  1.00  0.00     0.219 HD
ENDBRANCH   2   6
ENDBRANCH   1   2
BRANCH   1   8
HETATM    8  C4  UNL     1      28.557  -0.273  -4.130  1.00  0.00     0.035 C 
BRANCH   8   9
HETATM    9  C5  UNL     1      29.111   0.515  -5.272  1.00  0.00     0.030 C 
BRANCH   9  10
HETATM   10  C6  UNL     1      28.996   1.982  -4.939  1.00  0.00     0.237 C 
BRANCH  10  11
HETATM   11  N2  UNL     1      28.436   2.795  -6.005  1.00  0.00    -0.067 N 
HETATM   12  C7  UNL     1      29.257   3.977  -6.092  1.00  0.00     0.273 C 
HETATM   13  C8  UNL     1      28.654   1.981  -7.187  1.00  0.00     0.238 C 
HETATM   14  C9  UNL     1      28.367   2.540  -8.508  1.00  0.00     0.037 C 
HETATM   15  C10 UNL     1      26.976   2.278  -9.024  1.00  0.00    -0.039 A 
HETATM   16  C11 UNL     1      25.918   3.182  -8.543  1.00  0.00     0.010 C 
HETATM   17  C16 UNL     1      26.595   0.831  -9.211  1.00  0.00     0.010 A 
HETATM   18  C17 UNL     1      26.812   1.638 -10.419  1.00  0.00     0.010 A 
HETATM   19  C12 UNL     1      26.337   4.441  -7.883  1.00  0.00     0.003 C 
HETATM   20  C13 UNL     1      26.580   4.379  -6.427  1.00  0.00     0.033 C 
HETATM   21  C14 UNL     1      27.042   3.048  -5.881  1.00  0.00     0.186 C 
HETATM   22  C15 UNL     1      26.487   3.015  -4.459  1.00  0.00     0.040 C 
ENDBRANCH  10  11
ENDBRANCH   9  10
ENDBRANCH   8   9
ENDBRANCH   1   8
BRANCH   1  23
HETATM   23  N3  UNL     1      28.549  -2.180  -2.694  1.00  0.00    -0.348 N 
HETATM   24  C18 UNL     1      29.052  -2.933  -1.620  1.00  0.00     0.226 C 
HETATM   25  O2  UNL     1      30.263  -2.845  -1.290  1.00  0.00    -0.273 OA
ATOM     26  H3  UNL     1      27.564  -2.270  -2.941  1.00  0.00     0.163 HD
BRANCH  24  27
HETATM   27  C19 UNL     1      28.155  -3.843  -0.861  1.00  0.00     0.037 C 
HETATM   28  C20 UNL     1      26.744  -3.600  -1.307  1.00  0.00     0.025 C 
HETATM   29  C21 UNL     1      28.307  -3.522   0.611  1.00  0.00     0.019 C 
HETATM   30  C22 UNL     1      27.313  -4.293   1.453  1.00  0.00     0.001 C 
HETATM   31  C23 UNL     1      27.383  -5.746   1.113  1.00  0.00     0.000 C 
HETATM   32  C24 UNL     1      28.530  -6.086   0.185  1.00  0.00     0.001 C 
HETATM   33  C25 UNL     1      28.489  -5.288  -1.089  1.00  0.00     0.019 C 
ENDBRANCH  24  27
ENDBRANCH   1  23
TORSDOF 9
ENDMDL
MODEL 3
REMARK VINA RESULT: -6.553499080      3.204      7.068
REMARK  9 active torsions:
REMARK  status: ('A' for Active; 'I' for Inactive)
REMARK    1  A    between atoms: N1_2  and  C2_4 
REMARK    2  A    between atoms: C2_4  and  O1_5 
REMARK    3  A    between atoms: C2_4  and  C3_7 
REMARK    4  A    between atoms: C3_7  and  C4_8 
REMARK    5  A    between atoms: C3_7  and  N3_23 
REMARK    6  A    between atoms: C4_8  and  C5_9 
REMARK    7  A    between atoms: C5_9  and  C6_10 
REMARK    8  A    between atoms: C6_10  and  N2_11 
REMARK       I    between atoms: N3_23  and  C18_25 
REMARK    9  A    between atoms: C18_25  and  C19_27 
ROOT
HETATM    1  C3  UNL     1      30.995  -2.991  -3.355  1.00  0.00     0.159 C 
ENDROOT
BRANCH   1   2
HETATM    2  C2  UNL     1      30.313  -2.534  -4.542  1.00  0.00     0.134 C 
BRANCH   2   3
HETATM    3  N1  UNL     1      30.023  -1.258  -5.023  1.00  0.00    -0.377 N 
HETATM    4  C1  UNL     1      29.130  -0.341  -4.288  1.00  0.00     0.148 C 
ATOM      5  H1  UNL     1      30.437  -0.951  -5.903  1.00  0.00     0.160 HD
ENDBRANCH   2   3
BRANCH   2   6
HETATM    6  O1  UNL     1      29.881  -3.498  -5.312  1.00  0.00    -0.348 OA
ATOM      7  H1  UNL     1      30.254  -4.347  -5.109  1.00  0.00     0.219 HD
ENDBRANCH   2   6
ENDBRANCH   1   2
BRANCH   1   8
HETATM    8  C4  UNL     1      32.215  -2.375  -2.849  1.00  0.00     0.035 C 
BRANCH   8   9
HETATM    9  C5  UNL     1      33.538  -3.002  -3.149  1.00  0.00     0.030 C 
BRANCH   9  10
HETATM   10  C6  UNL     1      34.605  -1.942  -3.025  1.00  0.00     0.237 C 
BRANCH  10  11
HETATM   11  N2  UNL     1      35.782  -2.180  -3.843  1.00  0.00    -0.067 N 
HETATM   12  C7  UNL     1      36.924  -1.971  -2.989  1.00  0.00     0.273 C 
HETATM   13  C8  UNL     1      35.682  -3.593  -4.158  1.00  0.00     0.238 C 
HETATM   14  C9  UNL     1      36.791  -4.257  -4.846  1.00  0.00     0.037 C 
HETATM   15  C10 UNL     1      36.688  -4.283  -6.348  1.00  0.00    -0.039 A 
HETATM   16  C11 UNL     1      37.132  -3.070  -7.055  1.00  0.00     0.010 C 
HETATM   17  C16 UNL     1      35.492  -5.001  -6.923  1.00  0.00     0.010 A 
HETATM   18  C17 UNL     1      36.807  -5.639  -7.076  1.00  0.00     0.010 A 
HETATM   19  C12 UNL     1      37.934  -2.084  -6.292  1.00  0.00     0.003 C 
HETATM   20  C13 UNL     1      37.185  -1.054  -5.545  1.00  0.00     0.033 C 
HETATM   21  C14 UNL     1      35.808  -1.446  -5.061  1.00  0.00     0.186 C 
HETATM   22  C15 UNL     1      35.025  -0.135  -5.061  1.00  0.00     0.040 C 
ENDBRANCH  10  11
ENDBRANCH   9  10
ENDBRANCH   8   9
ENDBRANCH   1   8
BRANCH   1  23
HETATM   23  N3  UNL     1      30.006  -3.080  -2.281  1.00  0.00    -0.348 N 
HETATM   24  C18 UNL     1      29.231  -4.232  -2.069  1.00  0.00     0.226 C 
HETATM   25  O2  UNL     1      29.367  -5.239  -2.811  1.00  0.00    -0.273 OA
ATOM     26  H3  UNL     1      29.876  -2.278  -1.664  1.00  0.00     0.163 HD
BRANCH  24  27
HETATM   27  C19 UNL     1      28.239  -4.273  -0.963  1.00  0.00     0.037 C 
HETATM   28  C20 UNL     1      26.941  -3.719  -1.468  1.00  0.00     0.025 C 
HETATM   29  C21 UNL     1      28.773  -3.419   0.170  1.00  0.00     0.019 C 
HETATM   30  C22 UNL     1      27.757  -3.272   1.280  1.00  0.00     0.001 C 
HETATM   31  C23 UNL     1      27.256  -4.619   1.688  1.00  0.00     0.000 C 
HETATM   32  C24 UNL     1      28.015  -5.757   1.040  1.00  0.00     0.001 C 
HETATM   33  C25 UNL     1      28.005  -5.667  -0.462  1.00  0.00     0.019 C 
ENDBRANCH  24  27
ENDBRANCH   1  23
TORSDOF 9
ENDMDL
MODEL 4
REMARK VINA RESULT: -6.510437194      1.242      1.368
REMARK  9 active torsions:
REMARK  status: ('A' for Active; 'I' for Inactive)
REMARK    1  A    between atoms: N1_2  and  C2_4 
REMARK    2  A    between atoms: C2_4  and  O1_5 
REMARK    3  A    between atoms: C2_4  and  C3_7 
REMARK    4  A    between atoms: C3_7  and  C4_8 
REMARK    5  A    between atoms: C3_7  and  N3_23 
REMARK    6  A    between atoms: C4_8  and  C5_9 
REMARK    7  A    between atoms: C5_9  and  C6_10 
REMARK    8  A    between atoms: C6_10  and  N2_11 
REMARK       I    between atoms: N3_23  and  C18_25 
REMARK    9  A    between atoms: C18_25  and  C19_27 
ROOT
HETATM    1  C3  UNL     1      30.869  -2.125  -3.193  1.00  0.00     0.159 C 
ENDROOT
BRANCH   1   2
HETATM    2  C2  UNL     1      32.136  -2.817  -3.188  1.00  0.00     0.134 C 
BRANCH   2   3
HETATM    3  N1  UNL     1      32.461  -4.173  -3.161  1.00  0.00    -0.377 N 
HETATM    4  C1  UNL     1      32.267  -5.037  -4.341  1.00  0.00     0.148 C 
ATOM      5  H1  UNL     1      32.843  -4.576  -2.305  1.00  0.00     0.160 HD
ENDBRANCH   2   3
BRANCH   2   6
HETATM    6  O1  UNL     1      33.175  -2.026  -3.210  1.00  0.00    -0.348 OA
ATOM      7  H1  UNL     1      33.059  -1.255  -3.753  1.00  0.00     0.219 HD
ENDBRANCH   2   6
ENDBRANCH   1   2
BRANCH   1   8
HETATM    8  C4  UNL     1      30.313  -1.485  -4.378  1.00  0.00     0.035 C 
BRANCH   8   9
HETATM    9  C5  UNL     1      29.177  -0.525  -4.234  1.00  0.00     0.030 C 
BRANCH   9  10
HETATM   10  C6  UNL     1      29.713   0.875  -4.406  1.00  0.00     0.237 C 
BRANCH  10  11
HETATM   11  N2  UNL     1      28.976   1.684  -5.363  1.00  0.00    -0.067 N 
HETATM   12  C7  UNL     1      29.750   1.685  -6.579  1.00  0.00     0.273 C 
HETATM   13  C8  UNL     1      27.764   0.916  -5.577  1.00  0.00     0.238 C 
HETATM   14  C9  UNL     1      26.824   1.331  -6.619  1.00  0.00     0.037 C 
HETATM   15  C10 UNL     1      25.728   2.256  -6.159  1.00  0.00    -0.039 A 
HETATM   16  C11 UNL     1      26.073   3.685  -6.067  1.00  0.00     0.010 C 
HETATM   17  C16 UNL     1      24.799   1.716  -5.100  1.00  0.00     0.010 A 
HETATM   18  C17 UNL     1      24.262   1.875  -6.459  1.00  0.00     0.010 A 
HETATM   19  C12 UNL     1      27.318   4.135  -6.734  1.00  0.00     0.003 C 
HETATM   20  C13 UNL     1      28.562   4.056  -5.941  1.00  0.00     0.033 C 
HETATM   21  C14 UNL     1      28.616   2.975  -4.886  1.00  0.00     0.186 C 
HETATM   22  C15 UNL     1      29.520   3.557  -3.802  1.00  0.00     0.040 C 
ENDBRANCH  10  11
ENDBRANCH   9  10
ENDBRANCH   8   9
ENDBRANCH   1   8
BRANCH   1  23
HETATM   23  N3  UNL     1      29.872  -3.018  -2.603  1.00  0.00    -0.348 N 
HETATM   24  C18 UNL     1      29.431  -2.877  -1.277  1.00  0.00     0.226 C 
HETATM   25  O2  UNL     1      29.889  -1.962  -0.545  1.00  0.00    -0.273 OA
ATOM     26  H3  UNL     1      29.485  -3.769  -3.174  1.00  0.00     0.163 HD
BRANCH  24  27
HETATM   27  C19 UNL     1      28.415  -3.811  -0.724  1.00  0.00     0.037 C 
HETATM   28  C20 UNL     1      27.094  -3.508  -1.365  1.00  0.00     0.025 C 
HETATM   29  C21 UNL     1      28.341  -3.582   0.772  1.00  0.00     0.019 C 
HETATM   30  C22 UNL     1      27.219  -4.379   1.400  1.00  0.00     0.001 C 
HETATM   31  C23 UNL     1      27.322  -5.810   0.985  1.00  0.00     0.000 C 
HETATM   32  C24 UNL     1      28.594  -6.120   0.225  1.00  0.00     0.001 C 
HETATM   33  C25 UNL     1      28.760  -5.246  -0.988  1.00  0.00     0.019 C 
ENDBRANCH  24  27
ENDBRANCH   1  23
TORSDOF 9
ENDMDL
MODEL 5
REMARK VINA RESULT: -6.446890333      2.624      5.934
REMARK  9 active torsions:
REMARK  status: ('A' for Active; 'I' for Inactive)
REMARK    1  A    between atoms: N1_2  and  C2_4 
REMARK    2  A    between atoms: C2_4  and  O1_5 
REMARK    3  A    between atoms: C2_4  and  C3_7 
REMARK    4  A    between atoms: C3_7  and  C4_8 
REMARK    5  A    between atoms: C3_7  and  N3_23 
REMARK    6  A    between atoms: C4_8  and  C5_9 
REMARK    7  A    between atoms: C5_9  and  C6_10 
REMARK    8  A    between atoms: C6_10  and  N2_11 
REMARK       I    between atoms: N3_23  and  C18_25 
REMARK    9  A    between atoms: C18_25  and  C19_27 
ROOT
HETATM    1  C3  UNL     1      29.799  -0.743  -2.704  1.00  0.00     0.159 C 
ENDROOT
BRANCH   1   2
HETATM    2  C2  UNL     1      29.303  -0.656  -4.056  1.00  0.00     0.134 C 
BRANCH   2   3
HETATM    3  N1  UNL     1      28.421   0.228  -4.675  1.00  0.00    -0.377 N 
HETATM    4  C1  UNL     1      28.755   0.886  -5.953  1.00  0.00     0.148 C 
ATOM      5  H1  UNL     1      27.522   0.426  -4.234  1.00  0.00     0.160 HD
ENDBRANCH   2   3
BRANCH   2   6
HETATM    6  O1  UNL     1      29.763  -1.585  -4.852  1.00  0.00    -0.348 OA
ATOM      7  H1  UNL     1      30.531  -2.031  -4.517  1.00  0.00     0.219 HD
ENDBRANCH   2   6
ENDBRANCH   1   2
BRANCH   1   8
HETATM    8  C4  UNL     1      30.096   0.426  -1.886  1.00  0.00     0.035 C 
BRANCH   8   9
HETATM    9  C5  UNL     1      31.478   0.622  -1.352  1.00  0.00     0.030 C 
BRANCH   9  10
HETATM   10  C6  UNL     1      32.290   1.354  -2.393  1.00  0.00     0.237 C 
BRANCH  10  11
HETATM   11  N2  UNL     1      33.522   0.682  -2.770  1.00  0.00    -0.067 N 
HETATM   12  C7  UNL     1      34.590   1.616  -2.518  1.00  0.00     0.273 C 
HETATM   13  C8  UNL     1      33.609  -0.404  -1.812  1.00  0.00     0.238 C 
HETATM   14  C9  UNL     1      34.820  -1.225  -1.764  1.00  0.00     0.037 C 
HETATM   15  C10 UNL     1      34.788  -2.462  -2.622  1.00  0.00    -0.039 A 
HETATM   16  C11 UNL     1      35.112  -2.280  -4.046  1.00  0.00     0.010 C 
HETATM   17  C16 UNL     1      33.716  -3.472  -2.297  1.00  0.00     0.010 A 
HETATM   18  C17 UNL     1      35.105  -3.825  -1.969  1.00  0.00     0.010 A 
HETATM   19  C12 UNL     1      35.753  -1.005  -4.448  1.00  0.00     0.003 C 
HETATM   20  C13 UNL     1      34.851   0.116  -4.782  1.00  0.00     0.033 C 
HETATM   21  C14 UNL     1      33.512   0.130  -4.081  1.00  0.00     0.186 C 
HETATM   22  C15 UNL     1      32.575   0.808  -5.079  1.00  0.00     0.040 C 
ENDBRANCH  10  11
ENDBRANCH   9  10
ENDBRANCH   8   9
ENDBRANCH   1   8
BRANCH   1  23
HETATM   23  N3  UNL     1      28.921  -1.650  -1.965  1.00  0.00    -0.348 N 
HETATM   24  C18 UNL     1      29.216  -3.014  -1.805  1.00  0.00     0.226 C 
HETATM   25  O2  UNL     1      30.263  -3.503  -2.302  1.00  0.00    -0.273 OA
ATOM     26  H3  UNL     1      28.066  -1.279  -1.552  1.00  0.00     0.163 HD
BRANCH  24  27
HETATM   27  C19 UNL     1      28.291  -3.895  -1.045  1.00  0.00     0.037 C 
HETATM   28  C20 UNL     1      26.890  -3.619  -1.503  1.00  0.00     0.025 C 
HETATM   29  C21 UNL     1      28.441  -3.564   0.426  1.00  0.00     0.019 C 
HETATM   30  C22 UNL     1      27.423  -4.302   1.267  1.00  0.00     0.001 C 
HETATM   31  C23 UNL     1      27.458  -5.760   0.941  1.00  0.00     0.000 C 
HETATM   32  C24 UNL     1      28.603  -6.136   0.024  1.00  0.00     0.001 C 
HETATM   33  C25 UNL     1      28.590  -5.349  -1.258  1.00  0.00     0.019 C 
ENDBRANCH  24  27
ENDBRANCH   1  23
TORSDOF 9
ENDMDL
