MODEL 1
REMARK VINA RESULT: -7.748007751      0.000      0.000
REMARK  7 active torsions:
REMARK  status: ('A' for Active; 'I' for Inactive)
REMARK       I    between atoms: C3_3  and  N1_5 
REMARK    1  A    between atoms: N1_5  and  C4_7 
REMARK    2  A    between atoms: C4_7  and  C5_8 
REMARK    3  A    between atoms: C5_8  and  C6_9 
REMARK    4  A    between atoms: C6_9  and  N2_10 
REMARK       I    between atoms: N2_10  and  C7_11 
REMARK    5  A    between atoms: N2_10  and  C21_28 
REMARK       I    between atoms: C7_11  and  N3_13 
REMARK    6  A    between atoms: N3_13  and  C8_15 
REMARK    7  A    between atoms: C8_15  and  C11_18 
ROOT
HETATM    1  C1  UNL     1      26.478  -1.997   3.523  1.00  0.00     0.022 C 
HETATM    2  C2  UNL     1      26.995  -2.698   2.686  1.00  0.00    -0.017 C 
HETATM    3  C3  UNL     1      27.611  -3.555   1.688  1.00  0.00     0.295 C 
HETATM    4  O1  UNL     1      28.418  -4.415   2.124  1.00  0.00    -0.258 OA
HETATM    5  N1  UNL     1      27.297  -3.402   0.317  1.00  0.00    -0.350 N 
ATOM      6  H1  UNL     1      26.637  -2.690   0.003  1.00  0.00     0.163 HD
ENDROOT
BRANCH   5   7
HETATM    7  C4  UNL     1      27.943  -4.284  -0.623  1.00  0.00     0.125 C 
BRANCH   7   8
HETATM    8  C5  UNL     1      27.808  -3.797  -2.050  1.00  0.00     0.040 C 
BRANCH   8   9
HETATM    9  C6  UNL     1      28.479  -2.458  -2.128  1.00  0.00     0.129 C 
BRANCH   9  10
HETATM   10  N2  UNL     1      29.519  -2.407  -3.149  1.00  0.00    -0.329 N 
HETATM   11  C7  UNL     1      29.566  -1.336  -4.088  1.00  0.00     0.319 C 
HETATM   12  O2  UNL     1      30.485  -1.387  -4.928  1.00  0.00    -0.247 OA
HETATM   13  N3  UNL     1      28.655  -0.262  -4.108  1.00  0.00    -0.334 N 
ATOM     14  H3  UNL     1      27.944  -0.278  -3.376  1.00  0.00     0.165 HD
BRANCH  13  15
HETATM   15  C8  UNL     1      28.587   0.827  -4.993  1.00  0.00     0.031 C 
HETATM   16  C9  UNL     1      28.987   2.133  -4.183  1.00  0.00     0.038 C 
HETATM   17  C10 UNL     1      29.615   0.720  -6.072  1.00  0.00     0.038 C 
BRANCH  15  18
HETATM   18  C11 UNL     1      27.291   1.236  -5.595  1.00  0.00     0.021 C 
HETATM   19  C12 UNL     1      27.256   1.363  -7.092  1.00  0.00    -0.007 C 
HETATM   20  C13 UNL     1      25.852   0.846  -7.495  1.00  0.00     0.010 C 
HETATM   21  C17 UNL     1      27.292   2.741  -7.649  1.00  0.00     0.010 C 
HETATM   22  C14 UNL     1      24.835   1.684  -6.784  1.00  0.00    -0.013 C 
HETATM   23  C15 UNL     1      24.909   3.103  -7.309  1.00  0.00     0.009 C 
HETATM   24  C20 UNL     1      24.966   1.728  -5.289  1.00  0.00     0.010 C 
HETATM   25  C16 UNL     1      26.302   3.632  -6.979  1.00  0.00    -0.013 C 
HETATM   26  C18 UNL     1      26.395   3.623  -5.484  1.00  0.00     0.010 C 
HETATM   27  C19 UNL     1      26.413   2.216  -4.936  1.00  0.00    -0.007 C 
ENDBRANCH  15  18
ENDBRANCH  13  15
BRANCH  10  28
HETATM   28  C21 UNL     1      30.471  -3.485  -3.136  1.00  0.00     0.088 C 
HETATM   29  C22 UNL     1      31.784  -2.956  -2.550  1.00  0.00     0.025 C 
HETATM   30  C23 UNL     1      32.969  -3.657  -3.142  1.00  0.00     0.002 C 
HETATM   31  C24 UNL     1      32.642  -5.139  -3.178  1.00  0.00     0.000 C 
HETATM   32  C25 UNL     1      31.505  -5.437  -4.126  1.00  0.00     0.002 C 
HETATM   33  C26 UNL     1      30.714  -4.157  -4.441  1.00  0.00     0.025 C 
ENDBRANCH  10  28
ENDBRANCH   9  10
ENDBRANCH   8   9
ENDBRANCH   7   8
ENDBRANCH   5   7
TORSDOF 7
ENDMDL
MODEL 2
REMARK VINA RESULT: -7.744658470      1.443      1.974
REMARK  7 active torsions:
REMARK  status: ('A' for Active; 'I' for Inactive)
REMARK       I    between atoms: C3_3  and  N1_5 
REMARK    1  A    between atoms: N1_5  and  C4_7 
REMARK    2  A    between atoms: C4_7  and  C5_8 
REMARK    3  A    between atoms: C5_8  and  C6_9 
REMARK    4  A    between atoms: C6_9  and  N2_10 
REMARK       I    between atoms: N2_10  and  C7_11 
REMARK    5  A    between atoms: N2_10  and  C21_28 
REMARK       I    between atoms: C7_11  and  N3_13 
REMARK    6  A    between atoms: N3_13  and  C8_15 
REMARK    7  A    between atoms: C8_15  and  C11_18 
ROOT
HETATM    1  C1  UNL     1      27.433  -5.031   1.319  1.00  0.00     0.022 C 
HETATM    2  C2  UNL     1      28.048  -3.997   1.215  1.00  0.00    -0.017 C 
HETATM    3  C3  UNL     1      28.799  -2.759   1.100  1.00  0.00     0.295 C 
HETATM    4  O1  UNL     1      29.090  -2.189   2.183  1.00  0.00    -0.258 OA
HETATM    5  N1  UNL     1      29.165  -2.255  -0.170  1.00  0.00    -0.350 N 
ATOM      6  H1  UNL     1      28.909  -2.747  -1.027  1.00  0.00     0.163 HD
ENDROOT
BRANCH   5   7
HETATM    7  C4  UNL     1      29.910  -1.021  -0.215  1.00  0.00     0.125 C 
BRANCH   7   8
HETATM    8  C5  UNL     1      29.743  -0.301  -1.537  1.00  0.00     0.040 C 
BRANCH   8   9
HETATM    9  C6  UNL     1      30.969  -0.580  -2.353  1.00  0.00     0.129 C 
BRANCH   9  10
HETATM   10  N2  UNL     1      30.665  -1.222  -3.627  1.00  0.00    -0.329 N 
HETATM   11  C7  UNL     1      30.168  -0.462  -4.725  1.00  0.00     0.319 C 
HETATM   12  O2  UNL     1      29.927  -1.103  -5.766  1.00  0.00    -0.247 OA
HETATM   13  N3  UNL     1      29.945   0.928  -4.687  1.00  0.00    -0.334 N 
ATOM     14  H3  UNL     1      30.186   1.386  -3.808  1.00  0.00     0.165 HD
BRANCH  13  15
HETATM   15  C8  UNL     1      29.438   1.772  -5.690  1.00  0.00     0.031 C 
HETATM   16  C9  UNL     1      29.624   3.271  -5.198  1.00  0.00     0.038 C 
HETATM   17  C10 UNL     1      30.247   1.681  -6.943  1.00  0.00     0.038 C 
BRANCH  15  18
HETATM   18  C11 UNL     1      27.994   1.752  -6.040  1.00  0.00     0.021 C 
HETATM   19  C12 UNL     1      27.657   1.813  -7.504  1.00  0.00    -0.007 C 
HETATM   20  C13 UNL     1      26.428   0.884  -7.661  1.00  0.00     0.010 C 
HETATM   21  C17 UNL     1      27.176   3.119  -8.026  1.00  0.00     0.010 C 
HETATM   22  C14 UNL     1      25.348   1.399  -6.760  1.00  0.00    -0.013 C 
HETATM   23  C15 UNL     1      24.895   2.756  -7.257  1.00  0.00     0.009 C 
HETATM   24  C20 UNL     1      25.723   1.529  -5.313  1.00  0.00     0.010 C 
HETATM   25  C16 UNL     1      26.098   3.691  -7.170  1.00  0.00    -0.013 C 
HETATM   26  C18 UNL     1      26.453   3.759  -5.716  1.00  0.00     0.010 C 
HETATM   27  C19 UNL     1      26.992   2.442  -5.213  1.00  0.00    -0.007 C 
ENDBRANCH  15  18
ENDBRANCH  13  15
BRANCH  10  28
HETATM   28  C21 UNL     1      30.902  -2.639  -3.692  1.00  0.00     0.088 C 
HETATM   29  C22 UNL     1      29.601  -3.358  -3.316  1.00  0.00     0.025 C 
HETATM   30  C23 UNL     1      29.876  -4.667  -2.639  1.00  0.00     0.002 C 
HETATM   31  C24 UNL     1      30.979  -5.354  -3.422  1.00  0.00     0.000 C 
HETATM   32  C25 UNL     1      32.282  -4.596  -3.337  1.00  0.00     0.002 C 
HETATM   33  C26 UNL     1      32.036  -3.149  -2.875  1.00  0.00     0.025 C 
ENDBRANCH  10  28
ENDBRANCH   9  10
ENDBRANCH   8   9
ENDBRANCH   7   8
ENDBRANCH   5   7
TORSDOF 7
ENDMDL
MODEL 3
REMARK VINA RESULT: -7.536612364      1.187      1.738
REMARK  7 active torsions:
REMARK  status: ('A' for Active; 'I' for Inactive)
REMARK       I    between atoms: C3_3  and  N1_5 
REMARK    1  A    between atoms: N1_5  and  C4_7 
REMARK    2  A    between atoms: C4_7  and  C5_8 
REMARK    3  A    between atoms: C5_8  and  C6_9 
REMARK    4  A    between atoms: C6_9  and  N2_10 
REMARK       I    between atoms: N2_10  and  C7_11 
REMARK    5  A    between atoms: N2_10  and  C21_28 
REMARK       I    between atoms: C7_11  and  N3_13 
REMARK    6  A    between atoms: N3_13  and  C8_15 
REMARK    7  A    between atoms: C8_15  and  C11_18 
ROOT
HETATM    1  C1  UNL     1      27.631  -6.132   0.962  1.00  0.00     0.022 C 
HETATM    2  C2  UNL     1      27.968  -4.973   0.991  1.00  0.00    -0.017 C 
HETATM    3  C3  UNL     1      28.381  -3.581   1.040  1.00  0.00     0.295 C 
HETATM    4  O1  UNL     1      28.030  -2.940   2.063  1.00  0.00    -0.258 OA
HETATM    5  N1  UNL     1      29.130  -3.016  -0.018  1.00  0.00    -0.350 N 
ATOM      6  H1  UNL     1      29.395  -3.571  -0.832  1.00  0.00     0.163 HD
ENDROOT
BRANCH   5   7
HETATM    7  C4  UNL     1      29.509  -1.629   0.093  1.00  0.00     0.125 C 
BRANCH   7   8
HETATM    8  C5  UNL     1      29.719  -0.984  -1.262  1.00  0.00     0.040 C 
BRANCH   8   9
HETATM    9  C6  UNL     1      29.036  -1.851  -2.277  1.00  0.00     0.129 C 
BRANCH   9  10
HETATM   10  N2  UNL     1      29.752  -1.905  -3.547  1.00  0.00    -0.329 N 
HETATM   11  C7  UNL     1      29.573  -0.887  -4.528  1.00  0.00     0.319 C 
HETATM   12  O2  UNL     1      30.219  -1.027  -5.583  1.00  0.00    -0.247 OA
HETATM   13  N3  UNL     1      28.729   0.229  -4.363  1.00  0.00    -0.334 N 
ATOM     14  H3  UNL     1      28.250   0.287  -3.464  1.00  0.00     0.165 HD
BRANCH  13  15
HETATM   15  C8  UNL     1      28.456   1.274  -5.263  1.00  0.00     0.031 C 
HETATM   16  C9  UNL     1      28.877   2.636  -4.562  1.00  0.00     0.038 C 
HETATM   17  C10 UNL     1      29.319   1.189  -6.478  1.00  0.00     0.038 C 
BRANCH  15  18
HETATM   18  C11 UNL     1      27.060   1.572  -5.676  1.00  0.00     0.021 C 
HETATM   19  C12 UNL     1      26.792   1.613  -7.155  1.00  0.00    -0.007 C 
HETATM   20  C13 UNL     1      25.380   0.992  -7.313  1.00  0.00     0.010 C 
HETATM   21  C17 UNL     1      26.653   2.957  -7.774  1.00  0.00     0.010 C 
HETATM   22  C14 UNL     1      24.429   1.809  -6.494  1.00  0.00    -0.013 C 
HETATM   23  C15 UNL     1      24.329   3.197  -7.090  1.00  0.00     0.009 C 
HETATM   24  C20 UNL     1      24.780   1.944  -5.041  1.00  0.00     0.010 C 
HETATM   25  C16 UNL     1      25.718   3.825  -7.002  1.00  0.00    -0.013 C 
HETATM   26  C18 UNL     1      26.035   3.905  -5.541  1.00  0.00     0.010 C 
HETATM   27  C19 UNL     1      26.228   2.535  -4.938  1.00  0.00    -0.007 C 
ENDBRANCH  15  18
ENDBRANCH  13  15
BRANCH  10  28
HETATM   28  C21 UNL     1      30.632  -3.028  -3.728  1.00  0.00     0.088 C 
HETATM   29  C22 UNL     1      29.857  -4.303  -3.377  1.00  0.00     0.025 C 
HETATM   30  C23 UNL     1      30.762  -5.355  -2.812  1.00  0.00     0.002 C 
HETATM   31  C24 UNL     1      32.011  -5.383  -3.674  1.00  0.00     0.000 C 
HETATM   32  C25 UNL     1      32.797  -4.098  -3.562  1.00  0.00     0.002 C 
HETATM   33  C26 UNL     1      31.919  -2.976  -2.983  1.00  0.00     0.025 C 
ENDBRANCH  10  28
ENDBRANCH   9  10
ENDBRANCH   8   9
ENDBRANCH   7   8
ENDBRANCH   5   7
TORSDOF 7
ENDMDL
MODEL 4
REMARK VINA RESULT: -7.508808726      1.825      2.844
REMARK  7 active torsions:
REMARK  status: ('A' for Active; 'I' for Inactive)
REMARK       I    between atoms: C3_3  and  N1_5 
REMARK    1  A    between atoms: N1_5  and  C4_7 
REMARK    2  A    between atoms: C4_7  and  C5_8 
REMARK    3  A    between atoms: C5_8  and  C6_9 
REMARK    4  A    between atoms: C6_9  and  N2_10 
REMARK       I    between atoms: N2_10  and  C7_11 
REMARK    5  A    between atoms: N2_10  and  C21_28 
REMARK       I    between atoms: C7_11  and  N3_13 
REMARK    6  A    between atoms: N3_13  and  C8_15 
REMARK    7  A    between atoms: C8_15  and  C11_18 
ROOT
HETATM    1  C1  UNL     1      27.287  -2.750   2.819  1.00  0.00     0.022 C 
HETATM    2  C2  UNL     1      28.222  -2.083   2.443  1.00  0.00    -0.017 C 
HETATM    3  C3  UNL     1      29.356  -1.292   1.997  1.00  0.00     0.295 C 
HETATM    4  O1  UNL     1      30.213  -1.017   2.875  1.00  0.00    -0.258 OA
HETATM    5  N1  UNL     1      29.455  -0.874   0.650  1.00  0.00    -0.350 N 
ATOM      6  H1  UNL     1      28.737  -1.117  -0.033  1.00  0.00     0.163 HD
ENDROOT
BRANCH   5   7
HETATM    7  C4  UNL     1      30.606  -0.092   0.273  1.00  0.00     0.125 C 
BRANCH   7   8
HETATM    8  C5  UNL     1      30.783  -0.024  -1.230  1.00  0.00     0.040 C 
BRANCH   8   9
HETATM    9  C6  UNL     1      29.426  -0.191  -1.846  1.00  0.00     0.129 C 
BRANCH   9  10
HETATM   10  N2  UNL     1      29.466  -0.915  -3.111  1.00  0.00    -0.329 N 
HETATM   11  C7  UNL     1      29.577  -0.215  -4.348  1.00  0.00     0.319 C 
HETATM   12  O2  UNL     1      29.591  -0.920  -5.374  1.00  0.00    -0.247 OA
HETATM   13  N3  UNL     1      29.669   1.187  -4.455  1.00  0.00    -0.334 N 
ATOM     14  H3  UNL     1      29.673   1.695  -3.571  1.00  0.00     0.165 HD
BRANCH  13  15
HETATM   15  C8  UNL     1      29.756   1.983  -5.611  1.00  0.00     0.031 C 
HETATM   16  C9  UNL     1      30.458   3.348  -5.203  1.00  0.00     0.038 C 
HETATM   17  C10 UNL     1      30.668   1.376  -6.626  1.00  0.00     0.038 C 
BRANCH  15  18
HETATM   18  C11 UNL     1      28.528   2.471  -6.289  1.00  0.00     0.021 C 
HETATM   19  C12 UNL     1      27.335   2.734  -5.412  1.00  0.00    -0.007 C 
HETATM   20  C13 UNL     1      26.669   3.991  -6.026  1.00  0.00     0.010 C 
HETATM   21  C17 UNL     1      26.251   1.718  -5.435  1.00  0.00     0.010 C 
HETATM   22  C14 UNL     1      26.326   3.676  -7.450  1.00  0.00    -0.013 C 
HETATM   23  C15 UNL     1      25.262   2.600  -7.476  1.00  0.00     0.009 C 
HETATM   24  C20 UNL     1      27.474   3.225  -8.305  1.00  0.00     0.010 C 
HETATM   25  C16 UNL     1      25.863   1.356  -6.829  1.00  0.00    -0.013 C 
HETATM   26  C18 UNL     1      27.021   0.968  -7.696  1.00  0.00     0.010 C 
HETATM   27  C19 UNL     1      28.137   1.980  -7.620  1.00  0.00    -0.007 C 
ENDBRANCH  15  18
ENDBRANCH  13  15
BRANCH  10  28
HETATM   28  C21 UNL     1      29.390  -2.349  -3.022  1.00  0.00     0.088 C 
HETATM   29  C22 UNL     1      28.288  -2.707  -2.019  1.00  0.00     0.025 C 
HETATM   30  C23 UNL     1      28.596  -3.987  -1.303  1.00  0.00     0.002 C 
HETATM   31  C24 UNL     1      29.092  -4.975  -2.342  1.00  0.00     0.000 C 
HETATM   32  C25 UNL     1      30.409  -4.543  -2.941  1.00  0.00     0.002 C 
HETATM   33  C26 UNL     1      30.658  -3.048  -2.678  1.00  0.00     0.025 C 
ENDBRANCH  10  28
ENDBRANCH   9  10
ENDBRANCH   8   9
ENDBRANCH   7   8
ENDBRANCH   5   7
TORSDOF 7
ENDMDL
MODEL 5
REMARK VINA RESULT: -7.369803142      1.462      2.573
REMARK  7 active torsions:
REMARK  status: ('A' for Active; 'I' for Inactive)
REMARK       I    between atoms: C3_3  and  N1_5 
REMARK    1  A    between atoms: N1_5  and  C4_7 
REMARK    2  A    between atoms: C4_7  and  C5_8 
REMARK    3  A    between atoms: C5_8  and  C6_9 
REMARK    4  A    between atoms: C6_9  and  N2_10 
REMARK       I    between atoms: N2_10  and  C7_11 
REMARK    5  A    between atoms: N2_10  and  C21_28 
REMARK       I    between atoms: C7_11  and  N3_13 
REMARK    6  A    between atoms: N3_13  and  C8_15 
REMARK    7  A    between atoms: C8_15  and  C11_18 
ROOT
HETATM    1  C1  UNL     1      27.637  -5.887   0.928  1.00  0.00     0.022 C 
HETATM    2  C2  UNL     1      27.980  -4.736   1.054  1.00  0.00    -0.017 C 
HETATM    3  C3  UNL     1      28.399  -3.355   1.219  1.00  0.00     0.295 C 
HETATM    4  O1  UNL     1      28.084  -2.811   2.308  1.00  0.00    -0.258 OA
HETATM    5  N1  UNL     1      29.117  -2.694   0.195  1.00  0.00    -0.350 N 
ATOM      6  H1  UNL     1      29.354  -3.171  -0.675  1.00  0.00     0.163 HD
ENDROOT
BRANCH   5   7
HETATM    7  C4  UNL     1      29.504  -1.324   0.423  1.00  0.00     0.125 C 
BRANCH   7   8
HETATM    8  C5  UNL     1      29.997  -0.652  -0.842  1.00  0.00     0.040 C 
BRANCH   8   9
HETATM    9  C6  UNL     1      29.229  -1.242  -1.987  1.00  0.00     0.129 C 
BRANCH   9  10
HETATM   10  N2  UNL     1      30.013  -1.316  -3.215  1.00  0.00    -0.329 N 
HETATM   11  C7  UNL     1      30.182  -0.167  -4.041  1.00  0.00     0.319 C 
HETATM   12  O2  UNL     1      30.858  -0.333  -5.074  1.00  0.00    -0.247 OA
HETATM   13  N3  UNL     1      29.638   1.100  -3.753  1.00  0.00    -0.334 N 
ATOM     14  H3  UNL     1      29.114   1.163  -2.879  1.00  0.00     0.165 HD
BRANCH  13  15
HETATM   15  C8  UNL     1      29.715   2.288  -4.500  1.00  0.00     0.031 C 
HETATM   16  C9  UNL     1      29.377   3.494  -3.522  1.00  0.00     0.038 C 
HETATM   17  C10 UNL     1      31.109   2.554  -4.963  1.00  0.00     0.038 C 
BRANCH  15  18
HETATM   18  C11 UNL     1      28.773   2.542  -5.620  1.00  0.00     0.021 C 
HETATM   19  C12 UNL     1      27.347   2.839  -5.245  1.00  0.00    -0.007 C 
HETATM   20  C13 UNL     1      26.889   3.909  -6.268  1.00  0.00     0.010 C 
HETATM   21  C17 UNL     1      26.364   1.739  -5.427  1.00  0.00     0.010 C 
HETATM   22  C14 UNL     1      27.055   3.330  -7.639  1.00  0.00    -0.013 C 
HETATM   23  C15 UNL     1      26.094   2.172  -7.807  1.00  0.00     0.009 C 
HETATM   24  C20 UNL     1      28.437   2.847  -7.973  1.00  0.00     0.010 C 
HETATM   25  C16 UNL     1      26.479   1.115  -6.776  1.00  0.00    -0.013 C 
HETATM   26  C18 UNL     1      27.872   0.693  -7.130  1.00  0.00     0.010 C 
HETATM   27  C19 UNL     1      28.867   1.801  -6.888  1.00  0.00    -0.007 C 
ENDBRANCH  15  18
ENDBRANCH  13  15
BRANCH  10  28
HETATM   28  C21 UNL     1      30.592  -2.597  -3.519  1.00  0.00     0.088 C 
HETATM   29  C22 UNL     1      29.557  -3.678  -3.189  1.00  0.00     0.025 C 
HETATM   30  C23 UNL     1      30.217  -4.949  -2.747  1.00  0.00     0.002 C 
HETATM   31  C24 UNL     1      31.377  -5.205  -3.691  1.00  0.00     0.000 C 
HETATM   32  C25 UNL     1      32.449  -4.150  -3.560  1.00  0.00     0.002 C 
HETATM   33  C26 UNL     1      31.892  -2.898  -2.860  1.00  0.00     0.025 C 
ENDBRANCH  10  28
ENDBRANCH   9  10
ENDBRANCH   8   9
ENDBRANCH   7   8
ENDBRANCH   5   7
TORSDOF 7
ENDMDL
