MODEL 1
REMARK VINA RESULT: -4.954293349      0.000      0.000
REMARK  9 active torsions:
REMARK  status: ('A' for Active; 'I' for Inactive)
REMARK    1  A    between atoms: C2_2  and  C4_4 
REMARK    2  A    between atoms: C4_4  and  C5_5 
REMARK    3  A    between atoms: C5_5  and  C7_7 
REMARK       I    between atoms: N1_10  and  C10_11 
REMARK       I    between atoms: C10_11  and  N2_13 
REMARK       I    between atoms: C11_15  and  N4_17 
REMARK    4  A    between atoms: N4_17  and  C12_19 
REMARK    5  A    between atoms: C12_19  and  C13_20 
REMARK    6  A    between atoms: C13_20  and  C14_21 
REMARK    7  A    between atoms: C14_21  and  N5_22 
REMARK    8  A    between atoms: N5_22  and  C15_23 
REMARK    9  A    between atoms: N5_22  and  C17_25 
ROOT
HETATM    1  C7  UNL     1      30.193  -2.785  -3.130  1.00  0.00     0.011 C 
HETATM    2  C8  UNL     1      28.933  -1.915  -2.941  1.00  0.00     0.033 C 
HETATM    3  C9  UNL     1      29.345  -0.624  -2.394  1.00  0.00     0.098 C 
HETATM    4  N1  UNL     1      29.815   0.351  -3.367  1.00  0.00    -0.328 N 
HETATM    5  C10 UNL     1      29.281   1.651  -3.303  1.00  0.00     0.325 C 
HETATM    6  O1  UNL     1      28.336   1.933  -2.576  1.00  0.00    -0.247 OA
HETATM    7  N2  UNL     1      29.881   2.660  -4.128  1.00  0.00    -0.283 N 
ATOM      8  H2  UNL     1      30.085   2.472  -5.109  1.00  0.00     0.173 HD
HETATM    9  C11 UNL     1      30.164   3.836  -3.600  1.00  0.00     0.192 C 
HETATM   10  N3  UNL     1      30.791   4.782  -4.524  1.00  0.00    -0.063 NA
HETATM   11  N4  UNL     1      29.904   4.284  -2.295  1.00  0.00    -0.364 N 
ATOM     12  H4  UNL     1      29.066   3.953  -1.817  1.00  0.00     0.162 HD
HETATM   13  C19 UNL     1      30.772  -0.135  -4.334  1.00  0.00     0.129 C 
HETATM   14  C20 UNL     1      31.769  -1.031  -3.758  1.00  0.00     0.030 C 
HETATM   15  C21 UNL     1      31.242  -1.898  -2.566  1.00  0.00    -0.029 C 
HETATM   16  C22 UNL     1      32.517  -2.581  -2.103  1.00  0.00     0.016 C 
HETATM   17  C23 UNL     1      30.651  -0.934  -1.628  1.00  0.00    -0.019 C 
HETATM   18  C24 UNL     1      30.213  -1.434  -0.315  1.00  0.00     0.018 C 
HETATM   19  C25 UNL     1      31.425   0.337  -1.397  1.00  0.00     0.018 C 
ENDROOT
BRANCH   1  20
HETATM   20  C5  UNL     1      30.027  -4.151  -2.685  1.00  0.00     0.058 C 
HETATM   21  C6  UNL     1      30.825  -5.305  -3.279  1.00  0.00     0.023 C 
BRANCH  20  22
HETATM   22  C4  UNL     1      29.250  -4.435  -1.727  1.00  0.00    -0.145 C 
BRANCH  22  23
HETATM   23  C2  UNL     1      28.429  -4.784  -0.658  1.00  0.00    -0.030 C 
HETATM   24  C1  UNL     1      27.610  -3.900  -0.164  1.00  0.00     0.027 C 
HETATM   25  C3  UNL     1      28.470  -6.172  -0.050  1.00  0.00     0.056 C 
ENDBRANCH  22  23
ENDBRANCH  20  22
ENDBRANCH   1  20
BRANCH  11  26
HETATM   26  C12 UNL     1      30.803   5.214  -1.596  1.00  0.00     0.124 C 
BRANCH  26  27
HETATM   27  C13 UNL     1      30.434   5.115  -0.080  1.00  0.00     0.050 C 
BRANCH  27  28
HETATM   28  C14 UNL     1      30.286   3.600   0.127  1.00  0.00     0.274 C 
BRANCH  28  29
HETATM   29  N5  UNL     1      29.158   3.306   1.002  1.00  0.00     0.087 N 
BRANCH  29  30
HETATM   30  C15 UNL     1      28.050   4.147   0.914  1.00  0.00     0.268 C 
HETATM   31  C16 UNL     1      26.864   3.437   0.285  1.00  0.00     0.037 C 
ENDBRANCH  29  30
BRANCH  29  32
HETATM   32  C17 UNL     1      28.899   1.886   0.963  1.00  0.00     0.268 C 
HETATM   33  C18 UNL     1      29.265   1.155   2.201  1.00  0.00     0.037 C 
ENDBRANCH  29  32
ENDBRANCH  28  29
ENDBRANCH  27  28
ENDBRANCH  26  27
ENDBRANCH  11  26
TORSDOF 9
ENDMDL
MODEL 2
REMARK VINA RESULT: -4.942466100      0.610      1.265
REMARK  9 active torsions:
REMARK  status: ('A' for Active; 'I' for Inactive)
REMARK    1  A    between atoms: C2_2  and  C4_4 
REMARK    2  A    between atoms: C4_4  and  C5_5 
REMARK    3  A    between atoms: C5_5  and  C7_7 
REMARK       I    between atoms: N1_10  and  C10_11 
REMARK       I    between atoms: C10_11  and  N2_13 
REMARK       I    between atoms: C11_15  and  N4_17 
REMARK    4  A    between atoms: N4_17  and  C12_19 
REMARK    5  A    between atoms: C12_19  and  C13_20 
REMARK    6  A    between atoms: C13_20  and  C14_21 
REMARK    7  A    between atoms: C14_21  and  N5_22 
REMARK    8  A    between atoms: N5_22  and  C15_23 
REMARK    9  A    between atoms: N5_22  and  C17_25 
ROOT
HETATM    1  C7  UNL     1      30.134  -2.784  -3.104  1.00  0.00     0.011 C 
HETATM    2  C8  UNL     1      28.885  -1.904  -2.892  1.00  0.00     0.033 C 
HETATM    3  C9  UNL     1      29.319  -0.611  -2.367  1.00  0.00     0.098 C 
HETATM    4  N1  UNL     1      29.770   0.351  -3.362  1.00  0.00    -0.328 N 
HETATM    5  C10 UNL     1      29.246   1.656  -3.297  1.00  0.00     0.325 C 
HETATM    6  O1  UNL     1      28.322   1.951  -2.548  1.00  0.00    -0.247 OA
HETATM    7  N2  UNL     1      29.832   2.653  -4.146  1.00  0.00    -0.283 N 
ATOM      8  H2  UNL     1      30.010   2.454  -5.130  1.00  0.00     0.173 HD
HETATM    9  C11 UNL     1      30.136   3.832  -3.636  1.00  0.00     0.192 C 
HETATM   10  N3  UNL     1      30.745   4.765  -4.584  1.00  0.00    -0.063 NA
HETATM   11  N4  UNL     1      29.911   4.293  -2.330  1.00  0.00    -0.364 N 
ATOM     12  H4  UNL     1      29.083   3.973  -1.828  1.00  0.00     0.162 HD
HETATM   13  C19 UNL     1      30.700  -0.150  -4.347  1.00  0.00     0.129 C 
HETATM   14  C20 UNL     1      31.705  -1.047  -3.788  1.00  0.00     0.030 C 
HETATM   15  C21 UNL     1      31.202  -1.900  -2.574  1.00  0.00    -0.029 C 
HETATM   16  C22 UNL     1      32.484  -2.586  -2.138  1.00  0.00     0.016 C 
HETATM   17  C23 UNL     1      30.641  -0.922  -1.631  1.00  0.00    -0.019 C 
HETATM   18  C24 UNL     1      30.233  -1.407  -0.304  1.00  0.00     0.018 C 
HETATM   19  C25 UNL     1      31.429   0.345  -1.432  1.00  0.00     0.018 C 
ENDROOT
BRANCH   1  20
HETATM   20  C5  UNL     1      29.970  -4.145  -2.642  1.00  0.00     0.058 C 
HETATM   21  C6  UNL     1      30.763  -5.306  -3.229  1.00  0.00     0.023 C 
BRANCH  20  22
HETATM   22  C4  UNL     1      29.201  -4.418  -1.674  1.00  0.00    -0.145 C 
BRANCH  22  23
HETATM   23  C2  UNL     1      28.389  -4.753  -0.594  1.00  0.00    -0.030 C 
HETATM   24  C1  UNL     1      27.586  -3.858  -0.094  1.00  0.00     0.027 C 
HETATM   25  C3  UNL     1      28.420  -6.139   0.018  1.00  0.00     0.056 C 
ENDBRANCH  22  23
ENDBRANCH  20  22
ENDBRANCH   1  20
BRANCH  11  26
HETATM   26  C12 UNL     1      30.833   5.224  -1.663  1.00  0.00     0.124 C 
BRANCH  26  27
HETATM   27  C13 UNL     1      31.182   4.574  -0.284  1.00  0.00     0.050 C 
BRANCH  27  28
HETATM   28  C14 UNL     1      29.850   3.928   0.125  1.00  0.00     0.274 C 
BRANCH  28  29
HETATM   29  N5  UNL     1      30.074   2.627   0.743  1.00  0.00     0.087 N 
BRANCH  29  30
HETATM   30  C15 UNL     1      30.992   2.572   1.790  1.00  0.00     0.268 C 
HETATM   31  C16 UNL     1      31.103   1.165   2.354  1.00  0.00     0.037 C 
ENDBRANCH  29  30
BRANCH  29  32
HETATM   32  C17 UNL     1      28.796   1.993   0.965  1.00  0.00     0.268 C 
HETATM   33  C18 UNL     1      27.624   2.888   0.803  1.00  0.00     0.037 C 
ENDBRANCH  29  32
ENDBRANCH  28  29
ENDBRANCH  27  28
ENDBRANCH  26  27
ENDBRANCH  11  26
TORSDOF 9
ENDMDL
MODEL 3
REMARK VINA RESULT: -4.916189635      0.937      1.272
REMARK  9 active torsions:
REMARK  status: ('A' for Active; 'I' for Inactive)
REMARK    1  A    between atoms: C2_2  and  C4_4 
REMARK    2  A    between atoms: C4_4  and  C5_5 
REMARK    3  A    between atoms: C5_5  and  C7_7 
REMARK       I    between atoms: N1_10  and  C10_11 
REMARK       I    between atoms: C10_11  and  N2_13 
REMARK       I    between atoms: C11_15  and  N4_17 
REMARK    4  A    between atoms: N4_17  and  C12_19 
REMARK    5  A    between atoms: C12_19  and  C13_20 
REMARK    6  A    between atoms: C13_20  and  C14_21 
REMARK    7  A    between atoms: C14_21  and  N5_22 
REMARK    8  A    between atoms: N5_22  and  C15_23 
REMARK    9  A    between atoms: N5_22  and  C17_25 
ROOT
HETATM    1  C7  UNL     1      30.109  -2.788  -3.094  1.00  0.00     0.011 C 
HETATM    2  C8  UNL     1      28.870  -1.898  -2.859  1.00  0.00     0.033 C 
HETATM    3  C9  UNL     1      29.325  -0.607  -2.348  1.00  0.00     0.098 C 
HETATM    4  N1  UNL     1      29.762   0.349  -3.355  1.00  0.00    -0.328 N 
HETATM    5  C10 UNL     1      29.249   1.657  -3.284  1.00  0.00     0.325 C 
HETATM    6  O1  UNL     1      28.343   1.962  -2.517  1.00  0.00    -0.247 OA
HETATM    7  N2  UNL     1      29.824   2.648  -4.148  1.00  0.00    -0.283 N 
ATOM      8  H2  UNL     1      29.980   2.444  -5.135  1.00  0.00     0.173 HD
HETATM    9  C11 UNL     1      30.147   3.826  -3.649  1.00  0.00     0.192 C 
HETATM   10  N3  UNL     1      30.743   4.752  -4.613  1.00  0.00    -0.063 NA
HETATM   11  N4  UNL     1      29.953   4.293  -2.340  1.00  0.00    -0.364 N 
ATOM     12  H4  UNL     1      29.134   3.981  -1.820  1.00  0.00     0.162 HD
HETATM   13  C19 UNL     1      30.667  -0.163  -4.358  1.00  0.00     0.129 C 
HETATM   14  C20 UNL     1      31.678  -1.065  -3.817  1.00  0.00     0.030 C 
HETATM   15  C21 UNL     1      31.194  -1.910  -2.590  1.00  0.00    -0.029 C 
HETATM   16  C22 UNL     1      32.479  -2.604  -2.178  1.00  0.00     0.016 C 
HETATM   17  C23 UNL     1      30.660  -0.925  -1.639  1.00  0.00    -0.019 C 
HETATM   18  C24 UNL     1      30.276  -1.403  -0.301  1.00  0.00     0.018 C 
HETATM   19  C25 UNL     1      31.461   0.337  -1.461  1.00  0.00     0.018 C 
ENDROOT
BRANCH   1  20
HETATM   20  C5  UNL     1      29.944  -4.146  -2.624  1.00  0.00     0.058 C 
HETATM   21  C6  UNL     1      30.723  -5.314  -3.217  1.00  0.00     0.023 C 
BRANCH  20  22
HETATM   22  C4  UNL     1      29.188  -4.411  -1.644  1.00  0.00    -0.145 C 
BRANCH  22  23
HETATM   23  C2  UNL     1      28.388  -4.740  -0.554  1.00  0.00    -0.030 C 
HETATM   24  C1  UNL     1      27.605  -3.836  -0.037  1.00  0.00     0.027 C 
HETATM   25  C3  UNL     1      28.409  -6.129   0.052  1.00  0.00     0.056 C 
ENDBRANCH  22  23
ENDBRANCH  20  22
ENDBRANCH   1  20
BRANCH  11  26
HETATM   26  C12 UNL     1      30.896   5.220  -1.695  1.00  0.00     0.124 C 
BRANCH  26  27
HETATM   27  C13 UNL     1      31.638   4.388  -0.599  1.00  0.00     0.050 C 
BRANCH  27  28
HETATM   28  C14 UNL     1      30.484   3.650   0.096  1.00  0.00     0.274 C 
BRANCH  28  29
HETATM   29  N5  UNL     1      30.947   3.001   1.317  1.00  0.00     0.087 N 
BRANCH  29  30
HETATM   30  C15 UNL     1      30.213   1.906   1.770  1.00  0.00     0.268 C 
HETATM   31  C16 UNL     1      28.882   1.794   1.046  1.00  0.00     0.037 C 
ENDBRANCH  29  30
BRANCH  29  32
HETATM   32  C17 UNL     1      32.379   2.835   1.239  1.00  0.00     0.268 C 
HETATM   33  C18 UNL     1      32.885   1.556   1.792  1.00  0.00     0.037 C 
ENDBRANCH  29  32
ENDBRANCH  28  29
ENDBRANCH  27  28
ENDBRANCH  26  27
ENDBRANCH  11  26
TORSDOF 9
ENDMDL
MODEL 4
REMARK VINA RESULT: -4.735386684      1.662      2.784
REMARK  9 active torsions:
REMARK  status: ('A' for Active; 'I' for Inactive)
REMARK    1  A    between atoms: C2_2  and  C4_4 
REMARK    2  A    between atoms: C4_4  and  C5_5 
REMARK    3  A    between atoms: C5_5  and  C7_7 
REMARK       I    between atoms: N1_10  and  C10_11 
REMARK       I    between atoms: C10_11  and  N2_13 
REMARK       I    between atoms: C11_15  and  N4_17 
REMARK    4  A    between atoms: N4_17  and  C12_19 
REMARK    5  A    between atoms: C12_19  and  C13_20 
REMARK    6  A    between atoms: C13_20  and  C14_21 
REMARK    7  A    between atoms: C14_21  and  N5_22 
REMARK    8  A    between atoms: N5_22  and  C15_23 
REMARK    9  A    between atoms: N5_22  and  C17_25 
ROOT
HETATM    1  C7  UNL     1      30.138  -2.791  -3.096  1.00  0.00     0.011 C 
HETATM    2  C8  UNL     1      28.885  -1.915  -2.886  1.00  0.00     0.033 C 
HETATM    3  C9  UNL     1      29.312  -0.623  -2.353  1.00  0.00     0.098 C 
HETATM    4  N1  UNL     1      29.766   0.345  -3.341  1.00  0.00    -0.328 N 
HETATM    5  C10 UNL     1      29.238   1.647  -3.273  1.00  0.00     0.325 C 
HETATM    6  O1  UNL     1      28.309   1.936  -2.528  1.00  0.00    -0.247 OA
HETATM    7  N2  UNL     1      29.825   2.650  -4.114  1.00  0.00    -0.283 N 
ATOM      8  H2  UNL     1      30.009   2.456  -5.098  1.00  0.00     0.173 HD
HETATM    9  C11 UNL     1      30.122   3.828  -3.597  1.00  0.00     0.192 C 
HETATM   10  N3  UNL     1      30.734   4.768  -4.538  1.00  0.00    -0.063 NA
HETATM   11  N4  UNL     1      29.889   4.283  -2.290  1.00  0.00    -0.364 N 
ATOM     12  H4  UNL     1      29.059   3.957  -1.794  1.00  0.00     0.162 HD
HETATM   13  C19 UNL     1      30.703  -0.149  -4.323  1.00  0.00     0.129 C 
HETATM   14  C20 UNL     1      31.708  -1.046  -3.763  1.00  0.00     0.030 C 
HETATM   15  C21 UNL     1      31.201  -1.905  -2.556  1.00  0.00    -0.029 C 
HETATM   16  C22 UNL     1      32.482  -2.590  -2.116  1.00  0.00     0.016 C 
HETATM   17  C23 UNL     1      30.632  -0.934  -1.612  1.00  0.00    -0.019 C 
HETATM   18  C24 UNL     1      30.218  -1.426  -0.289  1.00  0.00     0.018 C 
HETATM   19  C25 UNL     1      31.414   0.335  -1.403  1.00  0.00     0.018 C 
ENDROOT
BRANCH   1  20
HETATM   20  C5  UNL     1      29.976  -4.154  -2.641  1.00  0.00     0.058 C 
HETATM   21  C6  UNL     1      30.768  -5.311  -3.236  1.00  0.00     0.023 C 
BRANCH  20  22
HETATM   22  C4  UNL     1      29.209  -4.432  -1.672  1.00  0.00    -0.145 C 
BRANCH  22  23
HETATM   23  C2  UNL     1      28.400  -4.774  -0.593  1.00  0.00    -0.030 C 
HETATM   24  C1  UNL     1      27.592  -3.884  -0.091  1.00  0.00     0.027 C 
HETATM   25  C3  UNL     1      28.440  -6.160   0.018  1.00  0.00     0.056 C 
ENDBRANCH  22  23
ENDBRANCH  20  22
ENDBRANCH   1  20
BRANCH  11  26
HETATM   26  C12 UNL     1      30.805   5.213  -1.614  1.00  0.00     0.124 C 
BRANCH  26  27
HETATM   27  C13 UNL     1      31.769   4.327  -0.760  1.00  0.00     0.050 C 
BRANCH  27  28
HETATM   28  C14 UNL     1      33.145   4.675  -1.347  1.00  0.00     0.274 C 
BRANCH  28  29
HETATM   29  N5  UNL     1      33.758   3.502  -1.958  1.00  0.00     0.087 N 
BRANCH  29  30
HETATM   30  C15 UNL     1      33.941   3.528  -3.339  1.00  0.00     0.268 C 
HETATM   31  C16 UNL     1      33.559   2.201  -3.973  1.00  0.00     0.037 C 
ENDBRANCH  29  30
BRANCH  29  32
HETATM   32  C17 UNL     1      34.895   3.104  -1.160  1.00  0.00     0.268 C 
HETATM   33  C18 UNL     1      34.676   1.894  -0.330  1.00  0.00     0.037 C 
ENDBRANCH  29  32
ENDBRANCH  28  29
ENDBRANCH  27  28
ENDBRANCH  26  27
ENDBRANCH  11  26
TORSDOF 9
ENDMDL
MODEL 5
REMARK VINA RESULT: -4.692240606      2.729      6.435
REMARK  9 active torsions:
REMARK  status: ('A' for Active; 'I' for Inactive)
REMARK    1  A    between atoms: C2_2  and  C4_4 
REMARK    2  A    between atoms: C4_4  and  C5_5 
REMARK    3  A    between atoms: C5_5  and  C7_7 
REMARK       I    between atoms: N1_10  and  C10_11 
REMARK       I    between atoms: C10_11  and  N2_13 
REMARK       I    between atoms: C11_15  and  N4_17 
REMARK    4  A    between atoms: N4_17  and  C12_19 
REMARK    5  A    between atoms: C12_19  and  C13_20 
REMARK    6  A    between atoms: C13_20  and  C14_21 
REMARK    7  A    between atoms: C14_21  and  N5_22 
REMARK    8  A    between atoms: N5_22  and  C15_23 
REMARK    9  A    between atoms: N5_22  and  C17_25 
ROOT
HETATM    1  C7  UNL     1      32.532   0.818  -3.284  1.00  0.00     0.011 C 
HETATM    2  C8  UNL     1      31.263   1.542  -2.788  1.00  0.00     0.033 C 
HETATM    3  C9  UNL     1      30.578   0.668  -1.838  1.00  0.00     0.098 C 
HETATM    4  N1  UNL     1      31.079   0.709  -0.472  1.00  0.00    -0.328 N 
HETATM    5  C10 UNL     1      30.141   0.863   0.566  1.00  0.00     0.325 C 
HETATM    6  O1  UNL     1      28.963   1.122   0.347  1.00  0.00    -0.247 OA
HETATM    7  N2  UNL     1      30.606   0.707   1.914  1.00  0.00    -0.283 N 
ATOM      8  H2  UNL     1      31.465   1.164   2.220  1.00  0.00     0.173 HD
HETATM    9  C11 UNL     1      29.907  -0.034   2.752  1.00  0.00     0.192 C 
HETATM   10  N3  UNL     1      30.482  -0.141   4.094  1.00  0.00    -0.063 NA
HETATM   11  N4  UNL     1      28.685  -0.685   2.520  1.00  0.00    -0.364 N 
ATOM     12  H4  UNL     1      28.008  -0.254   1.891  1.00  0.00     0.162 HD
HETATM   13  C19 UNL     1      32.513   0.618  -0.324  1.00  0.00     0.129 C 
HETATM   14  C20 UNL     1      33.126  -0.351  -1.226  1.00  0.00     0.030 C 
HETATM   15  C21 UNL     1      32.397  -0.495  -2.605  1.00  0.00    -0.029 C 
HETATM   16  C22 UNL     1      33.159  -1.652  -3.227  1.00  0.00     0.016 C 
HETATM   17  C23 UNL     1      30.992  -0.759  -2.265  1.00  0.00    -0.019 C 
HETATM   18  C24 UNL     1      30.076  -1.109  -3.361  1.00  0.00     0.018 C 
HETATM   19  C25 UNL     1      30.745  -1.724  -1.137  1.00  0.00     0.018 C 
ENDROOT
BRANCH   1  20
HETATM   20  C5  UNL     1      32.737   0.921  -4.712  1.00  0.00     0.058 C 
HETATM   21  C6  UNL     1      34.115   0.783  -5.349  1.00  0.00     0.023 C 
BRANCH  20  22
HETATM   22  C4  UNL     1      31.760   1.066  -5.504  1.00  0.00    -0.145 C 
BRANCH  22  23
HETATM   23  C2  UNL     1      30.717   1.214  -6.414  1.00  0.00    -0.030 C 
HETATM   24  C1  UNL     1      29.655   0.469  -6.297  1.00  0.00     0.027 C 
HETATM   25  C3  UNL     1      30.789   2.221  -7.544  1.00  0.00     0.056 C 
ENDBRANCH  22  23
ENDBRANCH  20  22
ENDBRANCH   1  20
BRANCH  11  26
HETATM   26  C12 UNL     1      28.352  -1.968   3.156  1.00  0.00     0.124 C 
BRANCH  26  27
HETATM   27  C13 UNL     1      27.392  -2.704   2.166  1.00  0.00     0.050 C 
BRANCH  27  28
HETATM   28  C14 UNL     1      28.360  -3.248   1.106  1.00  0.00     0.274 C 
BRANCH  28  29
HETATM   29  N5  UNL     1      27.693  -4.215   0.243  1.00  0.00     0.087 N 
BRANCH  29  30
HETATM   30  C15 UNL     1      28.032  -4.200  -1.108  1.00  0.00     0.268 C 
HETATM   31  C16 UNL     1      27.167  -3.224  -1.886  1.00  0.00     0.037 C 
ENDBRANCH  29  30
BRANCH  29  32
HETATM   32  C17 UNL     1      27.696  -5.501   0.900  1.00  0.00     0.268 C 
HETATM   33  C18 UNL     1      28.626  -6.495   0.311  1.00  0.00     0.037 C 
ENDBRANCH  29  32
ENDBRANCH  28  29
ENDBRANCH  27  28
ENDBRANCH  26  27
ENDBRANCH  11  26
TORSDOF 9
ENDMDL
