MODEL 1
REMARK VINA RESULT: -8.040909010      0.000      0.000
REMARK  4 active torsions:
REMARK  status: ('A' for Active; 'I' for Inactive)
REMARK    1  A    between atoms: C2_2  and  C3_3 
REMARK    2  A    between atoms: C6_8  and  O1_9 
REMARK    3  A    between atoms: C10_17  and  O5_18 
REMARK    4  A    between atoms: C10_17  and  C11_20 
ROOT
HETATM    1  C3  UNL     1      -5.725 -26.318 -68.504  1.00  0.00    -0.004 A 
HETATM    2  C4  UNL     1      -6.979 -26.479 -67.961  1.00  0.00     0.044 A 
HETATM    3 BR1  UNL     1      -7.785 -25.208 -66.794  1.00  0.00    -0.049 Br
HETATM    4  C5  UNL     1      -7.700 -27.612 -68.266  1.00  0.00     0.086 A 
HETATM    5 CL1  UNL     1      -9.318 -27.881 -67.598  1.00  0.00    -0.080 Cl
HETATM    6  C6  UNL     1      -7.125 -28.541 -69.111  1.00  0.00     0.103 A 
HETATM    7  C7  UNL     1      -5.875 -28.413 -69.673  1.00  0.00     0.073 A 
HETATM    8  C8  UNL     1      -5.168 -27.270 -69.354  1.00  0.00     0.103 A 
HETATM    9  O2  UNL     1      -3.901 -27.112 -69.897  1.00  0.00    -0.254 OA
HETATM   10  C9  UNL     1      -3.302 -28.036 -70.737  1.00  0.00     0.414 A 
HETATM   11  O3  UNL     1      -2.168 -27.879 -71.216  1.00  0.00    -0.229 OA
HETATM   12  O4  UNL     1      -4.032 -29.171 -71.031  1.00  0.00    -0.255 OA
HETATM   13  C10 UNL     1      -5.339 -29.448 -70.611  1.00  0.00     0.207 A 
ENDROOT
BRANCH  13  14
HETATM   14  O5  UNL     1      -5.345 -30.686 -69.978  1.00  0.00    -0.361 OA
ATOM     15  H5  UNL     1      -5.535 -31.363 -70.617  1.00  0.00     0.213 HD
ENDBRANCH  13  14
BRANCH  13  16
HETATM   16  C11 UNL     1      -6.197 -29.543 -71.871  1.00  0.00     0.070 C 
HETATM   17  C12 UNL     1      -5.849 -30.783 -72.660  1.00  0.00     0.011 C 
ENDBRANCH  13  16
BRANCH   6  18
HETATM   18  O1  UNL     1      -7.890 -29.665 -69.386  1.00  0.00    -0.358 OA
ATOM     19  H1  UNL     1      -7.562 -30.486 -69.037  1.00  0.00     0.217 HD
ENDBRANCH   6  18
BRANCH   1  20
HETATM   20  C2  UNL     1      -4.933 -25.107 -68.193  1.00  0.00     0.038 C 
HETATM   21  C1  UNL     1      -4.055 -25.288 -66.981  1.00  0.00     0.010 C 
ENDBRANCH   1  20
TORSDOF 4
ENDMDL
MODEL 2
REMARK VINA RESULT: -7.871868459      3.009      4.786
REMARK  4 active torsions:
REMARK  status: ('A' for Active; 'I' for Inactive)
REMARK    1  A    between atoms: C2_2  and  C3_3 
REMARK    2  A    between atoms: C6_8  and  O1_9 
REMARK    3  A    between atoms: C10_17  and  O5_18 
REMARK    4  A    between atoms: C10_17  and  C11_20 
ROOT
HETATM    1  C3  UNL     1      -5.405 -28.603 -69.761  1.00  0.00    -0.004 A 
HETATM    2  C4  UNL     1      -6.066 -29.531 -70.534  1.00  0.00     0.044 A 
HETATM    3 BR1  UNL     1      -5.174 -30.770 -71.672  1.00  0.00    -0.049 Br
HETATM    4  C5  UNL     1      -7.441 -29.579 -70.492  1.00  0.00     0.086 A 
HETATM    5 CL1  UNL     1      -8.352 -30.748 -71.463  1.00  0.00    -0.080 Cl
HETATM    6  C6  UNL     1      -8.099 -28.685 -69.670  1.00  0.00     0.103 A 
HETATM    7  C7  UNL     1      -7.472 -27.745 -68.884  1.00  0.00     0.073 A 
HETATM    8  C8  UNL     1      -6.093 -27.713 -68.941  1.00  0.00     0.103 A 
HETATM    9  O2  UNL     1      -5.429 -26.772 -68.167  1.00  0.00    -0.254 OA
HETATM   10  C9  UNL     1      -6.068 -25.859 -67.345  1.00  0.00     0.414 A 
HETATM   11  O3  UNL     1      -5.459 -25.026 -66.657  1.00  0.00    -0.229 OA
HETATM   12  O4  UNL     1      -7.448 -25.913 -67.316  1.00  0.00    -0.255 OA
HETATM   13  C10 UNL     1      -8.256 -26.837 -67.990  1.00  0.00     0.207 A 
ENDROOT
BRANCH  13  14
HETATM   14  O5  UNL     1      -9.186 -26.137 -68.751  1.00  0.00    -0.361 OA
ATOM     15  H5  UNL     1      -8.760 -25.792 -69.526  1.00  0.00     0.213 HD
ENDBRANCH  13  14
BRANCH  13  16
HETATM   16  C11 UNL     1      -9.004 -27.632 -66.921  1.00  0.00     0.070 C 
HETATM   17  C12 UNL     1      -8.619 -27.160 -65.540  1.00  0.00     0.011 C 
ENDBRANCH  13  16
BRANCH   6  18
HETATM   18  O1  UNL     1      -9.483 -28.772 -69.665  1.00  0.00    -0.358 OA
ATOM     19  H1  UNL     1      -9.948 -27.991 -69.387  1.00  0.00     0.217 HD
ENDBRANCH   6  18
BRANCH   1  20
HETATM   20  C2  UNL     1      -3.928 -28.536 -69.787  1.00  0.00     0.038 C 
HETATM   21  C1  UNL     1      -3.413 -27.555 -70.811  1.00  0.00     0.010 C 
ENDBRANCH   1  20
TORSDOF 4
ENDMDL
MODEL 3
REMARK VINA RESULT: -7.864807234      1.557      1.735
REMARK  4 active torsions:
REMARK  status: ('A' for Active; 'I' for Inactive)
REMARK    1  A    between atoms: C2_2  and  C3_3 
REMARK    2  A    between atoms: C6_8  and  O1_9 
REMARK    3  A    between atoms: C10_17  and  O5_18 
REMARK    4  A    between atoms: C10_17  and  C11_20 
ROOT
HETATM    1  C3  UNL     1      -7.347 -26.405 -68.158  1.00  0.00    -0.004 A 
HETATM    2  C4  UNL     1      -8.723 -26.383 -68.161  1.00  0.00     0.044 A 
HETATM    3 BR1  UNL     1      -9.750 -25.016 -67.323  1.00  0.00    -0.049 Br
HETATM    4  C5  UNL     1      -9.406 -27.394 -68.798  1.00  0.00     0.086 A 
HETATM    5 CL1  UNL     1     -11.177 -27.427 -68.838  1.00  0.00    -0.080 Cl
HETATM    6  C6  UNL     1      -8.672 -28.392 -69.410  1.00  0.00     0.103 A 
HETATM    7  C7  UNL     1      -7.297 -28.445 -69.428  1.00  0.00     0.073 A 
HETATM    8  C8  UNL     1      -6.630 -27.423 -68.782  1.00  0.00     0.103 A 
HETATM    9  O2  UNL     1      -5.243 -27.450 -68.773  1.00  0.00    -0.254 OA
HETATM   10  C9  UNL     1      -4.488 -28.445 -69.370  1.00  0.00     0.414 A 
HETATM   11  O3  UNL     1      -3.247 -28.453 -69.356  1.00  0.00    -0.229 OA
HETATM   12  O4  UNL     1      -5.184 -29.457 -70.001  1.00  0.00    -0.255 OA
HETATM   13  C10 UNL     1      -6.574 -29.541 -70.146  1.00  0.00     0.207 A 
ENDROOT
BRANCH  13  14
HETATM   14  O5  UNL     1      -6.996 -30.770 -69.649  1.00  0.00    -0.361 OA
ATOM     15  H5  UNL     1      -7.692 -30.630 -69.019  1.00  0.00     0.213 HD
ENDBRANCH  13  14
BRANCH  13  16
HETATM   16  C11 UNL     1      -6.865 -29.498 -71.645  1.00  0.00     0.070 C 
HETATM   17  C12 UNL     1      -5.869 -30.340 -72.405  1.00  0.00     0.011 C 
ENDBRANCH  13  16
BRANCH   6  18
HETATM   18  O1  UNL     1      -9.406 -29.388 -70.036  1.00  0.00    -0.358 OA
ATOM     19  H1  UNL     1      -9.330 -29.428 -70.982  1.00  0.00     0.217 HD
ENDBRANCH   6  18
BRANCH   1  20
HETATM   20  C2  UNL     1      -6.591 -25.327 -67.482  1.00  0.00     0.038 C 
HETATM   21  C1  UNL     1      -6.316 -25.637 -66.032  1.00  0.00     0.010 C 
ENDBRANCH   1  20
TORSDOF 4
ENDMDL
MODEL 4
REMARK VINA RESULT: -7.854290758      2.340      4.399
REMARK  4 active torsions:
REMARK  status: ('A' for Active; 'I' for Inactive)
REMARK    1  A    between atoms: C2_2  and  C3_3 
REMARK    2  A    between atoms: C6_8  and  O1_9 
REMARK    3  A    between atoms: C10_17  and  O5_18 
REMARK    4  A    between atoms: C10_17  and  C11_20 
ROOT
HETATM    1  C3  UNL     1      -6.961 -28.879 -71.262  1.00  0.00    -0.004 A 
HETATM    2  C4  UNL     1      -8.286 -28.625 -70.988  1.00  0.00     0.044 A 
HETATM    3 BR1  UNL     1      -9.709 -29.745 -71.577  1.00  0.00    -0.049 Br
HETATM    4  C5  UNL     1      -8.615 -27.509 -70.253  1.00  0.00     0.086 A 
HETATM    5 CL1  UNL     1     -10.301 -27.124 -69.868  1.00  0.00    -0.080 Cl
HETATM    6  C6  UNL     1      -7.591 -26.689 -69.821  1.00  0.00     0.103 A 
HETATM    7  C7  UNL     1      -6.257 -26.912 -70.074  1.00  0.00     0.073 A 
HETATM    8  C8  UNL     1      -5.947 -28.036 -70.814  1.00  0.00     0.103 A 
HETATM    9  O2  UNL     1      -4.612 -28.287 -71.095  1.00  0.00    -0.254 OA
HETATM   10  C9  UNL     1      -3.571 -27.473 -70.681  1.00  0.00     0.414 A 
HETATM   11  O3  UNL     1      -2.381 -27.713 -70.938  1.00  0.00    -0.229 OA
HETATM   12  O4  UNL     1      -3.914 -26.353 -69.949  1.00  0.00    -0.255 OA
HETATM   13  C10 UNL     1      -5.203 -25.995 -69.537  1.00  0.00     0.207 A 
ENDROOT
BRANCH  13  14
HETATM   14  O5  UNL     1      -5.461 -24.698 -69.969  1.00  0.00    -0.361 OA
ATOM     15  H5  UNL     1      -5.770 -24.724 -70.867  1.00  0.00     0.213 HD
ENDBRANCH  13  14
BRANCH  13  16
HETATM   16  C11 UNL     1      -5.197 -26.004 -68.009  1.00  0.00     0.070 C 
HETATM   17  C12 UNL     1      -3.950 -25.337 -67.478  1.00  0.00     0.011 C 
ENDBRANCH  13  16
BRANCH   6  18
HETATM   18  O1  UNL     1      -7.974 -25.576 -69.086  1.00  0.00    -0.358 OA
ATOM     19  H1  UNL     1      -8.798 -25.650 -68.619  1.00  0.00     0.217 HD
ENDBRANCH   6  18
BRANCH   1  20
HETATM   20  C2  UNL     1      -6.583 -30.075 -72.047  1.00  0.00     0.038 C 
HETATM   21  C1  UNL     1      -6.275 -31.265 -71.174  1.00  0.00     0.010 C 
ENDBRANCH   1  20
TORSDOF 4
ENDMDL
MODEL 5
REMARK VINA RESULT: -7.821336753      2.841      4.761
REMARK  4 active torsions:
REMARK  status: ('A' for Active; 'I' for Inactive)
REMARK    1  A    between atoms: C2_2  and  C3_3 
REMARK    2  A    between atoms: C6_8  and  O1_9 
REMARK    3  A    between atoms: C10_17  and  O5_18 
REMARK    4  A    between atoms: C10_17  and  C11_20 
ROOT
HETATM    1  C3  UNL     1      -4.661 -28.128 -69.866  1.00  0.00    -0.004 A 
HETATM    2  C4  UNL     1      -5.650 -28.788 -70.558  1.00  0.00     0.044 A 
HETATM    3 BR1  UNL     1      -5.301 -30.179 -71.811  1.00  0.00    -0.049 Br
HETATM    4  C5  UNL     1      -6.964 -28.436 -70.346  1.00  0.00     0.086 A 
HETATM    5 CL1  UNL     1      -8.285 -29.245 -71.207  1.00  0.00    -0.080 Cl
HETATM    6  C6  UNL     1      -7.230 -27.428 -69.440  1.00  0.00     0.103 A 
HETATM    7  C7  UNL     1      -6.267 -26.748 -68.729  1.00  0.00     0.073 A 
HETATM    8  C8  UNL     1      -4.956 -27.115 -68.957  1.00  0.00     0.103 A 
HETATM    9  O2  UNL     1      -3.959 -26.443 -68.264  1.00  0.00    -0.254 OA
HETATM   10  C9  UNL     1      -4.202 -25.423 -67.359  1.00  0.00     0.414 A 
HETATM   11  O3  UNL     1      -3.300 -24.835 -66.745  1.00  0.00    -0.229 OA
HETATM   12  O4  UNL     1      -5.524 -25.075 -67.159  1.00  0.00    -0.255 OA
HETATM   13  C10 UNL     1      -6.641 -25.692 -67.736  1.00  0.00     0.207 A 
ENDROOT
BRANCH  13  14
HETATM   14  O5  UNL     1      -7.405 -24.718 -68.368  1.00  0.00    -0.361 OA
ATOM     15  H5  UNL     1      -8.304 -24.783 -68.069  1.00  0.00     0.213 HD
ENDBRANCH  13  14
BRANCH  13  16
HETATM   16  C11 UNL     1      -7.459 -26.284 -66.590  1.00  0.00     0.070 C 
HETATM   17  C12 UNL     1      -7.230 -25.507 -65.315  1.00  0.00     0.011 C 
ENDBRANCH  13  16
BRANCH   6  18
HETATM   18  O1  UNL     1      -8.568 -27.109 -69.263  1.00  0.00    -0.358 OA
ATOM     19  H1  UNL     1      -8.747 -26.370 -68.693  1.00  0.00     0.217 HD
ENDBRANCH   6  18
BRANCH   1  20
HETATM   20  C2  UNL     1      -3.242 -28.491 -70.075  1.00  0.00     0.038 C 
HETATM   21  C1  UNL     1      -2.609 -27.718 -71.204  1.00  0.00     0.010 C 
ENDBRANCH   1  20
TORSDOF 4
ENDMDL
