MODEL 1
REMARK VINA RESULT: -8.172353091      0.000      0.000
REMARK  4 active torsions:
REMARK  status: ('A' for Active; 'I' for Inactive)
REMARK    1  A    between atoms: N1_2  and  C3_4 
REMARK    2  A    between atoms: C4_5  and  C5_6 
REMARK    3  A    between atoms: C10_15  and  O4_16 
REMARK    4  A    between atoms: N2_20  and  C13_21 
ROOT
HETATM    1  C3  UNL     1      -9.151 -27.817 -69.897  1.00  0.00     0.128 A 
HETATM    2  C4  UNL     1      -8.727 -28.667 -70.942  1.00  0.00     0.135 A 
HETATM    3  C6  UNL     1      -7.402 -28.815 -71.265  1.00  0.00     0.205 A 
HETATM    4  O3  UNL     1      -7.032 -29.578 -72.202  1.00  0.00    -0.286 OA
HETATM    5  C7  UNL     1      -6.503 -28.109 -70.537  1.00  0.00     0.044 A 
HETATM    6  C8  UNL     1      -5.145 -28.234 -70.890  1.00  0.00     0.044 A 
HETATM    7  C9  UNL     1      -4.188 -27.526 -70.219  1.00  0.00     0.068 A 
HETATM    8 CL1  UNL     1      -2.492 -27.662 -70.638  1.00  0.00    -0.081 Cl
HETATM    9  C10 UNL     1      -4.574 -26.707 -69.220  1.00  0.00     0.089 A 
HETATM   10  C11 UNL     1      -5.943 -26.600 -68.883  1.00  0.00     0.069 A 
HETATM   11  C12 UNL     1      -6.927 -27.287 -69.518  1.00  0.00     0.055 A 
HETATM   12  N2  UNL     1      -8.255 -27.122 -69.168  1.00  0.00    -0.308 N 
ENDROOT
BRANCH  12  13
HETATM   13  C13 UNL     1      -8.587 -26.319 -68.041  1.00  0.00     0.109 C 
HETATM   14  C14 UNL     1      -8.491 -27.095 -66.694  1.00  0.00     0.056 C 
HETATM   15  C15 UNL     1      -7.831 -25.003 -67.975  1.00  0.00     0.056 C 
HETATM   16 CL2  UNL     1     -10.274 -25.789 -67.940  1.00  0.00    -0.096 Cl
ENDBRANCH  12  13
BRANCH   1  17
HETATM   17  N1  UNL     1     -10.548 -27.718 -69.832  1.00  0.00    -0.375 N 
HETATM   18  C1  UNL     1     -11.493 -28.519 -69.104  1.00  0.00     0.150 C 
HETATM   19  C2  UNL     1     -11.194 -26.711 -70.696  1.00  0.00     0.150 C 
ENDBRANCH   1  17
BRANCH   2  20
HETATM   20  C5  UNL     1      -9.681 -29.449 -71.678  1.00  0.00     0.217 C 
HETATM   21  O1  UNL     1     -10.001 -30.585 -71.321  1.00  0.00    -0.644 OA
HETATM   22  O2  UNL     1     -10.249 -28.908 -72.813  1.00  0.00    -0.644 OA
ENDBRANCH   2  20
BRANCH   9  23
HETATM   23  O4  UNL     1      -3.647 -25.968 -68.513  1.00  0.00    -0.359 OA
ATOM     24  H4  UNL     1      -3.902 -25.478 -67.741  1.00  0.00     0.217 HD
ENDBRANCH   9  23
TORSDOF 4
ENDMDL
MODEL 2
REMARK VINA RESULT: -7.588331952      2.387      6.218
REMARK  4 active torsions:
REMARK  status: ('A' for Active; 'I' for Inactive)
REMARK    1  A    between atoms: N1_2  and  C3_4 
REMARK    2  A    between atoms: C4_5  and  C5_6 
REMARK    3  A    between atoms: C10_15  and  O4_16 
REMARK    4  A    between atoms: N2_20  and  C13_21 
ROOT
HETATM    1  C3  UNL     1      -5.711 -27.869 -69.613  1.00  0.00     0.128 A 
HETATM    2  C4  UNL     1      -6.011 -26.672 -68.927  1.00  0.00     0.135 A 
HETATM    3  C6  UNL     1      -7.303 -26.251 -68.732  1.00  0.00     0.205 A 
HETATM    4  O3  UNL     1      -7.562 -25.179 -68.116  1.00  0.00    -0.286 OA
HETATM    5  C7  UNL     1      -8.291 -27.035 -69.226  1.00  0.00     0.044 A 
HETATM    6  C8  UNL     1      -9.616 -26.587 -69.055  1.00  0.00     0.044 A 
HETATM    7  C9  UNL     1     -10.661 -27.312 -69.558  1.00  0.00     0.068 A 
HETATM    8 CL1  UNL     1     -12.318 -26.777 -69.361  1.00  0.00    -0.081 Cl
HETATM    9  C10 UNL     1     -10.394 -28.456 -70.218  1.00  0.00     0.089 A 
HETATM   10  C11 UNL     1      -9.055 -28.885 -70.375  1.00  0.00     0.069 A 
HETATM   11  C12 UNL     1      -7.987 -28.201 -69.889  1.00  0.00     0.055 A 
HETATM   12  N2  UNL     1      -6.696 -28.652 -70.097  1.00  0.00    -0.308 N 
ENDROOT
BRANCH  12  13
HETATM   13  C13 UNL     1      -6.486 -29.916 -70.715  1.00  0.00     0.109 C 
HETATM   14  C14 UNL     1      -6.025 -29.797 -72.198  1.00  0.00     0.056 C 
HETATM   15  C15 UNL     1      -5.577 -30.844 -69.927  1.00  0.00     0.056 C 
HETATM   16 CL2  UNL     1      -7.931 -30.912 -70.948  1.00  0.00    -0.096 Cl
ENDBRANCH  12  13
BRANCH   1  17
HETATM   17  N1  UNL     1      -4.332 -28.031 -69.810  1.00  0.00    -0.375 N 
HETATM   18  C1  UNL     1      -3.325 -28.517 -68.907  1.00  0.00     0.150 C 
HETATM   19  C2  UNL     1      -3.775 -27.560 -71.094  1.00  0.00     0.150 C 
ENDBRANCH   1  17
BRANCH   2  20
HETATM   20  C5  UNL     1      -4.961 -25.870 -68.363  1.00  0.00     0.217 C 
HETATM   21  O1  UNL     1      -4.309 -25.080 -69.051  1.00  0.00    -0.644 OA
HETATM   22  O2  UNL     1      -4.679 -25.993 -67.019  1.00  0.00    -0.644 OA
ENDBRANCH   2  20
BRANCH   9  23
HETATM   23  O4  UNL     1     -11.412 -29.222 -70.746  1.00  0.00    -0.359 OA
ATOM     24  H4  UNL     1     -12.311 -29.099 -70.465  1.00  0.00     0.217 HD
ENDBRANCH   9  23
TORSDOF 4
ENDMDL
MODEL 3
REMARK VINA RESULT: -7.424553661      2.203      4.573
REMARK  4 active torsions:
REMARK  status: ('A' for Active; 'I' for Inactive)
REMARK    1  A    between atoms: N1_2  and  C3_4 
REMARK    2  A    between atoms: C4_5  and  C5_6 
REMARK    3  A    between atoms: C10_15  and  O4_16 
REMARK    4  A    between atoms: N2_20  and  C13_21 
ROOT
HETATM    1  C3  UNL     1      -7.927 -26.473 -67.884  1.00  0.00     0.128 A 
HETATM    2  C4  UNL     1      -6.834 -25.768 -67.334  1.00  0.00     0.135 A 
HETATM    3  C6  UNL     1      -5.560 -25.906 -67.826  1.00  0.00     0.205 A 
HETATM    4  O3  UNL     1      -4.588 -25.271 -67.328  1.00  0.00    -0.286 OA
HETATM    5  C7  UNL     1      -5.387 -26.752 -68.870  1.00  0.00     0.044 A 
HETATM    6  C8  UNL     1      -4.075 -26.920 -69.354  1.00  0.00     0.044 A 
HETATM    7  C9  UNL     1      -3.823 -27.783 -70.384  1.00  0.00     0.068 A 
HETATM    8 CL1  UNL     1      -2.200 -28.012 -71.004  1.00  0.00    -0.081 Cl
HETATM    9  C10 UNL     1      -4.853 -28.466 -70.919  1.00  0.00     0.089 A 
HETATM   10  C11 UNL     1      -6.163 -28.279 -70.417  1.00  0.00     0.069 A 
HETATM   11  C12 UNL     1      -6.460 -27.430 -69.400  1.00  0.00     0.055 A 
HETATM   12  N2  UNL     1      -7.755 -27.308 -68.928  1.00  0.00    -0.308 N 
ENDROOT
BRANCH  12  13
HETATM   13  C13 UNL     1      -8.812 -27.981 -69.600  1.00  0.00     0.109 C 
HETATM   14  C14 UNL     1      -9.495 -27.103 -70.690  1.00  0.00     0.056 C 
HETATM   15  C15 UNL     1      -8.425 -29.344 -70.150  1.00  0.00     0.056 C 
HETATM   16 CL2  UNL     1     -10.235 -28.362 -68.616  1.00  0.00    -0.096 Cl
ENDBRANCH  12  13
BRANCH   1  17
HETATM   17  N1  UNL     1      -9.103 -26.281 -67.143  1.00  0.00    -0.375 N 
HETATM   18  C1  UNL     1     -10.154 -25.319 -67.321  1.00  0.00     0.150 C 
HETATM   19  C2  UNL     1      -9.283 -27.114 -65.938  1.00  0.00     0.150 C 
ENDBRANCH   1  17
BRANCH   2  20
HETATM   20  C5  UNL     1      -7.032 -24.837 -66.258  1.00  0.00     0.217 C 
HETATM   21  O1  UNL     1      -7.364 -23.667 -66.467  1.00  0.00    -0.644 OA
HETATM   22  O2  UNL     1      -6.844 -25.269 -64.962  1.00  0.00    -0.644 OA
ENDBRANCH   2  20
BRANCH   9  23
HETATM   23  O4  UNL     1      -4.652 -29.351 -71.959  1.00  0.00    -0.359 OA
ATOM     24  H4  UNL     1      -3.776 -29.548 -72.268  1.00  0.00     0.217 HD
ENDBRANCH   9  23
TORSDOF 4
ENDMDL
MODEL 4
REMARK VINA RESULT: -7.407579690      2.487      4.248
REMARK  4 active torsions:
REMARK  status: ('A' for Active; 'I' for Inactive)
REMARK    1  A    between atoms: N1_2  and  C3_4 
REMARK    2  A    between atoms: C4_5  and  C5_6 
REMARK    3  A    between atoms: C10_15  and  O4_16 
REMARK    4  A    between atoms: N2_20  and  C13_21 
ROOT
HETATM    1  C3  UNL     1      -8.915 -28.268 -70.384  1.00  0.00     0.128 A 
HETATM    2  C4  UNL     1      -7.554 -28.457 -70.059  1.00  0.00     0.135 A 
HETATM    3  C6  UNL     1      -6.964 -27.813 -69.000  1.00  0.00     0.205 A 
HETATM    4  O3  UNL     1      -5.746 -27.989 -68.716  1.00  0.00    -0.286 OA
HETATM    5  C7  UNL     1      -7.744 -26.981 -68.269  1.00  0.00     0.044 A 
HETATM    6  C8  UNL     1      -7.132 -26.294 -67.202  1.00  0.00     0.044 A 
HETATM    7  C9  UNL     1      -7.851 -25.413 -66.443  1.00  0.00     0.068 A 
HETATM    8 CL1  UNL     1      -7.113 -24.545 -65.112  1.00  0.00    -0.081 Cl
HETATM    9  C10 UNL     1      -9.150 -25.218 -66.741  1.00  0.00     0.089 A 
HETATM   10  C11 UNL     1      -9.743 -25.920 -67.816  1.00  0.00     0.069 A 
HETATM   11  C12 UNL     1      -9.070 -26.808 -68.593  1.00  0.00     0.055 A 
HETATM   12  N2  UNL     1      -9.691 -27.445 -69.651  1.00  0.00    -0.308 N 
ENDROOT
BRANCH  12  13
HETATM   13  C13 UNL     1     -11.089 -27.271 -69.851  1.00  0.00     0.109 C 
HETATM   14  C14 UNL     1     -11.432 -26.671 -71.247  1.00  0.00     0.056 C 
HETATM   15  C15 UNL     1     -11.913 -28.516 -69.567  1.00  0.00     0.056 C 
HETATM   16 CL2  UNL     1     -11.872 -26.059 -68.825  1.00  0.00    -0.096 Cl
ENDBRANCH  12  13
BRANCH   1  17
HETATM   17  N1  UNL     1      -9.266 -28.918 -71.577  1.00  0.00    -0.375 N 
HETATM   18  C1  UNL     1      -9.329 -28.406 -72.918  1.00  0.00     0.150 C 
HETATM   19  C2  UNL     1      -9.736 -30.313 -71.471  1.00  0.00     0.150 C 
ENDBRANCH   1  17
BRANCH   2  20
HETATM   20  C5  UNL     1      -6.745 -29.378 -70.809  1.00  0.00     0.217 C 
HETATM   21  O1  UNL     1      -6.138 -29.029 -71.824  1.00  0.00    -0.644 OA
HETATM   22  O2  UNL     1      -6.651 -30.684 -70.376  1.00  0.00    -0.644 OA
ENDBRANCH   2  20
BRANCH   9  23
HETATM   23  O4  UNL     1      -9.919 -24.337 -66.007  1.00  0.00    -0.359 OA
ATOM     24  H4  UNL     1     -10.532 -23.752 -66.436  1.00  0.00     0.217 HD
ENDBRANCH   9  23
TORSDOF 4
ENDMDL
MODEL 5
REMARK VINA RESULT: -7.358960253      1.966      2.979
REMARK  4 active torsions:
REMARK  status: ('A' for Active; 'I' for Inactive)
REMARK    1  A    between atoms: N1_2  and  C3_4 
REMARK    2  A    between atoms: C4_5  and  C5_6 
REMARK    3  A    between atoms: C10_15  and  O4_16 
REMARK    4  A    between atoms: N2_20  and  C13_21 
ROOT
HETATM    1  C3  UNL     1      -8.223 -28.515 -70.301  1.00  0.00     0.128 A 
HETATM    2  C4  UNL     1      -6.899 -28.905 -70.597  1.00  0.00     0.135 A 
HETATM    3  C6  UNL     1      -5.817 -28.321 -69.987  1.00  0.00     0.205 A 
HETATM    4  O3  UNL     1      -4.635 -28.677 -70.258  1.00  0.00    -0.286 OA
HETATM    5  C7  UNL     1      -6.068 -27.347 -69.080  1.00  0.00     0.044 A 
HETATM    6  C8  UNL     1      -4.957 -26.723 -68.477  1.00  0.00     0.044 A 
HETATM    7  C9  UNL     1      -5.136 -25.710 -67.578  1.00  0.00     0.068 A 
HETATM    8 CL1  UNL     1      -3.772 -24.917 -66.815  1.00  0.00    -0.081 Cl
HETATM    9  C10 UNL     1      -6.393 -25.323 -67.285  1.00  0.00     0.089 A 
HETATM   10  C11 UNL     1      -7.493 -25.965 -67.901  1.00  0.00     0.069 A 
HETATM   11  C12 UNL     1      -7.363 -26.978 -68.797  1.00  0.00     0.055 A 
HETATM   12  N2  UNL     1      -8.471 -27.551 -69.392  1.00  0.00    -0.308 N 
ENDROOT
BRANCH  12  13
HETATM   13  C13 UNL     1      -9.773 -27.165 -68.968  1.00  0.00     0.109 C 
HETATM   14  C14 UNL     1     -10.707 -26.775 -70.152  1.00  0.00     0.056 C 
HETATM   15  C15 UNL     1     -10.443 -28.168 -68.043  1.00  0.00     0.056 C 
HETATM   16 CL2  UNL     1      -9.868 -25.666 -68.030  1.00  0.00    -0.096 Cl
ENDBRANCH  12  13
BRANCH   1  17
HETATM   17  N1  UNL     1      -9.156 -29.148 -71.135  1.00  0.00    -0.375 N 
HETATM   18  C1  UNL     1      -9.866 -30.383 -70.949  1.00  0.00     0.150 C 
HETATM   19  C2  UNL     1      -9.411 -28.531 -72.452  1.00  0.00     0.150 C 
ENDBRANCH   1  17
BRANCH   2  20
HETATM   20  C5  UNL     1      -6.641 -29.972 -71.524  1.00  0.00     0.217 C 
HETATM   21  O1  UNL     1      -6.373 -29.751 -72.707  1.00  0.00    -0.644 OA
HETATM   22  O2  UNL     1      -6.697 -31.273 -71.072  1.00  0.00    -0.644 OA
ENDBRANCH   2  20
BRANCH   9  23
HETATM   23  O4  UNL     1      -6.628 -24.303 -66.386  1.00  0.00    -0.359 OA
ATOM     24  H4  UNL     1      -6.570 -24.455 -65.450  1.00  0.00     0.217 HD
ENDBRANCH   9  23
TORSDOF 4
ENDMDL
