MODEL 1
REMARK VINA RESULT: -9.021581322      0.000      0.000
REMARK  4 active torsions:
REMARK  status: ('A' for Active; 'I' for Inactive)
REMARK    1  A    between atoms: C4_4  and  N1_5 
REMARK       I    between atoms: N1_5  and  C5_7 
REMARK    2  A    between atoms: C5_7  and  C6_9 
REMARK    3  A    between atoms: C10_17  and  N2_18 
REMARK    4  A    between atoms: N2_18  and  N3_20 
ROOT
HETATM    1  C6  UNL     1      -6.205 -27.058 -68.901  1.00  0.00     0.106 A 
HETATM    2  S1  UNL     1      -7.203 -28.394 -69.242  1.00  0.00    -0.038 SA
HETATM    3  C7  UNL     1      -6.470 -29.510 -70.296  1.00  0.00     0.237 A 
HETATM    4  O2  UNL     1      -7.058 -30.576 -70.670  1.00  0.00    -0.278 OA
HETATM    5  C8  UNL     1      -5.201 -29.174 -70.710  1.00  0.00     0.115 A 
HETATM    6 CL1  UNL     1      -4.460 -30.360 -71.811  1.00  0.00    -0.077 Cl
HETATM    7  C9  UNL     1      -4.517 -28.042 -70.342  1.00  0.00     0.089 A 
HETATM    8 CL2  UNL     1      -2.897 -27.852 -71.019  1.00  0.00    -0.080 Cl
HETATM    9  C10 UNL     1      -4.951 -27.050 -69.511  1.00  0.00     0.095 A 
ENDROOT
BRANCH   1  10
HETATM   10  C5  UNL     1      -6.643 -25.971 -68.010  1.00  0.00     0.266 C 
HETATM   11  N1  UNL     1      -6.614 -26.220 -66.624  1.00  0.00    -0.307 N 
ATOM     12  H1  UNL     1      -5.902 -26.861 -66.275  1.00  0.00     0.170 HD
HETATM   13  O1  UNL     1      -7.015 -24.896 -68.515  1.00  0.00    -0.267 OA
BRANCH  11  14
HETATM   14  C4  UNL     1      -7.411 -25.702 -65.772  1.00  0.00     0.124 A 
HETATM   15  C3  UNL     1      -7.439 -24.335 -65.512  1.00  0.00     0.076 A 
HETATM   16  C2  UNL     1      -8.400 -24.083 -64.550  1.00  0.00     0.025 A 
HETATM   17  C1  UNL     1      -8.789 -22.765 -63.952  1.00  0.00     0.070 C 
HETATM   18  N6  UNL     1      -8.931 -25.279 -64.245  1.00  0.00    -0.304 N 
HETATM   19  N5  UNL     1      -8.341 -26.234 -64.973  1.00  0.00    -0.285 N 
ATOM     20  H6  UNL     1      -9.672 -25.435 -63.563  1.00  0.00     0.186 HD
ATOM     21  H5  UNL     1      -8.568 -27.226 -64.925  1.00  0.00     0.188 HD
ENDBRANCH  11  14
ENDBRANCH   1  10
BRANCH   9  22
HETATM   22  N2  UNL     1      -4.156 -25.905 -69.190  1.00  0.00    -0.284 N 
ATOM     23  H2  UNL     1      -4.137 -25.096 -69.810  1.00  0.00     0.188 HD
BRANCH  22  24
HETATM   24  N3  UNL     1      -3.495 -25.915 -68.151  1.00  0.00    -0.249 N 
HETATM   25  N4  UNL     1      -3.094 -25.429 -67.097  1.00  0.00    -0.331 N 
ATOM     26  H42 UNL     1      -3.583 -24.534 -67.102  1.00  0.00     0.178 HD
ATOM     27  H41 UNL     1      -2.547 -25.437 -66.236  1.00  0.00     0.178 HD
ATOM     28  H3  UNL     1      -3.025 -26.820 -68.183  1.00  0.00     0.207 HD
ENDBRANCH  22  24
ENDBRANCH   9  22
TORSDOF 4
ENDMDL
MODEL 2
REMARK VINA RESULT: -8.679267096      0.964      1.045
REMARK  4 active torsions:
REMARK  status: ('A' for Active; 'I' for Inactive)
REMARK    1  A    between atoms: C4_4  and  N1_5 
REMARK       I    between atoms: N1_5  and  C5_7 
REMARK    2  A    between atoms: C5_7  and  C6_9 
REMARK    3  A    between atoms: C10_17  and  N2_18 
REMARK    4  A    between atoms: N2_18  and  N3_20 
ROOT
HETATM    1  C6  UNL     1      -6.252 -26.818 -68.823  1.00  0.00     0.106 A 
HETATM    2  S1  UNL     1      -7.407 -28.047 -69.048  1.00  0.00    -0.038 SA
HETATM    3  C7  UNL     1      -6.824 -29.329 -70.002  1.00  0.00     0.237 A 
HETATM    4  O2  UNL     1      -7.540 -30.345 -70.283  1.00  0.00    -0.278 OA
HETATM    5  C8  UNL     1      -5.528 -29.186 -70.443  1.00  0.00     0.115 A 
HETATM    6 CL1  UNL     1      -4.947 -30.543 -71.437  1.00  0.00    -0.077 Cl
HETATM    7  C9  UNL     1      -4.709 -28.118 -70.173  1.00  0.00     0.089 A 
HETATM    8 CL2  UNL     1      -3.085 -28.183 -70.863  1.00  0.00    -0.080 Cl
HETATM    9  C10 UNL     1      -5.012 -27.013 -69.430  1.00  0.00     0.095 A 
ENDROOT
BRANCH   1  10
HETATM   10  C5  UNL     1      -6.547 -25.613 -68.028  1.00  0.00     0.266 C 
HETATM   11  N1  UNL     1      -6.513 -25.740 -66.626  1.00  0.00    -0.307 N 
ATOM     12  H1  UNL     1      -5.869 -26.423 -66.230  1.00  0.00     0.170 HD
HETATM   13  O1  UNL     1      -6.809 -24.552 -68.625  1.00  0.00    -0.267 OA
BRANCH  11  14
HETATM   14  C4  UNL     1      -7.229 -25.063 -65.814  1.00  0.00     0.124 A 
HETATM   15  C3  UNL     1      -7.911 -25.651 -64.753  1.00  0.00     0.076 A 
HETATM   16  C2  UNL     1      -8.592 -24.667 -64.059  1.00  0.00     0.025 A 
HETATM   17  C1  UNL     1      -9.460 -24.820 -62.848  1.00  0.00     0.070 C 
HETATM   18  N6  UNL     1      -8.318 -23.517 -64.698  1.00  0.00    -0.304 N 
HETATM   19  N5  UNL     1      -7.510 -23.759 -65.737  1.00  0.00    -0.285 N 
ATOM     20  H6  UNL     1      -8.672 -22.599 -64.431  1.00  0.00     0.186 HD
ATOM     21  H5  UNL     1      -7.158 -23.049 -66.378  1.00  0.00     0.188 HD
ENDBRANCH  11  14
ENDBRANCH   1  10
BRANCH   9  22
HETATM   22  N2  UNL     1      -4.082 -25.950 -69.208  1.00  0.00    -0.284 N 
ATOM     23  H2  UNL     1      -3.973 -25.203 -69.895  1.00  0.00     0.188 HD
BRANCH  22  24
HETATM   24  N3  UNL     1      -3.415 -25.952 -68.173  1.00  0.00    -0.249 N 
HETATM   25  N4  UNL     1      -3.025 -25.469 -67.115  1.00  0.00    -0.331 N 
ATOM     26  H42 UNL     1      -3.545 -24.592 -67.103  1.00  0.00     0.178 HD
ATOM     27  H41 UNL     1      -2.473 -25.471 -66.257  1.00  0.00     0.178 HD
ATOM     28  H3  UNL     1      -2.913 -26.839 -68.223  1.00  0.00     0.207 HD
ENDBRANCH  22  24
ENDBRANCH   9  22
TORSDOF 4
ENDMDL
MODEL 3
REMARK VINA RESULT: -8.609047075      2.374      3.301
REMARK  4 active torsions:
REMARK  status: ('A' for Active; 'I' for Inactive)
REMARK    1  A    between atoms: C4_4  and  N1_5 
REMARK       I    between atoms: N1_5  and  C5_7 
REMARK    2  A    between atoms: C5_7  and  C6_9 
REMARK    3  A    between atoms: C10_17  and  N2_18 
REMARK    4  A    between atoms: N2_18  and  N3_20 
ROOT
HETATM    1  C6  UNL     1      -6.464 -27.459 -69.262  1.00  0.00     0.106 A 
HETATM    2  S1  UNL     1      -4.928 -27.169 -69.936  1.00  0.00    -0.038 SA
HETATM    3  C7  UNL     1      -4.339 -28.495 -70.823  1.00  0.00     0.237 A 
HETATM    4  O2  UNL     1      -3.206 -28.473 -71.404  1.00  0.00    -0.278 OA
HETATM    5  C8  UNL     1      -5.176 -29.588 -70.864  1.00  0.00     0.115 A 
HETATM    6 CL1  UNL     1      -4.533 -30.959 -71.799  1.00  0.00    -0.077 Cl
HETATM    7  C9  UNL     1      -6.406 -29.671 -70.260  1.00  0.00     0.089 A 
HETATM    8 CL2  UNL     1      -7.279 -31.192 -70.469  1.00  0.00    -0.080 Cl
HETATM    9  C10 UNL     1      -7.026 -28.709 -69.516  1.00  0.00     0.095 A 
ENDROOT
BRANCH   1  10
HETATM   10  C5  UNL     1      -7.161 -26.443 -68.455  1.00  0.00     0.266 C 
HETATM   11  N1  UNL     1      -6.666 -26.194 -67.161  1.00  0.00    -0.307 N 
ATOM     12  H1  UNL     1      -5.665 -26.317 -67.007  1.00  0.00     0.170 HD
HETATM   13  O1  UNL     1      -8.143 -25.858 -68.948  1.00  0.00    -0.267 OA
BRANCH  11  14
HETATM   14  C4  UNL     1      -7.375 -25.826 -66.166  1.00  0.00     0.124 A 
HETATM   15  C3  UNL     1      -7.539 -24.487 -65.822  1.00  0.00     0.076 A 
HETATM   16  C2  UNL     1      -8.356 -24.408 -64.709  1.00  0.00     0.025 A 
HETATM   17  C1  UNL     1      -8.811 -23.181 -63.979  1.00  0.00     0.070 C 
HETATM   18  N6  UNL     1      -8.670 -25.677 -64.398  1.00  0.00    -0.304 N 
HETATM   19  N5  UNL     1      -8.085 -26.512 -65.265  1.00  0.00    -0.285 N 
ATOM     20  H6  UNL     1      -9.263 -25.961 -63.620  1.00  0.00     0.186 HD
ATOM     21  H5  UNL     1      -8.170 -27.528 -65.243  1.00  0.00     0.188 HD
ENDBRANCH  11  14
ENDBRANCH   1  10
BRANCH   9  22
HETATM   22  N2  UNL     1      -8.316 -28.898 -68.927  1.00  0.00    -0.284 N 
ATOM     23  H2  UNL     1      -8.406 -29.124 -67.936  1.00  0.00     0.188 HD
BRANCH  22  24
HETATM   24  N3  UNL     1      -9.315 -28.782 -69.636  1.00  0.00    -0.249 N 
HETATM   25  N4  UNL     1     -10.352 -29.189 -70.151  1.00  0.00    -0.331 N 
ATOM     26  H42 UNL     1     -10.391 -30.137 -69.778  1.00  0.00     0.178 HD
ATOM     27  H41 UNL     1     -11.181 -29.093 -70.739  1.00  0.00     0.178 HD
ATOM     28  H3  UNL     1      -9.241 -27.827 -69.989  1.00  0.00     0.207 HD
ENDBRANCH  22  24
ENDBRANCH   9  22
TORSDOF 4
ENDMDL
MODEL 4
REMARK VINA RESULT: -8.413742843      2.090      2.903
REMARK  4 active torsions:
REMARK  status: ('A' for Active; 'I' for Inactive)
REMARK    1  A    between atoms: C4_4  and  N1_5 
REMARK       I    between atoms: N1_5  and  C5_7 
REMARK    2  A    between atoms: C5_7  and  C6_9 
REMARK    3  A    between atoms: C10_17  and  N2_18 
REMARK    4  A    between atoms: N2_18  and  N3_20 
ROOT
HETATM    1  C6  UNL     1      -6.355 -26.544 -68.916  1.00  0.00     0.106 A 
HETATM    2  S1  UNL     1      -4.788 -26.132 -69.435  1.00  0.00    -0.038 SA
HETATM    3  C7  UNL     1      -4.064 -27.354 -70.371  1.00  0.00     0.237 A 
HETATM    4  O2  UNL     1      -2.891 -27.234 -70.853  1.00  0.00    -0.278 OA
HETATM    5  C8  UNL     1      -4.839 -28.475 -70.568  1.00  0.00     0.115 A 
HETATM    6 CL1  UNL     1      -4.056 -29.735 -71.551  1.00  0.00    -0.077 Cl
HETATM    7  C9  UNL     1      -6.107 -28.662 -70.076  1.00  0.00     0.089 A 
HETATM    8 CL2  UNL     1      -6.883 -30.197 -70.475  1.00  0.00    -0.080 Cl
HETATM    9  C10 UNL     1      -6.832 -27.792 -69.313  1.00  0.00     0.095 A 
ENDROOT
BRANCH   1  10
HETATM   10  C5  UNL     1      -7.164 -25.629 -68.092  1.00  0.00     0.266 C 
HETATM   11  N1  UNL     1      -6.594 -25.167 -66.891  1.00  0.00    -0.307 N 
ATOM     12  H1  UNL     1      -5.580 -25.062 -66.859  1.00  0.00     0.170 HD
HETATM   13  O1  UNL     1      -8.300 -25.311 -68.491  1.00  0.00    -0.267 OA
BRANCH  11  14
HETATM   14  C4  UNL     1      -7.252 -24.868 -65.838  1.00  0.00     0.124 A 
HETATM   15  C3  UNL     1      -7.723 -23.582 -65.593  1.00  0.00     0.076 A 
HETATM   16  C2  UNL     1      -8.392 -23.573 -64.383  1.00  0.00     0.025 A 
HETATM   17  C1  UNL     1      -9.067 -22.420 -63.705  1.00  0.00     0.070 C 
HETATM   18  N6  UNL     1      -8.318 -24.832 -63.919  1.00  0.00    -0.304 N 
HETATM   19  N5  UNL     1      -7.641 -25.594 -64.786  1.00  0.00    -0.285 N 
ATOM     20  H6  UNL     1      -8.717 -25.158 -63.039  1.00  0.00     0.186 HD
ATOM     21  H5  UNL     1      -7.449 -26.588 -64.661  1.00  0.00     0.188 HD
ENDBRANCH  11  14
ENDBRANCH   1  10
BRANCH   9  22
HETATM   22  N2  UNL     1      -8.153 -28.085 -68.849  1.00  0.00    -0.284 N 
ATOM     23  H2  UNL     1      -8.965 -27.886 -69.433  1.00  0.00     0.188 HD
BRANCH  22  24
HETATM   24  N3  UNL     1      -8.292 -28.582 -67.731  1.00  0.00    -0.249 N 
HETATM   25  N4  UNL     1      -8.446 -28.528 -66.514  1.00  0.00    -0.331 N 
ATOM     26  H42 UNL     1      -8.470 -27.519 -66.370  1.00  0.00     0.178 HD
ATOM     27  H41 UNL     1      -8.562 -28.939 -65.588  1.00  0.00     0.178 HD
ATOM     28  H3  UNL     1      -8.262 -29.585 -67.916  1.00  0.00     0.207 HD
ENDBRANCH  22  24
ENDBRANCH   9  22
TORSDOF 4
ENDMDL
MODEL 5
REMARK VINA RESULT: -8.337259262      1.946      2.387
REMARK  4 active torsions:
REMARK  status: ('A' for Active; 'I' for Inactive)
REMARK    1  A    between atoms: C4_4  and  N1_5 
REMARK       I    between atoms: N1_5  and  C5_7 
REMARK    2  A    between atoms: C5_7  and  C6_9 
REMARK    3  A    between atoms: C10_17  and  N2_18 
REMARK    4  A    between atoms: N2_18  and  N3_20 
ROOT
HETATM    1  C6  UNL     1      -7.151 -27.986 -69.289  1.00  0.00     0.106 A 
HETATM    2  S1  UNL     1      -8.748 -28.267 -69.805  1.00  0.00    -0.038 SA
HETATM    3  C7  UNL     1      -8.900 -29.689 -70.727  1.00  0.00     0.237 A 
HETATM    4  O2  UNL     1     -10.017 -30.072 -71.204  1.00  0.00    -0.278 OA
HETATM    5  C8  UNL     1      -7.729 -30.389 -70.916  1.00  0.00     0.115 A 
HETATM    6 CL1  UNL     1      -7.919 -31.871 -71.883  1.00  0.00    -0.077 Cl
HETATM    7  C9  UNL     1      -6.498 -30.028 -70.428  1.00  0.00     0.089 A 
HETATM    8 CL2  UNL     1      -5.155 -31.106 -70.817  1.00  0.00    -0.080 Cl
HETATM    9  C10 UNL     1      -6.199 -28.928 -69.676  1.00  0.00     0.095 A 
ENDROOT
BRANCH   1  10
HETATM   10  C5  UNL     1      -6.795 -26.810 -68.477  1.00  0.00     0.266 C 
HETATM   11  N1  UNL     1      -7.135 -26.840 -67.111  1.00  0.00    -0.307 N 
ATOM     12  H1  UNL     1      -7.148 -27.749 -66.649  1.00  0.00     0.170 HD
HETATM   13  O1  UNL     1      -6.218 -25.854 -69.029  1.00  0.00    -0.267 OA
BRANCH  11  14
HETATM   14  C4  UNL     1      -7.428 -25.816 -66.408  1.00  0.00     0.124 A 
HETATM   15  C3  UNL     1      -8.239 -25.893 -65.280  1.00  0.00     0.076 A 
HETATM   16  C2  UNL     1      -8.371 -24.629 -64.736  1.00  0.00     0.025 A 
HETATM   17  C1  UNL     1      -9.147 -24.218 -63.522  1.00  0.00     0.070 C 
HETATM   18  N6  UNL     1      -7.650 -23.817 -65.528  1.00  0.00    -0.304 N 
HETATM   19  N5  UNL     1      -7.094 -24.527 -66.517  1.00  0.00    -0.285 N 
ATOM     20  H6  UNL     1      -7.543 -22.812 -65.396  1.00  0.00     0.186 HD
ATOM     21  H5  UNL     1      -6.500 -24.139 -67.249  1.00  0.00     0.188 HD
ENDBRANCH  11  14
ENDBRANCH   1  10
BRANCH   9  22
HETATM   22  N2  UNL     1      -4.876 -28.641 -69.215  1.00  0.00    -0.284 N 
ATOM     23  H2  UNL     1      -4.530 -29.046 -68.345  1.00  0.00     0.188 HD
BRANCH  22  24
HETATM   24  N3  UNL     1      -4.162 -27.897 -69.888  1.00  0.00    -0.249 N 
HETATM   25  N4  UNL     1      -3.448 -26.913 -70.055  1.00  0.00    -0.331 N 
ATOM     26  H42 UNL     1      -3.469 -26.502 -69.122  1.00  0.00     0.178 HD
ATOM     27  H41 UNL     1      -2.857 -26.296 -70.613  1.00  0.00     0.178 HD
ATOM     28  H3  UNL     1      -4.167 -28.339 -70.807  1.00  0.00     0.207 HD
ENDBRANCH  22  24
ENDBRANCH   9  22
TORSDOF 4
ENDMDL
