MODEL 1
REMARK VINA RESULT: -8.879608738      0.000      0.000
REMARK  2 active torsions:
REMARK  status: ('A' for Active; 'I' for Inactive)
REMARK    1  A    between atoms: C2_2  and  N1_3 
REMARK       I    between atoms: N1_3  and  C3_5 
REMARK    2  A    between atoms: C3_5  and  C4_7 
ROOT
HETATM    1  C4  UNL     1      -8.611 -26.217 -68.629  1.00  0.00     0.086 A 
HETATM    2  C5  UNL     1      -9.781 -26.740 -69.211  1.00  0.00     0.069 A 
HETATM    3 CL1  UNL     1     -11.442 -26.281 -68.854  1.00  0.00    -0.082 Cl
HETATM    4  C6  UNL     1      -9.350 -27.655 -70.132  1.00  0.00     0.141 A 
HETATM    5  N2  UNL     1      -7.984 -27.694 -70.117  1.00  0.00    -0.263 N 
HETATM    6  N3  UNL     1      -7.146 -28.423 -70.819  1.00  0.00    -0.298 N 
ATOM      7  H3  UNL     1      -7.563 -29.063 -71.495  1.00  0.00     0.187 HD
HETATM    8  C7  UNL     1      -5.805 -28.421 -70.750  1.00  0.00     0.038 A 
HETATM    9  C8  UNL     1      -4.970 -29.297 -71.603  1.00  0.00     0.071 C 
HETATM   10  C9  UNL     1      -5.312 -27.530 -69.813  1.00  0.00     0.055 A 
HETATM   11  C10 UNL     1      -3.967 -27.402 -69.596  1.00  0.00     0.116 A 
HETATM   12  S1  UNL     1      -2.971 -28.318 -70.482  1.00  0.00    -0.059 SA
HETATM   13  N4  UNL     1      -3.446 -26.536 -68.668  1.00  0.00    -0.336 N 
ATOM     14  H4  UNL     1      -2.437 -26.467 -68.534  1.00  0.00     0.168 HD
HETATM   15  C11 UNL     1      -4.278 -25.782 -67.939  1.00  0.00     0.078 A 
HETATM   16  C12 UNL     1      -3.724 -24.834 -66.923  1.00  0.00     0.089 C 
HETATM   17  N5  UNL     1      -5.582 -25.916 -68.160  1.00  0.00    -0.343 N 
ATOM     18  H5  UNL     1      -6.205 -25.336 -67.598  1.00  0.00     0.167 HD
HETATM   19  C13 UNL     1      -6.157 -26.735 -69.044  1.00  0.00     0.079 A 
HETATM   20  C14 UNL     1      -7.521 -26.822 -69.204  1.00  0.00     0.101 A 
ENDROOT
BRANCH   1  21
HETATM   21  C3  UNL     1      -8.593 -25.242 -67.562  1.00  0.00     0.255 C 
HETATM   22  N1  UNL     1      -9.169 -25.574 -66.306  1.00  0.00    -0.357 N 
ATOM     23  H1  UNL     1      -9.583 -26.497 -66.177  1.00  0.00     0.162 HD
HETATM   24  O1  UNL     1      -8.072 -24.121 -67.740  1.00  0.00    -0.268 OA
BRANCH  22  25
HETATM   25  C2  UNL     1      -9.183 -24.624 -65.198  1.00  0.00     0.118 C 
HETATM   26  C1  UNL     1      -8.031 -24.805 -64.266  1.00  0.00     0.026 C 
ENDBRANCH  22  25
ENDBRANCH   1  21
TORSDOF 2
ENDMDL
MODEL 2
REMARK VINA RESULT: -8.818476155      3.485      6.156
REMARK  2 active torsions:
REMARK  status: ('A' for Active; 'I' for Inactive)
REMARK    1  A    between atoms: C2_2  and  N1_3 
REMARK       I    between atoms: N1_3  and  C3_5 
REMARK    2  A    between atoms: C3_5  and  C4_7 
ROOT
HETATM    1  C4  UNL     1      -6.641 -29.183 -70.531  1.00  0.00     0.086 A 
HETATM    2  C5  UNL     1      -5.295 -29.552 -70.723  1.00  0.00     0.069 A 
HETATM    3 CL1  UNL     1      -4.682 -30.824 -71.772  1.00  0.00    -0.082 Cl
HETATM    4  C6  UNL     1      -4.569 -28.693 -69.945  1.00  0.00     0.141 A 
HETATM    5  N2  UNL     1      -5.423 -27.838 -69.306  1.00  0.00    -0.263 N 
HETATM    6  N3  UNL     1      -5.177 -26.862 -68.463  1.00  0.00    -0.298 N 
ATOM      7  H3  UNL     1      -4.195 -26.694 -68.242  1.00  0.00     0.187 HD
HETATM    8  C7  UNL     1      -6.068 -26.060 -67.858  1.00  0.00     0.038 A 
HETATM    9  C8  UNL     1      -5.657 -24.989 -66.921  1.00  0.00     0.071 C 
HETATM   10  C9  UNL     1      -7.377 -26.346 -68.203  1.00  0.00     0.055 A 
HETATM   11  C10 UNL     1      -8.421 -25.637 -67.674  1.00  0.00     0.116 A 
HETATM   12  S1  UNL     1      -8.072 -24.444 -66.639  1.00  0.00    -0.059 SA
HETATM   13  N4  UNL     1      -9.731 -25.902 -67.988  1.00  0.00    -0.336 N 
ATOM     14  H4  UNL     1     -10.483 -25.352 -67.573  1.00  0.00     0.168 HD
HETATM   15  C11 UNL     1     -10.009 -26.892 -68.845  1.00  0.00     0.078 A 
HETATM   16  C12 UNL     1     -11.431 -27.192 -69.197  1.00  0.00     0.089 C 
HETATM   17  N5  UNL     1      -8.985 -27.571 -69.352  1.00  0.00    -0.343 N 
ATOM     18  H5  UNL     1      -9.211 -28.323 -70.004  1.00  0.00     0.167 HD
HETATM   19  C13 UNL     1      -7.691 -27.369 -69.093  1.00  0.00     0.079 A 
HETATM   20  C14 UNL     1      -6.689 -28.127 -69.654  1.00  0.00     0.101 A 
ENDROOT
BRANCH   1  21
HETATM   21  C3  UNL     1      -7.768 -29.861 -71.129  1.00  0.00     0.255 C 
HETATM   22  N1  UNL     1      -7.986 -31.235 -70.844  1.00  0.00    -0.357 N 
ATOM     23  H1  UNL     1      -7.345 -31.722 -70.217  1.00  0.00     0.162 HD
HETATM   24  O1  UNL     1      -8.546 -29.243 -71.886  1.00  0.00    -0.268 OA
BRANCH  22  25
HETATM   25  C2  UNL     1      -9.106 -31.968 -71.427  1.00  0.00     0.118 C 
HETATM   26  C1  UNL     1      -8.712 -33.311 -71.946  1.00  0.00     0.026 C 
ENDBRANCH  22  25
ENDBRANCH   1  21
TORSDOF 2
ENDMDL
MODEL 3
REMARK VINA RESULT: -8.679770018      3.078      5.061
REMARK  2 active torsions:
REMARK  status: ('A' for Active; 'I' for Inactive)
REMARK    1  A    between atoms: C2_2  and  N1_3 
REMARK       I    between atoms: N1_3  and  C3_5 
REMARK    2  A    between atoms: C3_5  and  C4_7 
ROOT
HETATM    1  C4  UNL     1      -5.449 -27.352 -69.973  1.00  0.00     0.086 A 
HETATM    2  C5  UNL     1      -4.506 -28.056 -70.747  1.00  0.00     0.069 A 
HETATM    3 CL1  UNL     1      -2.777 -27.749 -70.852  1.00  0.00    -0.082 Cl
HETATM    4  C6  UNL     1      -5.215 -29.043 -71.373  1.00  0.00     0.141 A 
HETATM    5  N2  UNL     1      -6.529 -28.953 -71.004  1.00  0.00    -0.263 N 
HETATM    6  N3  UNL     1      -7.563 -29.680 -71.358  1.00  0.00    -0.298 N 
ATOM      7  H3  UNL     1      -7.377 -30.445 -72.006  1.00  0.00     0.187 HD
HETATM    8  C7  UNL     1      -8.839 -29.533 -70.964  1.00  0.00     0.038 A 
HETATM    9  C8  UNL     1      -9.920 -30.426 -71.440  1.00  0.00     0.071 C 
HETATM   10  C9  UNL     1      -9.017 -28.477 -70.087  1.00  0.00     0.055 A 
HETATM   11  C10 UNL     1     -10.254 -28.170 -69.590  1.00  0.00     0.116 A 
HETATM   12  S1  UNL     1     -11.501 -29.091 -70.052  1.00  0.00    -0.059 SA
HETATM   13  N4  UNL     1     -10.466 -27.124 -68.726  1.00  0.00    -0.336 N 
ATOM     14  H4  UNL     1     -11.403 -26.926 -68.376  1.00  0.00     0.168 HD
HETATM   15  C11 UNL     1      -9.428 -26.368 -68.350  1.00  0.00     0.078 A 
HETATM   16  C12 UNL     1      -9.644 -25.225 -67.410  1.00  0.00     0.089 C 
HETATM   17  N5  UNL     1      -8.232 -26.678 -68.840  1.00  0.00    -0.343 N 
ATOM     18  H5  UNL     1      -7.450 -26.094 -68.545  1.00  0.00     0.167 HD
HETATM   19  C13 UNL     1      -7.953 -27.678 -69.680  1.00  0.00     0.079 A 
HETATM   20  C14 UNL     1      -6.684 -27.926 -70.150  1.00  0.00     0.101 A 
ENDROOT
BRANCH   1  21
HETATM   21  C3  UNL     1      -5.145 -26.186 -69.174  1.00  0.00     0.255 C 
HETATM   22  N1  UNL     1      -4.260 -26.310 -68.070  1.00  0.00    -0.357 N 
ATOM     23  H1  UNL     1      -3.850 -27.220 -67.860  1.00  0.00     0.162 HD
HETATM   24  O1  UNL     1      -5.651 -25.080 -69.456  1.00  0.00    -0.268 OA
BRANCH  22  25
HETATM   25  C2  UNL     1      -3.926 -25.165 -67.228  1.00  0.00     0.118 C 
HETATM   26  C1  UNL     1      -2.711 -25.397 -66.392  1.00  0.00     0.026 C 
ENDBRANCH  22  25
ENDBRANCH   1  21
TORSDOF 2
ENDMDL
MODEL 4
REMARK VINA RESULT: -8.485920616      2.620      4.238
REMARK  2 active torsions:
REMARK  status: ('A' for Active; 'I' for Inactive)
REMARK    1  A    between atoms: C2_2  and  N1_3 
REMARK       I    between atoms: N1_3  and  C3_5 
REMARK    2  A    between atoms: C3_5  and  C4_7 
ROOT
HETATM    1  C4  UNL     1      -5.622 -26.178 -67.967  1.00  0.00     0.086 A 
HETATM    2  C5  UNL     1      -4.234 -25.937 -67.997  1.00  0.00     0.069 A 
HETATM    3 CL1  UNL     1      -3.337 -24.772 -67.031  1.00  0.00    -0.082 Cl
HETATM    4  C6  UNL     1      -3.733 -26.821 -68.913  1.00  0.00     0.141 A 
HETATM    5  N2  UNL     1      -4.759 -27.568 -69.421  1.00  0.00    -0.263 N 
HETATM    6  N3  UNL     1      -4.750 -28.523 -70.323  1.00  0.00    -0.298 N 
ATOM      7  H3  UNL     1      -3.839 -28.766 -70.713  1.00  0.00     0.187 HD
HETATM    8  C7  UNL     1      -5.801 -29.216 -70.790  1.00  0.00     0.038 A 
HETATM    9  C8  UNL     1      -5.656 -30.275 -71.814  1.00  0.00     0.071 C 
HETATM   10  C9  UNL     1      -7.001 -28.832 -70.217  1.00  0.00     0.055 A 
HETATM   11  C10 UNL     1      -8.180 -29.423 -70.580  1.00  0.00     0.116 A 
HETATM   12  S1  UNL     1      -8.124 -30.594 -71.694  1.00  0.00    -0.059 SA
HETATM   13  N4  UNL     1      -9.388 -29.059 -70.039  1.00  0.00    -0.336 N 
ATOM     14  H4  UNL     1     -10.247 -29.522 -70.335  1.00  0.00     0.168 HD
HETATM   15  C11 UNL     1      -9.425 -28.089 -69.117  1.00  0.00     0.078 A 
HETATM   16  C12 UNL     1     -10.734 -27.681 -68.519  1.00  0.00     0.089 C 
HETATM   17  N5  UNL     1      -8.271 -27.524 -68.773  1.00  0.00    -0.343 N 
ATOM     18  H5  UNL     1      -8.313 -26.786 -68.071  1.00  0.00     0.167 HD
HETATM   19  C13 UNL     1      -7.063 -27.827 -69.256  1.00  0.00     0.079 A 
HETATM   20  C14 UNL     1      -5.916 -27.185 -68.853  1.00  0.00     0.101 A 
ENDROOT
BRANCH   1  21
HETATM   21  C3  UNL     1      -6.564 -25.432 -67.164  1.00  0.00     0.255 C 
HETATM   22  N1  UNL     1      -6.562 -25.599 -65.754  1.00  0.00    -0.357 N 
ATOM     23  H1  UNL     1      -5.893 -26.241 -65.329  1.00  0.00     0.162 HD
HETATM   24  O1  UNL     1      -7.368 -24.644 -67.705  1.00  0.00    -0.268 OA
BRANCH  22  25
HETATM   25  C2  UNL     1      -7.498 -24.874 -64.898  1.00  0.00     0.118 C 
HETATM   26  C1  UNL     1      -8.774 -25.616 -64.678  1.00  0.00     0.026 C 
ENDBRANCH  22  25
ENDBRANCH   1  21
TORSDOF 2
ENDMDL
MODEL 5
REMARK VINA RESULT: -8.472624970      2.701      4.919
REMARK  2 active torsions:
REMARK  status: ('A' for Active; 'I' for Inactive)
REMARK    1  A    between atoms: C2_2  and  N1_3 
REMARK       I    between atoms: N1_3  and  C3_5 
REMARK    2  A    between atoms: C3_5  and  C4_7 
ROOT
HETATM    1  C4  UNL     1      -8.849 -28.558 -69.842  1.00  0.00     0.086 A 
HETATM    2  C5  UNL     1     -10.188 -28.387 -69.441  1.00  0.00     0.069 A 
HETATM    3 CL1  UNL     1     -11.596 -29.255 -70.041  1.00  0.00    -0.082 Cl
HETATM    4  C6  UNL     1     -10.156 -27.427 -68.467  1.00  0.00     0.141 A 
HETATM    5  N2  UNL     1      -8.863 -27.026 -68.277  1.00  0.00    -0.263 N 
HETATM    6  N3  UNL     1      -8.361 -26.130 -67.459  1.00  0.00    -0.298 N 
ATOM      7  H3  UNL     1      -9.027 -25.650 -66.853  1.00  0.00     0.187 HD
HETATM    8  C7  UNL     1      -7.074 -25.773 -67.327  1.00  0.00     0.038 A 
HETATM    9  C8  UNL     1      -6.636 -24.741 -66.359  1.00  0.00     0.071 C 
HETATM   10  C9  UNL     1      -6.230 -26.463 -68.179  1.00  0.00     0.055 A 
HETATM   11  C10 UNL     1      -4.883 -26.222 -68.192  1.00  0.00     0.116 A 
HETATM   12  S1  UNL     1      -4.308 -25.110 -67.168  1.00  0.00    -0.059 SA
HETATM   13  N4  UNL     1      -4.020 -26.882 -69.031  1.00  0.00    -0.336 N 
ATOM     14  H4  UNL     1      -3.022 -26.675 -69.012  1.00  0.00     0.168 HD
HETATM   15  C11 UNL     1      -4.506 -27.800 -69.876  1.00  0.00     0.078 A 
HETATM   16  C12 UNL     1      -3.578 -28.527 -70.796  1.00  0.00     0.089 C 
HETATM   17  N5  UNL     1      -5.816 -28.025 -69.852  1.00  0.00    -0.343 N 
ATOM     18  H5  UNL     1      -6.173 -28.727 -70.500  1.00  0.00     0.167 HD
HETATM   19  C13 UNL     1      -6.711 -27.424 -69.064  1.00  0.00     0.079 A 
HETATM   20  C14 UNL     1      -8.056 -27.708 -69.110  1.00  0.00     0.101 A 
ENDROOT
BRANCH   1  21
HETATM   21  C3  UNL     1      -8.417 -29.450 -70.893  1.00  0.00     0.255 C 
HETATM   22  N1  UNL     1      -8.428 -30.852 -70.665  1.00  0.00    -0.357 N 
ATOM     23  H1  UNL     1      -8.745 -31.207 -69.763  1.00  0.00     0.162 HD
HETATM   24  O1  UNL     1      -8.043 -28.993 -71.994  1.00  0.00    -0.268 OA
BRANCH  22  25
HETATM   25  C2  UNL     1      -7.996 -31.796 -71.692  1.00  0.00     0.118 C 
HETATM   26  C1  UNL     1      -8.709 -33.105 -71.611  1.00  0.00     0.026 C 
ENDBRANCH  22  25
ENDBRANCH   1  21
TORSDOF 2
ENDMDL
