MODEL 1
REMARK VINA RESULT: -7.847491299      0.000      0.000
REMARK  3 active torsions:
REMARK  status: ('A' for Active; 'I' for Inactive)
REMARK    1  A    between atoms: C4_5  and  C5_6 
REMARK    2  A    between atoms: C9_15  and  C10_16 
REMARK       I    between atoms: C10_16  and  N2_18 
REMARK    3  A    between atoms: N2_18  and  C11_20 
ROOT
HETATM    1  C1  UNL     1     -10.337 -27.398 -68.038  1.00  0.00     0.059 C 
HETATM    2  C2  UNL     1      -8.920 -27.476 -68.550  1.00  0.00     0.014 A 
HETATM    3  S1  UNL     1      -8.228 -28.651 -69.570  1.00  0.00    -0.073 SA
HETATM    4  C3  UNL     1      -6.661 -28.000 -69.675  1.00  0.00     0.103 A 
HETATM    5  C4  UNL     1      -5.506 -28.434 -70.344  1.00  0.00     0.097 A 
HETATM    6  C6  UNL     1      -4.337 -27.719 -70.250  1.00  0.00     0.059 A 
HETATM    7 CL1  UNL     1      -2.881 -28.222 -71.065  1.00  0.00    -0.083 Cl
HETATM    8  C7  UNL     1      -4.402 -26.588 -69.471  1.00  0.00     0.100 A 
HETATM    9  C8  UNL     1      -5.541 -26.210 -68.845  1.00  0.00     0.255 A 
HETATM   10  O3  UNL     1      -5.423 -25.137 -68.160  1.00  0.00    -0.268 OA
HETATM   11  N1  UNL     1      -6.718 -26.905 -68.926  1.00  0.00    -0.265 N 
HETATM   12  C9  UNL     1      -7.867 -26.609 -68.335  1.00  0.00     0.123 A 
ENDROOT
BRANCH  12  13
HETATM   13  C10 UNL     1      -8.158 -25.461 -67.424  1.00  0.00     0.270 C 
HETATM   14  O4  UNL     1      -8.621 -24.423 -67.916  1.00  0.00    -0.266 OA
HETATM   15  N2  UNL     1      -7.910 -25.548 -66.028  1.00  0.00    -0.348 N 
ATOM     16  H2  UNL     1      -7.524 -26.410 -65.642  1.00  0.00     0.163 HD
BRANCH  15  17
HETATM   17  C11 UNL     1      -8.194 -24.442 -65.144  1.00  0.00     0.022 C 
HETATM   18  C12 UNL     1      -9.633 -24.022 -65.157  1.00  0.00     0.037 C 
HETATM   19  C13 UNL     1      -7.821 -24.826 -63.736  1.00  0.00     0.037 C 
HETATM   20  C14 UNL     1      -7.366 -23.222 -65.523  1.00  0.00     0.037 C 
ENDBRANCH  15  17
ENDBRANCH  12  13
BRANCH   5  21
HETATM   21  C5  UNL     1      -5.587 -29.645 -71.128  1.00  0.00     0.214 C 
HETATM   22  O1  UNL     1      -5.937 -29.650 -72.338  1.00  0.00    -0.644 OA
HETATM   23  O2  UNL     1      -5.263 -30.879 -70.537  1.00  0.00    -0.644 OA
ENDBRANCH   5  21
TORSDOF 3
ENDMDL
MODEL 2
REMARK VINA RESULT: -7.816322320      0.106      1.138
REMARK  3 active torsions:
REMARK  status: ('A' for Active; 'I' for Inactive)
REMARK    1  A    between atoms: C4_5  and  C5_6 
REMARK    2  A    between atoms: C9_15  and  C10_16 
REMARK       I    between atoms: C10_16  and  N2_18 
REMARK    3  A    between atoms: N2_18  and  C11_20 
ROOT
HETATM    1  C1  UNL     1     -10.237 -27.536 -67.928  1.00  0.00     0.059 C 
HETATM    2  C2  UNL     1      -8.832 -27.585 -68.477  1.00  0.00     0.014 A 
HETATM    3  S1  UNL     1      -8.129 -28.768 -69.479  1.00  0.00    -0.073 SA
HETATM    4  C3  UNL     1      -6.587 -28.070 -69.647  1.00  0.00     0.103 A 
HETATM    5  C4  UNL     1      -5.437 -28.487 -70.334  1.00  0.00     0.097 A 
HETATM    6  C6  UNL     1      -4.290 -27.733 -70.294  1.00  0.00     0.059 A 
HETATM    7 CL1  UNL     1      -2.840 -28.213 -71.133  1.00  0.00    -0.083 Cl
HETATM    8  C7  UNL     1      -4.371 -26.581 -69.548  1.00  0.00     0.100 A 
HETATM    9  C8  UNL     1      -5.505 -26.220 -68.903  1.00  0.00     0.255 A 
HETATM   10  O3  UNL     1      -5.405 -25.124 -68.253  1.00  0.00    -0.268 OA
HETATM   11  N1  UNL     1      -6.660 -26.955 -68.930  1.00  0.00    -0.265 N 
HETATM   12  C9  UNL     1      -7.802 -26.678 -68.318  1.00  0.00     0.123 A 
ENDROOT
BRANCH  12  13
HETATM   13  C10 UNL     1      -8.107 -25.513 -67.434  1.00  0.00     0.270 C 
HETATM   14  O4  UNL     1      -8.578 -24.490 -67.950  1.00  0.00    -0.266 OA
HETATM   15  N2  UNL     1      -7.863 -25.565 -66.035  1.00  0.00    -0.348 N 
ATOM     16  H2  UNL     1      -7.470 -26.414 -65.628  1.00  0.00     0.163 HD
BRANCH  15  17
HETATM   17  C11 UNL     1      -8.161 -24.442 -65.177  1.00  0.00     0.022 C 
HETATM   18  C12 UNL     1      -7.381 -23.208 -65.519  1.00  0.00     0.037 C 
HETATM   19  C13 UNL     1      -9.630 -24.122 -65.273  1.00  0.00     0.037 C 
HETATM   20  C14 UNL     1      -7.856 -24.778 -63.724  1.00  0.00     0.037 C 
ENDBRANCH  15  17
ENDBRANCH  12  13
BRANCH   5  21
HETATM   21  C5  UNL     1      -5.498 -29.725 -71.079  1.00  0.00     0.214 C 
HETATM   22  O1  UNL     1      -5.169 -30.835 -70.582  1.00  0.00    -0.644 OA
HETATM   23  O2  UNL     1      -5.941 -29.711 -72.413  1.00  0.00    -0.644 OA
ENDBRANCH   5  21
TORSDOF 3
ENDMDL
MODEL 3
REMARK VINA RESULT: -7.629049036      2.025      3.179
REMARK  3 active torsions:
REMARK  status: ('A' for Active; 'I' for Inactive)
REMARK    1  A    between atoms: C4_5  and  C5_6 
REMARK    2  A    between atoms: C9_15  and  C10_16 
REMARK       I    between atoms: C10_16  and  N2_18 
REMARK    3  A    between atoms: N2_18  and  C11_20 
ROOT
HETATM    1  C1  UNL     1      -4.355 -25.541 -67.933  1.00  0.00     0.059 C 
HETATM    2  C2  UNL     1      -5.311 -26.499 -68.600  1.00  0.00     0.014 A 
HETATM    3  S1  UNL     1      -4.952 -27.806 -69.629  1.00  0.00    -0.073 SA
HETATM    4  C3  UNL     1      -6.539 -28.356 -69.899  1.00  0.00     0.103 A 
HETATM    5  C4  UNL     1      -7.049 -29.410 -70.672  1.00  0.00     0.097 A 
HETATM    6  C6  UNL     1      -8.402 -29.635 -70.737  1.00  0.00     0.059 A 
HETATM    7 CL1  UNL     1      -9.078 -30.933 -71.682  1.00  0.00    -0.083 Cl
HETATM    8  C7  UNL     1      -9.176 -28.764 -70.007  1.00  0.00     0.100 A 
HETATM    9  C8  UNL     1      -8.637 -27.761 -69.276  1.00  0.00     0.255 A 
HETATM   10  O3  UNL     1      -9.501 -27.045 -68.663  1.00  0.00    -0.268 OA
HETATM   11  N1  UNL     1      -7.291 -27.520 -69.195  1.00  0.00    -0.265 N 
HETATM   12  C9  UNL     1      -6.689 -26.555 -68.515  1.00  0.00     0.123 A 
ENDROOT
BRANCH  12  13
HETATM   13  C10 UNL     1      -7.323 -25.484 -67.689  1.00  0.00     0.270 C 
HETATM   14  O4  UNL     1      -7.527 -24.380 -68.213  1.00  0.00    -0.266 OA
HETATM   15  N2  UNL     1      -7.684 -25.714 -66.334  1.00  0.00    -0.348 N 
ATOM     16  H2  UNL     1      -7.503 -26.628 -65.918  1.00  0.00     0.163 HD
BRANCH  15  17
HETATM   17  C11 UNL     1      -8.300 -24.682 -65.534  1.00  0.00     0.022 C 
HETATM   18  C12 UNL     1      -7.511 -23.407 -65.494  1.00  0.00     0.037 C 
HETATM   19  C13 UNL     1      -9.669 -24.380 -66.086  1.00  0.00     0.037 C 
HETATM   20  C14 UNL     1      -8.475 -25.147 -64.095  1.00  0.00     0.037 C 
ENDBRANCH  15  17
ENDBRANCH  12  13
BRANCH   5  21
HETATM   21  C5  UNL     1      -6.112 -30.246 -71.389  1.00  0.00     0.214 C 
HETATM   22  O1  UNL     1      -5.853 -30.083 -72.611  1.00  0.00    -0.644 OA
HETATM   23  O2  UNL     1      -5.452 -31.287 -70.714  1.00  0.00    -0.644 OA
ENDBRANCH   5  21
TORSDOF 3
ENDMDL
MODEL 4
REMARK VINA RESULT: -7.303829298      2.637      4.175
REMARK  3 active torsions:
REMARK  status: ('A' for Active; 'I' for Inactive)
REMARK    1  A    between atoms: C4_5  and  C5_6 
REMARK    2  A    between atoms: C9_15  and  C10_16 
REMARK       I    between atoms: C10_16  and  N2_18 
REMARK    3  A    between atoms: N2_18  and  C11_20 
ROOT
HETATM    1  C1  UNL     1      -7.540 -24.673 -67.750  1.00  0.00     0.059 C 
HETATM    2  C2  UNL     1      -7.015 -25.843 -68.544  1.00  0.00     0.014 A 
HETATM    3  S1  UNL     1      -5.402 -26.215 -68.937  1.00  0.00    -0.073 SA
HETATM    4  C3  UNL     1      -5.678 -27.660 -69.791  1.00  0.00     0.103 A 
HETATM    5  C4  UNL     1      -4.807 -28.549 -70.440  1.00  0.00     0.097 A 
HETATM    6  C6  UNL     1      -5.298 -29.658 -71.085  1.00  0.00     0.059 A 
HETATM    7 CL1  UNL     1      -4.253 -30.788 -71.901  1.00  0.00    -0.083 Cl
HETATM    8  C7  UNL     1      -6.664 -29.806 -71.038  1.00  0.00     0.100 A 
HETATM    9  C8  UNL     1      -7.463 -28.921 -70.399  1.00  0.00     0.255 A 
HETATM   10  O3  UNL     1      -8.707 -29.209 -70.458  1.00  0.00    -0.268 OA
HETATM   11  N1  UNL     1      -6.996 -27.810 -69.748  1.00  0.00    -0.265 N 
HETATM   12  C9  UNL     1      -7.711 -26.893 -69.112  1.00  0.00     0.123 A 
ENDROOT
BRANCH  12  13
HETATM   13  C10 UNL     1      -9.196 -26.830 -68.966  1.00  0.00     0.270 C 
HETATM   14  O4  UNL     1      -9.688 -27.072 -67.855  1.00  0.00    -0.266 OA
HETATM   15  N2  UNL     1     -10.033 -26.505 -70.068  1.00  0.00    -0.348 N 
ATOM     16  H2  UNL     1      -9.610 -26.314 -70.976  1.00  0.00     0.163 HD
BRANCH  15  17
HETATM   17  C11 UNL     1     -11.468 -26.439 -69.928  1.00  0.00     0.022 C 
HETATM   18  C12 UNL     1     -11.920 -25.527 -68.828  1.00  0.00     0.037 C 
HETATM   19  C13 UNL     1     -12.070 -25.961 -71.224  1.00  0.00     0.037 C 
HETATM   20  C14 UNL     1     -12.045 -27.818 -69.634  1.00  0.00     0.037 C 
ENDBRANCH  15  17
ENDBRANCH  12  13
BRANCH   5  21
HETATM   21  C5  UNL     1      -3.391 -28.264 -70.406  1.00  0.00     0.214 C 
HETATM   22  O1  UNL     1      -2.741 -27.923 -71.430  1.00  0.00    -0.644 OA
HETATM   23  O2  UNL     1      -2.691 -28.363 -69.191  1.00  0.00    -0.644 OA
ENDBRANCH   5  21
TORSDOF 3
ENDMDL
MODEL 5
REMARK VINA RESULT: -7.276913490      2.693      3.886
REMARK  3 active torsions:
REMARK  status: ('A' for Active; 'I' for Inactive)
REMARK    1  A    between atoms: C4_5  and  C5_6 
REMARK    2  A    between atoms: C9_15  and  C10_16 
REMARK       I    between atoms: C10_16  and  N2_18 
REMARK    3  A    between atoms: N2_18  and  C11_20 
ROOT
HETATM    1  C1  UNL     1      -4.953 -25.579 -68.075  1.00  0.00     0.059 C 
HETATM    2  C2  UNL     1      -6.230 -26.278 -68.474  1.00  0.00     0.014 A 
HETATM    3  S1  UNL     1      -6.570 -27.117 -69.915  1.00  0.00    -0.073 SA
HETATM    4  C3  UNL     1      -8.159 -27.603 -69.553  1.00  0.00     0.103 A 
HETATM    5  C4  UNL     1      -9.108 -28.334 -70.285  1.00  0.00     0.097 A 
HETATM    6  C6  UNL     1     -10.353 -28.580 -69.760  1.00  0.00     0.059 A 
HETATM    7 CL1  UNL     1     -11.559 -29.485 -70.633  1.00  0.00    -0.083 Cl
HETATM    8  C7  UNL     1     -10.574 -28.061 -68.506  1.00  0.00     0.100 A 
HETATM    9  C8  UNL     1      -9.626 -27.361 -67.840  1.00  0.00     0.255 A 
HETATM   10  O3  UNL     1     -10.001 -26.949 -66.689  1.00  0.00    -0.268 OA
HETATM   11  N1  UNL     1      -8.378 -27.107 -68.342  1.00  0.00    -0.265 N 
HETATM   12  C9  UNL     1      -7.404 -26.421 -67.760  1.00  0.00     0.123 A 
ENDROOT
BRANCH  12  13
HETATM   13  C10 UNL     1      -7.430 -25.743 -66.429  1.00  0.00     0.270 C 
HETATM   14  O4  UNL     1      -6.696 -26.180 -65.532  1.00  0.00    -0.266 OA
HETATM   15  N2  UNL     1      -8.276 -24.627 -66.187  1.00  0.00    -0.348 N 
ATOM     16  H2  UNL     1      -8.877 -24.285 -66.937  1.00  0.00     0.163 HD
BRANCH  15  17
HETATM   17  C11 UNL     1      -8.301 -23.967 -64.903  1.00  0.00     0.022 C 
HETATM   18  C12 UNL     1      -7.813 -24.831 -63.779  1.00  0.00     0.037 C 
HETATM   19  C13 UNL     1      -7.441 -22.732 -64.965  1.00  0.00     0.037 C 
HETATM   20  C14 UNL     1      -9.715 -23.527 -64.551  1.00  0.00     0.037 C 
ENDBRANCH  15  17
ENDBRANCH  12  13
BRANCH   5  21
HETATM   21  C5  UNL     1      -8.734 -28.818 -71.595  1.00  0.00     0.214 C 
HETATM   22  O1  UNL     1      -9.064 -28.228 -72.658  1.00  0.00    -0.644 OA
HETATM   23  O2  UNL     1      -7.970 -29.993 -71.710  1.00  0.00    -0.644 OA
ENDBRANCH   5  21
TORSDOF 3
ENDMDL
