MODEL 1
REMARK VINA RESULT: 0.932506719      0.000      0.000
REMARK  4 active torsions:
REMARK  status: ('A' for Active; 'I' for Inactive)
REMARK    1  A    between atoms: C2_2  and  O1_3 
REMARK    2  A    between atoms: O1_3  and  C3_4 
REMARK    3  A    between atoms: C3_4  and  C4_6 
REMARK    4  A    between atoms: C19_25  and  O5_27 
ROOT
HETATM    1  C4  UNL     1      12.991   0.078  28.551  1.00  0.00     0.062 C 
HETATM    2  C5  UNL     1      13.441  -0.926  27.446  1.00  0.00     0.021 C 
HETATM    3  C6  UNL     1      14.188  -0.153  26.422  1.00  0.00     0.009 C 
HETATM    4  C7  UNL     1      14.702   0.932  27.220  1.00  0.00     0.029 C 
HETATM    5  C8  UNL     1      13.853   1.184  28.442  1.00  0.00     0.050 C 
HETATM    6  C9  UNL     1      14.885   1.898  29.150  1.00  0.00     0.121 C 
HETATM    7 CL1  UNL     1      14.410   2.868  30.558  1.00  0.00    -0.101 Cl
HETATM    8 CL2  UNL     1      16.426   1.174  29.472  1.00  0.00    -0.101 Cl
HETATM    9  C10 UNL     1      15.101   2.989  28.027  1.00  0.00     0.081 C 
HETATM   10  C11 UNL     1      14.662   2.333  26.728  1.00  0.00     0.074 C 
HETATM   11  C12 UNL     1      15.714   2.495  25.650  1.00  0.00     0.047 C 
HETATM   12  O3  UNL     1      13.380   2.567  26.285  1.00  0.00    -0.310 OA
HETATM   13  C13 UNL     1      12.099   2.042  26.251  1.00  0.00     0.264 C 
HETATM   14  O4  UNL     1      11.610   2.119  25.111  1.00  0.00    -0.265 OA
HETATM   15  C14 UNL     1      11.271   1.455  27.245  1.00  0.00     0.094 C 
HETATM   16  C15 UNL     1       9.939   1.108  26.557  1.00  0.00     0.015 C 
HETATM   17  C16 UNL     1       8.814   2.001  27.029  1.00  0.00     0.001 C 
HETATM   18  C17 UNL     1       8.441   1.368  28.379  1.00  0.00     0.003 C 
HETATM   19  C18 UNL     1       9.550   1.566  29.333  1.00  0.00     0.038 C 
HETATM   20  C19 UNL     1      10.630   0.534  29.392  1.00  0.00     0.060 C 
HETATM   21  C20 UNL     1       9.923  -0.755  29.785  1.00  0.00     0.046 C 
HETATM   22  C21 UNL     1      11.545   0.388  28.203  1.00  0.00     0.052 C 
ENDROOT
BRANCH   1  23
HETATM   23  C3  UNL     1      13.191  -0.715  29.785  1.00  0.00     0.268 C 
HETATM   24  O2  UNL     1      12.612  -1.827  29.902  1.00  0.00    -0.264 OA
BRANCH  23  25
HETATM   25  O1  UNL     1      13.967  -0.369  30.871  1.00  0.00    -0.321 OA
BRANCH  25  26
HETATM   26  C2  UNL     1      14.959  -1.247  31.419  1.00  0.00     0.174 C 
HETATM   27  C1  UNL     1      16.029  -0.461  32.097  1.00  0.00     0.034 C 
ENDBRANCH  25  26
ENDBRANCH  23  25
ENDBRANCH   1  23
BRANCH  20  28
HETATM   28  O5  UNL     1      11.320   0.935  30.557  1.00  0.00    -0.390 OA
ATOM     29  H5  UNL     1      12.221   0.784  30.294  1.00  0.00     0.210 HD
ENDBRANCH  20  28
TORSDOF 4
ENDMDL
MODEL 2
REMARK VINA RESULT: 0.970670798      2.036      5.490
REMARK  4 active torsions:
REMARK  status: ('A' for Active; 'I' for Inactive)
REMARK    1  A    between atoms: C2_2  and  O1_3 
REMARK    2  A    between atoms: O1_3  and  C3_4 
REMARK    3  A    between atoms: C3_4  and  C4_6 
REMARK    4  A    between atoms: C19_25  and  O5_27 
ROOT
HETATM    1  C4  UNL     1      13.300   0.234  27.845  1.00  0.00     0.062 C 
HETATM    2  C5  UNL     1      12.859  -1.252  27.685  1.00  0.00     0.021 C 
HETATM    3  C6  UNL     1      11.465  -1.357  28.188  1.00  0.00     0.009 C 
HETATM    4  C7  UNL     1      10.987  -0.019  27.948  1.00  0.00     0.029 C 
HETATM    5  C8  UNL     1      12.113   0.985  27.915  1.00  0.00     0.050 C 
HETATM    6  C9  UNL     1      11.352   1.983  27.207  1.00  0.00     0.121 C 
HETATM    7 CL1  UNL     1      11.972   3.646  27.190  1.00  0.00    -0.101 Cl
HETATM    8 CL2  UNL     1      10.633   1.646  25.667  1.00  0.00    -0.101 Cl
HETATM    9  C10 UNL     1      10.184   2.053  28.269  1.00  0.00     0.081 C 
HETATM   10  C11 UNL     1      10.183   0.703  28.968  1.00  0.00     0.074 C 
HETATM   11  C12 UNL     1       8.792   0.103  28.997  1.00  0.00     0.047 C 
HETATM   12  O3  UNL     1      10.856   0.592  30.163  1.00  0.00    -0.310 OA
HETATM   13  C13 UNL     1      12.047   0.183  30.738  1.00  0.00     0.264 C 
HETATM   14  O4  UNL     1      11.846  -0.512  31.748  1.00  0.00    -0.265 OA
HETATM   15  C14 UNL     1      13.408   0.408  30.397  1.00  0.00     0.094 C 
HETATM   16  C15 UNL     1      14.251  -0.300  31.472  1.00  0.00     0.015 C 
HETATM   17  C16 UNL     1      14.958   0.688  32.373  1.00  0.00     0.001 C 
HETATM   18  C17 UNL     1      16.159   1.111  31.513  1.00  0.00     0.003 C 
HETATM   19  C18 UNL     1      15.677   1.887  30.352  1.00  0.00     0.038 C 
HETATM   20  C19 UNL     1      15.318   1.147  29.103  1.00  0.00     0.060 C 
HETATM   21  C20 UNL     1      16.601   0.447  28.676  1.00  0.00     0.046 C 
HETATM   22  C21 UNL     1      14.112   0.244  29.129  1.00  0.00     0.052 C 
ENDROOT
BRANCH   1  23
HETATM   23  C3  UNL     1      14.075   0.459  26.602  1.00  0.00     0.268 C 
HETATM   24  O2  UNL     1      14.842  -0.448  26.184  1.00  0.00    -0.264 OA
BRANCH  23  25
HETATM   25  O1  UNL     1      14.059   1.589  25.814  1.00  0.00    -0.321 OA
BRANCH  25  26
HETATM   26  C2  UNL     1      14.884   1.726  24.648  1.00  0.00     0.174 C 
HETATM   27  C1  UNL     1      16.125   2.484  24.977  1.00  0.00     0.034 C 
ENDBRANCH  25  26
ENDBRANCH  23  25
ENDBRANCH   1  23
BRANCH  20  28
HETATM   28  O5  UNL     1      15.172   2.216  28.191  1.00  0.00    -0.390 OA
ATOM     29  H5  UNL     1      16.040   2.242  27.804  1.00  0.00     0.210 HD
ENDBRANCH  20  28
TORSDOF 4
ENDMDL
MODEL 3
REMARK VINA RESULT: 2.432559438      1.945      4.366
REMARK  4 active torsions:
REMARK  status: ('A' for Active; 'I' for Inactive)
REMARK    1  A    between atoms: C2_2  and  O1_3 
REMARK    2  A    between atoms: O1_3  and  C3_4 
REMARK    3  A    between atoms: C3_4  and  C4_6 
REMARK    4  A    between atoms: C19_25  and  O5_27 
ROOT
HETATM    1  C4  UNL     1      13.412   0.146  29.545  1.00  0.00     0.062 C 
HETATM    2  C5  UNL     1      13.841  -1.352  29.601  1.00  0.00     0.021 C 
HETATM    3  C6  UNL     1      15.213  -1.400  30.166  1.00  0.00     0.009 C 
HETATM    4  C7  UNL     1      15.217  -0.208  30.976  1.00  0.00     0.029 C 
HETATM    5  C8  UNL     1      14.225   0.815  30.477  1.00  0.00     0.050 C 
HETATM    6  C9  UNL     1      14.175   1.538  31.723  1.00  0.00     0.121 C 
HETATM    7 CL1  UNL     1      13.473   3.168  31.712  1.00  0.00    -0.101 Cl
HETATM    8 CL2  UNL     1      13.729   0.754  33.203  1.00  0.00    -0.101 Cl
HETATM    9  C10 UNL     1      15.727   1.823  31.787  1.00  0.00     0.081 C 
HETATM   10  C11 UNL     1      16.382   0.714  30.979  1.00  0.00     0.074 C 
HETATM   11  C12 UNL     1      17.508   0.062  31.755  1.00  0.00     0.047 C 
HETATM   12  O3  UNL     1      16.696   0.970  29.664  1.00  0.00    -0.310 OA
HETATM   13  C13 UNL     1      16.260   0.804  28.361  1.00  0.00     0.264 C 
HETATM   14  O4  UNL     1      17.175   0.397  27.626  1.00  0.00    -0.265 OA
HETATM   15  C14 UNL     1      15.001   1.009  27.733  1.00  0.00     0.094 C 
HETATM   16  C15 UNL     1      15.195   0.669  26.244  1.00  0.00     0.015 C 
HETATM   17  C16 UNL     1      15.134   1.904  25.374  1.00  0.00     0.001 C 
HETATM   18  C17 UNL     1      13.621   2.150  25.263  1.00  0.00     0.003 C 
HETATM   19  C18 UNL     1      13.096   2.553  26.584  1.00  0.00     0.038 C 
HETATM   20  C19 UNL     1      12.635   1.483  27.522  1.00  0.00     0.060 C 
HETATM   21  C20 UNL     1      11.508   0.771  26.786  1.00  0.00     0.046 C 
HETATM   22  C21 UNL     1      13.667   0.551  28.103  1.00  0.00     0.052 C 
ENDROOT
BRANCH   1  23
HETATM   23  C3  UNL     1      11.987   0.071  29.943  1.00  0.00     0.268 C 
HETATM   24  O2  UNL     1      11.430   1.093  30.425  1.00  0.00    -0.264 OA
BRANCH  23  25
HETATM   25  O1  UNL     1      11.162  -1.027  29.848  1.00  0.00    -0.321 OA
BRANCH  25  26
HETATM   26  C2  UNL     1      10.603  -1.465  28.601  1.00  0.00     0.174 C 
HETATM   27  C1  UNL     1       9.144  -1.162  28.552  1.00  0.00     0.034 C 
ENDBRANCH  25  26
ENDBRANCH  23  25
ENDBRANCH   1  23
BRANCH  20  28
HETATM   28  O5  UNL     1      11.987   2.255  28.511  1.00  0.00    -0.390 OA
ATOM     29  H5  UNL     1      11.087   2.215  28.209  1.00  0.00     0.210 HD
ENDBRANCH  20  28
TORSDOF 4
ENDMDL
MODEL 4
REMARK VINA RESULT: 3.589699269      2.311      4.725
REMARK  4 active torsions:
REMARK  status: ('A' for Active; 'I' for Inactive)
REMARK    1  A    between atoms: C2_2  and  O1_3 
REMARK    2  A    between atoms: O1_3  and  C3_4 
REMARK    3  A    between atoms: C3_4  and  C4_6 
REMARK    4  A    between atoms: C19_25  and  O5_27 
ROOT
HETATM    1  C4  UNL     1      11.902   0.396  29.084  1.00  0.00     0.062 C 
HETATM    2  C5  UNL     1      11.386   1.634  29.877  1.00  0.00     0.021 C 
HETATM    3  C6  UNL     1      10.080   2.026  29.289  1.00  0.00     0.009 C 
HETATM    4  C7  UNL     1       9.621   0.760  28.776  1.00  0.00     0.029 C 
HETATM    5  C8  UNL     1      10.767  -0.178  28.484  1.00  0.00     0.050 C 
HETATM    6  C9  UNL     1       9.947  -1.363  28.496  1.00  0.00     0.121 C 
HETATM    7 CL1  UNL     1      10.619  -2.848  27.796  1.00  0.00    -0.101 Cl
HETATM    8 CL2  UNL     1       8.995  -1.787  29.882  1.00  0.00    -0.101 Cl
HETATM    9  C10 UNL     1       8.953  -0.863  27.375  1.00  0.00     0.081 C 
HETATM   10  C11 UNL     1       9.005   0.656  27.428  1.00  0.00     0.074 C 
HETATM   11  C12 UNL     1       7.613   1.250  27.488  1.00  0.00     0.047 C 
HETATM   12  O3  UNL     1       9.844   1.306  26.551  1.00  0.00    -0.310 OA
HETATM   13  C13 UNL     1      11.091   1.894  26.430  1.00  0.00     0.264 C 
HETATM   14  O4  UNL     1      11.017   3.000  25.868  1.00  0.00    -0.265 OA
HETATM   15  C14 UNL     1      12.394   1.478  26.816  1.00  0.00     0.094 C 
HETATM   16  C15 UNL     1      13.360   2.585  26.358  1.00  0.00     0.015 C 
HETATM   17  C16 UNL     1      14.229   2.131  25.207  1.00  0.00     0.001 C 
HETATM   18  C17 UNL     1      15.304   1.296  25.920  1.00  0.00     0.003 C 
HETATM   19  C18 UNL     1      14.684   0.074  26.473  1.00  0.00     0.038 C 
HETATM   20  C19 UNL     1      14.117   0.128  27.855  1.00  0.00     0.060 C 
HETATM   21  C20 UNL     1      15.295   0.482  28.752  1.00  0.00     0.046 C 
HETATM   22  C21 UNL     1      12.895   0.978  28.092  1.00  0.00     0.052 C 
ENDROOT
BRANCH   1  23
HETATM   23  C3  UNL     1      12.491  -0.434  30.160  1.00  0.00     0.268 C 
HETATM   24  O2  UNL     1      12.323  -1.682  30.136  1.00  0.00    -0.264 OA
BRANCH  23  25
HETATM   25  O1  UNL     1      13.230   0.013  31.234  1.00  0.00    -0.321 OA
BRANCH  25  26
HETATM   26  C2  UNL     1      14.484  -0.579  31.605  1.00  0.00     0.174 C 
HETATM   27  C1  UNL     1      15.407   0.460  32.145  1.00  0.00     0.034 C 
ENDBRANCH  25  26
ENDBRANCH  23  25
ENDBRANCH   1  23
BRANCH  20  28
HETATM   28  O5  UNL     1      13.877  -1.241  28.100  1.00  0.00    -0.390 OA
ATOM     29  H5  UNL     1      13.124  -1.192  28.678  1.00  0.00     0.210 HD
ENDBRANCH  20  28
TORSDOF 4
ENDMDL
MODEL 5
REMARK VINA RESULT: 4.894086557      1.701      4.650
REMARK  4 active torsions:
REMARK  status: ('A' for Active; 'I' for Inactive)
REMARK    1  A    between atoms: C2_2  and  O1_3 
REMARK    2  A    between atoms: O1_3  and  C3_4 
REMARK    3  A    between atoms: C3_4  and  C4_6 
REMARK    4  A    between atoms: C19_25  and  O5_27 
ROOT
HETATM    1  C4  UNL     1      13.930   1.464  28.732  1.00  0.00     0.062 C 
HETATM    2  C5  UNL     1      13.988   2.695  29.686  1.00  0.00     0.021 C 
HETATM    3  C6  UNL     1      14.581   2.236  30.968  1.00  0.00     0.009 C 
HETATM    4  C7  UNL     1      15.396   1.138  30.513  1.00  0.00     0.029 C 
HETATM    5  C8  UNL     1      14.882   0.552  29.220  1.00  0.00     0.050 C 
HETATM    6  C9  UNL     1      16.130  -0.085  28.882  1.00  0.00     0.121 C 
HETATM    7 CL1  UNL     1      16.112  -1.336  27.624  1.00  0.00    -0.101 Cl
HETATM    8 CL2  UNL     1      17.597   0.826  28.734  1.00  0.00    -0.101 Cl
HETATM    9  C10 UNL     1      16.228  -0.927  30.215  1.00  0.00     0.081 C 
HETATM   10  C11 UNL     1      15.429  -0.152  31.250  1.00  0.00     0.074 C 
HETATM   11  C12 UNL     1      16.225   0.043  32.525  1.00  0.00     0.047 C 
HETATM   12  O3  UNL     1      14.121  -0.523  31.470  1.00  0.00    -0.310 OA
HETATM   13  C13 UNL     1      12.809  -0.222  31.149  1.00  0.00     0.264 C 
HETATM   14  O4  UNL     1      12.091  -0.194  32.163  1.00  0.00    -0.265 OA
HETATM   15  C14 UNL     1      12.155   0.049  29.916  1.00  0.00     0.094 C 
HETATM   16  C15 UNL     1      10.670   0.274  30.249  1.00  0.00     0.015 C 
HETATM   17  C16 UNL     1       9.804  -0.860  29.747  1.00  0.00     0.001 C 
HETATM   18  C17 UNL     1       9.663  -0.526  28.254  1.00  0.00     0.003 C 
HETATM   19  C18 UNL     1      10.974  -0.688  27.594  1.00  0.00     0.038 C 
HETATM   20  C19 UNL     1      11.897   0.487  27.548  1.00  0.00     0.060 C 
HETATM   21  C20 UNL     1      11.135   1.559  26.781  1.00  0.00     0.046 C 
HETATM   22  C21 UNL     1      12.496   0.976  28.842  1.00  0.00     0.052 C 
ENDROOT
BRANCH   1  23
HETATM   23  C3  UNL     1      14.298   2.068  27.430  1.00  0.00     0.268 C 
HETATM   24  O2  UNL     1      13.703   3.110  27.047  1.00  0.00    -0.264 OA
BRANCH  23  25
HETATM   25  O1  UNL     1      15.250   1.608  26.548  1.00  0.00    -0.321 OA
BRANCH  25  26
HETATM   26  C2  UNL     1      15.212   1.912  25.146  1.00  0.00     0.174 C 
HETATM   27  C1  UNL     1      16.483   2.566  24.723  1.00  0.00     0.034 C 
ENDBRANCH  25  26
ENDBRANCH  23  25
ENDBRANCH   1  23
BRANCH  20  28
HETATM   28  O5  UNL     1      12.876   0.025  26.642  1.00  0.00    -0.390 OA
ATOM     29  H5  UNL     1      12.892   0.738  26.014  1.00  0.00     0.210 HD
ENDBRANCH  20  28
TORSDOF 4
ENDMDL
