MODEL 1
REMARK VINA RESULT: 1.733825704      0.000      0.000
REMARK  4 active torsions:
REMARK  status: ('A' for Active; 'I' for Inactive)
REMARK    1  A    between atoms: O1_2  and  C2_3 
REMARK    2  A    between atoms: C2_3  and  C3_5 
REMARK    3  A    between atoms: C10_13  and  C11_14 
REMARK    4  A    between atoms: C17_21  and  O4_22 
ROOT
HETATM    1  C3  UNL     1       9.575   0.756  28.439  1.00  0.00     0.019 C 
HETATM    2  C4  UNL     1       9.062   1.210  27.273  1.00  0.00    -0.013 C 
HETATM    3  C5  UNL     1       9.863   1.722  26.156  1.00  0.00     0.029 C 
HETATM    4  C6  UNL     1      11.203   2.172  26.733  1.00  0.00     0.021 C 
HETATM    5  C7  UNL     1      11.843   1.056  27.503  1.00  0.00     0.026 C 
HETATM    6  C8  UNL     1      12.052  -0.078  26.558  1.00  0.00     0.024 C 
HETATM    7  C9  UNL     1      13.128   1.561  28.088  1.00  0.00     0.155 C 
HETATM    8  O3  UNL     1      12.939   2.752  28.380  1.00  0.00    -0.295 OA
HETATM    9  C10 UNL     1      14.452   1.049  28.385  1.00  0.00     0.103 C 
HETATM   10  C15 UNL     1      14.424  -0.348  29.002  1.00  0.00     0.060 C 
HETATM   11  C16 UNL     1      13.917  -0.129  30.365  1.00  0.00     0.092 C 
HETATM   12 CL1  UNL     1      14.544  -1.503  31.376  1.00  0.00    -0.114 Cl
HETATM   13  C17 UNL     1      12.452  -0.052  30.578  1.00  0.00     0.144 C 
HETATM   14  C18 UNL     1      11.564  -0.457  29.440  1.00  0.00     0.044 C 
HETATM   15  C19 UNL     1      10.987   0.728  28.710  1.00  0.00     0.042 C 
HETATM   16  C20 UNL     1      14.671   1.087  30.812  1.00  0.00     0.119 C 
HETATM   17  C21 UNL     1      13.899   1.946  31.781  1.00  0.00     0.043 C 
HETATM   18 CL2  UNL     1      16.163   0.568  31.626  1.00  0.00    -0.109 Cl
HETATM   19  C22 UNL     1      15.020   1.792  29.571  1.00  0.00     0.171 C 
HETATM   20  O5  UNL     1      15.668   2.813  29.534  1.00  0.00    -0.294 OA
ENDROOT
BRANCH   1  21
HETATM   21  C2  UNL     1       8.526   0.309  29.376  1.00  0.00     0.289 C 
HETATM   22  O2  UNL     1       7.932   1.147  30.067  1.00  0.00    -0.260 OA
BRANCH  21  23
HETATM   23  O1  UNL     1       8.148  -1.012  29.540  1.00  0.00    -0.323 OA
HETATM   24  C1  UNL     1       7.842  -1.867  28.454  1.00  0.00     0.213 C 
ENDBRANCH  21  23
ENDBRANCH   1  21
BRANCH  13  25
HETATM   25  O4  UNL     1      12.143  -0.731  31.755  1.00  0.00    -0.394 OA
ATOM     26  H4  UNL     1      11.229  -0.989  31.721  1.00  0.00     0.210 HD
ENDBRANCH  13  25
BRANCH   9  27
HETATM   27  C11 UNL     1      15.374   1.107  27.260  1.00  0.00     0.000 C 
HETATM   28  C12 UNL     1      15.267   1.569  26.049  1.00  0.00    -0.090 C 
HETATM   29  C13 UNL     1      14.124   2.213  25.392  1.00  0.00     0.042 C 
HETATM   30  C14 UNL     1      16.506   1.428  25.161  1.00  0.00     0.042 C 
ENDBRANCH   9  27
TORSDOF 4
ENDMDL
MODEL 2
REMARK VINA RESULT: 1.811792972      2.241      4.198
REMARK  4 active torsions:
REMARK  status: ('A' for Active; 'I' for Inactive)
REMARK    1  A    between atoms: O1_2  and  C2_3 
REMARK    2  A    between atoms: C2_3  and  C3_5 
REMARK    3  A    between atoms: C10_13  and  C11_14 
REMARK    4  A    between atoms: C17_21  and  O4_22 
ROOT
HETATM    1  C3  UNL     1       9.512   0.527  27.769  1.00  0.00     0.019 C 
HETATM    2  C4  UNL     1       8.651  -0.429  28.182  1.00  0.00    -0.013 C 
HETATM    3  C5  UNL     1       9.026  -1.588  29.000  1.00  0.00     0.029 C 
HETATM    4  C6  UNL     1      10.522  -1.814  28.798  1.00  0.00     0.021 C 
HETATM    5  C7  UNL     1      11.287  -0.561  29.101  1.00  0.00     0.026 C 
HETATM    6  C8  UNL     1      11.014  -0.202  30.522  1.00  0.00     0.024 C 
HETATM    7  C9  UNL     1      12.741  -0.820  28.843  1.00  0.00     0.155 C 
HETATM    8  O3  UNL     1      12.796  -1.597  27.877  1.00  0.00    -0.295 OA
HETATM    9  C10 UNL     1      14.022  -0.420  29.393  1.00  0.00     0.103 C 
HETATM   10  C15 UNL     1      14.085   1.069  29.729  1.00  0.00     0.060 C 
HETATM   11  C16 UNL     1      14.147   1.731  28.418  1.00  0.00     0.092 C 
HETATM   12 CL1  UNL     1      14.963   3.333  28.686  1.00  0.00    -0.114 Cl
HETATM   13  C17 UNL     1      12.881   1.993  27.690  1.00  0.00     0.144 C 
HETATM   14  C18 UNL     1      11.598   1.802  28.441  1.00  0.00     0.044 C 
HETATM   15  C19 UNL     1      10.914   0.506  28.092  1.00  0.00     0.042 C 
HETATM   16  C20 UNL     1      15.130   0.890  27.663  1.00  0.00     0.119 C 
HETATM   17  C21 UNL     1      14.866   0.846  26.179  1.00  0.00     0.043 C 
HETATM   18 CL2  UNL     1      16.758   1.564  27.897  1.00  0.00    -0.109 Cl
HETATM   19  C22 UNL     1      15.062  -0.433  28.298  1.00  0.00     0.171 C 
HETATM   20  O5  UNL     1      15.749  -1.375  27.973  1.00  0.00    -0.294 OA
ENDROOT
BRANCH   1  21
HETATM   21  C2  UNL     1       8.848   1.566  26.957  1.00  0.00     0.289 C 
HETATM   22  O2  UNL     1       9.352   1.910  25.881  1.00  0.00    -0.260 OA
BRANCH  21  23
HETATM   23  O1  UNL     1       7.672   2.197  27.323  1.00  0.00    -0.323 OA
HETATM   24  C1  UNL     1       7.405   2.623  28.647  1.00  0.00     0.213 C 
ENDBRANCH  21  23
ENDBRANCH   1  21
BRANCH  13  25
HETATM   25  O4  UNL     1      12.966   3.253  27.101  1.00  0.00    -0.394 OA
ATOM     26  H4  UNL     1      13.301   3.148  26.218  1.00  0.00     0.210 HD
ENDBRANCH  13  25
BRANCH   9  27
HETATM   27  C11 UNL     1      14.460  -1.231  30.520  1.00  0.00     0.000 C 
HETATM   28  C12 UNL     1      15.390  -1.076  31.415  1.00  0.00    -0.090 C 
HETATM   29  C13 UNL     1      16.348   0.022  31.589  1.00  0.00     0.042 C 
HETATM   30  C14 UNL     1      15.523  -2.195  32.451  1.00  0.00     0.042 C 
ENDBRANCH   9  27
TORSDOF 4
ENDMDL
MODEL 3
REMARK VINA RESULT: 3.334229985      2.212      4.243
REMARK  4 active torsions:
REMARK  status: ('A' for Active; 'I' for Inactive)
REMARK    1  A    between atoms: O1_2  and  C2_3 
REMARK    2  A    between atoms: C2_3  and  C3_5 
REMARK    3  A    between atoms: C10_13  and  C11_14 
REMARK    4  A    between atoms: C17_21  and  O4_22 
ROOT
HETATM    1  C3  UNL     1       9.593   0.510  27.741  1.00  0.00     0.019 C 
HETATM    2  C4  UNL     1       8.727  -0.455  28.123  1.00  0.00    -0.013 C 
HETATM    3  C5  UNL     1       9.089  -1.624  28.933  1.00  0.00     0.029 C 
HETATM    4  C6  UNL     1      10.590  -1.842  28.760  1.00  0.00     0.021 C 
HETATM    5  C7  UNL     1      11.343  -0.590  29.096  1.00  0.00     0.026 C 
HETATM    6  C8  UNL     1      11.039  -0.251  30.516  1.00  0.00     0.024 C 
HETATM    7  C9  UNL     1      12.804  -0.840  28.865  1.00  0.00     0.155 C 
HETATM    8  O3  UNL     1      12.882  -1.604  27.891  1.00  0.00    -0.295 OA
HETATM    9  C10 UNL     1      14.071  -0.443  29.448  1.00  0.00     0.103 C 
HETATM   10  C15 UNL     1      14.121   1.042  29.806  1.00  0.00     0.060 C 
HETATM   11  C16 UNL     1      14.208   1.721  28.505  1.00  0.00     0.092 C 
HETATM   12 CL1  UNL     1      15.012   3.322  28.812  1.00  0.00    -0.114 Cl
HETATM   13  C17 UNL     1      12.957   1.988  27.754  1.00  0.00     0.144 C 
HETATM   14  C18 UNL     1      11.659   1.783  28.475  1.00  0.00     0.044 C 
HETATM   15  C19 UNL     1      10.987   0.490  28.094  1.00  0.00     0.042 C 
HETATM   16  C20 UNL     1      15.211   0.893  27.760  1.00  0.00     0.119 C 
HETATM   17  C21 UNL     1      14.978   0.869  26.270  1.00  0.00     0.043 C 
HETATM   18 CL2  UNL     1      16.830   1.570  28.038  1.00  0.00    -0.109 Cl
HETATM   19  C22 UNL     1      15.134  -0.438  28.376  1.00  0.00     0.171 C 
HETATM   20  O5  UNL     1      15.831  -1.372  28.053  1.00  0.00    -0.294 OA
ENDROOT
BRANCH   1  21
HETATM   21  C2  UNL     1       8.942   1.557  26.930  1.00  0.00     0.289 C 
HETATM   22  O2  UNL     1       8.071   2.270  27.444  1.00  0.00    -0.260 OA
BRANCH  21  23
HETATM   23  O1  UNL     1       9.244   1.805  25.602  1.00  0.00    -0.323 OA
HETATM   24  C1  UNL     1      10.510   2.270  25.173  1.00  0.00     0.213 C 
ENDBRANCH  21  23
ENDBRANCH   1  21
BRANCH  13  25
HETATM   25  O4  UNL     1      13.049   3.256  27.184  1.00  0.00    -0.394 OA
ATOM     26  H4  UNL     1      12.208   3.474  26.801  1.00  0.00     0.210 HD
ENDBRANCH  13  25
BRANCH   9  27
HETATM   27  C11 UNL     1      14.488  -1.268  30.573  1.00  0.00     0.000 C 
HETATM   28  C12 UNL     1      15.430  -1.145  31.462  1.00  0.00    -0.090 C 
HETATM   29  C13 UNL     1      16.427  -0.081  31.626  1.00  0.00     0.042 C 
HETATM   30  C14 UNL     1      15.530  -2.267  32.498  1.00  0.00     0.042 C 
ENDBRANCH   9  27
TORSDOF 4
ENDMDL
MODEL 4
REMARK VINA RESULT: 3.622382640      2.659      6.144
REMARK  4 active torsions:
REMARK  status: ('A' for Active; 'I' for Inactive)
REMARK    1  A    between atoms: O1_2  and  C2_3 
REMARK    2  A    between atoms: C2_3  and  C3_5 
REMARK    3  A    between atoms: C10_13  and  C11_14 
REMARK    4  A    between atoms: C17_21  and  O4_22 
ROOT
HETATM    1  C3  UNL     1      15.196   0.305  31.481  1.00  0.00     0.019 C 
HETATM    2  C4  UNL     1      14.663  -0.207  32.614  1.00  0.00    -0.013 C 
HETATM    3  C5  UNL     1      13.298  -0.732  32.725  1.00  0.00     0.029 C 
HETATM    4  C6  UNL     1      12.478  -0.094  31.606  1.00  0.00     0.021 C 
HETATM    5  C7  UNL     1      13.133  -0.329  30.278  1.00  0.00     0.026 C 
HETATM    6  C8  UNL     1      13.212  -1.804  30.073  1.00  0.00     0.024 C 
HETATM    7  C9  UNL     1      12.318   0.356  29.221  1.00  0.00     0.155 C 
HETATM    8  O3  UNL     1      11.867   1.389  29.738  1.00  0.00    -0.295 OA
HETATM    9  C10 UNL     1      11.947   0.137  27.836  1.00  0.00     0.103 C 
HETATM   10  C15 UNL     1      13.111  -0.356  26.980  1.00  0.00     0.060 C 
HETATM   11  C16 UNL     1      13.976   0.825  26.835  1.00  0.00     0.092 C 
HETATM   12 CL1  UNL     1      14.914   0.591  25.295  1.00  0.00    -0.114 Cl
HETATM   13  C17 UNL     1      14.951   1.131  27.909  1.00  0.00     0.144 C 
HETATM   14  C18 UNL     1      15.182   0.083  28.956  1.00  0.00     0.044 C 
HETATM   15  C19 UNL     1      14.466   0.390  30.245  1.00  0.00     0.042 C 
HETATM   16  C20 UNL     1      12.997   1.925  26.558  1.00  0.00     0.119 C 
HETATM   17  C21 UNL     1      13.447   3.269  27.073  1.00  0.00     0.043 C 
HETATM   18 CL2  UNL     1      12.782   2.070  24.799  1.00  0.00    -0.109 Cl
HETATM   19  C22 UNL     1      11.737   1.471  27.160  1.00  0.00     0.171 C 
HETATM   20  O5  UNL     1      10.701   2.092  27.106  1.00  0.00    -0.294 OA
ENDROOT
BRANCH   1  21
HETATM   21  C2  UNL     1      16.588   0.758  31.674  1.00  0.00     0.289 C 
HETATM   22  O2  UNL     1      17.069   1.589  30.893  1.00  0.00    -0.260 OA
BRANCH  21  23
HETATM   23  O1  UNL     1      17.413   0.311  32.691  1.00  0.00    -0.323 OA
HETATM   24  C1  UNL     1      17.726  -1.056  32.884  1.00  0.00     0.213 C 
ENDBRANCH  21  23
ENDBRANCH   1  21
BRANCH  13  25
HETATM   25  O4  UNL     1      16.139   1.554  27.316  1.00  0.00    -0.394 OA
ATOM     26  H4  UNL     1      16.522   2.231  27.862  1.00  0.00     0.210 HD
ENDBRANCH  13  25
BRANCH   9  27
HETATM   27  C11 UNL     1      10.774  -0.709  27.666  1.00  0.00     0.000 C 
HETATM   28  C12 UNL     1       9.550  -0.626  28.098  1.00  0.00    -0.090 C 
HETATM   29  C13 UNL     1       8.924   0.400  28.939  1.00  0.00     0.042 C 
HETATM   30  C14 UNL     1       8.608  -1.756  27.677  1.00  0.00     0.042 C 
ENDBRANCH   9  27
TORSDOF 4
ENDMDL
MODEL 5
REMARK VINA RESULT: 4.018240159      1.596      2.312
REMARK  4 active torsions:
REMARK  status: ('A' for Active; 'I' for Inactive)
REMARK    1  A    between atoms: O1_2  and  C2_3 
REMARK    2  A    between atoms: C2_3  and  C3_5 
REMARK    3  A    between atoms: C10_13  and  C11_14 
REMARK    4  A    between atoms: C17_21  and  O4_22 
ROOT
HETATM    1  C3  UNL     1       7.575   0.591  28.744  1.00  0.00     0.019 C 
HETATM    2  C4  UNL     1       6.881   1.585  28.145  1.00  0.00    -0.013 C 
HETATM    3  C5  UNL     1       7.487   2.661  27.353  1.00  0.00     0.029 C 
HETATM    4  C6  UNL     1       8.942   2.782  27.798  1.00  0.00     0.021 C 
HETATM    5  C7  UNL     1       9.635   1.457  27.688  1.00  0.00     0.026 C 
HETATM    6  C8  UNL     1       9.574   1.037  26.259  1.00  0.00     0.024 C 
HETATM    7  C9  UNL     1      11.043   1.617  28.181  1.00  0.00     0.155 C 
HETATM    8  O3  UNL     1      11.001   2.443  29.105  1.00  0.00    -0.295 OA
HETATM    9  C10 UNL     1      12.358   1.087  27.877  1.00  0.00     0.103 C 
HETATM   10  C15 UNL     1      12.347  -0.420  27.624  1.00  0.00     0.060 C 
HETATM   11  C16 UNL     1      12.131  -1.006  28.955  1.00  0.00     0.092 C 
HETATM   12 CL1  UNL     1      12.839  -2.679  28.903  1.00  0.00    -0.114 Cl
HETATM   13  C17 UNL     1      10.743  -1.125  29.465  1.00  0.00     0.144 C 
HETATM   14  C18 UNL     1       9.625  -0.880  28.497  1.00  0.00     0.044 C 
HETATM   15  C19 UNL     1       9.007   0.483  28.665  1.00  0.00     0.042 C 
HETATM   16  C20 UNL     1      13.043  -0.200  29.829  1.00  0.00     0.119 C 
HETATM   17  C21 UNL     1      12.539  -0.048  31.241  1.00  0.00     0.043 C 
HETATM   18 CL2  UNL     1      14.622  -1.011  29.908  1.00  0.00    -0.109 Cl
HETATM   19  C22 UNL     1      13.197   1.084  29.132  1.00  0.00     0.171 C 
HETATM   20  O5  UNL     1      13.898   1.987  29.528  1.00  0.00    -0.294 OA
ENDROOT
BRANCH   1  21
HETATM   21  C2  UNL     1       6.696  -0.343  29.474  1.00  0.00     0.289 C 
HETATM   22  O2  UNL     1       6.301  -0.044  30.608  1.00  0.00    -0.260 OA
BRANCH  21  23
HETATM   23  O1  UNL     1       6.272  -1.560  28.970  1.00  0.00    -0.323 OA
HETATM   24  C1  UNL     1       6.169  -1.825  27.583  1.00  0.00     0.213 C 
ENDBRANCH  21  23
ENDBRANCH   1  21
BRANCH  13  25
HETATM   25  O4  UNL     1      10.619  -2.350  30.116  1.00  0.00    -0.394 OA
ATOM     26  H4  UNL     1       9.786  -2.737  29.870  1.00  0.00     0.210 HD
ENDBRANCH  13  25
BRANCH   9  27
HETATM   27  C11 UNL     1      13.047   1.794  26.807  1.00  0.00     0.000 C 
HETATM   28  C12 UNL     1      14.190   1.609  26.214  1.00  0.00    -0.090 C 
HETATM   29  C13 UNL     1      15.205   0.575  26.444  1.00  0.00     0.042 C 
HETATM   30  C14 UNL     1      14.547   2.607  25.111  1.00  0.00     0.042 C 
ENDBRANCH   9  27
TORSDOF 4
ENDMDL
