MODEL 1
REMARK VINA RESULT: -4.589567564      0.000      0.000
REMARK  4 active torsions:
REMARK  status: ('A' for Active; 'I' for Inactive)
REMARK    1  A    between atoms: C3_3  and  O1_4 
REMARK    2  A    between atoms: O1_4  and  C4_5 
REMARK    3  A    between atoms: C9_11  and  O3_12 
REMARK    4  A    between atoms: C10_14  and  C11_15 
ROOT
HETATM    1  C1  UNL     1      12.922  -0.343  31.854  1.00  0.00     0.022 C 
HETATM    2  C2  UNL     1      13.285  -0.011  30.643  1.00  0.00    -0.029 C 
HETATM    3  C3  UNL     1      14.560  -0.358  30.018  1.00  0.00     0.081 C 
HETATM    4  C6  UNL     1      14.400  -0.370  28.692  1.00  0.00     0.016 C 
HETATM    5  C7  UNL     1      13.027  -0.038  28.367  1.00  0.00     0.022 C 
HETATM    6  C8  UNL     1      12.803   0.927  27.260  1.00  0.00     0.041 C 
HETATM    7  C9  UNL     1      11.398   1.378  27.171  1.00  0.00     0.123 C 
HETATM    8  C10 UNL     1      10.574   1.412  28.390  1.00  0.00     0.025 C 
HETATM    9  C20 UNL     1      11.104   0.654  29.589  1.00  0.00     0.018 C 
HETATM   10  C21 UNL     1      12.582   0.749  29.617  1.00  0.00     0.029 C 
ENDROOT
BRANCH   8  11
HETATM   11  C11 UNL     1       9.114   0.966  28.141  1.00  0.00    -0.008 C 
HETATM   12  C12 UNL     1       8.817   0.968  26.683  1.00  0.00     0.018 C 
HETATM   13  C13 UNL     1       8.116   1.892  28.829  1.00  0.00     0.142 C 
HETATM   14 CL1  UNL     1       7.321   3.073  27.801  1.00  0.00    -0.120 Cl
HETATM   15  C14 UNL     1       7.286   0.674  29.176  1.00  0.00     0.169 C 
HETATM   16 CL2  UNL     1       6.639   0.634  30.805  1.00  0.00    -0.085 Cl
HETATM   17  O4  UNL     1       6.464   0.175  28.149  1.00  0.00    -0.291 OA
HETATM   18  C19 UNL     1       8.620  -0.105  29.015  1.00  0.00     0.066 C 
HETATM   19  C15 UNL     1       6.850  -1.096  27.761  1.00  0.00     0.269 C 
HETATM   20  O5  UNL     1       6.316  -1.855  26.943  1.00  0.00    -0.264 OA
HETATM   21  C16 UNL     1       8.096  -1.394  28.557  1.00  0.00     0.049 C 
HETATM   22  C17 UNL     1       9.010  -2.355  27.900  1.00  0.00     0.026 C 
HETATM   23  C18 UNL     1       7.550  -2.109  29.812  1.00  0.00     0.026 C 
ENDBRANCH   8  11
BRANCH   7  24
HETATM   24  O3  UNL     1      11.470   2.704  26.649  1.00  0.00    -0.395 OA
ATOM     25  H3  UNL     1      11.431   2.599  25.706  1.00  0.00     0.210 HD
ENDBRANCH   7  24
BRANCH   3  26
HETATM   26  O1  UNL     1      15.785  -0.644  30.623  1.00  0.00    -0.279 OA
BRANCH  26  27
HETATM   27  C4  UNL     1      16.338   0.176  31.595  1.00  0.00     0.260 C 
HETATM   28  C5  UNL     1      17.081  -0.320  32.781  1.00  0.00     0.126 C 
HETATM   29  O2  UNL     1      16.198   1.416  31.455  1.00  0.00    -0.265 OA
ENDBRANCH  26  27
ENDBRANCH   3  26
TORSDOF 4
ENDMDL
MODEL 2
REMARK VINA RESULT: -3.342957983      2.890      7.370
REMARK  4 active torsions:
REMARK  status: ('A' for Active; 'I' for Inactive)
REMARK    1  A    between atoms: C3_3  and  O1_4 
REMARK    2  A    between atoms: O1_4  and  C4_5 
REMARK    3  A    between atoms: C9_11  and  O3_12 
REMARK    4  A    between atoms: C10_14  and  C11_15 
ROOT
HETATM    1  C1  UNL     1       9.171  -1.801  29.323  1.00  0.00     0.022 C 
HETATM    2  C2  UNL     1       9.281  -0.725  28.590  1.00  0.00    -0.029 C 
HETATM    3  C3  UNL     1       8.188   0.187  28.259  1.00  0.00     0.081 C 
HETATM    4  C6  UNL     1       8.697   1.395  28.003  1.00  0.00     0.016 C 
HETATM    5  C7  UNL     1      10.139   1.352  28.147  1.00  0.00     0.022 C 
HETATM    6  C8  UNL     1      10.949   2.022  27.098  1.00  0.00     0.041 C 
HETATM    7  C9  UNL     1      12.391   1.716  27.208  1.00  0.00     0.123 C 
HETATM    8  C10 UNL     1      12.813   0.433  27.793  1.00  0.00     0.025 C 
HETATM    9  C20 UNL     1      11.763  -0.339  28.564  1.00  0.00     0.018 C 
HETATM   10  C21 UNL     1      10.440  -0.144  27.924  1.00  0.00     0.029 C 
ENDROOT
BRANCH   8  11
HETATM   11  C11 UNL     1      14.071   0.562  28.683  1.00  0.00    -0.008 C 
HETATM   12  C12 UNL     1      14.307   1.988  29.035  1.00  0.00     0.018 C 
HETATM   13  C13 UNL     1      15.317   0.034  27.979  1.00  0.00     0.142 C 
HETATM   14 CL1  UNL     1      16.387   1.245  27.290  1.00  0.00    -0.120 Cl
HETATM   15  C14 UNL     1      15.767  -0.549  29.301  1.00  0.00     0.169 C 
HETATM   16 CL2  UNL     1      16.428  -2.173  29.229  1.00  0.00    -0.085 Cl
HETATM   17  O4  UNL     1      16.375   0.349  30.197  1.00  0.00    -0.291 OA
HETATM   18  C19 UNL     1      14.260  -0.505  29.673  1.00  0.00     0.066 C 
HETATM   19  C15 UNL     1      15.624   0.504  31.349  1.00  0.00     0.269 C 
HETATM   20  O5  UNL     1      15.886   1.156  32.367  1.00  0.00    -0.264 OA
HETATM   21  C16 UNL     1      14.371  -0.305  31.119  1.00  0.00     0.049 C 
HETATM   22  C17 UNL     1      13.196   0.183  31.875  1.00  0.00     0.026 C 
HETATM   23  C18 UNL     1      14.727  -1.682  31.720  1.00  0.00     0.026 C 
ENDBRANCH   8  11
BRANCH   7  24
HETATM   24  O3  UNL     1      12.882   1.774  25.870  1.00  0.00    -0.395 OA
ATOM     25  H3  UNL     1      12.254   1.279  25.357  1.00  0.00     0.210 HD
ENDBRANCH   7  24
BRANCH   3  26
HETATM   26  O1  UNL     1       6.817  -0.070  28.199  1.00  0.00    -0.279 OA
BRANCH  26  27
HETATM   27  C4  UNL     1       6.308  -1.360  28.183  1.00  0.00     0.260 C 
HETATM   28  C5  UNL     1       6.243  -2.217  26.971  1.00  0.00     0.126 C 
HETATM   29  O2  UNL     1       5.878  -1.828  29.266  1.00  0.00    -0.265 OA
ENDBRANCH  26  27
ENDBRANCH   3  26
TORSDOF 4
ENDMDL
MODEL 3
REMARK VINA RESULT: -3.151865542      2.955      7.523
REMARK  4 active torsions:
REMARK  status: ('A' for Active; 'I' for Inactive)
REMARK    1  A    between atoms: C3_3  and  O1_4 
REMARK    2  A    between atoms: O1_4  and  C4_5 
REMARK    3  A    between atoms: C9_11  and  O3_12 
REMARK    4  A    between atoms: C10_14  and  C11_15 
ROOT
HETATM    1  C1  UNL     1       9.587  -1.455  29.302  1.00  0.00     0.022 C 
HETATM    2  C2  UNL     1       9.951  -0.425  28.583  1.00  0.00    -0.029 C 
HETATM    3  C3  UNL     1       9.086   0.690  28.207  1.00  0.00     0.081 C 
HETATM    4  C6  UNL     1       9.844   1.767  27.985  1.00  0.00     0.016 C 
HETATM    5  C7  UNL     1      11.237   1.431  28.201  1.00  0.00     0.022 C 
HETATM    6  C8  UNL     1      12.219   1.919  27.198  1.00  0.00     0.041 C 
HETATM    7  C9  UNL     1      13.561   1.324  27.377  1.00  0.00     0.123 C 
HETATM    8  C10 UNL     1      13.681  -0.017  27.973  1.00  0.00     0.025 C 
HETATM    9  C20 UNL     1      12.458  -0.556  28.684  1.00  0.00     0.018 C 
HETATM   10  C21 UNL     1      11.237  -0.096  27.981  1.00  0.00     0.029 C 
ENDROOT
BRANCH   8  11
HETATM   11  C11 UNL     1      14.893  -0.146  28.926  1.00  0.00    -0.008 C 
HETATM   12  C12 UNL     1      16.119   0.385  28.272  1.00  0.00     0.018 C 
HETATM   13  C13 UNL     1      15.152  -1.598  29.315  1.00  0.00     0.142 C 
HETATM   14 CL1  UNL     1      16.466  -2.402  28.470  1.00  0.00    -0.120 Cl
HETATM   15  C14 UNL     1      15.479  -1.121  30.714  1.00  0.00     0.169 C 
HETATM   16 CL2  UNL     1      14.810  -2.083  32.020  1.00  0.00    -0.085 Cl
HETATM   17  O4  UNL     1      16.772  -0.600  30.902  1.00  0.00    -0.291 OA
HETATM   18  C19 UNL     1      14.615   0.114  30.344  1.00  0.00     0.066 C 
HETATM   19  C15 UNL     1      16.735   0.742  31.236  1.00  0.00     0.269 C 
HETATM   20  O5  UNL     1      17.670   1.496  31.535  1.00  0.00    -0.264 OA
HETATM   21  C16 UNL     1      15.280   1.131  31.160  1.00  0.00     0.049 C 
HETATM   22  C17 UNL     1      15.057   2.563  30.857  1.00  0.00     0.026 C 
HETATM   23  C18 UNL     1      14.783   0.916  32.606  1.00  0.00     0.026 C 
ENDBRANCH   8  11
BRANCH   7  24
HETATM   24  O3  UNL     1      14.120   1.277  26.066  1.00  0.00    -0.395 OA
ATOM     25  H3  UNL     1      14.576   0.444  26.024  1.00  0.00     0.210 HD
ENDBRANCH   7  24
BRANCH   3  26
HETATM   26  O1  UNL     1       7.696   0.719  28.076  1.00  0.00    -0.279 OA
BRANCH  26  27
HETATM   27  C4  UNL     1       6.865   1.108  29.116  1.00  0.00     0.260 C 
HETATM   28  C5  UNL     1       6.430   2.507  29.358  1.00  0.00     0.126 C 
HETATM   29  O2  UNL     1       6.458   0.214  29.898  1.00  0.00    -0.265 OA
ENDBRANCH  26  27
ENDBRANCH   3  26
TORSDOF 4
ENDMDL
MODEL 4
REMARK VINA RESULT: -1.572791741      2.908      7.290
REMARK  4 active torsions:
REMARK  status: ('A' for Active; 'I' for Inactive)
REMARK    1  A    between atoms: C3_3  and  O1_4 
REMARK    2  A    between atoms: O1_4  and  C4_5 
REMARK    3  A    between atoms: C9_11  and  O3_12 
REMARK    4  A    between atoms: C10_14  and  C11_15 
ROOT
HETATM    1  C1  UNL     1       9.709  -2.501  28.687  1.00  0.00     0.022 C 
HETATM    2  C2  UNL     1       9.541  -1.300  28.200  1.00  0.00    -0.029 C 
HETATM    3  C3  UNL     1       8.271  -0.578  28.151  1.00  0.00     0.081 C 
HETATM    4  C6  UNL     1       8.521   0.733  28.129  1.00  0.00     0.016 C 
HETATM    5  C7  UNL     1       9.953   0.953  28.163  1.00  0.00     0.022 C 
HETATM    6  C8  UNL     1      10.509   1.969  27.232  1.00  0.00     0.041 C 
HETATM    7  C9  UNL     1      11.986   1.943  27.175  1.00  0.00     0.123 C 
HETATM    8  C10 UNL     1      12.695   0.680  27.437  1.00  0.00     0.025 C 
HETATM    9  C20 UNL     1      11.893  -0.426  28.091  1.00  0.00     0.018 C 
HETATM   10  C21 UNL     1      10.496  -0.377  27.600  1.00  0.00     0.029 C 
ENDROOT
BRANCH   8  11
HETATM   11  C11 UNL     1      13.998   0.879  28.247  1.00  0.00    -0.008 C 
HETATM   12  C12 UNL     1      14.334   2.325  28.333  1.00  0.00     0.018 C 
HETATM   13  C13 UNL     1      15.177   0.155  27.605  1.00  0.00     0.142 C 
HETATM   14 CL1  UNL     1      16.285   1.153  26.677  1.00  0.00    -0.120 Cl
HETATM   15  C14 UNL     1      15.651  -0.219  28.993  1.00  0.00     0.169 C 
HETATM   16 CL2  UNL     1      16.211  -1.870  29.186  1.00  0.00    -0.085 Cl
HETATM   17  O4  UNL     1      16.351   0.779  29.696  1.00  0.00    -0.291 OA
HETATM   18  C19 UNL     1      14.168  -0.011  29.403  1.00  0.00     0.066 C 
HETATM   19  C15 UNL     1      15.664   1.182  30.827  1.00  0.00     0.269 C 
HETATM   20  O5  UNL     1      16.010   1.982  31.704  1.00  0.00    -0.264 OA
HETATM   21  C16 UNL     1      14.356   0.430  30.786  1.00  0.00     0.049 C 
HETATM   22  C17 UNL     1      13.247   1.120  31.484  1.00  0.00     0.026 C 
HETATM   23  C18 UNL     1      14.656  -0.842  31.608  1.00  0.00     0.026 C 
ENDBRANCH   8  11
BRANCH   7  24
HETATM   24  O3  UNL     1      12.310   2.365  25.852  1.00  0.00    -0.395 OA
ATOM     25  H3  UNL     1      13.179   2.742  25.921  1.00  0.00     0.210 HD
ENDBRANCH   7  24
BRANCH   3  26
HETATM   26  O1  UNL     1       6.971  -1.089  28.129  1.00  0.00    -0.279 OA
BRANCH  26  27
HETATM   27  C4  UNL     1       6.148  -1.061  29.245  1.00  0.00     0.260 C 
HETATM   28  C5  UNL     1       6.343  -0.153  30.404  1.00  0.00     0.126 C 
HETATM   29  O2  UNL     1       5.177  -1.857  29.269  1.00  0.00    -0.265 OA
ENDBRANCH  26  27
ENDBRANCH   3  26
TORSDOF 4
ENDMDL
MODEL 5
REMARK VINA RESULT: -1.436577692      3.101      7.470
REMARK  4 active torsions:
REMARK  status: ('A' for Active; 'I' for Inactive)
REMARK    1  A    between atoms: C3_3  and  O1_4 
REMARK    2  A    between atoms: O1_4  and  C4_5 
REMARK    3  A    between atoms: C9_11  and  O3_12 
REMARK    4  A    between atoms: C10_14  and  C11_15 
ROOT
HETATM    1  C1  UNL     1       9.338  -1.190  29.424  1.00  0.00     0.022 C 
HETATM    2  C2  UNL     1       9.638  -0.239  28.579  1.00  0.00    -0.029 C 
HETATM    3  C3  UNL     1       8.704   0.760  28.065  1.00  0.00     0.081 C 
HETATM    4  C6  UNL     1       9.391   1.847  27.705  1.00  0.00     0.016 C 
HETATM    5  C7  UNL     1      10.802   1.633  27.958  1.00  0.00     0.022 C 
HETATM    6  C8  UNL     1      11.756   2.052  26.898  1.00  0.00     0.041 C 
HETATM    7  C9  UNL     1      13.133   1.574  27.148  1.00  0.00     0.123 C 
HETATM    8  C10 UNL     1      13.337   0.331  27.909  1.00  0.00     0.025 C 
HETATM    9  C20 UNL     1      12.148  -0.191  28.688  1.00  0.00     0.018 C 
HETATM   10  C21 UNL     1      10.903   0.094  27.936  1.00  0.00     0.029 C 
ENDROOT
BRANCH   8  11
HETATM   11  C11 UNL     1      14.549   0.405  28.867  1.00  0.00    -0.008 C 
HETATM   12  C12 UNL     1      14.802   1.815  29.268  1.00  0.00     0.018 C 
HETATM   13  C13 UNL     1      15.816  -0.139  28.215  1.00  0.00     0.142 C 
HETATM   14 CL1  UNL     1      16.952   1.060  27.615  1.00  0.00    -0.120 Cl
HETATM   15  C14 UNL     1      16.182  -0.767  29.544  1.00  0.00     0.169 C 
HETATM   16 CL2  UNL     1      16.804  -2.405  29.464  1.00  0.00    -0.085 Cl
HETATM   17  O4  UNL     1      16.763   0.092  30.493  1.00  0.00    -0.291 OA
HETATM   18  C19 UNL     1      14.659  -0.692  29.837  1.00  0.00     0.066 C 
HETATM   19  C15 UNL     1      15.957   0.239  31.608  1.00  0.00     0.269 C 
HETATM   20  O5  UNL     1      16.182   0.859  32.655  1.00  0.00    -0.264 OA
HETATM   21  C16 UNL     1      14.698  -0.530  31.292  1.00  0.00     0.049 C 
HETATM   22  C17 UNL     1      13.498  -0.029  31.998  1.00  0.00     0.026 C 
HETATM   23  C18 UNL     1      14.987  -1.931  31.874  1.00  0.00     0.026 C 
ENDBRANCH   8  11
BRANCH   7  24
HETATM   24  O3  UNL     1      13.700   1.396  25.852  1.00  0.00    -0.395 OA
ATOM     25  H3  UNL     1      13.229   2.002  25.292  1.00  0.00     0.210 HD
ENDBRANCH   7  24
BRANCH   3  26
HETATM   26  O1  UNL     1       7.316   0.681  27.936  1.00  0.00    -0.279 OA
BRANCH  26  27
HETATM   27  C4  UNL     1       6.477   1.712  28.332  1.00  0.00     0.260 C 
HETATM   28  C5  UNL     1       6.409   2.249  29.715  1.00  0.00     0.126 C 
HETATM   29  O2  UNL     1       5.732   2.220  27.459  1.00  0.00    -0.265 OA
ENDBRANCH  26  27
ENDBRANCH   3  26
TORSDOF 4
ENDMDL
