MODEL 1
REMARK VINA RESULT: 5.901654243      0.000      0.000
REMARK  5 active torsions:
REMARK  status: ('A' for Active; 'I' for Inactive)
REMARK    1  A    between atoms: C2_2  and  C3_3 
REMARK    2  A    between atoms: C4_4  and  C5_5 
REMARK    3  A    between atoms: C18_22  and  O3_23 
REMARK    4  A    between atoms: C22_28  and  O4_29 
REMARK    5  A    between atoms: O4_29  and  C23_30 
ROOT
HETATM    1  C3  UNL     1      13.910   1.405  27.813  1.00  0.00     0.051 C 
HETATM    2  C4  UNL     1      13.450   0.062  27.367  1.00  0.00     0.007 C 
HETATM    3  C6  UNL     1      12.511  -0.334  28.163  1.00  0.00     0.063 C 
HETATM    4  C7  UNL     1      11.599  -1.471  28.406  1.00  0.00     0.293 C 
HETATM    5  O1  UNL     1      11.302  -2.356  27.601  1.00  0.00    -0.259 OA
HETATM    6  O2  UNL     1      11.182  -1.289  29.724  1.00  0.00    -0.309 OA
HETATM    7  C8  UNL     1      11.366   0.101  30.091  1.00  0.00     0.172 C 
HETATM    8  C9  UNL     1      11.466   0.226  31.560  1.00  0.00     0.036 C 
HETATM    9  C10 UNL     1      12.383  -0.789  32.209  1.00  0.00     0.003 C 
HETATM   10  C11 UNL     1      13.710  -0.018  32.345  1.00  0.00     0.006 C 
HETATM   11  C12 UNL     1      14.460  -0.084  31.051  1.00  0.00     0.004 C 
HETATM   12  C13 UNL     1      15.778  -0.844  31.229  1.00  0.00    -0.043 C 
HETATM   13  C14 UNL     1      16.110  -1.736  30.051  1.00  0.00     0.015 C 
HETATM   14  C15 UNL     1      15.617  -1.837  32.395  1.00  0.00     0.015 C 
HETATM   15  C16 UNL     1      16.900   0.031  31.656  1.00  0.00     0.011 C 
HETATM   16  C17 UNL     1      16.927   1.267  30.899  1.00  0.00     0.033 C 
HETATM   17  C18 UNL     1      15.944   1.361  29.735  1.00  0.00     0.127 C 
HETATM   18  C19 UNL     1      14.509   1.171  30.263  1.00  0.00    -0.006 C 
HETATM   19  C20 UNL     1      14.554   2.284  31.357  1.00  0.00     0.019 C 
HETATM   20  C21 UNL     1      13.461   1.484  29.282  1.00  0.00     0.051 C 
HETATM   21  C22 UNL     1      12.199   0.767  29.147  1.00  0.00     0.136 C 
ENDROOT
BRANCH  21  22
HETATM   22  O4  UNL     1      11.404   1.722  28.458  1.00  0.00    -0.302 OA
BRANCH  22  23
HETATM   23  C23 UNL     1      10.210   1.673  27.877  1.00  0.00     0.256 C 
HETATM   24  C24 UNL     1       8.893   1.778  28.584  1.00  0.00     0.126 C 
HETATM   25  O5  UNL     1      10.179   1.531  26.675  1.00  0.00    -0.266 OA
ENDBRANCH  22  23
ENDBRANCH  21  22
BRANCH   2  26
HETATM   26  C5  UNL     1      14.053  -0.596  26.178  1.00  0.00     0.384 C 
HETATM   27  F1  UNL     1      15.104   0.077  25.664  1.00  0.00    -0.209 F 
HETATM   28  F2  UNL     1      14.450  -1.887  26.480  1.00  0.00    -0.209 F 
ENDBRANCH   2  26
BRANCH   1  29
HETATM   29  C2  UNL     1      13.603   2.516  26.932  1.00  0.00    -0.027 C 
HETATM   30  C1  UNL     1      13.116   2.375  25.672  1.00  0.00     0.007 C 
ENDBRANCH   1  29
BRANCH  17  31
HETATM   31  O3  UNL     1      16.174   2.719  29.390  1.00  0.00    -0.395 OA
ATOM     32  H3  UNL     1      15.568   3.117  30.005  1.00  0.00     0.210 HD
ENDBRANCH  17  31
TORSDOF 5
ENDMDL
MODEL 2
REMARK VINA RESULT: 8.113492981      2.584      5.495
REMARK  5 active torsions:
REMARK  status: ('A' for Active; 'I' for Inactive)
REMARK    1  A    between atoms: C2_2  and  C3_3 
REMARK    2  A    between atoms: C4_4  and  C5_5 
REMARK    3  A    between atoms: C18_22  and  O3_23 
REMARK    4  A    between atoms: C22_28  and  O4_29 
REMARK    5  A    between atoms: O4_29  and  C23_30 
ROOT
HETATM    1  C3  UNL     1      15.588   1.288  29.383  1.00  0.00     0.051 C 
HETATM    2  C4  UNL     1      14.797   1.645  30.591  1.00  0.00     0.007 C 
HETATM    3  C6  UNL     1      14.016   0.653  30.875  1.00  0.00     0.063 C 
HETATM    4  C7  UNL     1      12.980   0.233  31.841  1.00  0.00     0.293 C 
HETATM    5  O1  UNL     1      12.766   0.731  32.949  1.00  0.00    -0.259 OA
HETATM    6  O2  UNL     1      12.335  -0.825  31.200  1.00  0.00    -0.309 OA
HETATM    7  C8  UNL     1      13.217  -1.373  30.190  1.00  0.00     0.172 C 
HETATM    8  C9  UNL     1      12.427  -2.081  29.162  1.00  0.00     0.036 C 
HETATM    9  C10 UNL     1      11.210  -1.320  28.679  1.00  0.00     0.003 C 
HETATM   10  C11 UNL     1      11.719  -0.633  27.398  1.00  0.00     0.006 C 
HETATM   11  C12 UNL     1      12.436   0.631  27.760  1.00  0.00     0.004 C 
HETATM   12  C13 UNL     1      11.700   1.850  27.196  1.00  0.00    -0.043 C 
HETATM   13  C14 UNL     1      11.696   3.030  28.145  1.00  0.00     0.015 C 
HETATM   14  C15 UNL     1      10.207   1.499  27.056  1.00  0.00     0.015 C 
HETATM   15  C16 UNL     1      12.119   2.192  25.813  1.00  0.00     0.011 C 
HETATM   16  C17 UNL     1      13.560   2.143  25.667  1.00  0.00     0.033 C 
HETATM   17  C18 UNL     1      14.356   1.926  26.952  1.00  0.00     0.127 C 
HETATM   18  C19 UNL     1      13.910   0.607  27.611  1.00  0.00    -0.006 C 
HETATM   19  C20 UNL     1      14.135  -0.316  26.372  1.00  0.00     0.019 C 
HETATM   20  C21 UNL     1      14.771   0.167  28.718  1.00  0.00     0.051 C 
HETATM   21  C22 UNL     1      14.304  -0.489  29.933  1.00  0.00     0.136 C 
ENDROOT
BRANCH  21  22
HETATM   22  O4  UNL     1      15.495  -1.112  30.393  1.00  0.00    -0.302 OA
BRANCH  22  23
HETATM   23  C23 UNL     1      15.929  -1.489  31.591  1.00  0.00     0.256 C 
HETATM   24  C24 UNL     1      16.953  -0.768  32.412  1.00  0.00     0.126 C 
HETATM   25  O5  UNL     1      15.459  -2.501  32.061  1.00  0.00    -0.266 OA
ENDBRANCH  22  23
ENDBRANCH  21  22
BRANCH   2  26
HETATM   26  C5  UNL     1      14.981   2.957  31.266  1.00  0.00     0.384 C 
HETATM   27  F1  UNL     1      13.975   3.827  31.036  1.00  0.00    -0.209 F 
HETATM   28  F2  UNL     1      15.128   2.790  32.632  1.00  0.00    -0.209 F 
ENDBRANCH   2  26
BRANCH   1  29
HETATM   29  C2  UNL     1      17.011   1.086  29.582  1.00  0.00    -0.027 C 
HETATM   30  C1  UNL     1      17.931   1.119  28.583  1.00  0.00     0.007 C 
ENDBRANCH   1  29
BRANCH  17  31
HETATM   31  O3  UNL     1      15.642   1.784  26.368  1.00  0.00    -0.395 OA
ATOM     32  H3  UNL     1      15.418   2.055  25.485  1.00  0.00     0.210 HD
ENDBRANCH  17  31
TORSDOF 5
ENDMDL
