MODEL 1
REMARK VINA RESULT: -8.947699137      0.000      0.000
REMARK  14 active torsions:
REMARK  status: ('A' for Active; 'I' for Inactive)
REMARK    1  A    between atoms: C2_2  and  C19_41 
REMARK    2  A    between atoms: N1_3  and  N2_5 
REMARK    3  A    between atoms: C3_7  and  C4_9 
REMARK       I    between atoms: C4_9  and  N4_11 
REMARK    4  A    between atoms: N4_11  and  N5_13 
REMARK    5  A    between atoms: C5_15  and  C6_16 
REMARK    6  A    between atoms: C5_15  and  N6_21 
REMARK    7  A    between atoms: C6_16  and  O2_17 
REMARK    8  A    between atoms: C6_16  and  O3_19 
REMARK    9  A    between atoms: N6_21  and  O4_22 
REMARK   10  A    between atoms: N6_21  and  C7_24 
REMARK   11  A    between atoms: C11_28  and  C12_29 
REMARK       I    between atoms: C12_29  and  N7_31 
REMARK   12  A    between atoms: N7_31  and  C13_33 
REMARK   13  A    between atoms: C13_33  and  C14_34 
REMARK   14  A    between atoms: C13_33  and  C15_37 
ROOT
HETATM    1  N5  UNL     1      -7.547  -1.153   4.193  1.00  0.00    -0.284 N 
ATOM      2  H5  UNL     1      -8.052  -0.270   4.263  1.00  0.00     0.188 HD
HETATM    3  C5  UNL     1      -7.775  -1.891   3.165  1.00  0.00     0.158 C 
ENDROOT
BRANCH   3   4
HETATM    4  C6  UNL     1      -7.044  -3.179   3.058  1.00  0.00     0.321 C 
BRANCH   4   5
HETATM    5  O2  UNL     1      -5.660  -2.988   2.889  1.00  0.00    -0.365 OA
ATOM      6  H2  UNL     1      -5.423  -2.884   1.975  1.00  0.00     0.213 HD
ENDBRANCH   4   5
BRANCH   4   7
HETATM    7  O3  UNL     1      -7.184  -3.944   4.215  1.00  0.00    -0.365 OA
ATOM      8  H3  UNL     1      -7.814  -4.644   4.094  1.00  0.00     0.213 HD
ENDBRANCH   4   7
ENDBRANCH   3   4
BRANCH   3   9
HETATM    9  N6  UNL     1      -8.675  -1.557   2.135  1.00  0.00    -0.111 NA
BRANCH   9  10
HETATM   10  O4  UNL     1      -8.312  -2.326   1.056  1.00  0.00    -0.302 OA
ATOM     11  H4  UNL     1      -9.111  -2.476   0.564  1.00  0.00     0.238 HD
ENDBRANCH   9  10
BRANCH   9  12
HETATM   12  C7  UNL     1      -8.642  -0.210   1.756  1.00  0.00     0.044 A 
HETATM   13  C8  UNL     1      -7.507   0.379   1.280  1.00  0.00     0.026 A 
HETATM   14  C9  UNL     1      -7.551   1.712   0.928  1.00  0.00     0.003 A 
HETATM   15  C10 UNL     1      -8.699   2.474   1.039  1.00  0.00     0.017 A 
HETATM   16  C11 UNL     1      -9.861   1.891   1.522  1.00  0.00     0.033 A 
HETATM   17  C18 UNL     1      -9.793   0.537   1.873  1.00  0.00     0.043 A 
BRANCH  16  18
HETATM   18  C12 UNL     1     -11.099   2.627   1.669  1.00  0.00     0.252 C 
HETATM   19  O5  UNL     1     -11.248   3.698   1.045  1.00  0.00    -0.268 OA
HETATM   20  N7  UNL     1     -12.142   2.164   2.499  1.00  0.00    -0.342 N 
ATOM     21  H7  UNL     1     -12.025   1.289   3.012  1.00  0.00     0.163 HD
BRANCH  20  22
HETATM   22  C13 UNL     1     -13.391   2.920   2.638  1.00  0.00     0.189 C 
BRANCH  22  23
HETATM   23  C14 UNL     1     -13.548   3.390   4.018  1.00  0.00     0.197 C 
HETATM   24  O6  UNL     1     -12.725   3.086   4.919  1.00  0.00    -0.646 OA
HETATM   25  O7  UNL     1     -14.614   4.189   4.379  1.00  0.00    -0.646 OA
ENDBRANCH  22  23
BRANCH  22  26
HETATM   26  C15 UNL     1     -14.574   2.065   2.235  1.00  0.00     0.011 C 
HETATM   27  C16 UNL     1     -14.635   1.817   0.765  1.00  0.00     0.012 C 
HETATM   28  C17 UNL     1     -14.636   0.774   2.977  1.00  0.00     0.012 C 
ENDBRANCH  22  26
ENDBRANCH  20  22
ENDBRANCH  16  18
ENDBRANCH   9  12
ENDBRANCH   3   9
BRANCH   1  29
HETATM   29  N4  UNL     1      -6.669  -1.472   5.205  1.00  0.00    -0.262 N 
HETATM   30  C4  UNL     1      -6.446  -0.611   6.316  1.00  0.00     0.302 C 
HETATM   31  O1  UNL     1      -7.086   0.481   6.354  1.00  0.00    -0.263 OA
ATOM     32  H4  UNL     1      -6.161  -2.356   5.157  1.00  0.00     0.190 HD
BRANCH  30  33
HETATM   33  C3  UNL     1      -5.522  -0.958   7.371  1.00  0.00     0.200 C 
HETATM   34  N2  UNL     1      -5.036  -0.065   8.136  1.00  0.00    -0.283 N 
ATOM     35  H2  UNL     1      -5.351   0.885   7.937  1.00  0.00     0.188 HD
HETATM   36  N3  UNL     1      -5.157  -2.310   7.552  1.00  0.00    -0.075 NA
BRANCH  34  37
HETATM   37  N1  UNL     1      -4.178  -0.169   9.159  1.00  0.00    -0.303 N 
HETATM   38  C2  UNL     1      -4.229  -0.302  10.392  1.00  0.00     0.032 C 
HETATM   39  C1  UNL     1      -2.885  -0.369  11.109  1.00  0.00     0.070 C 
ATOM     40  H1  UNL     1      -3.212  -0.127   8.835  1.00  0.00     0.186 HD
BRANCH  38  41
HETATM   41  C19 UNL     1      -5.422  -0.404  11.251  1.00  0.00    -0.013 A 
HETATM   42  C20 UNL     1      -5.268  -0.454  12.641  1.00  0.00     0.013 A 
HETATM   43  C21 UNL     1      -6.355  -0.549  13.477  1.00  0.00     0.001 A 
HETATM   44  C22 UNL     1      -7.641  -0.602  12.995  1.00  0.00     0.000 A 
HETATM   45  C23 UNL     1      -7.803  -0.556  11.639  1.00  0.00     0.001 A 
HETATM   46  C24 UNL     1      -6.705  -0.457  10.773  1.00  0.00     0.013 A 
ENDBRANCH  38  41
ENDBRANCH  34  37
ENDBRANCH  30  33
ENDBRANCH   1  29
TORSDOF 14
ENDMDL
MODEL 2
REMARK VINA RESULT: -8.660454958      2.856      5.479
REMARK  14 active torsions:
REMARK  status: ('A' for Active; 'I' for Inactive)
REMARK    1  A    between atoms: C2_2  and  C19_41 
REMARK    2  A    between atoms: N1_3  and  N2_5 
REMARK    3  A    between atoms: C3_7  and  C4_9 
REMARK       I    between atoms: C4_9  and  N4_11 
REMARK    4  A    between atoms: N4_11  and  N5_13 
REMARK    5  A    between atoms: C5_15  and  C6_16 
REMARK    6  A    between atoms: C5_15  and  N6_21 
REMARK    7  A    between atoms: C6_16  and  O2_17 
REMARK    8  A    between atoms: C6_16  and  O3_19 
REMARK    9  A    between atoms: N6_21  and  O4_22 
REMARK   10  A    between atoms: N6_21  and  C7_24 
REMARK   11  A    between atoms: C11_28  and  C12_29 
REMARK       I    between atoms: C12_29  and  N7_31 
REMARK   12  A    between atoms: N7_31  and  C13_33 
REMARK   13  A    between atoms: C13_33  and  C14_34 
REMARK   14  A    between atoms: C13_33  and  C15_37 
ROOT
HETATM    1  N5  UNL     1      -7.620  -1.170   4.352  1.00  0.00    -0.284 N 
ATOM      2  H5  UNL     1      -8.128  -0.288   4.421  1.00  0.00     0.188 HD
HETATM    3  C5  UNL     1      -7.819  -1.894   3.309  1.00  0.00     0.158 C 
ENDROOT
BRANCH   3   4
HETATM    4  C6  UNL     1      -7.083  -3.180   3.204  1.00  0.00     0.321 C 
BRANCH   4   5
HETATM    5  O2  UNL     1      -5.695  -2.986   3.076  1.00  0.00    -0.365 OA
ATOM      6  H2  UNL     1      -5.282  -3.680   2.576  1.00  0.00     0.213 HD
ENDBRANCH   4   5
BRANCH   4   7
HETATM    7  O3  UNL     1      -7.254  -3.960   4.347  1.00  0.00    -0.365 OA
ATOM      8  H3  UNL     1      -6.752  -4.765   4.296  1.00  0.00     0.213 HD
ENDBRANCH   4   7
ENDBRANCH   3   4
BRANCH   3   9
HETATM    9  N6  UNL     1      -8.689  -1.546   2.258  1.00  0.00    -0.111 NA
BRANCH   9  10
HETATM   10  O4  UNL     1      -8.351  -2.361   1.205  1.00  0.00    -0.302 OA
ATOM     11  H4  UNL     1      -9.125  -2.879   1.018  1.00  0.00     0.238 HD
ENDBRANCH   9  10
BRANCH   9  12
HETATM   12  C7  UNL     1      -8.588  -0.213   1.844  1.00  0.00     0.044 A 
HETATM   13  C8  UNL     1      -9.625   0.664   1.974  1.00  0.00     0.026 A 
HETATM   14  C9  UNL     1      -9.452   1.962   1.540  1.00  0.00     0.003 A 
HETATM   15  C10 UNL     1      -8.270   2.408   0.980  1.00  0.00     0.017 A 
HETATM   16  C11 UNL     1      -7.206   1.530   0.840  1.00  0.00     0.033 A 
HETATM   17  C18 UNL     1      -7.404   0.217   1.287  1.00  0.00     0.043 A 
BRANCH  16  18
HETATM   18  C12 UNL     1      -5.940   1.925   0.260  1.00  0.00     0.252 C 
HETATM   19  O5  UNL     1      -5.932   2.503  -0.847  1.00  0.00    -0.268 OA
HETATM   20  N7  UNL     1      -4.715   1.673   0.914  1.00  0.00    -0.342 N 
ATOM     21  H7  UNL     1      -4.716   1.201   1.818  1.00  0.00     0.163 HD
BRANCH  20  22
HETATM   22  C13 UNL     1      -3.440   2.080   0.313  1.00  0.00     0.189 C 
BRANCH  22  23
HETATM   23  C14 UNL     1      -2.497   0.957   0.320  1.00  0.00     0.197 C 
HETATM   24  O6  UNL     1      -2.421   0.161   1.290  1.00  0.00    -0.646 OA
HETATM   25  O7  UNL     1      -1.652   0.734  -0.749  1.00  0.00    -0.646 OA
ENDBRANCH  22  23
BRANCH  22  26
HETATM   26  C15 UNL     1      -2.857   3.262   1.060  1.00  0.00     0.011 C 
HETATM   27  C16 UNL     1      -3.136   4.565   0.388  1.00  0.00     0.012 C 
HETATM   28  C17 UNL     1      -3.287   3.316   2.485  1.00  0.00     0.012 C 
ENDBRANCH  22  26
ENDBRANCH  20  22
ENDBRANCH  16  18
ENDBRANCH   9  12
ENDBRANCH   3   9
BRANCH   1  29
HETATM   29  N4  UNL     1      -6.771  -1.502   5.384  1.00  0.00    -0.262 N 
HETATM   30  C4  UNL     1      -6.265  -0.532   6.294  1.00  0.00     0.302 C 
HETATM   31  O1  UNL     1      -6.622   0.672   6.130  1.00  0.00    -0.263 OA
ATOM     32  H4  UNL     1      -6.494  -2.478   5.500  1.00  0.00     0.190 HD
BRANCH  30  33
HETATM   33  C3  UNL     1      -5.376  -0.895   7.373  1.00  0.00     0.200 C 
HETATM   34  N2  UNL     1      -4.889  -0.008   8.146  1.00  0.00    -0.283 N 
ATOM     35  H2  UNL     1      -5.179   0.947   7.936  1.00  0.00     0.188 HD
HETATM   36  N3  UNL     1      -5.044  -2.252   7.568  1.00  0.00    -0.075 NA
BRANCH  34  37
HETATM   37  N1  UNL     1      -4.059  -0.127   9.191  1.00  0.00    -0.303 N 
HETATM   38  C2  UNL     1      -4.143  -0.279  10.420  1.00  0.00     0.032 C 
HETATM   39  C1  UNL     1      -2.818  -0.353  11.172  1.00  0.00     0.070 C 
ATOM     40  H1  UNL     1      -3.085  -0.078   8.893  1.00  0.00     0.186 HD
BRANCH  38  41
HETATM   41  C19 UNL     1      -5.358  -0.395  11.244  1.00  0.00    -0.013 A 
HETATM   42  C20 UNL     1      -5.243  -0.455  12.638  1.00  0.00     0.013 A 
HETATM   43  C21 UNL     1      -6.352  -0.565  13.443  1.00  0.00     0.001 A 
HETATM   44  C22 UNL     1      -7.624  -0.623  12.925  1.00  0.00     0.000 A 
HETATM   45  C23 UNL     1      -7.748  -0.567  11.566  1.00  0.00     0.001 A 
HETATM   46  C24 UNL     1      -6.627  -0.454  10.731  1.00  0.00     0.013 A 
ENDBRANCH  38  41
ENDBRANCH  34  37
ENDBRANCH  30  33
ENDBRANCH   1  29
TORSDOF 14
ENDMDL
MODEL 3
REMARK VINA RESULT: -8.654154540      1.715      2.274
REMARK  14 active torsions:
REMARK  status: ('A' for Active; 'I' for Inactive)
REMARK    1  A    between atoms: C2_2  and  C19_41 
REMARK    2  A    between atoms: N1_3  and  N2_5 
REMARK    3  A    between atoms: C3_7  and  C4_9 
REMARK       I    between atoms: C4_9  and  N4_11 
REMARK    4  A    between atoms: N4_11  and  N5_13 
REMARK    5  A    between atoms: C5_15  and  C6_16 
REMARK    6  A    between atoms: C5_15  and  N6_21 
REMARK    7  A    between atoms: C6_16  and  O2_17 
REMARK    8  A    between atoms: C6_16  and  O3_19 
REMARK    9  A    between atoms: N6_21  and  O4_22 
REMARK   10  A    between atoms: N6_21  and  C7_24 
REMARK   11  A    between atoms: C11_28  and  C12_29 
REMARK       I    between atoms: C12_29  and  N7_31 
REMARK   12  A    between atoms: N7_31  and  C13_33 
REMARK   13  A    between atoms: C13_33  and  C14_34 
REMARK   14  A    between atoms: C13_33  and  C15_37 
ROOT
HETATM    1  N5  UNL     1      -6.495  -1.289   4.915  1.00  0.00    -0.284 N 
ATOM      2  H5  UNL     1      -6.765  -0.400   4.494  1.00  0.00     0.188 HD
HETATM    3  C5  UNL     1      -6.703  -2.359   4.235  1.00  0.00     0.158 C 
ENDROOT
BRANCH   3   4
HETATM    4  C6  UNL     1      -6.313  -3.656   4.843  1.00  0.00     0.321 C 
BRANCH   4   5
HETATM    5  O2  UNL     1      -7.085  -4.725   4.351  1.00  0.00    -0.365 OA
ATOM      6  H2  UNL     1      -6.546  -5.446   4.049  1.00  0.00     0.213 HD
ENDBRANCH   4   5
BRANCH   4   7
HETATM    7  O3  UNL     1      -4.988  -3.978   4.552  1.00  0.00    -0.365 OA
ATOM      8  H3  UNL     1      -4.753  -4.831   4.897  1.00  0.00     0.213 HD
ENDBRANCH   4   7
ENDBRANCH   3   4
BRANCH   3   9
HETATM    9  N6  UNL     1      -7.278  -2.381   2.950  1.00  0.00    -0.111 NA
BRANCH   9  10
HETATM   10  O4  UNL     1      -6.401  -3.082   2.158  1.00  0.00    -0.302 OA
ATOM     11  H4  UNL     1      -5.977  -2.436   1.606  1.00  0.00     0.238 HD
ENDBRANCH   9  10
BRANCH   9  12
HETATM   12  C7  UNL     1      -7.478  -1.116   2.386  1.00  0.00     0.044 A 
HETATM   13  C8  UNL     1      -6.522  -0.504   1.628  1.00  0.00     0.026 A 
HETATM   14  C9  UNL     1      -6.790   0.745   1.107  1.00  0.00     0.003 A 
HETATM   15  C10 UNL     1      -7.988   1.400   1.322  1.00  0.00     0.017 A 
HETATM   16  C11 UNL     1      -8.970   0.793   2.091  1.00  0.00     0.033 A 
HETATM   17  C18 UNL     1      -8.676  -0.475   2.610  1.00  0.00     0.043 A 
BRANCH  16  18
HETATM   18  C12 UNL     1     -10.246   1.419   2.361  1.00  0.00     0.252 C 
HETATM   19  O5  UNL     1     -10.564   1.668   3.543  1.00  0.00    -0.268 OA
HETATM   20  N7  UNL     1     -11.141   1.755   1.323  1.00  0.00    -0.342 N 
ATOM     21  H7  UNL     1     -10.887   1.553   0.356  1.00  0.00     0.163 HD
BRANCH  20  22
HETATM   22  C13 UNL     1     -12.432   2.390   1.613  1.00  0.00     0.189 C 
BRANCH  22  23
HETATM   23  C14 UNL     1     -13.527   1.452   1.350  1.00  0.00     0.197 C 
HETATM   24  O6  UNL     1     -14.154   1.453   0.260  1.00  0.00    -0.646 OA
HETATM   25  O7  UNL     1     -13.912   0.526   2.299  1.00  0.00    -0.646 OA
ENDBRANCH  22  23
BRANCH  22  26
HETATM   26  C15 UNL     1     -12.602   3.645   0.781  1.00  0.00     0.011 C 
HETATM   27  C16 UNL     1     -13.438   4.679   1.459  1.00  0.00     0.012 C 
HETATM   28  C17 UNL     1     -11.303   4.234   0.350  1.00  0.00     0.012 C 
ENDBRANCH  22  26
ENDBRANCH  20  22
ENDBRANCH  16  18
ENDBRANCH   9  12
ENDBRANCH   3   9
BRANCH   1  29
HETATM   29  N4  UNL     1      -5.933  -1.258   6.172  1.00  0.00    -0.262 N 
HETATM   30  C4  UNL     1      -4.525  -1.202   6.373  1.00  0.00     0.302 C 
HETATM   31  O1  UNL     1      -3.783  -1.182   5.347  1.00  0.00    -0.263 OA
ATOM     32  H4  UNL     1      -6.547  -1.275   6.987  1.00  0.00     0.190 HD
BRANCH  30  33
HETATM   33  C3  UNL     1      -3.950  -1.169   7.697  1.00  0.00     0.200 C 
HETATM   34  N2  UNL     1      -3.958  -0.100   8.388  1.00  0.00    -0.283 N 
ATOM     35  H2  UNL     1      -4.395   0.700   7.931  1.00  0.00     0.188 HD
HETATM   36  N3  UNL     1      -3.370  -2.341   8.229  1.00  0.00    -0.075 NA
BRANCH  34  37
HETATM   37  N1  UNL     1      -3.488   0.145   9.618  1.00  0.00    -0.303 N 
HETATM   38  C2  UNL     1      -3.917   0.152  10.783  1.00  0.00     0.032 C 
HETATM   39  C1  UNL     1      -2.903   0.522  11.861  1.00  0.00     0.070 C 
ATOM     40  H1  UNL     1      -2.499   0.395   9.590  1.00  0.00     0.186 HD
BRANCH  38  41
HETATM   41  C19 UNL     1      -5.278  -0.150  11.256  1.00  0.00    -0.013 A 
HETATM   42  C20 UNL     1      -5.536  -0.197  12.631  1.00  0.00     0.013 A 
HETATM   43  C21 UNL     1      -6.793  -0.476  13.113  1.00  0.00     0.001 A 
HETATM   44  C22 UNL     1      -7.855  -0.724  12.276  1.00  0.00     0.000 A 
HETATM   45  C23 UNL     1      -7.614  -0.683  10.932  1.00  0.00     0.001 A 
HETATM   46  C24 UNL     1      -6.338  -0.398  10.424  1.00  0.00     0.013 A 
ENDBRANCH  38  41
ENDBRANCH  34  37
ENDBRANCH  30  33
ENDBRANCH   1  29
TORSDOF 14
ENDMDL
MODEL 4
REMARK VINA RESULT: -8.644364273      1.519      1.901
REMARK  14 active torsions:
REMARK  status: ('A' for Active; 'I' for Inactive)
REMARK    1  A    between atoms: C2_2  and  C19_41 
REMARK    2  A    between atoms: N1_3  and  N2_5 
REMARK    3  A    between atoms: C3_7  and  C4_9 
REMARK       I    between atoms: C4_9  and  N4_11 
REMARK    4  A    between atoms: N4_11  and  N5_13 
REMARK    5  A    between atoms: C5_15  and  C6_16 
REMARK    6  A    between atoms: C5_15  and  N6_21 
REMARK    7  A    between atoms: C6_16  and  O2_17 
REMARK    8  A    between atoms: C6_16  and  O3_19 
REMARK    9  A    between atoms: N6_21  and  O4_22 
REMARK   10  A    between atoms: N6_21  and  C7_24 
REMARK   11  A    between atoms: C11_28  and  C12_29 
REMARK       I    between atoms: C12_29  and  N7_31 
REMARK   12  A    between atoms: N7_31  and  C13_33 
REMARK   13  A    between atoms: C13_33  and  C14_34 
REMARK   14  A    between atoms: C13_33  and  C15_37 
ROOT
HETATM    1  N5  UNL     1      -6.469  -1.264   4.850  1.00  0.00    -0.284 N 
ATOM      2  H5  UNL     1      -6.808  -0.391   4.446  1.00  0.00     0.188 HD
HETATM    3  C5  UNL     1      -6.716  -2.353   4.213  1.00  0.00     0.158 C 
ENDROOT
BRANCH   3   4
HETATM    4  C6  UNL     1      -6.227  -3.627   4.796  1.00  0.00     0.321 C 
BRANCH   4   5
HETATM    5  O2  UNL     1      -7.033  -4.721   4.430  1.00  0.00    -0.365 OA
ATOM      6  H2  UNL     1      -6.810  -5.057   3.570  1.00  0.00     0.213 HD
ENDBRANCH   4   5
BRANCH   4   7
HETATM    7  O3  UNL     1      -4.943  -3.934   4.348  1.00  0.00    -0.365 OA
ATOM      8  H3  UNL     1      -4.602  -4.712   4.774  1.00  0.00     0.213 HD
ENDBRANCH   4   7
ENDBRANCH   3   4
BRANCH   3   9
HETATM    9  N6  UNL     1      -7.422  -2.414   2.995  1.00  0.00    -0.111 NA
BRANCH   9  10
HETATM   10  O4  UNL     1      -6.699  -3.255   2.184  1.00  0.00    -0.302 OA
ATOM     11  H4  UNL     1      -6.935  -3.023   1.294  1.00  0.00     0.238 HD
ENDBRANCH   9  10
BRANCH   9  12
HETATM   12  C7  UNL     1      -7.564  -1.181   2.349  1.00  0.00     0.044 A 
HETATM   13  C8  UNL     1      -6.526  -0.587   1.690  1.00  0.00     0.026 A 
HETATM   14  C9  UNL     1      -6.742   0.630   1.078  1.00  0.00     0.003 A 
HETATM   15  C10 UNL     1      -7.966   1.271   1.106  1.00  0.00     0.017 A 
HETATM   16  C11 UNL     1      -9.030   0.682   1.771  1.00  0.00     0.033 A 
HETATM   17  C18 UNL     1      -8.789  -0.553   2.386  1.00  0.00     0.043 A 
BRANCH  16  18
HETATM   18  C12 UNL     1     -10.339   1.296   1.846  1.00  0.00     0.252 C 
HETATM   19  O5  UNL     1     -11.215   0.963   1.020  1.00  0.00    -0.268 OA
HETATM   20  N7  UNL     1     -10.650   2.261   2.827  1.00  0.00    -0.342 N 
ATOM     21  H7  UNL     1      -9.938   2.537   3.504  1.00  0.00     0.163 HD
BRANCH  20  22
HETATM   22  C13 UNL     1     -11.982   2.874   2.889  1.00  0.00     0.189 C 
BRANCH  22  23
HETATM   23  C14 UNL     1     -11.866   4.304   3.190  1.00  0.00     0.197 C 
HETATM   24  O6  UNL     1     -10.911   4.998   2.756  1.00  0.00    -0.646 OA
HETATM   25  O7  UNL     1     -12.811   4.945   3.965  1.00  0.00    -0.646 OA
ENDBRANCH  22  23
BRANCH  22  26
HETATM   26  C15 UNL     1     -12.833   2.183   3.935  1.00  0.00     0.011 C 
HETATM   27  C16 UNL     1     -13.798   1.210   3.345  1.00  0.00     0.012 C 
HETATM   28  C17 UNL     1     -12.023   1.524   4.998  1.00  0.00     0.012 C 
ENDBRANCH  22  26
ENDBRANCH  20  22
ENDBRANCH  16  18
ENDBRANCH   9  12
ENDBRANCH   3   9
BRANCH   1  29
HETATM   29  N4  UNL     1      -5.780  -1.195   6.040  1.00  0.00    -0.262 N 
HETATM   30  C4  UNL     1      -4.364  -1.060   6.091  1.00  0.00     0.302 C 
HETATM   31  O1  UNL     1      -3.737  -1.003   4.993  1.00  0.00    -0.263 OA
ATOM     32  H4  UNL     1      -6.302  -1.243   6.916  1.00  0.00     0.190 HD
BRANCH  30  33
HETATM   33  C3  UNL     1      -3.655  -0.987   7.347  1.00  0.00     0.200 C 
HETATM   34  N2  UNL     1      -4.009  -0.165   8.253  1.00  0.00    -0.283 N 
ATOM     35  H2  UNL     1      -4.812   0.415   8.012  1.00  0.00     0.188 HD
HETATM   36  N3  UNL     1      -2.553  -1.841   7.570  1.00  0.00    -0.075 NA
BRANCH  34  37
HETATM   37  N1  UNL     1      -3.498   0.061   9.470  1.00  0.00    -0.303 N 
HETATM   38  C2  UNL     1      -3.894   0.073  10.646  1.00  0.00     0.032 C 
HETATM   39  C1  UNL     1      -2.842   0.412  11.697  1.00  0.00     0.070 C 
ATOM     40  H1  UNL     1      -2.504   0.288   9.415  1.00  0.00     0.186 HD
BRANCH  38  41
HETATM   41  C19 UNL     1      -5.249  -0.197  11.156  1.00  0.00    -0.013 A 
HETATM   42  C20 UNL     1      -5.467  -0.257  12.537  1.00  0.00     0.013 A 
HETATM   43  C21 UNL     1      -6.716  -0.508  13.053  1.00  0.00     0.001 A 
HETATM   44  C22 UNL     1      -7.809  -0.714  12.245  1.00  0.00     0.000 A 
HETATM   45  C23 UNL     1      -7.607  -0.659  10.895  1.00  0.00     0.001 A 
HETATM   46  C24 UNL     1      -6.340  -0.403  10.353  1.00  0.00     0.013 A 
ENDBRANCH  38  41
ENDBRANCH  34  37
ENDBRANCH  30  33
ENDBRANCH   1  29
TORSDOF 14
ENDMDL
MODEL 5
REMARK VINA RESULT: -8.476616734      2.302      5.423
REMARK  14 active torsions:
REMARK  status: ('A' for Active; 'I' for Inactive)
REMARK    1  A    between atoms: C2_2  and  C19_41 
REMARK    2  A    between atoms: N1_3  and  N2_5 
REMARK    3  A    between atoms: C3_7  and  C4_9 
REMARK       I    between atoms: C4_9  and  N4_11 
REMARK    4  A    between atoms: N4_11  and  N5_13 
REMARK    5  A    between atoms: C5_15  and  C6_16 
REMARK    6  A    between atoms: C5_15  and  N6_21 
REMARK    7  A    between atoms: C6_16  and  O2_17 
REMARK    8  A    between atoms: C6_16  and  O3_19 
REMARK    9  A    between atoms: N6_21  and  O4_22 
REMARK   10  A    between atoms: N6_21  and  C7_24 
REMARK   11  A    between atoms: C11_28  and  C12_29 
REMARK       I    between atoms: C12_29  and  N7_31 
REMARK   12  A    between atoms: N7_31  and  C13_33 
REMARK   13  A    between atoms: C13_33  and  C14_34 
REMARK   14  A    between atoms: C13_33  and  C15_37 
ROOT
HETATM    1  N5  UNL     1      -8.844   1.218   5.410  1.00  0.00    -0.284 N 
ATOM      2  H5  UNL     1      -8.395   1.901   4.801  1.00  0.00     0.188 HD
HETATM    3  C5  UNL     1     -10.097   0.992   5.233  1.00  0.00     0.158 C 
ENDROOT
BRANCH   3   4
HETATM    4  C6  UNL     1     -10.756  -0.002   6.118  1.00  0.00     0.321 C 
BRANCH   4   5
HETATM    5  O2  UNL     1     -12.020   0.436   6.556  1.00  0.00    -0.365 OA
ATOM      6  H2  UNL     1     -12.105   0.393   7.501  1.00  0.00     0.213 HD
ENDBRANCH   4   5
BRANCH   4   7
HETATM    7  O3  UNL     1     -10.980  -1.207   5.454  1.00  0.00    -0.365 OA
ATOM      8  H3  UNL     1     -11.814  -1.590   5.699  1.00  0.00     0.213 HD
ENDBRANCH   4   7
ENDBRANCH   3   4
BRANCH   3   9
HETATM    9  N6  UNL     1     -10.885   1.627   4.255  1.00  0.00    -0.111 NA
BRANCH   9  10
HETATM   10  O4  UNL     1     -11.862   0.723   3.914  1.00  0.00    -0.302 OA
ATOM     11  H4  UNL     1     -12.560   1.231   3.518  1.00  0.00     0.238 HD
ENDBRANCH   9  10
BRANCH   9  12
HETATM   12  C7  UNL     1     -10.186   1.990   3.098  1.00  0.00     0.044 A 
HETATM   13  C8  UNL     1     -10.582   3.033   2.312  1.00  0.00     0.026 A 
HETATM   14  C9  UNL     1      -9.844   3.329   1.185  1.00  0.00     0.003 A 
HETATM   15  C10 UNL     1      -8.720   2.612   0.821  1.00  0.00     0.017 A 
HETATM   16  C11 UNL     1      -8.304   1.548   1.608  1.00  0.00     0.033 A 
HETATM   17  C18 UNL     1      -9.069   1.265   2.747  1.00  0.00     0.043 A 
BRANCH  16  18
HETATM   18  C12 UNL     1      -7.140   0.750   1.289  1.00  0.00     0.252 C 
HETATM   19  O5  UNL     1      -6.934   0.422   0.101  1.00  0.00    -0.268 OA
HETATM   20  N7  UNL     1      -6.232   0.332   2.284  1.00  0.00    -0.342 N 
ATOM     21  H7  UNL     1      -6.396   0.597   3.256  1.00  0.00     0.163 HD
BRANCH  20  22
HETATM   22  C13 UNL     1      -5.056  -0.477   1.945  1.00  0.00     0.189 C 
BRANCH  22  23
HETATM   23  C14 UNL     1      -4.842  -1.511   2.962  1.00  0.00     0.197 C 
HETATM   24  O6  UNL     1      -5.336  -2.661   2.852  1.00  0.00    -0.646 OA
HETATM   25  O7  UNL     1      -4.083  -1.254   4.086  1.00  0.00    -0.646 OA
ENDBRANCH  22  23
BRANCH  22  26
HETATM   26  C15 UNL     1      -3.828   0.402   1.820  1.00  0.00     0.011 C 
HETATM   27  C16 UNL     1      -3.349   0.531   0.413  1.00  0.00     0.012 C 
HETATM   28  C17 UNL     1      -4.018   1.751   2.425  1.00  0.00     0.012 C 
ENDBRANCH  22  26
ENDBRANCH  20  22
ENDBRANCH  16  18
ENDBRANCH   9  12
ENDBRANCH   3   9
BRANCH   1  29
HETATM   29  N4  UNL     1      -8.065   0.601   6.364  1.00  0.00    -0.262 N 
HETATM   30  C4  UNL     1      -6.649   0.519   6.251  1.00  0.00     0.302 C 
HETATM   31  O1  UNL     1      -6.108   1.037   5.230  1.00  0.00    -0.263 OA
ATOM     32  H4  UNL     1      -8.519   0.188   7.179  1.00  0.00     0.190 HD
BRANCH  30  33
HETATM   33  C3  UNL     1      -5.845  -0.131   7.260  1.00  0.00     0.200 C 
HETATM   34  N2  UNL     1      -5.185   0.551   8.109  1.00  0.00    -0.283 N 
ATOM     35  H2  UNL     1      -5.277   1.562   8.009  1.00  0.00     0.188 HD
HETATM   36  N3  UNL     1      -5.793  -1.540   7.301  1.00  0.00    -0.075 NA
BRANCH  34  37
HETATM   37  N1  UNL     1      -4.390   0.156   9.112  1.00  0.00    -0.303 N 
HETATM   38  C2  UNL     1      -4.512  -0.223  10.287  1.00  0.00     0.032 C 
HETATM   39  C1  UNL     1      -3.214  -0.565  11.013  1.00  0.00     0.070 C 
ATOM     40  H1  UNL     1      -3.409   0.169   8.831  1.00  0.00     0.186 HD
BRANCH  38  41
HETATM   41  C19 UNL     1      -5.748  -0.383  11.072  1.00  0.00    -0.013 A 
HETATM   42  C20 UNL     1      -5.689  -0.340  12.470  1.00  0.00     0.013 A 
HETATM   43  C21 UNL     1      -6.819  -0.486  13.238  1.00  0.00     0.001 A 
HETATM   44  C22 UNL     1      -8.059  -0.681  12.678  1.00  0.00     0.000 A 
HETATM   45  C23 UNL     1      -8.128  -0.726  11.315  1.00  0.00     0.001 A 
HETATM   46  C24 UNL     1      -6.985  -0.578  10.516  1.00  0.00     0.013 A 
ENDBRANCH  38  41
ENDBRANCH  34  37
ENDBRANCH  30  33
ENDBRANCH   1  29
TORSDOF 14
ENDMDL
