MODEL 1
REMARK VINA RESULT: -7.735463444      0.000      0.000
REMARK  14 active torsions:
REMARK  status: ('A' for Active; 'I' for Inactive)
REMARK    1  A    between atoms: C5_5  and  O1_7 
REMARK    2  A    between atoms: C7_9  and  C8_10 
REMARK    3  A    between atoms: C14_19  and  C15_20 
REMARK    4  A    between atoms: C15_20  and  O6_22 
REMARK    5  A    between atoms: O6_22  and  C16_23 
REMARK    6  A    between atoms: C16_23  and  C17_24 
REMARK    7  A    between atoms: C17_24  and  O7_25 
REMARK    8  A    between atoms: C17_24  and  C18_27 
REMARK    9  A    between atoms: C18_27  and  C20_29 
REMARK   10  A    between atoms: C20_29  and  C21_30 
REMARK   11  A    between atoms: C20_29  and  C25_34 
REMARK   12  A    between atoms: C21_30  and  C22_31 
REMARK   13  A    between atoms: C25_34  and  O8_35 
REMARK   14  A    between atoms: C25_34  and  N1_37 
REMARK       I    between atoms: N1_37  and  C26_39 
ROOT
HETATM    1  C15 UNL     1      -6.638  -0.554   6.160  1.00  0.00     0.302 C 
HETATM    2  O5  UNL     1      -7.669  -1.300   6.057  1.00  0.00    -0.261 OA
ENDROOT
BRANCH   1   3
HETATM    3  C14 UNL     1      -5.361  -1.183   6.438  1.00  0.00     0.213 C 
HETATM    4  C2  UNL     1      -4.795  -0.822   7.771  1.00  0.00    -0.034 C 
HETATM    5  C1  UNL     1      -4.666   0.434   8.172  1.00  0.00     0.018 C 
HETATM    6  C3  UNL     1      -4.351  -1.893   8.706  1.00  0.00     0.053 C 
HETATM    7  C4  UNL     1      -3.223  -1.384   9.609  1.00  0.00     0.018 C 
HETATM    8  C5  UNL     1      -3.831  -3.116   8.009  1.00  0.00     0.128 C 
HETATM    9  C6  UNL     1      -4.621  -4.304   8.534  1.00  0.00     0.053 C 
HETATM   10  C7  UNL     1      -4.141  -2.995   6.530  1.00  0.00     0.291 C 
HETATM   11  O4  UNL     1      -3.378  -1.989   5.933  1.00  0.00    -0.320 OA
HETATM   12  O10 UNL     1      -5.485  -2.596   6.463  1.00  0.00    -0.314 OA
HETATM   13  C9  UNL     1      -4.303  -1.076   5.394  1.00  0.00     0.146 A 
HETATM   14  C10 UNL     1      -4.669  -1.592   4.081  1.00  0.00     0.019 A 
HETATM   15  C13 UNL     1      -3.739   0.238   5.162  1.00  0.00     0.019 A 
HETATM   16  C11 UNL     1      -4.356  -0.691   3.178  1.00  0.00    -0.001 A 
HETATM   17  C12 UNL     1      -3.773   0.456   3.858  1.00  0.00    -0.001 A 
BRANCH   8  18
HETATM   18  O1  UNL     1      -2.498  -3.367   8.254  1.00  0.00    -0.383 OA
ATOM     19  H1  UNL     1      -1.922  -3.084   7.554  1.00  0.00     0.210 HD
ENDBRANCH   8  18
BRANCH  10  20
HETATM   20  C8  UNL     1      -3.879  -4.252   5.803  1.00  0.00     0.242 C 
HETATM   21  O2  UNL     1      -4.798  -4.912   5.229  1.00  0.00    -0.644 OA
HETATM   22  O3  UNL     1      -2.597  -4.812   5.689  1.00  0.00    -0.644 OA
ENDBRANCH  10  20
ENDBRANCH   1   3
BRANCH   1  23
HETATM   23  O6  UNL     1      -6.840   0.783   5.999  1.00  0.00    -0.316 OA
BRANCH  23  24
HETATM   24  C16 UNL     1      -7.762   1.435   5.199  1.00  0.00     0.211 C 
BRANCH  24  25
HETATM   25  C17 UNL     1      -7.332   1.611   3.746  1.00  0.00     0.150 C 
BRANCH  25  26
HETATM   26  O7  UNL     1      -7.485   2.997   3.507  1.00  0.00    -0.393 OA
ATOM     27  H7  UNL     1      -8.225   3.048   2.913  1.00  0.00     0.210 HD
ENDBRANCH  25  26
BRANCH  25  28
HETATM   28  C18 UNL     1      -8.316   0.897   2.861  1.00  0.00     0.045 C 
HETATM   29  C19 UNL     1      -8.900   1.972   1.947  1.00  0.00     0.017 C 
BRANCH  28  30
HETATM   30  C20 UNL     1      -7.793  -0.270   2.081  1.00  0.00    -0.029 C 
BRANCH  30  31
HETATM   31  C21 UNL     1      -7.770  -0.106   0.624  1.00  0.00    -0.015 C 
BRANCH  31  32
HETATM   32  C22 UNL     1      -6.651   0.327  -0.179  1.00  0.00     0.000 C 
HETATM   33  C23 UNL     1      -6.803   1.670  -0.848  1.00  0.00     0.013 C 
HETATM   34  C24 UNL     1      -5.255   0.273   0.352  1.00  0.00     0.013 C 
ENDBRANCH  31  32
ENDBRANCH  30  31
BRANCH  30  35
HETATM   35  C25 UNL     1      -7.996  -1.627   2.636  1.00  0.00     0.251 C 
BRANCH  35  36
HETATM   36  O8  UNL     1      -8.962  -1.662   3.696  1.00  0.00    -0.373 OA
ATOM     37  H8  UNL     1      -8.709  -1.137   4.447  1.00  0.00     0.212 HD
ENDBRANCH  35  36
BRANCH  35  38
HETATM   38  N1  UNL     1      -8.475  -2.647   1.747  1.00  0.00    -0.331 N 
HETATM   39  C26 UNL     1      -8.278  -4.006   2.096  1.00  0.00     0.215 C 
HETATM   40  C27 UNL     1      -8.736  -5.135   1.247  1.00  0.00     0.117 C 
HETATM   41  O9  UNL     1      -7.693  -4.314   3.172  1.00  0.00    -0.274 OA
ATOM     42  H1  UNL     1      -8.949  -2.398   0.879  1.00  0.00     0.165 HD
ENDBRANCH  35  38
ENDBRANCH  30  35
ENDBRANCH  28  30
ENDBRANCH  25  28
ENDBRANCH  24  25
ENDBRANCH  23  24
ENDBRANCH   1  23
TORSDOF 14
ENDMDL
MODEL 2
REMARK VINA RESULT: -7.547161443      2.332      6.892
REMARK  14 active torsions:
REMARK  status: ('A' for Active; 'I' for Inactive)
REMARK    1  A    between atoms: C5_5  and  O1_7 
REMARK    2  A    between atoms: C7_9  and  C8_10 
REMARK    3  A    between atoms: C14_19  and  C15_20 
REMARK    4  A    between atoms: C15_20  and  O6_22 
REMARK    5  A    between atoms: O6_22  and  C16_23 
REMARK    6  A    between atoms: C16_23  and  C17_24 
REMARK    7  A    between atoms: C17_24  and  O7_25 
REMARK    8  A    between atoms: C17_24  and  C18_27 
REMARK    9  A    between atoms: C18_27  and  C20_29 
REMARK   10  A    between atoms: C20_29  and  C21_30 
REMARK   11  A    between atoms: C20_29  and  C25_34 
REMARK   12  A    between atoms: C21_30  and  C22_31 
REMARK   13  A    between atoms: C25_34  and  O8_35 
REMARK   14  A    between atoms: C25_34  and  N1_37 
REMARK       I    between atoms: N1_37  and  C26_39 
ROOT
HETATM    1  C15 UNL     1      -4.472  -0.156   4.303  1.00  0.00     0.302 C 
HETATM    2  O5  UNL     1      -4.154  -1.383   4.462  1.00  0.00    -0.261 OA
ENDROOT
BRANCH   1   3
HETATM    3  C14 UNL     1      -5.744   0.145   3.674  1.00  0.00     0.213 C 
HETATM    4  C2  UNL     1      -5.709   0.062   2.185  1.00  0.00    -0.034 C 
HETATM    5  C1  UNL     1      -4.797   0.690   1.459  1.00  0.00     0.018 C 
HETATM    6  C3  UNL     1      -6.724  -0.752   1.461  1.00  0.00     0.053 C 
HETATM    7  C4  UNL     1      -6.976  -0.178   0.063  1.00  0.00     0.018 C 
HETATM    8  C5  UNL     1      -8.054  -0.802   2.155  1.00  0.00     0.128 C 
HETATM    9  C6  UNL     1      -8.407  -2.268   2.347  1.00  0.00     0.053 C 
HETATM   10  C7  UNL     1      -7.898  -0.197   3.536  1.00  0.00     0.291 C 
HETATM   11  O4  UNL     1      -7.675   1.179   3.464  1.00  0.00    -0.320 OA
HETATM   12  O10 UNL     1      -6.741  -0.783   4.071  1.00  0.00    -0.314 OA
HETATM   13  C9  UNL     1      -6.435   1.397   4.094  1.00  0.00     0.146 A 
HETATM   14  C10 UNL     1      -6.714   1.507   5.520  1.00  0.00     0.019 A 
HETATM   15  C13 UNL     1      -5.815   2.650   3.713  1.00  0.00     0.019 A 
HETATM   16  C11 UNL     1      -6.310   2.686   5.934  1.00  0.00    -0.001 A 
HETATM   17  C12 UNL     1      -5.746   3.402   4.799  1.00  0.00    -0.001 A 
BRANCH   8  18
HETATM   18  O1  UNL     1      -9.076  -0.224   1.433  1.00  0.00    -0.383 OA
ATOM     19  H1  UNL     1      -9.942  -0.479   1.729  1.00  0.00     0.210 HD
ENDBRANCH   8  18
BRANCH  10  20
HETATM   20  C8  UNL     1      -9.092  -0.417   4.376  1.00  0.00     0.242 C 
HETATM   21  O2  UNL     1     -10.231   0.059   4.081  1.00  0.00    -0.644 OA
HETATM   22  O3  UNL     1      -9.061  -1.166   5.563  1.00  0.00    -0.644 OA
ENDBRANCH  10  20
ENDBRANCH   1   3
BRANCH   1  23
HETATM   23  O6  UNL     1      -3.571   0.765   4.743  1.00  0.00    -0.316 OA
BRANCH  23  24
HETATM   24  C16 UNL     1      -2.813   0.759   5.900  1.00  0.00     0.211 C 
BRANCH  24  25
HETATM   25  C17 UNL     1      -3.532   1.296   7.134  1.00  0.00     0.150 C 
BRANCH  25  26
HETATM   26  O7  UNL     1      -2.696   2.343   7.591  1.00  0.00    -0.393 OA
ATOM     27  H7  UNL     1      -3.177   3.133   7.374  1.00  0.00     0.210 HD
ENDBRANCH  25  26
BRANCH  25  28
HETATM   28  C18 UNL     1      -3.529   0.231   8.197  1.00  0.00     0.045 C 
HETATM   29  C19 UNL     1      -2.892   0.879   9.423  1.00  0.00     0.017 C 
BRANCH  28  30
HETATM   30  C20 UNL     1      -4.851  -0.394   8.522  1.00  0.00    -0.029 C 
BRANCH  30  31
HETATM   31  C21 UNL     1      -5.360  -0.145   9.875  1.00  0.00    -0.015 C 
BRANCH  31  32
HETATM   32  C22 UNL     1      -6.684  -0.441  10.368  1.00  0.00     0.000 C 
HETATM   33  C23 UNL     1      -6.856  -0.383  11.865  1.00  0.00     0.013 C 
HETATM   34  C24 UNL     1      -7.890   0.214   9.777  1.00  0.00     0.013 C 
ENDBRANCH  31  32
ENDBRANCH  30  31
BRANCH  30  35
HETATM   35  C25 UNL     1      -5.201  -1.671   7.860  1.00  0.00     0.251 C 
BRANCH  35  36
HETATM   36  O8  UNL     1      -6.256  -1.533   6.897  1.00  0.00    -0.373 OA
ATOM     37  H8  UNL     1      -5.937  -1.431   6.008  1.00  0.00     0.212 HD
ENDBRANCH  35  36
BRANCH  35  38
HETATM   38  N1  UNL     1      -4.176  -2.333   7.105  1.00  0.00    -0.331 N 
HETATM   39  C26 UNL     1      -3.954  -3.717   7.321  1.00  0.00     0.215 C 
HETATM   40  C27 UNL     1      -2.920  -4.494   6.592  1.00  0.00     0.117 C 
HETATM   41  O9  UNL     1      -4.648  -4.354   8.162  1.00  0.00    -0.274 OA
ATOM     42  H1  UNL     1      -3.617  -1.818   6.425  1.00  0.00     0.165 HD
ENDBRANCH  35  38
ENDBRANCH  30  35
ENDBRANCH  28  30
ENDBRANCH  25  28
ENDBRANCH  24  25
ENDBRANCH  23  24
ENDBRANCH   1  23
TORSDOF 14
ENDMDL
MODEL 3
REMARK VINA RESULT: -7.442935093      1.729      2.885
REMARK  14 active torsions:
REMARK  status: ('A' for Active; 'I' for Inactive)
REMARK    1  A    between atoms: C5_5  and  O1_7 
REMARK    2  A    between atoms: C7_9  and  C8_10 
REMARK    3  A    between atoms: C14_19  and  C15_20 
REMARK    4  A    between atoms: C15_20  and  O6_22 
REMARK    5  A    between atoms: O6_22  and  C16_23 
REMARK    6  A    between atoms: C16_23  and  C17_24 
REMARK    7  A    between atoms: C17_24  and  O7_25 
REMARK    8  A    between atoms: C17_24  and  C18_27 
REMARK    9  A    between atoms: C18_27  and  C20_29 
REMARK   10  A    between atoms: C20_29  and  C21_30 
REMARK   11  A    between atoms: C20_29  and  C25_34 
REMARK   12  A    between atoms: C21_30  and  C22_31 
REMARK   13  A    between atoms: C25_34  and  O8_35 
REMARK   14  A    between atoms: C25_34  and  N1_37 
REMARK       I    between atoms: N1_37  and  C26_39 
ROOT
HETATM    1  C15 UNL     1      -6.784  -0.977   6.212  1.00  0.00     0.302 C 
HETATM    2  O5  UNL     1      -7.562  -1.578   5.396  1.00  0.00    -0.261 OA
ENDROOT
BRANCH   1   3
HETATM    3  C14 UNL     1      -5.444  -1.502   6.394  1.00  0.00     0.213 C 
HETATM    4  C2  UNL     1      -4.757  -0.976   7.610  1.00  0.00    -0.034 C 
HETATM    5  C1  UNL     1      -4.669   0.319   7.873  1.00  0.00     0.018 C 
HETATM    6  C3  UNL     1      -4.138  -1.920   8.582  1.00  0.00     0.053 C 
HETATM    7  C4  UNL     1      -2.952  -1.260   9.292  1.00  0.00     0.018 C 
HETATM    8  C5  UNL     1      -3.618  -3.176   7.945  1.00  0.00     0.128 C 
HETATM    9  C6  UNL     1      -4.261  -4.347   8.671  1.00  0.00     0.053 C 
HETATM   10  C7  UNL     1      -4.102  -3.223   6.509  1.00  0.00     0.291 C 
HETATM   11  O4  UNL     1      -3.481  -2.242   5.734  1.00  0.00    -0.320 OA
HETATM   12  O10 UNL     1      -5.468  -2.910   6.566  1.00  0.00    -0.314 OA
HETATM   13  C9  UNL     1      -4.521  -1.442   5.226  1.00  0.00     0.146 A 
HETATM   14  C10 UNL     1      -4.997  -2.108   4.020  1.00  0.00     0.019 A 
HETATM   15  C13 UNL     1      -4.078  -0.128   4.806  1.00  0.00     0.019 A 
HETATM   16  C11 UNL     1      -4.851  -1.287   3.005  1.00  0.00    -0.001 A 
HETATM   17  C12 UNL     1      -4.274  -0.045   3.500  1.00  0.00    -0.001 A 
BRANCH   8  18
HETATM   18  O1  UNL     1      -2.253  -3.326   8.052  1.00  0.00    -0.383 OA
ATOM     19  H1  UNL     1      -1.941  -4.182   7.786  1.00  0.00     0.210 HD
ENDBRANCH   8  18
BRANCH  10  20
HETATM   20  C8  UNL     1      -3.839  -4.530   5.877  1.00  0.00     0.242 C 
HETATM   21  O2  UNL     1      -2.667  -4.932   5.603  1.00  0.00    -0.644 OA
HETATM   22  O3  UNL     1      -4.861  -5.429   5.532  1.00  0.00    -0.644 OA
ENDBRANCH  10  20
ENDBRANCH   1   3
BRANCH   1  23
HETATM   23  O6  UNL     1      -7.298   0.114   6.845  1.00  0.00    -0.316 OA
BRANCH  23  24
HETATM   24  C16 UNL     1      -7.760   1.299   6.302  1.00  0.00     0.211 C 
BRANCH  24  25
HETATM   25  C17 UNL     1      -6.832   1.932   5.269  1.00  0.00     0.150 C 
BRANCH  25  26
HETATM   26  O7  UNL     1      -6.505   3.191   5.827  1.00  0.00    -0.393 OA
ATOM     27  H7  UNL     1      -7.207   3.761   5.536  1.00  0.00     0.210 HD
ENDBRANCH  25  26
BRANCH  25  28
HETATM   28  C18 UNL     1      -7.613   2.193   4.011  1.00  0.00     0.045 C 
HETATM   29  C19 UNL     1      -6.633   2.864   3.053  1.00  0.00     0.017 C 
BRANCH  28  30
HETATM   30  C20 UNL     1      -8.286   1.012   3.382  1.00  0.00    -0.029 C 
BRANCH  30  31
HETATM   31  C21 UNL     1      -7.641   0.477   2.178  1.00  0.00    -0.015 C 
BRANCH  31  32
HETATM   32  C22 UNL     1      -8.139  -0.577   1.327  1.00  0.00     0.000 C 
HETATM   33  C23 UNL     1      -7.592  -0.603  -0.078  1.00  0.00     0.013 C 
HETATM   34  C24 UNL     1      -8.168  -1.996   1.796  1.00  0.00     0.013 C 
ENDBRANCH  31  32
ENDBRANCH  30  31
BRANCH  30  35
HETATM   35  C25 UNL     1      -9.756   0.897   3.507  1.00  0.00     0.251 C 
BRANCH  35  36
HETATM   36  O8  UNL     1     -10.165  -0.187   4.353  1.00  0.00    -0.373 OA
ATOM     37  H8  UNL     1     -10.871  -0.703   3.983  1.00  0.00     0.212 HD
ENDBRANCH  35  36
BRANCH  35  38
HETATM   38  N1  UNL     1     -10.467   2.012   4.065  1.00  0.00    -0.331 N 
HETATM   39  C26 UNL     1     -11.880   2.043   3.958  1.00  0.00     0.215 C 
HETATM   40  C27 UNL     1     -12.709   3.148   4.501  1.00  0.00     0.117 C 
HETATM   41  O9  UNL     1     -12.501   1.105   3.383  1.00  0.00    -0.274 OA
ATOM     42  H1  UNL     1      -9.965   2.767   4.530  1.00  0.00     0.165 HD
ENDBRANCH  35  38
ENDBRANCH  30  35
ENDBRANCH  28  30
ENDBRANCH  25  28
ENDBRANCH  24  25
ENDBRANCH  23  24
ENDBRANCH   1  23
TORSDOF 14
ENDMDL
MODEL 4
REMARK VINA RESULT: -7.366961425      2.300      7.111
REMARK  14 active torsions:
REMARK  status: ('A' for Active; 'I' for Inactive)
REMARK    1  A    between atoms: C5_5  and  O1_7 
REMARK    2  A    between atoms: C7_9  and  C8_10 
REMARK    3  A    between atoms: C14_19  and  C15_20 
REMARK    4  A    between atoms: C15_20  and  O6_22 
REMARK    5  A    between atoms: O6_22  and  C16_23 
REMARK    6  A    between atoms: C16_23  and  C17_24 
REMARK    7  A    between atoms: C17_24  and  O7_25 
REMARK    8  A    between atoms: C17_24  and  C18_27 
REMARK    9  A    between atoms: C18_27  and  C20_29 
REMARK   10  A    between atoms: C20_29  and  C21_30 
REMARK   11  A    between atoms: C20_29  and  C25_34 
REMARK   12  A    between atoms: C21_30  and  C22_31 
REMARK   13  A    between atoms: C25_34  and  O8_35 
REMARK   14  A    between atoms: C25_34  and  N1_37 
REMARK       I    between atoms: N1_37  and  C26_39 
ROOT
HETATM    1  C15 UNL     1      -4.829   1.040   3.890  1.00  0.00     0.302 C 
HETATM    2  O5  UNL     1      -3.889   0.836   3.050  1.00  0.00    -0.261 OA
ENDROOT
BRANCH   1   3
HETATM    3  C14 UNL     1      -6.179   0.672   3.511  1.00  0.00     0.213 C 
HETATM    4  C2  UNL     1      -6.899   1.738   2.753  1.00  0.00    -0.034 C 
HETATM    5  C1  UNL     1      -6.980   2.987   3.186  1.00  0.00     0.018 C 
HETATM    6  C3  UNL     1      -7.558   1.414   1.458  1.00  0.00     0.053 C 
HETATM    7  C4  UNL     1      -8.758   2.335   1.220  1.00  0.00     0.018 C 
HETATM    8  C5  UNL     1      -8.072   0.005   1.386  1.00  0.00     0.128 C 
HETATM    9  C6  UNL     1      -7.466  -0.633   0.147  1.00  0.00     0.053 C 
HETATM   10  C7  UNL     1      -7.544  -0.761   2.584  1.00  0.00     0.291 C 
HETATM   11  O4  UNL     1      -8.130  -0.312   3.769  1.00  0.00    -0.320 OA
HETATM   12  O10 UNL     1      -6.177  -0.454   2.649  1.00  0.00    -0.314 OA
HETATM   13  C9  UNL     1      -7.065   0.126   4.578  1.00  0.00     0.146 A 
HETATM   14  C10 UNL     1      -6.559  -1.056   5.264  1.00  0.00     0.019 A 
HETATM   15  C13 UNL     1      -7.480   1.042   5.621  1.00  0.00     0.019 A 
HETATM   16  C11 UNL     1      -6.664  -0.864   6.559  1.00  0.00    -0.001 A 
HETATM   17  C12 UNL     1      -7.242   0.453   6.781  1.00  0.00    -0.001 A 
BRANCH   8  18
HETATM   18  O1  UNL     1      -9.442  -0.078   1.263  1.00  0.00    -0.383 OA
ATOM     19  H1  UNL     1      -9.736  -0.853   0.800  1.00  0.00     0.210 HD
ENDBRANCH   8  18
BRANCH  10  20
HETATM   20  C8  UNL     1      -7.802  -2.209   2.474  1.00  0.00     0.242 C 
HETATM   21  O2  UNL     1      -8.975  -2.690   2.402  1.00  0.00    -0.644 OA
HETATM   22  O3  UNL     1      -6.775  -3.166   2.440  1.00  0.00    -0.644 OA
ENDBRANCH  10  20
ENDBRANCH   1   3
BRANCH   1  23
HETATM   23  O6  UNL     1      -4.466   1.597   5.079  1.00  0.00    -0.316 OA
BRANCH  23  24
HETATM   24  C16 UNL     1      -3.326   1.379   5.832  1.00  0.00     0.211 C 
BRANCH  24  25
HETATM   25  C17 UNL     1      -3.584   0.830   7.232  1.00  0.00     0.150 C 
BRANCH  25  26
HETATM   26  O7  UNL     1      -2.880   1.715   8.083  1.00  0.00    -0.393 OA
ATOM     27  H7  UNL     1      -3.550   2.060   8.662  1.00  0.00     0.210 HD
ENDBRANCH  25  26
BRANCH  25  28
HETATM   28  C18 UNL     1      -2.926  -0.517   7.353  1.00  0.00     0.045 C 
HETATM   29  C19 UNL     1      -1.549  -0.247   7.955  1.00  0.00     0.017 C 
BRANCH  28  30
HETATM   30  C20 UNL     1      -3.674  -1.562   8.122  1.00  0.00    -0.029 C 
BRANCH  30  31
HETATM   31  C21 UNL     1      -3.635  -1.430   9.583  1.00  0.00    -0.015 C 
BRANCH  31  32
HETATM   32  C22 UNL     1      -4.393  -0.501  10.387  1.00  0.00     0.000 C 
HETATM   33  C23 UNL     1      -5.884  -0.498  10.157  1.00  0.00     0.013 C 
HETATM   34  C24 UNL     1      -4.192  -0.420  11.865  1.00  0.00     0.013 C 
ENDBRANCH  31  32
ENDBRANCH  30  31
BRANCH  30  35
HETATM   35  C25 UNL     1      -3.778  -2.918   7.538  1.00  0.00     0.251 C 
BRANCH  35  36
HETATM   36  O8  UNL     1      -2.727  -3.210   6.607  1.00  0.00    -0.373 OA
ATOM     37  H8  UNL     1      -1.967  -3.607   7.016  1.00  0.00     0.212 HD
ENDBRANCH  35  36
BRANCH  35  38
HETATM   38  N1  UNL     1      -3.718  -4.037   8.435  1.00  0.00    -0.331 N 
HETATM   39  C26 UNL     1      -4.211  -5.291   7.996  1.00  0.00     0.215 C 
HETATM   40  C27 UNL     1      -4.195  -6.509   8.845  1.00  0.00     0.117 C 
HETATM   41  O9  UNL     1      -4.693  -5.421   6.837  1.00  0.00    -0.274 OA
ATOM     42  H1  UNL     1      -3.328  -3.931   9.371  1.00  0.00     0.165 HD
ENDBRANCH  35  38
ENDBRANCH  30  35
ENDBRANCH  28  30
ENDBRANCH  25  28
ENDBRANCH  24  25
ENDBRANCH  23  24
ENDBRANCH   1  23
TORSDOF 14
ENDMDL
MODEL 5
REMARK VINA RESULT: -7.354577350      2.517      7.468
REMARK  14 active torsions:
REMARK  status: ('A' for Active; 'I' for Inactive)
REMARK    1  A    between atoms: C5_5  and  O1_7 
REMARK    2  A    between atoms: C7_9  and  C8_10 
REMARK    3  A    between atoms: C14_19  and  C15_20 
REMARK    4  A    between atoms: C15_20  and  O6_22 
REMARK    5  A    between atoms: O6_22  and  C16_23 
REMARK    6  A    between atoms: C16_23  and  C17_24 
REMARK    7  A    between atoms: C17_24  and  O7_25 
REMARK    8  A    between atoms: C17_24  and  C18_27 
REMARK    9  A    between atoms: C18_27  and  C20_29 
REMARK   10  A    between atoms: C20_29  and  C21_30 
REMARK   11  A    between atoms: C20_29  and  C25_34 
REMARK   12  A    between atoms: C21_30  and  C22_31 
REMARK   13  A    between atoms: C25_34  and  O8_35 
REMARK   14  A    between atoms: C25_34  and  N1_37 
REMARK       I    between atoms: N1_37  and  C26_39 
ROOT
HETATM    1  C15 UNL     1      -6.995   1.466   4.217  1.00  0.00     0.302 C 
HETATM    2  O5  UNL     1      -6.800   2.725   4.322  1.00  0.00    -0.261 OA
ENDROOT
BRANCH   1   3
HETATM    3  C14 UNL     1      -8.321   1.006   3.853  1.00  0.00     0.213 C 
HETATM    4  C2  UNL     1      -9.140   0.562   5.019  1.00  0.00    -0.034 C 
HETATM    5  C1  UNL     1      -8.695  -0.309   5.911  1.00  0.00     0.018 C 
HETATM    6  C3  UNL     1     -10.514   1.105   5.213  1.00  0.00     0.053 C 
HETATM    7  C4  UNL     1     -11.395   0.088   5.944  1.00  0.00     0.018 C 
HETATM    8  C5  UNL     1     -11.211   1.437   3.926  1.00  0.00     0.128 C 
HETATM    9  C6  UNL     1     -11.654   2.889   4.016  1.00  0.00     0.053 C 
HETATM   10  C7  UNL     1     -10.203   1.349   2.796  1.00  0.00     0.291 C 
HETATM   11  O4  UNL     1      -9.814   0.027   2.568  1.00  0.00    -0.320 OA
HETATM   12  O10 UNL     1      -9.073   2.046   3.250  1.00  0.00    -0.314 OA
HETATM   13  C9  UNL     1      -8.420   0.002   2.756  1.00  0.00     0.146 A 
HETATM   14  C10 UNL     1      -7.829   0.406   1.486  1.00  0.00     0.019 A 
HETATM   15  C13 UNL     1      -7.905  -1.324   3.029  1.00  0.00     0.019 A 
HETATM   16  C11 UNL     1      -7.057  -0.566   1.058  1.00  0.00    -0.001 A 
HETATM   17  C12 UNL     1      -7.106  -1.651   2.027  1.00  0.00    -0.001 A 
BRANCH   8  18
HETATM   18  O1  UNL     1     -12.337   0.678   3.695  1.00  0.00    -0.383 OA
ATOM     19  H1  UNL     1     -13.142   1.181   3.695  1.00  0.00     0.210 HD
ENDBRANCH   8  18
BRANCH  10  20
HETATM   20  C8  UNL     1     -10.739   1.886   1.531  1.00  0.00     0.242 C 
HETATM   21  O2  UNL     1     -11.709   1.345   0.916  1.00  0.00    -0.644 OA
HETATM   22  O3  UNL     1     -10.220   3.034   0.910  1.00  0.00    -0.644 OA
ENDBRANCH  10  20
ENDBRANCH   1   3
BRANCH   1  23
HETATM   23  O6  UNL     1      -5.921   0.666   4.464  1.00  0.00    -0.316 OA
BRANCH  23  24
HETATM   24  C16 UNL     1      -5.072   0.659   5.556  1.00  0.00     0.211 C 
BRANCH  24  25
HETATM   25  C17 UNL     1      -4.149  -0.554   5.637  1.00  0.00     0.150 C 
BRANCH  25  26
HETATM   26  O7  UNL     1      -3.811  -0.819   4.289  1.00  0.00    -0.393 OA
ATOM     27  H7  UNL     1      -2.986  -0.365   4.164  1.00  0.00     0.210 HD
ENDBRANCH  25  26
BRANCH  25  28
HETATM   28  C18 UNL     1      -4.940  -1.732   6.135  1.00  0.00     0.045 C 
HETATM   29  C19 UNL     1      -4.906  -2.756   5.004  1.00  0.00     0.017 C 
BRANCH  28  30
HETATM   30  C20 UNL     1      -4.504  -2.328   7.439  1.00  0.00    -0.029 C 
BRANCH  30  31
HETATM   31  C21 UNL     1      -4.395  -1.393   8.564  1.00  0.00    -0.015 C 
BRANCH  31  32
HETATM   32  C22 UNL     1      -5.455  -0.989   9.457  1.00  0.00     0.000 C 
HETATM   33  C23 UNL     1      -5.016  -0.411  10.779  1.00  0.00     0.013 C 
HETATM   34  C24 UNL     1      -6.585  -0.138   8.976  1.00  0.00     0.013 C 
ENDBRANCH  31  32
ENDBRANCH  30  31
BRANCH  30  35
HETATM   35  C25 UNL     1      -3.599  -3.498   7.403  1.00  0.00     0.251 C 
BRANCH  35  36
HETATM   36  O8  UNL     1      -2.230  -3.157   7.663  1.00  0.00    -0.373 OA
ATOM     37  H8  UNL     1      -1.976  -2.324   7.285  1.00  0.00     0.212 HD
ENDBRANCH  35  36
BRANCH  35  38
HETATM   38  N1  UNL     1      -3.839  -4.556   8.343  1.00  0.00    -0.331 N 
HETATM   39  C26 UNL     1      -4.071  -5.866   7.853  1.00  0.00     0.215 C 
HETATM   40  C27 UNL     1      -4.329  -7.028   8.740  1.00  0.00     0.117 C 
HETATM   41  O9  UNL     1      -4.066  -6.097   6.612  1.00  0.00    -0.274 OA
ATOM     42  H1  UNL     1      -3.842  -4.369   9.345  1.00  0.00     0.165 HD
ENDBRANCH  35  38
ENDBRANCH  30  35
ENDBRANCH  28  30
ENDBRANCH  25  28
ENDBRANCH  24  25
ENDBRANCH  23  24
ENDBRANCH   1  23
TORSDOF 14
ENDMDL
