MODEL 1
REMARK VINA RESULT: -7.323692490      0.000      0.000
REMARK  16 active torsions:
REMARK  status: ('A' for Active; 'I' for Inactive)
REMARK    1  A    between atoms: C4_4  and  C5_5 
REMARK    2  A    between atoms: C6_6  and  C7_7 
REMARK    3  A    between atoms: C7_7  and  O2_9 
REMARK    4  A    between atoms: O2_9  and  C8_10 
REMARK    5  A    between atoms: C9_11  and  O3_12 
REMARK    6  A    between atoms: C10_14  and  C11_15 
REMARK    7  A    between atoms: C11_15  and  O4_16 
REMARK    8  A    between atoms: C12_19  and  S1_20 
REMARK    9  A    between atoms: S1_20  and  C13_21 
REMARK   10  A    between atoms: C16_24  and  O6_25 
REMARK   11  A    between atoms: C16_24  and  C17_27 
REMARK   12  A    between atoms: C19_31  and  C20_32 
REMARK   13  A    between atoms: C20_32  and  C21_33 
REMARK   14  A    between atoms: C21_33  and  O9_34 
REMARK   15  A    between atoms: C21_33  and  C22_36 
REMARK   16  A    between atoms: C25_39  and  O10_40 
ROOT
HETATM    1  C1  UNL     1      -3.221   1.632   1.959  1.00  0.00     0.027 C 
HETATM    2  C2  UNL     1      -3.831   0.617   2.194  1.00  0.00    -0.026 C 
HETATM    3  C3  UNL     1      -4.537  -0.573   2.475  1.00  0.00    -0.011 C 
HETATM    4  C4  UNL     1      -5.158  -1.605   2.701  1.00  0.00    -0.064 C 
ENDROOT
BRANCH   4   5
HETATM    5  C5  UNL     1      -5.895  -2.806   2.940  1.00  0.00     0.071 C 
HETATM    6  C6  UNL     1      -7.135  -2.940   2.591  1.00  0.00     0.091 C 
BRANCH   6   7
HETATM    7  C7  UNL     1      -7.916  -1.896   1.922  1.00  0.00     0.284 C 
HETATM    8  O1  UNL     1      -8.019  -1.797   0.672  1.00  0.00    -0.260 OA
BRANCH   7   9
HETATM    9  O2  UNL     1      -8.608  -0.928   2.647  1.00  0.00    -0.307 OA
BRANCH   9  10
HETATM   10  C8  UNL     1      -8.591  -0.825   4.055  1.00  0.00     0.195 C 
HETATM   11  C9  UNL     1      -9.945  -0.526   4.628  1.00  0.00     0.181 C 
HETATM   12  C10 UNL     1      -9.858  -0.068   6.043  1.00  0.00     0.178 C 
HETATM   13  O5  UNL     1      -8.931   0.955   6.238  1.00  0.00    -0.363 OA
HETATM   14  C12 UNL     1      -7.697   0.463   5.896  1.00  0.00     0.215 C 
HETATM   15  C25 UNL     1      -7.698   0.373   4.371  1.00  0.00     0.192 C 
BRANCH  11  16
HETATM   16  O3  UNL     1     -10.629   0.348   3.800  1.00  0.00    -0.390 OA
ATOM     17  H3  UNL     1     -11.375   0.715   4.258  1.00  0.00     0.210 HD
ENDBRANCH  11  16
BRANCH  12  18
HETATM   18  C11 UNL     1     -11.179   0.340   6.611  1.00  0.00     0.198 C 
BRANCH  18  19
HETATM   19  O4  UNL     1     -11.617   1.509   5.966  1.00  0.00    -0.398 OA
ATOM     20  H4  UNL     1     -12.475   1.746   6.299  1.00  0.00     0.209 HD
ENDBRANCH  18  19
ENDBRANCH  12  18
BRANCH  14  21
HETATM   21  S1  UNL     1      -6.284   1.334   6.530  1.00  0.00    -0.126 SA
BRANCH  21  22
HETATM   22  C13 UNL     1      -5.064   0.180   7.212  1.00  0.00     0.076 C 
HETATM   23  C14 UNL     1      -4.331  -0.412   6.095  1.00  0.00    -0.012 C 
HETATM   24  C15 UNL     1      -3.736  -1.563   6.219  1.00  0.00     0.019 C 
HETATM   25  C16 UNL     1      -3.779  -2.302   7.480  1.00  0.00     0.163 C 
HETATM   26  C18 UNL     1      -4.984  -2.067   8.345  1.00  0.00     0.059 C 
HETATM   27  C19 UNL     1      -5.700  -0.818   8.130  1.00  0.00     0.009 C 
BRANCH  25  28
HETATM   28  O6  UNL     1      -2.594  -1.962   8.172  1.00  0.00    -0.375 OA
ATOM     29  H6  UNL     1      -2.021  -2.716   8.096  1.00  0.00     0.211 HD
ENDBRANCH  25  28
BRANCH  25  30
HETATM   30  C17 UNL     1      -3.644  -3.774   7.175  1.00  0.00     0.213 C 
HETATM   31  O7  UNL     1      -4.439  -4.593   7.705  1.00  0.00    -0.645 OA
HETATM   32  O8  UNL     1      -2.672  -4.273   6.330  1.00  0.00    -0.645 OA
ENDBRANCH  25  30
BRANCH  27  33
HETATM   33  C20 UNL     1      -6.155  -0.125   9.375  1.00  0.00     0.042 C 
BRANCH  33  34
HETATM   34  C21 UNL     1      -7.597  -0.246   9.716  1.00  0.00     0.141 C 
BRANCH  34  35
HETATM   35  O9  UNL     1      -8.381   0.847   9.393  1.00  0.00    -0.392 OA
ATOM     36  H9  UNL     1      -7.930   1.563   8.962  1.00  0.00     0.210 HD
ENDBRANCH  34  35
BRANCH  34  37
HETATM   37  C22 UNL     1      -7.671  -0.356  11.222  1.00  0.00     0.000 C 
HETATM   38  C23 UNL     1      -6.594  -0.438  11.967  1.00  0.00    -0.033 C 
HETATM   39  C24 UNL     1      -6.670  -0.545  13.441  1.00  0.00     0.036 C 
ENDBRANCH  34  37
ENDBRANCH  33  34
ENDBRANCH  27  33
ENDBRANCH  21  22
ENDBRANCH  14  21
BRANCH  15  40
HETATM   40  O10 UNL     1      -8.349   1.492   3.905  1.00  0.00    -0.385 OA
HETATM   41  C26 UNL     1      -7.560   2.317   3.131  1.00  0.00     0.202 C 
ENDBRANCH  15  40
ENDBRANCH   9  10
ENDBRANCH   7   9
ENDBRANCH   6   7
ENDBRANCH   4   5
TORSDOF 16
ENDMDL
MODEL 2
REMARK VINA RESULT: -7.322053158      2.284      7.945
REMARK  16 active torsions:
REMARK  status: ('A' for Active; 'I' for Inactive)
REMARK    1  A    between atoms: C4_4  and  C5_5 
REMARK    2  A    between atoms: C6_6  and  C7_7 
REMARK    3  A    between atoms: C7_7  and  O2_9 
REMARK    4  A    between atoms: O2_9  and  C8_10 
REMARK    5  A    between atoms: C9_11  and  O3_12 
REMARK    6  A    between atoms: C10_14  and  C11_15 
REMARK    7  A    between atoms: C11_15  and  O4_16 
REMARK    8  A    between atoms: C12_19  and  S1_20 
REMARK    9  A    between atoms: S1_20  and  C13_21 
REMARK   10  A    between atoms: C16_24  and  O6_25 
REMARK   11  A    between atoms: C16_24  and  C17_27 
REMARK   12  A    between atoms: C19_31  and  C20_32 
REMARK   13  A    between atoms: C20_32  and  C21_33 
REMARK   14  A    between atoms: C21_33  and  O9_34 
REMARK   15  A    between atoms: C21_33  and  C22_36 
REMARK   16  A    between atoms: C25_39  and  O10_40 
ROOT
HETATM    1  C1  UNL     1      -8.601   0.530   7.320  1.00  0.00     0.027 C 
HETATM    2  C2  UNL     1      -7.971   0.318   8.328  1.00  0.00    -0.026 C 
HETATM    3  C3  UNL     1      -7.225   0.072   9.501  1.00  0.00    -0.011 C 
HETATM    4  C4  UNL     1      -6.591  -0.155  10.526  1.00  0.00    -0.064 C 
ENDROOT
BRANCH   4   5
HETATM    5  C5  UNL     1      -5.873  -0.435  11.729  1.00  0.00     0.071 C 
HETATM    6  C6  UNL     1      -4.580  -0.498  11.766  1.00  0.00     0.091 C 
BRANCH   6   7
HETATM    7  C7  UNL     1      -3.715  -0.294  10.601  1.00  0.00     0.284 C 
HETATM    8  O1  UNL     1      -3.220   0.819  10.289  1.00  0.00    -0.260 OA
BRANCH   7   9
HETATM    9  O2  UNL     1      -3.380  -1.345   9.750  1.00  0.00    -0.307 OA
BRANCH   9  10
HETATM   10  C8  UNL     1      -4.172  -1.769   8.661  1.00  0.00     0.195 C 
HETATM   11  C9  UNL     1      -3.735  -3.095   8.111  1.00  0.00     0.181 C 
HETATM   12  C10 UNL     1      -4.324  -3.360   6.768  1.00  0.00     0.178 C 
HETATM   13  O5  UNL     1      -4.159  -2.303   5.873  1.00  0.00    -0.363 OA
HETATM   14  C12 UNL     1      -4.813  -1.216   6.395  1.00  0.00     0.215 C 
HETATM   15  C25 UNL     1      -3.949  -0.735   7.559  1.00  0.00     0.192 C 
BRANCH  11  16
HETATM   16  O3  UNL     1      -2.355  -3.192   8.144  1.00  0.00    -0.390 OA
ATOM     17  H3  UNL     1      -2.084  -3.760   8.855  1.00  0.00     0.210 HD
ENDBRANCH  11  16
BRANCH  12  18
HETATM   18  C11 UNL     1      -3.826  -4.624   6.146  1.00  0.00     0.198 C 
BRANCH  18  19
HETATM   19  O4  UNL     1      -4.908  -5.311   5.569  1.00  0.00    -0.398 OA
ATOM     20  H4  UNL     1      -4.603  -6.145   5.232  1.00  0.00     0.209 HD
ENDBRANCH  18  19
ENDBRANCH  12  18
BRANCH  14  21
HETATM   21  S1  UNL     1      -5.224   0.090   5.262  1.00  0.00    -0.126 SA
BRANCH  21  22
HETATM   22  C13 UNL     1      -6.350  -0.503   3.971  1.00  0.00     0.076 C 
HETATM   23  C14 UNL     1      -7.444  -1.220   4.623  1.00  0.00    -0.012 C 
HETATM   24  C15 UNL     1      -8.134  -2.117   3.980  1.00  0.00     0.019 C 
HETATM   25  C16 UNL     1      -7.839  -2.439   2.585  1.00  0.00     0.163 C 
HETATM   26  C18 UNL     1      -6.418  -2.234   2.144  1.00  0.00     0.059 C 
HETATM   27  C19 UNL     1      -5.625  -1.300   2.930  1.00  0.00     0.009 C 
BRANCH  25  28
HETATM   28  O6  UNL     1      -8.721  -1.650   1.809  1.00  0.00    -0.375 OA
ATOM     29  H6  UNL     1      -8.194  -0.947   1.448  1.00  0.00     0.211 HD
ENDBRANCH  25  28
BRANCH  25  30
HETATM   30  C17 UNL     1      -8.259  -3.864   2.324  1.00  0.00     0.213 C 
HETATM   31  O7  UNL     1      -7.868  -4.777   3.096  1.00  0.00    -0.645 OA
HETATM   32  O8  UNL     1      -9.064  -4.220   1.259  1.00  0.00    -0.645 OA
ENDBRANCH  25  30
BRANCH  27  33
HETATM   33  C20 UNL     1      -4.745  -0.389   2.135  1.00  0.00     0.042 C 
BRANCH  33  34
HETATM   34  C21 UNL     1      -5.211  -0.039   0.767  1.00  0.00     0.141 C 
BRANCH  34  35
HETATM   35  O9  UNL     1      -4.214   0.143  -0.175  1.00  0.00    -0.392 OA
ATOM     36  H9  UNL     1      -4.226  -0.463  -0.907  1.00  0.00     0.210 HD
ENDBRANCH  34  35
BRANCH  34  37
HETATM   37  C22 UNL     1      -5.898   1.303   0.881  1.00  0.00     0.000 C 
HETATM   38  C23 UNL     1      -7.203   1.421   0.840  1.00  0.00    -0.033 C 
HETATM   39  C24 UNL     1      -7.873   2.736   0.953  1.00  0.00     0.036 C 
ENDBRANCH  34  37
ENDBRANCH  33  34
ENDBRANCH  27  33
ENDBRANCH  21  22
ENDBRANCH  14  21
BRANCH  15  40
HETATM   40  O10 UNL     1      -2.637  -0.853   7.159  1.00  0.00    -0.385 OA
HETATM   41  C26 UNL     1      -1.977   0.352   7.044  1.00  0.00     0.202 C 
ENDBRANCH  15  40
ENDBRANCH   9  10
ENDBRANCH   7   9
ENDBRANCH   6   7
ENDBRANCH   4   5
TORSDOF 16
ENDMDL
MODEL 3
REMARK VINA RESULT: -7.295649060      3.031      5.183
REMARK  16 active torsions:
REMARK  status: ('A' for Active; 'I' for Inactive)
REMARK    1  A    between atoms: C4_4  and  C5_5 
REMARK    2  A    between atoms: C6_6  and  C7_7 
REMARK    3  A    between atoms: C7_7  and  O2_9 
REMARK    4  A    between atoms: O2_9  and  C8_10 
REMARK    5  A    between atoms: C9_11  and  O3_12 
REMARK    6  A    between atoms: C10_14  and  C11_15 
REMARK    7  A    between atoms: C11_15  and  O4_16 
REMARK    8  A    between atoms: C12_19  and  S1_20 
REMARK    9  A    between atoms: S1_20  and  C13_21 
REMARK   10  A    between atoms: C16_24  and  O6_25 
REMARK   11  A    between atoms: C16_24  and  C17_27 
REMARK   12  A    between atoms: C19_31  and  C20_32 
REMARK   13  A    between atoms: C20_32  and  C21_33 
REMARK   14  A    between atoms: C21_33  and  O9_34 
REMARK   15  A    between atoms: C21_33  and  C22_36 
REMARK   16  A    between atoms: C25_39  and  O10_40 
ROOT
HETATM    1  C1  UNL     1      -8.950  -5.340   1.799  1.00  0.00     0.027 C 
HETATM    2  C2  UNL     1      -8.584  -4.190   1.824  1.00  0.00    -0.026 C 
HETATM    3  C3  UNL     1      -8.147  -2.848   1.859  1.00  0.00    -0.011 C 
HETATM    4  C4  UNL     1      -7.787  -1.676   1.890  1.00  0.00    -0.064 C 
ENDROOT
BRANCH   4   5
HETATM    5  C5  UNL     1      -7.393  -0.303   1.923  1.00  0.00     0.071 C 
HETATM    6  C6  UNL     1      -6.188   0.066   2.220  1.00  0.00     0.091 C 
BRANCH   6   7
HETATM    7  C7  UNL     1      -5.104  -0.862   2.552  1.00  0.00     0.284 C 
HETATM    8  O1  UNL     1      -3.947  -0.785   2.064  1.00  0.00    -0.260 OA
BRANCH   7   9
HETATM    9  O2  UNL     1      -5.294  -1.912   3.450  1.00  0.00    -0.307 OA
BRANCH   9  10
HETATM   10  C8  UNL     1      -4.618  -2.035   4.683  1.00  0.00     0.195 C 
HETATM   11  C9  UNL     1      -4.562  -3.452   5.171  1.00  0.00     0.181 C 
HETATM   12  C10 UNL     1      -4.181  -3.528   6.610  1.00  0.00     0.178 C 
HETATM   13  O5  UNL     1      -4.934  -2.686   7.427  1.00  0.00    -0.363 OA
HETATM   14  C12 UNL     1      -4.703  -1.398   7.014  1.00  0.00     0.215 C 
HETATM   15  C25 UNL     1      -5.453  -1.248   5.692  1.00  0.00     0.192 C 
BRANCH  11  16
HETATM   16  O3  UNL     1      -5.746  -4.105   4.872  1.00  0.00    -0.390 OA
ATOM     17  H3  UNL     1      -5.595  -5.040   4.805  1.00  0.00     0.210 HD
ENDBRANCH  11  16
BRANCH  12  18
HETATM   18  C11 UNL     1      -4.218  -4.919   7.155  1.00  0.00     0.198 C 
BRANCH  18  19
HETATM   19  O4  UNL     1      -4.076  -5.833   6.097  1.00  0.00    -0.398 OA
ATOM     20  H4  UNL     1      -4.626  -6.590   6.263  1.00  0.00     0.209 HD
ENDBRANCH  18  19
ENDBRANCH  12  18
BRANCH  14  21
HETATM   21  S1  UNL     1      -5.090  -0.106   8.171  1.00  0.00    -0.126 SA
BRANCH  21  22
HETATM   22  C13 UNL     1      -3.589   0.767   8.694  1.00  0.00     0.076 C 
HETATM   23  C14 UNL     1      -3.005   1.403   7.514  1.00  0.00    -0.012 C 
HETATM   24  C15 UNL     1      -1.739   1.702   7.472  1.00  0.00     0.019 C 
HETATM   25  C16 UNL     1      -0.858   1.413   8.603  1.00  0.00     0.163 C 
HETATM   26  C18 UNL     1      -1.250   0.251   9.468  1.00  0.00     0.059 C 
HETATM   27  C19 UNL     1      -2.653  -0.138   9.433  1.00  0.00     0.009 C 
BRANCH  25  28
HETATM   28  O6  UNL     1      -0.798   2.604   9.363  1.00  0.00    -0.375 OA
ATOM     29  H6  UNL     1      -1.636   2.675   9.805  1.00  0.00     0.211 HD
ENDBRANCH  25  28
BRANCH  25  30
HETATM   30  C17 UNL     1       0.543   1.215   8.078  1.00  0.00     0.213 C 
HETATM   31  O7  UNL     1       1.252   0.284   8.540  1.00  0.00    -0.645 OA
HETATM   32  O8  UNL     1       1.093   2.021   7.101  1.00  0.00    -0.645 OA
ENDBRANCH  25  30
BRANCH  27  33
HETATM   33  C20 UNL     1      -3.248  -0.486  10.760  1.00  0.00     0.042 C 
BRANCH  33  34
HETATM   34  C21 UNL     1      -3.582   0.650  11.660  1.00  0.00     0.141 C 
BRANCH  34  35
HETATM   35  O9  UNL     1      -2.521   1.178  12.373  1.00  0.00    -0.392 OA
ATOM     36  H9  UNL     1      -2.752   1.810  13.045  1.00  0.00     0.210 HD
ENDBRANCH  34  35
BRANCH  34  37
HETATM   37  C22 UNL     1      -4.529   0.103  12.704  1.00  0.00     0.000 C 
HETATM   38  C23 UNL     1      -5.787  -0.150  12.437  1.00  0.00    -0.033 C 
HETATM   39  C24 UNL     1      -6.711  -0.686  13.461  1.00  0.00     0.036 C 
ENDBRANCH  34  37
ENDBRANCH  33  34
ENDBRANCH  27  33
ENDBRANCH  21  22
ENDBRANCH  14  21
BRANCH  15  40
HETATM   40  O10 UNL     1      -6.647  -1.917   5.831  1.00  0.00    -0.385 OA
HETATM   41  C26 UNL     1      -7.757  -1.138   5.581  1.00  0.00     0.202 C 
ENDBRANCH  15  40
ENDBRANCH   9  10
ENDBRANCH   7   9
ENDBRANCH   6   7
ENDBRANCH   4   5
TORSDOF 16
ENDMDL
MODEL 4
REMARK VINA RESULT: -7.274370655      2.764      8.260
REMARK  16 active torsions:
REMARK  status: ('A' for Active; 'I' for Inactive)
REMARK    1  A    between atoms: C4_4  and  C5_5 
REMARK    2  A    between atoms: C6_6  and  C7_7 
REMARK    3  A    between atoms: C7_7  and  O2_9 
REMARK    4  A    between atoms: O2_9  and  C8_10 
REMARK    5  A    between atoms: C9_11  and  O3_12 
REMARK    6  A    between atoms: C10_14  and  C11_15 
REMARK    7  A    between atoms: C11_15  and  O4_16 
REMARK    8  A    between atoms: C12_19  and  S1_20 
REMARK    9  A    between atoms: S1_20  and  C13_21 
REMARK   10  A    between atoms: C16_24  and  O6_25 
REMARK   11  A    between atoms: C16_24  and  C17_27 
REMARK   12  A    between atoms: C19_31  and  C20_32 
REMARK   13  A    between atoms: C20_32  and  C21_33 
REMARK   14  A    between atoms: C21_33  and  O9_34 
REMARK   15  A    between atoms: C21_33  and  C22_36 
REMARK   16  A    between atoms: C25_39  and  O10_40 
ROOT
HETATM    1  C1  UNL     1      -4.004  -7.945  12.930  1.00  0.00     0.027 C 
HETATM    2  C2  UNL     1      -4.061  -7.709  11.748  1.00  0.00    -0.026 C 
HETATM    3  C3  UNL     1      -4.117  -7.431  10.365  1.00  0.00    -0.011 C 
HETATM    4  C4  UNL     1      -4.184  -7.181   9.166  1.00  0.00    -0.064 C 
ENDROOT
BRANCH   4   5
HETATM    5  C5  UNL     1      -4.287  -6.879   7.774  1.00  0.00     0.071 C 
HETATM    6  C6  UNL     1      -4.140  -5.678   7.311  1.00  0.00     0.091 C 
BRANCH   6   7
HETATM    7  C7  UNL     1      -3.857  -4.507   8.146  1.00  0.00     0.284 C 
HETATM    8  O1  UNL     1      -3.012  -4.505   9.077  1.00  0.00    -0.260 OA
BRANCH   7   9
HETATM    9  O2  UNL     1      -4.522  -3.298   7.953  1.00  0.00    -0.307 OA
BRANCH   9  10
HETATM   10  C8  UNL     1      -4.043  -2.247   7.141  1.00  0.00     0.195 C 
HETATM   11  C9  UNL     1      -2.821  -1.589   7.711  1.00  0.00     0.181 C 
HETATM   12  C10 UNL     1      -2.540  -0.280   7.058  1.00  0.00     0.178 C 
HETATM   13  O5  UNL     1      -3.652   0.560   7.002  1.00  0.00    -0.363 OA
HETATM   14  C12 UNL     1      -4.608  -0.072   6.248  1.00  0.00     0.215 C 
HETATM   15  C25 UNL     1      -5.151  -1.195   7.129  1.00  0.00     0.192 C 
BRANCH  11  16
HETATM   16  O3  UNL     1      -2.921  -1.514   9.090  1.00  0.00    -0.390 OA
ATOM     17  H3  UNL     1      -2.069  -1.647   9.487  1.00  0.00     0.210 HD
ENDBRANCH  11  16
BRANCH  12  18
HETATM   18  C11 UNL     1      -1.391   0.450   7.674  1.00  0.00     0.198 C 
BRANCH  18  19
HETATM   19  O4  UNL     1      -0.511  -0.480   8.253  1.00  0.00    -0.398 OA
ATOM     20  H4  UNL     1      -0.049  -0.065   8.973  1.00  0.00     0.209 HD
ENDBRANCH  18  19
ENDBRANCH  12  18
BRANCH  14  21
HETATM   21  S1  UNL     1      -5.895   0.948   5.569  1.00  0.00    -0.126 SA
BRANCH  21  22
HETATM   22  C13 UNL     1      -6.654   0.158   4.125  1.00  0.00     0.076 C 
HETATM   23  C14 UNL     1      -7.833  -0.576   4.582  1.00  0.00    -0.012 C 
HETATM   24  C15 UNL     1      -8.306  -1.577   3.897  1.00  0.00     0.019 C 
HETATM   25  C16 UNL     1      -7.675  -2.000   2.648  1.00  0.00     0.163 C 
HETATM   26  C18 UNL     1      -6.203  -1.732   2.524  1.00  0.00     0.059 C 
HETATM   27  C19 UNL     1      -5.666  -0.674   3.367  1.00  0.00     0.009 C 
BRANCH  25  28
HETATM   28  O6  UNL     1      -8.390  -1.354   1.612  1.00  0.00    -0.375 OA
ATOM     29  H6  UNL     1      -7.789  -1.292   0.879  1.00  0.00     0.211 HD
ENDBRANCH  25  28
BRANCH  25  30
HETATM   30  C17 UNL     1      -7.949  -3.471   2.450  1.00  0.00     0.213 C 
HETATM   31  O7  UNL     1      -7.501  -4.303   3.282  1.00  0.00    -0.645 OA
HETATM   32  O8  UNL     1      -8.678  -3.956   1.382  1.00  0.00    -0.645 OA
ENDBRANCH  25  30
BRANCH  27  33
HETATM   33  C20 UNL     1      -4.671   0.224   2.702  1.00  0.00     0.042 C 
BRANCH  33  34
HETATM   34  C21 UNL     1      -4.369  -0.058   1.274  1.00  0.00     0.141 C 
BRANCH  34  35
HETATM   35  O9  UNL     1      -3.026  -0.099   0.944  1.00  0.00    -0.392 OA
ATOM     36  H9  UNL     1      -2.497   0.610   1.290  1.00  0.00     0.210 HD
ENDBRANCH  34  35
BRANCH  34  37
HETATM   37  C22 UNL     1      -4.937   1.098   0.482  1.00  0.00     0.000 C 
HETATM   38  C23 UNL     1      -6.132   1.052  -0.056  1.00  0.00    -0.033 C 
HETATM   39  C24 UNL     1      -6.684   2.186  -0.830  1.00  0.00     0.036 C 
ENDBRANCH  34  37
ENDBRANCH  33  34
ENDBRANCH  27  33
ENDBRANCH  21  22
ENDBRANCH  14  21
BRANCH  15  40
HETATM   40  O10 UNL     1      -5.240  -0.694   8.408  1.00  0.00    -0.385 OA
HETATM   41  C26 UNL     1      -6.534  -0.472   8.833  1.00  0.00     0.202 C 
ENDBRANCH  15  40
ENDBRANCH   9  10
ENDBRANCH   7   9
ENDBRANCH   6   7
ENDBRANCH   4   5
TORSDOF 16
ENDMDL
MODEL 5
REMARK VINA RESULT: -7.241540451      2.247      4.293
REMARK  16 active torsions:
REMARK  status: ('A' for Active; 'I' for Inactive)
REMARK    1  A    between atoms: C4_4  and  C5_5 
REMARK    2  A    between atoms: C6_6  and  C7_7 
REMARK    3  A    between atoms: C7_7  and  O2_9 
REMARK    4  A    between atoms: O2_9  and  C8_10 
REMARK    5  A    between atoms: C9_11  and  O3_12 
REMARK    6  A    between atoms: C10_14  and  C11_15 
REMARK    7  A    between atoms: C11_15  and  O4_16 
REMARK    8  A    between atoms: C12_19  and  S1_20 
REMARK    9  A    between atoms: S1_20  and  C13_21 
REMARK   10  A    between atoms: C16_24  and  O6_25 
REMARK   11  A    between atoms: C16_24  and  C17_27 
REMARK   12  A    between atoms: C19_31  and  C20_32 
REMARK   13  A    between atoms: C20_32  and  C21_33 
REMARK   14  A    between atoms: C21_33  and  O9_34 
REMARK   15  A    between atoms: C21_33  and  C22_36 
REMARK   16  A    between atoms: C25_39  and  O10_40 
ROOT
HETATM    1  C1  UNL     1     -13.685   1.059   1.028  1.00  0.00     0.027 C 
HETATM    2  C2  UNL     1     -12.770   1.846   1.024  1.00  0.00    -0.026 C 
HETATM    3  C3  UNL     1     -11.693   2.758   1.020  1.00  0.00    -0.011 C 
HETATM    4  C4  UNL     1     -10.768   3.563   1.027  1.00  0.00    -0.064 C 
ENDROOT
BRANCH   4   5
HETATM    5  C5  UNL     1      -9.706   4.519   1.048  1.00  0.00     0.071 C 
HETATM    6  C6  UNL     1      -8.462   4.178   0.930  1.00  0.00     0.091 C 
BRANCH   6   7
HETATM    7  C7  UNL     1      -8.003   2.796   0.764  1.00  0.00     0.284 C 
HETATM    8  O1  UNL     1      -7.107   2.453  -0.048  1.00  0.00    -0.260 OA
BRANCH   7   9
HETATM    9  O2  UNL     1      -8.545   1.754   1.515  1.00  0.00    -0.307 OA
BRANCH   9  10
HETATM   10  C8  UNL     1      -7.780   0.764   2.170  1.00  0.00     0.195 C 
HETATM   11  C9  UNL     1      -8.059  -0.617   1.654  1.00  0.00     0.181 C 
HETATM   12  C10 UNL     1      -7.536  -1.668   2.572  1.00  0.00     0.178 C 
HETATM   13  O5  UNL     1      -7.916  -1.481   3.901  1.00  0.00    -0.363 OA
HETATM   14  C12 UNL     1      -7.389  -0.283   4.314  1.00  0.00     0.215 C 
HETATM   15  C25 UNL     1      -8.229   0.794   3.630  1.00  0.00     0.192 C 
BRANCH  11  16
HETATM   16  O3  UNL     1      -9.406  -0.751   1.362  1.00  0.00    -0.390 OA
ATOM     17  H3  UNL     1      -9.835  -1.271   2.031  1.00  0.00     0.210 HD
ENDBRANCH  11  16
BRANCH  12  18
HETATM   18  C11 UNL     1      -7.890  -3.054   2.141  1.00  0.00     0.198 C 
BRANCH  18  19
HETATM   19  O4  UNL     1      -7.714  -3.932   3.224  1.00  0.00    -0.398 OA
ATOM     20  H4  UNL     1      -6.826  -4.272   3.208  1.00  0.00     0.209 HD
ENDBRANCH  18  19
ENDBRANCH  12  18
BRANCH  14  21
HETATM   21  S1  UNL     1      -7.253  -0.033   6.068  1.00  0.00    -0.126 SA
BRANCH  21  22
HETATM   22  C13 UNL     1      -5.623  -0.551   6.672  1.00  0.00     0.076 C 
HETATM   23  C14 UNL     1      -5.006  -1.385   5.642  1.00  0.00    -0.012 C 
HETATM   24  C15 UNL     1      -4.080  -2.247   5.944  1.00  0.00     0.019 C 
HETATM   25  C16 UNL     1      -3.624  -2.411   7.323  1.00  0.00     0.163 C 
HETATM   26  C18 UNL     1      -4.625  -2.091   8.395  1.00  0.00     0.059 C 
HETATM   27  C19 UNL     1      -5.714  -1.201   8.018  1.00  0.00     0.009 C 
BRANCH  25  28
HETATM   28  O6  UNL     1      -2.475  -1.596   7.453  1.00  0.00    -0.375 OA
ATOM     29  H6  UNL     1      -2.024  -1.901   8.231  1.00  0.00     0.211 HD
ENDBRANCH  25  28
BRANCH  25  30
HETATM   30  C17 UNL     1      -3.120  -3.823   7.495  1.00  0.00     0.213 C 
HETATM   31  O7  UNL     1      -3.435  -4.474   8.525  1.00  0.00    -0.645 OA
HETATM   32  O8  UNL     1      -2.314  -4.445   6.561  1.00  0.00    -0.645 OA
ENDBRANCH  25  30
BRANCH  27  33
HETATM   33  C20 UNL     1      -6.075  -0.171   9.041  1.00  0.00     0.042 C 
BRANCH  33  34
HETATM   34  C21 UNL     1      -7.375  -0.352   9.738  1.00  0.00     0.141 C 
BRANCH  34  35
HETATM   35  O9  UNL     1      -8.267   0.700   9.623  1.00  0.00    -0.392 OA
ATOM     36  H9  UNL     1      -8.490   1.140  10.435  1.00  0.00     0.210 HD
ENDBRANCH  34  35
BRANCH  34  37
HETATM   37  C22 UNL     1      -7.058  -0.442  11.214  1.00  0.00     0.000 C 
HETATM   38  C23 UNL     1      -5.829  -0.377  11.666  1.00  0.00    -0.033 C 
HETATM   39  C24 UNL     1      -5.523  -0.465  13.111  1.00  0.00     0.036 C 
ENDBRANCH  34  37
ENDBRANCH  33  34
ENDBRANCH  27  33
ENDBRANCH  21  22
ENDBRANCH  14  21
BRANCH  15  40
HETATM   40  O10 UNL     1      -9.534   0.361   3.656  1.00  0.00    -0.385 OA
HETATM   41  C26 UNL     1     -10.394   1.213   4.319  1.00  0.00     0.202 C 
ENDBRANCH  15  40
ENDBRANCH   9  10
ENDBRANCH   7   9
ENDBRANCH   6   7
ENDBRANCH   4   5
TORSDOF 16
ENDMDL
