MODEL 1
REMARK VINA RESULT: -7.724378387      0.000      0.000
REMARK  17 active torsions:
REMARK  status: ('A' for Active; 'I' for Inactive)
REMARK    1  A    between atoms: C2_2  and  C4_4 
REMARK    2  A    between atoms: C4_4  and  C5_5 
REMARK    3  A    between atoms: C4_4  and  C28_45 
REMARK    4  A    between atoms: C5_5  and  C6_6 
REMARK    5  A    between atoms: C7_8  and  C8_9 
REMARK    6  A    between atoms: C10_12  and  C11_13 
REMARK    7  A    between atoms: C11_13  and  O3_14 
REMARK    8  A    between atoms: C11_13  and  C12_16 
REMARK    9  A    between atoms: C12_16  and  O4_17 
REMARK   10  A    between atoms: O4_17  and  C13_18 
REMARK   11  A    between atoms: C17_23  and  O6_24 
REMARK   12  A    between atoms: O6_24  and  C18_25 
REMARK   13  A    between atoms: C21_29  and  O8_30 
REMARK   14  A    between atoms: C22_32  and  O9_33 
REMARK   15  A    between atoms: C23_35  and  O10_36 
REMARK   16  A    between atoms: C24_38  and  O11_39 
REMARK   17  A    between atoms: C28_45  and  O13_47 
ROOT
HETATM    1  C13 UNL     1      -3.929   2.677   4.048  1.00  0.00     0.267 C 
HETATM    2  O5  UNL     1      -2.643   3.271   3.879  1.00  0.00    -0.349 OA
HETATM    3  C14 UNL     1      -2.295   2.832   2.603  1.00  0.00     0.069 A 
HETATM    4  C15 UNL     1      -2.440   1.372   2.778  1.00  0.00     0.050 C 
HETATM    5  C16 UNL     1      -3.815   1.315   3.411  1.00  0.00     0.075 C 
HETATM    6  C17 UNL     1      -4.924   1.079   2.467  1.00  0.00     0.162 C 
HETATM    7  C24 UNL     1      -4.961   1.709   1.150  1.00  0.00     0.148 C 
HETATM    8  C25 UNL     1      -3.675   2.275   0.593  1.00  0.00     0.042 C 
HETATM    9  C26 UNL     1      -3.095   3.339   1.462  1.00  0.00     0.026 A 
HETATM   10  C27 UNL     1      -1.575   3.522   1.584  1.00  0.00     0.046 A 
ENDROOT
BRANCH   1  11
HETATM   11  O4  UNL     1      -4.305   2.685   5.364  1.00  0.00    -0.358 OA
BRANCH  11  12
HETATM   12  C12 UNL     1      -3.364   2.743   6.324  1.00  0.00     0.205 C 
BRANCH  12  13
HETATM   13  C11 UNL     1      -3.045   1.499   7.080  1.00  0.00     0.174 C 
BRANCH  13  14
HETATM   14  C10 UNL     1      -4.194   0.518   7.077  1.00  0.00     0.181 C 
HETATM   15  C9  UNL     1      -3.699  -0.761   6.517  1.00  0.00     0.047 C 
HETATM   16  C7  UNL     1      -4.448  -1.827   6.810  1.00  0.00     0.108 C 
HETATM   17  O1  UNL     1      -5.564  -1.617   7.581  1.00  0.00    -0.318 OA
HETATM   18  C6  UNL     1      -5.702  -0.550   8.463  1.00  0.00     0.268 C 
HETATM   19  O12 UNL     1      -4.656   0.382   8.370  1.00  0.00    -0.349 OA
BRANCH  16  20
HETATM   20  C8  UNL     1      -4.045  -3.130   6.304  1.00  0.00     0.295 C 
HETATM   21  O2  UNL     1      -4.832  -3.683   5.473  1.00  0.00    -0.299 OA
ENDBRANCH  16  20
BRANCH  18  22
HETATM   22  C5  UNL     1      -5.703  -1.039   9.861  1.00  0.00     0.068 C 
BRANCH  22  23
HETATM   23  C4  UNL     1      -5.282  -0.144  10.950  1.00  0.00     0.022 C 
BRANCH  23  24
HETATM   24  C2  UNL     1      -6.226   0.018  12.096  1.00  0.00    -0.016 C 
HETATM   25  C1  UNL     1      -7.601  -0.507  11.716  1.00  0.00     0.010 C 
HETATM   26  C3  UNL     1      -5.832  -0.539  13.404  1.00  0.00     0.010 C 
ENDBRANCH  23  24
BRANCH  23  27
HETATM   27  C28 UNL     1      -3.862  -0.404  11.429  1.00  0.00     0.118 C 
HETATM   28  C29 UNL     1      -3.243   0.949  11.757  1.00  0.00     0.040 C 
BRANCH  27  29
HETATM   29  O13 UNL     1      -3.155  -0.921  10.328  1.00  0.00    -0.396 OA
ATOM     30  H13 UNL     1      -2.290  -1.154  10.645  1.00  0.00     0.210 HD
ENDBRANCH  27  29
ENDBRANCH  23  27
ENDBRANCH  22  23
ENDBRANCH  18  22
ENDBRANCH  13  14
BRANCH  13  31
HETATM   31  O3  UNL     1      -2.700   1.719   8.422  1.00  0.00    -0.391 OA
ATOM     32  H3  UNL     1      -2.325   0.909   8.748  1.00  0.00     0.210 HD
ENDBRANCH  13  31
ENDBRANCH  12  13
ENDBRANCH  11  12
ENDBRANCH   1  11
BRANCH   6  33
HETATM   33  O6  UNL     1      -4.987  -0.320   2.271  1.00  0.00    -0.350 OA
BRANCH  33  34
HETATM   34  C18 UNL     1      -5.804  -0.946   3.203  1.00  0.00     0.292 C 
HETATM   35  O7  UNL     1      -6.584   0.041   3.810  1.00  0.00    -0.351 OA
HETATM   36  C19 UNL     1      -7.332  -0.474   4.869  1.00  0.00     0.152 C 
HETATM   37  C20 UNL     1      -8.009   0.696   5.551  1.00  0.00     0.042 C 
HETATM   38  C21 UNL     1      -8.430  -1.338   4.279  1.00  0.00     0.178 C 
HETATM   39  C22 UNL     1      -7.799  -2.397   3.434  1.00  0.00     0.183 C 
HETATM   40  C23 UNL     1      -6.754  -1.886   2.490  1.00  0.00     0.204 C 
BRANCH  38  41
HETATM   41  O8  UNL     1      -9.228  -0.513   3.482  1.00  0.00    -0.390 OA
ATOM     42  H8  UNL     1      -9.890  -0.127   4.044  1.00  0.00     0.210 HD
ENDBRANCH  38  41
BRANCH  39  43
HETATM   43  O9  UNL     1      -7.285  -3.436   4.212  1.00  0.00    -0.390 OA
ATOM     44  H9  UNL     1      -6.599  -3.910   3.755  1.00  0.00     0.210 HD
ENDBRANCH  39  43
BRANCH  40  45
HETATM   45  O10 UNL     1      -7.341  -1.169   1.450  1.00  0.00    -0.388 OA
ATOM     46  H10 UNL     1      -6.848  -1.362   0.662  1.00  0.00     0.210 HD
ENDBRANCH  40  45
ENDBRANCH  33  34
ENDBRANCH   6  33
BRANCH   7  47
HETATM   47  O11 UNL     1      -5.612   0.919   0.173  1.00  0.00    -0.393 OA
ATOM     48  H11 UNL     1      -5.702   1.358  -0.664  1.00  0.00     0.210 HD
ENDBRANCH   7  47
TORSDOF 17
ENDMDL
MODEL 2
REMARK VINA RESULT: -7.510385845      2.466      4.938
REMARK  17 active torsions:
REMARK  status: ('A' for Active; 'I' for Inactive)
REMARK    1  A    between atoms: C2_2  and  C4_4 
REMARK    2  A    between atoms: C4_4  and  C5_5 
REMARK    3  A    between atoms: C4_4  and  C28_45 
REMARK    4  A    between atoms: C5_5  and  C6_6 
REMARK    5  A    between atoms: C7_8  and  C8_9 
REMARK    6  A    between atoms: C10_12  and  C11_13 
REMARK    7  A    between atoms: C11_13  and  O3_14 
REMARK    8  A    between atoms: C11_13  and  C12_16 
REMARK    9  A    between atoms: C12_16  and  O4_17 
REMARK   10  A    between atoms: O4_17  and  C13_18 
REMARK   11  A    between atoms: C17_23  and  O6_24 
REMARK   12  A    between atoms: O6_24  and  C18_25 
REMARK   13  A    between atoms: C21_29  and  O8_30 
REMARK   14  A    between atoms: C22_32  and  O9_33 
REMARK   15  A    between atoms: C23_35  and  O10_36 
REMARK   16  A    between atoms: C24_38  and  O11_39 
REMARK   17  A    between atoms: C28_45  and  O13_47 
ROOT
HETATM    1  C13 UNL     1      -3.303  -1.357   6.059  1.00  0.00     0.267 C 
HETATM    2  O5  UNL     1      -2.629  -2.042   7.112  1.00  0.00    -0.349 OA
HETATM    3  C14 UNL     1      -3.482  -3.121   7.338  1.00  0.00     0.069 A 
HETATM    4  C15 UNL     1      -4.750  -2.406   7.588  1.00  0.00     0.050 C 
HETATM    5  C16 UNL     1      -4.768  -1.473   6.396  1.00  0.00     0.075 C 
HETATM    6  C17 UNL     1      -5.540  -1.961   5.237  1.00  0.00     0.162 C 
HETATM    7  C24 UNL     1      -5.508  -3.361   4.825  1.00  0.00     0.148 C 
HETATM    8  C25 UNL     1      -5.015  -4.386   5.819  1.00  0.00     0.042 C 
HETATM    9  C26 UNL     1      -3.613  -4.129   6.258  1.00  0.00     0.026 A 
HETATM   10  C27 UNL     1      -3.153  -4.465   7.684  1.00  0.00     0.046 A 
ENDROOT
BRANCH   1  11
HETATM   11  O4  UNL     1      -2.828  -0.081   5.919  1.00  0.00    -0.358 OA
BRANCH  11  12
HETATM   12  C12 UNL     1      -1.936   0.397   6.806  1.00  0.00     0.205 C 
BRANCH  12  13
HETATM   13  C11 UNL     1      -2.437   1.232   7.935  1.00  0.00     0.174 C 
BRANCH  13  14
HETATM   14  C10 UNL     1      -2.412   0.489   9.249  1.00  0.00     0.181 C 
HETATM   15  C9  UNL     1      -1.284   1.019  10.051  1.00  0.00     0.047 C 
HETATM   16  C7  UNL     1      -1.363   0.771  11.361  1.00  0.00     0.108 C 
HETATM   17  O1  UNL     1      -2.457   0.069  11.801  1.00  0.00    -0.318 OA
HETATM   18  C6  UNL     1      -3.675   0.040  11.131  1.00  0.00     0.268 C 
HETATM   19  O12 UNL     1      -3.630   0.665   9.874  1.00  0.00    -0.349 OA
BRANCH  16  20
HETATM   20  C8  UNL     1      -0.301   1.250  12.232  1.00  0.00     0.295 C 
HETATM   21  O2  UNL     1       0.500   0.373  12.684  1.00  0.00    -0.299 OA
ENDBRANCH  16  20
BRANCH  18  22
HETATM   22  C5  UNL     1      -4.709   0.753  11.916  1.00  0.00     0.068 C 
BRANCH  22  23
HETATM   23  C4  UNL     1      -5.935   0.050  12.323  1.00  0.00     0.022 C 
BRANCH  23  24
HETATM   24  C2  UNL     1      -6.749  -0.574  11.237  1.00  0.00    -0.016 C 
HETATM   25  C1  UNL     1      -8.151  -0.870  11.742  1.00  0.00     0.010 C 
HETATM   26  C3  UNL     1      -6.832   0.128   9.942  1.00  0.00     0.010 C 
ENDBRANCH  23  24
BRANCH  23  27
HETATM   27  C28 UNL     1      -5.722  -0.909  13.484  1.00  0.00     0.118 C 
HETATM   28  C29 UNL     1      -6.695  -0.506  14.585  1.00  0.00     0.040 C 
BRANCH  27  29
HETATM   29  O13 UNL     1      -4.426  -0.666  13.974  1.00  0.00    -0.396 OA
ATOM     30  H13 UNL     1      -4.224  -1.374  14.574  1.00  0.00     0.210 HD
ENDBRANCH  27  29
ENDBRANCH  23  27
ENDBRANCH  22  23
ENDBRANCH  18  22
ENDBRANCH  13  14
BRANCH  13  31
HETATM   31  O3  UNL     1      -3.746   1.705   7.757  1.00  0.00    -0.391 OA
ATOM     32  H3  UNL     1      -3.704   2.400   7.111  1.00  0.00     0.210 HD
ENDBRANCH  13  31
ENDBRANCH  12  13
ENDBRANCH  11  12
ENDBRANCH   1  11
BRANCH   6  33
HETATM   33  O6  UNL     1      -6.890  -1.621   5.488  1.00  0.00    -0.350 OA
BRANCH  33  34
HETATM   34  C18 UNL     1      -7.296  -0.505   4.767  1.00  0.00     0.292 C 
HETATM   35  O7  UNL     1      -6.845  -0.664   3.455  1.00  0.00    -0.351 OA
HETATM   36  C19 UNL     1      -7.076   0.479   2.690  1.00  0.00     0.152 C 
HETATM   37  C20 UNL     1      -6.412   0.263   1.347  1.00  0.00     0.042 C 
HETATM   38  C21 UNL     1      -8.569   0.569   2.437  1.00  0.00     0.178 C 
HETATM   39  C22 UNL     1      -9.274   0.590   3.754  1.00  0.00     0.183 C 
HETATM   40  C23 UNL     1      -8.808  -0.462   4.715  1.00  0.00     0.204 C 
BRANCH  38  41
HETATM   41  O8  UNL     1      -8.941  -0.572   1.722  1.00  0.00    -0.390 OA
ATOM     42  H8  UNL     1      -9.454  -1.120   2.306  1.00  0.00     0.210 HD
ENDBRANCH  38  41
BRANCH  39  43
HETATM   43  O9  UNL     1      -9.215   1.851   4.350  1.00  0.00    -0.390 OA
ATOM     44  H9  UNL     1      -9.463   1.818   5.266  1.00  0.00     0.210 HD
ENDBRANCH  39  43
BRANCH  40  45
HETATM   45  O10 UNL     1      -9.244  -1.722   4.311  1.00  0.00    -0.388 OA
ATOM     46  H10 UNL     1     -10.080  -1.879   4.733  1.00  0.00     0.210 HD
ENDBRANCH  40  45
ENDBRANCH  33  34
ENDBRANCH   6  33
BRANCH   7  47
HETATM   47  O11 UNL     1      -6.719  -3.795   4.234  1.00  0.00    -0.393 OA
ATOM     48  H11 UNL     1      -7.004  -4.645   4.548  1.00  0.00     0.210 HD
ENDBRANCH   7  47
TORSDOF 17
ENDMDL
MODEL 3
REMARK VINA RESULT: -7.283729889      1.887      5.086
REMARK  17 active torsions:
REMARK  status: ('A' for Active; 'I' for Inactive)
REMARK    1  A    between atoms: C2_2  and  C4_4 
REMARK    2  A    between atoms: C4_4  and  C5_5 
REMARK    3  A    between atoms: C4_4  and  C28_45 
REMARK    4  A    between atoms: C5_5  and  C6_6 
REMARK    5  A    between atoms: C7_8  and  C8_9 
REMARK    6  A    between atoms: C10_12  and  C11_13 
REMARK    7  A    between atoms: C11_13  and  O3_14 
REMARK    8  A    between atoms: C11_13  and  C12_16 
REMARK    9  A    between atoms: C12_16  and  O4_17 
REMARK   10  A    between atoms: O4_17  and  C13_18 
REMARK   11  A    between atoms: C17_23  and  O6_24 
REMARK   12  A    between atoms: O6_24  and  C18_25 
REMARK   13  A    between atoms: C21_29  and  O8_30 
REMARK   14  A    between atoms: C22_32  and  O9_33 
REMARK   15  A    between atoms: C23_35  and  O10_36 
REMARK   16  A    between atoms: C24_38  and  O11_39 
REMARK   17  A    between atoms: C28_45  and  O13_47 
ROOT
HETATM    1  C13 UNL     1      -6.099  -2.108   4.688  1.00  0.00     0.267 C 
HETATM    2  O5  UNL     1      -6.977  -3.182   4.355  1.00  0.00    -0.349 OA
HETATM    3  C14 UNL     1      -7.693  -2.641   3.288  1.00  0.00     0.069 A 
HETATM    4  C15 UNL     1      -8.207  -1.407   3.916  1.00  0.00     0.050 C 
HETATM    5  C16 UNL     1      -6.930  -0.861   4.517  1.00  0.00     0.075 C 
HETATM    6  C17 UNL     1      -6.225   0.132   3.683  1.00  0.00     0.162 C 
HETATM    7  C24 UNL     1      -6.121  -0.015   2.234  1.00  0.00     0.148 C 
HETATM    8  C25 UNL     1      -7.075  -0.960   1.542  1.00  0.00     0.042 C 
HETATM    9  C26 UNL     1      -6.950  -2.362   2.036  1.00  0.00     0.026 A 
HETATM   10  C27 UNL     1      -8.172  -3.288   2.112  1.00  0.00     0.046 A 
ENDROOT
BRANCH   1  11
HETATM   11  O4  UNL     1      -5.551  -2.288   5.929  1.00  0.00    -0.358 OA
BRANCH  11  12
HETATM   12  C12 UNL     1      -4.239  -2.566   6.042  1.00  0.00     0.205 C 
BRANCH  12  13
HETATM   13  C11 UNL     1      -3.772  -3.296   7.255  1.00  0.00     0.174 C 
BRANCH  13  14
HETATM   14  C10 UNL     1      -3.326  -2.356   8.350  1.00  0.00     0.181 C 
HETATM   15  C9  UNL     1      -2.388  -1.376   7.754  1.00  0.00     0.047 C 
HETATM   16  C7  UNL     1      -2.220  -0.259   8.466  1.00  0.00     0.108 C 
HETATM   17  O1  UNL     1      -2.921  -0.152   9.641  1.00  0.00    -0.318 OA
HETATM   18  C6  UNL     1      -4.111  -0.827   9.893  1.00  0.00     0.268 C 
HETATM   19  O12 UNL     1      -4.443  -1.754   8.892  1.00  0.00    -0.349 OA
BRANCH  16  20
HETATM   20  C8  UNL     1      -1.317   0.765   7.964  1.00  0.00     0.295 C 
HETATM   21  O2  UNL     1      -1.549   1.958   8.338  1.00  0.00    -0.299 OA
ENDBRANCH  16  20
BRANCH  18  22
HETATM   22  C5  UNL     1      -5.238   0.132   9.964  1.00  0.00     0.068 C 
BRANCH  22  23
HETATM   23  C4  UNL     1      -6.596  -0.354  10.253  1.00  0.00     0.022 C 
BRANCH  23  24
HETATM   24  C2  UNL     1      -7.109  -0.143  11.640  1.00  0.00    -0.016 C 
HETATM   25  C1  UNL     1      -8.301  -1.048  11.898  1.00  0.00     0.010 C 
HETATM   26  C3  UNL     1      -6.152  -0.260  12.758  1.00  0.00     0.010 C 
ENDBRANCH  23  24
BRANCH  23  27
HETATM   27  C28 UNL     1      -7.620   0.063   9.209  1.00  0.00     0.118 C 
HETATM   28  C29 UNL     1      -6.847   0.503   7.972  1.00  0.00     0.040 C 
BRANCH  27  29
HETATM   29  O13 UNL     1      -8.268   1.204   9.714  1.00  0.00    -0.396 OA
ATOM     30  H13 UNL     1      -9.020   1.360   9.155  1.00  0.00     0.210 HD
ENDBRANCH  27  29
ENDBRANCH  23  27
ENDBRANCH  22  23
ENDBRANCH  18  22
ENDBRANCH  13  14
BRANCH  13  31
HETATM   31  O3  UNL     1      -2.707  -4.178   7.015  1.00  0.00    -0.391 OA
ATOM     32  H3  UNL     1      -2.556  -4.181   6.076  1.00  0.00     0.210 HD
ENDBRANCH  13  31
ENDBRANCH  12  13
ENDBRANCH  11  12
ENDBRANCH   1  11
BRANCH   6  33
HETATM   33  O6  UNL     1      -6.845   1.377   3.941  1.00  0.00    -0.350 OA
BRANCH  33  34
HETATM   34  C18 UNL     1      -6.077   2.187   4.768  1.00  0.00     0.292 C 
HETATM   35  O7  UNL     1      -4.740   2.011   4.406  1.00  0.00    -0.351 OA
HETATM   36  C19 UNL     1      -3.879   2.672   5.282  1.00  0.00     0.152 C 
HETATM   37  C20 UNL     1      -2.466   2.287   4.899  1.00  0.00     0.042 C 
HETATM   38  C21 UNL     1      -4.017   4.160   5.026  1.00  0.00     0.178 C 
HETATM   39  C22 UNL     1      -5.450   4.543   5.208  1.00  0.00     0.183 C 
HETATM   40  C23 UNL     1      -6.419   3.640   4.509  1.00  0.00     0.204 C 
BRANCH  38  41
HETATM   41  O8  UNL     1      -3.631   4.394   3.703  1.00  0.00    -0.390 OA
ATOM     42  H8  UNL     1      -2.992   5.098   3.713  1.00  0.00     0.210 HD
ENDBRANCH  38  41
BRANCH  39  43
HETATM   43  O9  UNL     1      -5.783   4.660   6.559  1.00  0.00    -0.390 OA
ATOM     44  H9  UNL     1      -6.674   4.375   6.726  1.00  0.00     0.210 HD
ENDBRANCH  39  43
BRANCH  40  45
HETATM   45  O10 UNL     1      -6.366   3.837   3.131  1.00  0.00    -0.388 OA
ATOM     46  H10 UNL     1      -6.766   4.679   2.952  1.00  0.00     0.210 HD
ENDBRANCH  40  45
ENDBRANCH  33  34
ENDBRANCH   6  33
BRANCH   7  47
HETATM   47  O11 UNL     1      -6.076   1.224   1.551  1.00  0.00    -0.393 OA
ATOM     48  H11 UNL     1      -6.639   1.249   0.787  1.00  0.00     0.210 HD
ENDBRANCH   7  47
TORSDOF 17
ENDMDL
MODEL 4
REMARK VINA RESULT: -7.238982740      1.757      2.712
REMARK  17 active torsions:
REMARK  status: ('A' for Active; 'I' for Inactive)
REMARK    1  A    between atoms: C2_2  and  C4_4 
REMARK    2  A    between atoms: C4_4  and  C5_5 
REMARK    3  A    between atoms: C4_4  and  C28_45 
REMARK    4  A    between atoms: C5_5  and  C6_6 
REMARK    5  A    between atoms: C7_8  and  C8_9 
REMARK    6  A    between atoms: C10_12  and  C11_13 
REMARK    7  A    between atoms: C11_13  and  O3_14 
REMARK    8  A    between atoms: C11_13  and  C12_16 
REMARK    9  A    between atoms: C12_16  and  O4_17 
REMARK   10  A    between atoms: O4_17  and  C13_18 
REMARK   11  A    between atoms: C17_23  and  O6_24 
REMARK   12  A    between atoms: O6_24  and  C18_25 
REMARK   13  A    between atoms: C21_29  and  O8_30 
REMARK   14  A    between atoms: C22_32  and  O9_33 
REMARK   15  A    between atoms: C23_35  and  O10_36 
REMARK   16  A    between atoms: C24_38  and  O11_39 
REMARK   17  A    between atoms: C28_45  and  O13_47 
ROOT
HETATM    1  C13 UNL     1      -2.484   2.086   5.903  1.00  0.00     0.267 C 
HETATM    2  O5  UNL     1      -1.667   3.206   5.566  1.00  0.00    -0.349 OA
HETATM    3  C14 UNL     1      -2.622   4.145   5.179  1.00  0.00     0.069 A 
HETATM    4  C15 UNL     1      -3.332   3.382   4.134  1.00  0.00     0.050 C 
HETATM    5  C16 UNL     1      -3.586   2.086   4.875  1.00  0.00     0.075 C 
HETATM    6  C17 UNL     1      -4.910   1.989   5.521  1.00  0.00     0.162 C 
HETATM    7  C24 UNL     1      -5.521   3.129   6.199  1.00  0.00     0.148 C 
HETATM    8  C25 UNL     1      -4.991   4.510   5.892  1.00  0.00     0.042 C 
HETATM    9  C26 UNL     1      -3.544   4.654   6.223  1.00  0.00     0.026 A 
HETATM   10  C27 UNL     1      -2.625   5.555   5.386  1.00  0.00     0.046 A 
ENDROOT
BRANCH   1  11
HETATM   11  O4  UNL     1      -1.740   0.939   5.973  1.00  0.00    -0.358 OA
BRANCH  11  12
HETATM   12  C12 UNL     1      -1.038   0.669   7.088  1.00  0.00     0.205 C 
BRANCH  12  13
HETATM   13  C11 UNL     1      -1.589  -0.329   8.049  1.00  0.00     0.174 C 
BRANCH  13  14
HETATM   14  C10 UNL     1      -2.889  -0.928   7.566  1.00  0.00     0.181 C 
HETATM   15  C9  UNL     1      -2.685  -2.387   7.405  1.00  0.00     0.047 C 
HETATM   16  C7  UNL     1      -3.808  -3.109   7.380  1.00  0.00     0.108 C 
HETATM   17  O1  UNL     1      -4.994  -2.429   7.504  1.00  0.00    -0.318 OA
HETATM   18  C6  UNL     1      -5.113  -1.194   8.132  1.00  0.00     0.268 C 
HETATM   19  O12 UNL     1      -3.875  -0.633   8.485  1.00  0.00    -0.349 OA
BRANCH  16  20
HETATM   20  C8  UNL     1      -3.713  -4.552   7.224  1.00  0.00     0.295 C 
HETATM   21  O2  UNL     1      -4.589  -5.247   7.830  1.00  0.00    -0.299 OA
ENDBRANCH  16  20
BRANCH  18  22
HETATM   22  C5  UNL     1      -5.883  -1.331   9.389  1.00  0.00     0.068 C 
BRANCH  22  23
HETATM   23  C4  UNL     1      -5.994  -0.188  10.309  1.00  0.00     0.022 C 
BRANCH  23  24
HETATM   24  C2  UNL     1      -7.360   0.142  10.815  1.00  0.00    -0.016 C 
HETATM   25  C1  UNL     1      -8.201   0.734   9.697  1.00  0.00     0.010 C 
HETATM   26  C3  UNL     1      -8.123  -0.922  11.494  1.00  0.00     0.010 C 
ENDBRANCH  23  24
BRANCH  23  27
HETATM   27  C28 UNL     1      -4.972  -0.219  11.435  1.00  0.00     0.118 C 
HETATM   28  C29 UNL     1      -5.674   0.275  12.693  1.00  0.00     0.040 C 
BRANCH  27  29
HETATM   29  O13 UNL     1      -3.989   0.734  11.112  1.00  0.00    -0.396 OA
ATOM     30  H13 UNL     1      -4.229   1.098  10.268  1.00  0.00     0.210 HD
ENDBRANCH  27  29
ENDBRANCH  23  27
ENDBRANCH  22  23
ENDBRANCH  18  22
ENDBRANCH  13  14
BRANCH  13  31
HETATM   31  O3  UNL     1      -1.829   0.186   9.332  1.00  0.00    -0.391 OA
ATOM     32  H3  UNL     1      -2.499   0.854   9.241  1.00  0.00     0.210 HD
ENDBRANCH  13  31
ENDBRANCH  12  13
ENDBRANCH  11  12
ENDBRANCH   1  11
BRANCH   6  33
HETATM   33  O6  UNL     1      -5.809   1.558   4.518  1.00  0.00    -0.350 OA
BRANCH  33  34
HETATM   34  C18 UNL     1      -6.289   0.277   4.755  1.00  0.00     0.292 C 
HETATM   35  O7  UNL     1      -7.684   0.348   4.785  1.00  0.00    -0.351 OA
HETATM   36  C19 UNL     1      -8.253  -0.867   5.167  1.00  0.00     0.152 C 
HETATM   37  C20 UNL     1      -9.741  -0.637   5.322  1.00  0.00     0.042 C 
HETATM   38  C21 UNL     1      -8.072  -1.840   4.019  1.00  0.00     0.178 C 
HETATM   39  C22 UNL     1      -6.614  -1.945   3.709  1.00  0.00     0.183 C 
HETATM   40  C23 UNL     1      -5.915  -0.624   3.597  1.00  0.00     0.204 C 
BRANCH  38  41
HETATM   41  O8  UNL     1      -8.752  -1.316   2.916  1.00  0.00    -0.390 OA
ATOM     42  H8  UNL     1      -9.674  -1.280   3.141  1.00  0.00     0.210 HD
ENDBRANCH  38  41
BRANCH  39  43
HETATM   43  O9  UNL     1      -5.952  -2.769   4.621  1.00  0.00    -0.390 OA
ATOM     44  H9  UNL     1      -6.131  -2.513   5.518  1.00  0.00     0.210 HD
ENDBRANCH  39  43
BRANCH  40  45
HETATM   45  O10 UNL     1      -6.290   0.031   2.427  1.00  0.00    -0.388 OA
ATOM     46  H10 UNL     1      -6.560  -0.635   1.806  1.00  0.00     0.210 HD
ENDBRANCH  40  45
ENDBRANCH  33  34
ENDBRANCH   6  33
BRANCH   7  47
HETATM   47  O11 UNL     1      -6.935   3.121   6.136  1.00  0.00    -0.393 OA
ATOM     48  H11 UNL     1      -7.307   2.250   6.204  1.00  0.00     0.210 HD
ENDBRANCH   7  47
TORSDOF 17
ENDMDL
MODEL 5
REMARK VINA RESULT: -7.139494051      2.432      4.949
REMARK  17 active torsions:
REMARK  status: ('A' for Active; 'I' for Inactive)
REMARK    1  A    between atoms: C2_2  and  C4_4 
REMARK    2  A    between atoms: C4_4  and  C5_5 
REMARK    3  A    between atoms: C4_4  and  C28_45 
REMARK    4  A    between atoms: C5_5  and  C6_6 
REMARK    5  A    between atoms: C7_8  and  C8_9 
REMARK    6  A    between atoms: C10_12  and  C11_13 
REMARK    7  A    between atoms: C11_13  and  O3_14 
REMARK    8  A    between atoms: C11_13  and  C12_16 
REMARK    9  A    between atoms: C12_16  and  O4_17 
REMARK   10  A    between atoms: O4_17  and  C13_18 
REMARK   11  A    between atoms: C17_23  and  O6_24 
REMARK   12  A    between atoms: O6_24  and  C18_25 
REMARK   13  A    between atoms: C21_29  and  O8_30 
REMARK   14  A    between atoms: C22_32  and  O9_33 
REMARK   15  A    between atoms: C23_35  and  O10_36 
REMARK   16  A    between atoms: C24_38  and  O11_39 
REMARK   17  A    between atoms: C28_45  and  O13_47 
ROOT
HETATM    1  C13 UNL     1      -3.222  -1.228   6.194  1.00  0.00     0.267 C 
HETATM    2  O5  UNL     1      -2.585  -1.830   7.319  1.00  0.00    -0.349 OA
HETATM    3  C14 UNL     1      -3.398  -2.939   7.545  1.00  0.00     0.069 A 
HETATM    4  C15 UNL     1      -4.712  -2.278   7.681  1.00  0.00     0.050 C 
HETATM    5  C16 UNL     1      -4.698  -1.402   6.446  1.00  0.00     0.075 C 
HETATM    6  C17 UNL     1      -5.371  -1.980   5.267  1.00  0.00     0.162 C 
HETATM    7  C24 UNL     1      -5.247  -3.395   4.927  1.00  0.00     0.148 C 
HETATM    8  C25 UNL     1      -4.770  -4.347   5.999  1.00  0.00     0.042 C 
HETATM    9  C26 UNL     1      -3.413  -4.000   6.510  1.00  0.00     0.026 A 
HETATM   10  C27 UNL     1      -3.030  -4.247   7.976  1.00  0.00     0.046 A 
ENDROOT
BRANCH   1  11
HETATM   11  O4  UNL     1      -2.799   0.062   6.022  1.00  0.00    -0.358 OA
BRANCH  11  12
HETATM   12  C12 UNL     1      -3.176   1.008   6.901  1.00  0.00     0.205 C 
BRANCH  12  13
HETATM   13  C11 UNL     1      -2.166   1.513   7.874  1.00  0.00     0.174 C 
BRANCH  13  14
HETATM   14  C10 UNL     1      -2.081   0.648   9.109  1.00  0.00     0.181 C 
HETATM   15  C9  UNL     1      -1.028   1.210   9.987  1.00  0.00     0.047 C 
HETATM   16  C7  UNL     1      -1.098   0.824  11.264  1.00  0.00     0.108 C 
HETATM   17  O1  UNL     1      -2.117  -0.030  11.605  1.00  0.00    -0.318 OA
HETATM   18  C6  UNL     1      -3.316  -0.120  10.905  1.00  0.00     0.268 C 
HETATM   19  O12 UNL     1      -3.319   0.631   9.718  1.00  0.00    -0.349 OA
BRANCH  16  20
HETATM   20  C8  UNL     1      -0.107   1.321  12.204  1.00  0.00     0.295 C 
HETATM   21  O2  UNL     1       0.552   0.446  12.849  1.00  0.00    -0.299 OA
ENDBRANCH  16  20
BRANCH  18  22
HETATM   22  C5  UNL     1      -4.431   0.398  11.730  1.00  0.00     0.068 C 
BRANCH  22  23
HETATM   23  C4  UNL     1      -5.694  -0.352  11.808  1.00  0.00     0.022 C 
BRANCH  23  24
HETATM   24  C2  UNL     1      -6.186  -0.707  13.173  1.00  0.00    -0.016 C 
HETATM   25  C1  UNL     1      -5.017  -0.822  14.135  1.00  0.00     0.010 C 
HETATM   26  C3  UNL     1      -7.236   0.138  13.773  1.00  0.00     0.010 C 
ENDBRANCH  23  24
BRANCH  23  27
HETATM   27  C28 UNL     1      -6.801   0.242  10.951  1.00  0.00     0.118 C 
HETATM   28  C29 UNL     1      -8.005  -0.683  11.066  1.00  0.00     0.040 C 
BRANCH  27  29
HETATM   29  O13 UNL     1      -6.358   0.174   9.618  1.00  0.00    -0.396 OA
ATOM     30  H13 UNL     1      -6.998   0.642   9.094  1.00  0.00     0.210 HD
ENDBRANCH  27  29
ENDBRANCH  23  27
ENDBRANCH  22  23
ENDBRANCH  18  22
ENDBRANCH  13  14
BRANCH  13  31
HETATM   31  O3  UNL     1      -2.401   2.826   8.311  1.00  0.00    -0.391 OA
ATOM     32  H3  UNL     1      -2.533   2.785   9.252  1.00  0.00     0.210 HD
ENDBRANCH  13  31
ENDBRANCH  12  13
ENDBRANCH  11  12
ENDBRANCH   1  11
BRANCH   6  33
HETATM   33  O6  UNL     1      -6.749  -1.698   5.418  1.00  0.00    -0.350 OA
BRANCH  33  34
HETATM   34  C18 UNL     1      -7.142  -0.585   4.687  1.00  0.00     0.292 C 
HETATM   35  O7  UNL     1      -6.758  -0.795   3.360  1.00  0.00    -0.351 OA
HETATM   36  C19 UNL     1      -6.978   0.337   2.576  1.00  0.00     0.152 C 
HETATM   37  C20 UNL     1      -6.385   0.059   1.211  1.00  0.00     0.042 C 
HETATM   38  C21 UNL     1      -8.476   0.482   2.387  1.00  0.00     0.178 C 
HETATM   39  C22 UNL     1      -9.119   0.565   3.733  1.00  0.00     0.183 C 
HETATM   40  C23 UNL     1      -8.652  -0.480   4.701  1.00  0.00     0.204 C 
BRANCH  38  41
HETATM   41  O8  UNL     1      -8.926  -0.661   1.720  1.00  0.00    -0.390 OA
ATOM     42  H8  UNL     1      -9.871  -0.596   1.650  1.00  0.00     0.210 HD
ENDBRANCH  38  41
BRANCH  39  43
HETATM   43  O9  UNL     1      -8.982   1.838   4.291  1.00  0.00    -0.390 OA
ATOM     44  H9  UNL     1      -8.284   2.330   3.873  1.00  0.00     0.210 HD
ENDBRANCH  39  43
BRANCH  40  45
HETATM   45  O10 UNL     1      -9.156  -1.731   4.351  1.00  0.00    -0.388 OA
ATOM     46  H10 UNL     1      -9.364  -2.186   5.158  1.00  0.00     0.210 HD
ENDBRANCH  40  45
ENDBRANCH  33  34
ENDBRANCH   6  33
BRANCH   7  47
HETATM   47  O11 UNL     1      -6.396  -3.915   4.285  1.00  0.00    -0.393 OA
ATOM     48  H11 UNL     1      -7.066  -4.202   4.894  1.00  0.00     0.210 HD
ENDBRANCH   7  47
TORSDOF 17
ENDMDL
