MODEL 1
REMARK VINA RESULT: -7.768940282      0.000      0.000
REMARK  17 active torsions:
REMARK  status: ('A' for Active; 'I' for Inactive)
REMARK    1  A    between atoms: C2_2  and  C3_3 
REMARK    2  A    between atoms: C3_3  and  C5_5 
REMARK    3  A    between atoms: C5_5  and  O1_6 
REMARK    4  A    between atoms: C5_5  and  C6_8 
REMARK    5  A    between atoms: C6_8  and  C7_10 
REMARK    6  A    between atoms: C7_10  and  O3_11 
REMARK    7  A    between atoms: C9_15  and  O5_16 
REMARK    8  A    between atoms: C17_26  and  O7_27 
REMARK    9  A    between atoms: C17_26  and  C18_29 
REMARK   10  A    between atoms: C20_32  and  O9_33 
REMARK   11  A    between atoms: C20_32  and  C21_35 
REMARK   12  A    between atoms: C21_35  and  O10_36 
REMARK   13  A    between atoms: C21_35  and  C22_38 
REMARK   14  A    between atoms: C25_42  and  O12_43 
REMARK   15  A    between atoms: O12_43  and  C26_44 
REMARK   16  A    between atoms: C26_44  and  C27_46 
REMARK   17  A    between atoms: C27_46  and  C28_47 
ROOT
HETATM    1  C7  UNL     1      -5.251  -0.277   6.880  1.00  0.00     0.218 C 
HETATM    2  C8  UNL     1      -5.662  -0.892   5.591  1.00  0.00     0.214 C 
HETATM    3  O4  UNL     1      -4.850  -1.594   5.044  1.00  0.00    -0.290 OA
HETATM    4  C9  UNL     1      -6.995  -0.658   4.999  1.00  0.00     0.190 C 
HETATM    5  C10 UNL     1      -7.235   0.787   5.256  1.00  0.00     0.036 C 
HETATM    6  C11 UNL     1      -7.292   1.682   4.299  1.00  0.00     0.026 C 
HETATM    7  C12 UNL     1      -7.128   1.339   2.896  1.00  0.00     0.002 A 
HETATM    8  C13 UNL     1      -6.943   0.085   2.561  1.00  0.00    -0.007 A 
HETATM    9  C14 UNL     1      -6.732  -0.266   1.154  1.00  0.00     0.015 A 
HETATM   10  C15 UNL     1      -6.736   0.669   0.235  1.00  0.00     0.055 A 
HETATM   11  C16 UNL     1      -6.942   2.053   0.550  1.00  0.00     0.196 A 
HETATM   12  O6  UNL     1      -6.913   2.921  -0.353  1.00  0.00    -0.289 OA
HETATM   13  C17 UNL     1      -7.189   2.489   1.919  1.00  0.00     0.210 A 
HETATM   14  C20 UNL     1      -7.231  -0.973   3.566  1.00  0.00     0.154 C 
HETATM   15  C24 UNL     1      -7.264   1.161   6.684  1.00  0.00     0.192 C 
HETATM   16  O11 UNL     1      -8.042   2.068   7.011  1.00  0.00    -0.290 OA
HETATM   17  C25 UNL     1      -6.366   0.437   7.626  1.00  0.00     0.256 C 
ENDROOT
BRANCH   1  18
HETATM   18  C6  UNL     1      -4.614  -1.290   7.744  1.00  0.00     0.200 C 
HETATM   19  O2  UNL     1      -5.166  -2.381   7.889  1.00  0.00    -0.291 OA
BRANCH  18  20
HETATM   20  C5  UNL     1      -3.356  -1.102   8.468  1.00  0.00     0.195 C 
BRANCH  20  21
HETATM   21  C3  UNL     1      -3.274   0.039   9.420  1.00  0.00     0.017 C 
HETATM   22  C4  UNL     1      -2.005   0.857   9.226  1.00  0.00     0.013 C 
BRANCH  21  23
HETATM   23  C2  UNL     1      -3.071  -0.604  10.814  1.00  0.00     0.002 C 
HETATM   24  C1  UNL     1      -3.146   0.432  11.899  1.00  0.00     0.005 C 
ENDBRANCH  21  23
ENDBRANCH  20  21
BRANCH  20  25
HETATM   25  O1  UNL     1      -2.232  -0.986   7.629  1.00  0.00    -0.388 OA
ATOM     26  H1  UNL     1      -1.974  -1.875   7.416  1.00  0.00     0.210 HD
ENDBRANCH  20  25
ENDBRANCH  18  20
ENDBRANCH   1  18
BRANCH   1  27
HETATM   27  O3  UNL     1      -4.247   0.668   6.557  1.00  0.00    -0.372 OA
ATOM     28  H3  UNL     1      -4.197   1.270   7.290  1.00  0.00     0.211 HD
ENDBRANCH   1  27
BRANCH  17  29
HETATM   29  O12 UNL     1      -6.978  -0.295   8.621  1.00  0.00    -0.304 OA
BRANCH  29  30
HETATM   30  C26 UNL     1      -7.308   0.121   9.879  1.00  0.00     0.260 C 
HETATM   31  O13 UNL     1      -8.319   0.851   9.983  1.00  0.00    -0.265 OA
BRANCH  30  32
HETATM   32  C27 UNL     1      -6.562  -0.230  11.108  1.00  0.00     0.115 C 
BRANCH  32  33
HETATM   33  C28 UNL     1      -7.407  -0.221  12.337  1.00  0.00    -0.013 C 
HETATM   34  C29 UNL     1      -6.655  -0.523  13.604  1.00  0.00     0.010 C 
HETATM   35  C30 UNL     1      -8.445  -1.339  12.161  1.00  0.00     0.010 C 
ENDBRANCH  32  33
ENDBRANCH  30  32
ENDBRANCH  29  30
ENDBRANCH  17  29
BRANCH   4  36
HETATM   36  O5  UNL     1      -7.944  -1.436   5.724  1.00  0.00    -0.374 OA
ATOM     37  H5  UNL     1      -8.615  -0.850   6.055  1.00  0.00     0.211 HD
ENDBRANCH   4  36
BRANCH  14  38
HETATM   38  O9  UNL     1      -8.699  -0.951   3.597  1.00  0.00    -0.378 OA
ATOM     39  H9  UNL     1      -8.811  -1.185   4.510  1.00  0.00     0.211 HD
ENDBRANCH  14  38
BRANCH  14  40
HETATM   40  C21 UNL     1      -6.906  -2.357   3.179  1.00  0.00     0.161 C 
BRANCH  40  41
HETATM   41  O10 UNL     1      -7.369  -3.179   4.291  1.00  0.00    -0.392 OA
ATOM     42  H10 UNL     1      -6.639  -3.203   4.899  1.00  0.00     0.210 HD
ENDBRANCH  40  41
BRANCH  40  43
HETATM   43  C22 UNL     1      -7.781  -2.905   2.056  1.00  0.00     0.031 C 
HETATM   44  C23 UNL     1      -8.220  -4.324   2.198  1.00  0.00     0.007 C 
ENDBRANCH  40  43
ENDBRANCH  14  40
BRANCH  13  45
HETATM   45  O7  UNL     1      -6.170   3.395   2.262  1.00  0.00    -0.370 OA
ATOM     46  H7  UNL     1      -6.381   4.230   1.861  1.00  0.00     0.212 HD
ENDBRANCH  13  45
BRANCH  13  47
HETATM   47  C18 UNL     1      -8.472   3.213   2.056  1.00  0.00     0.170 C 
HETATM   48  C19 UNL     1      -9.786   2.598   1.735  1.00  0.00     0.095 C 
HETATM   49  O8  UNL     1      -8.477   4.371   2.448  1.00  0.00    -0.294 OA
ENDBRANCH  13  47
TORSDOF 17
ENDMDL
MODEL 2
REMARK VINA RESULT: -7.709799625      1.960      2.808
REMARK  17 active torsions:
REMARK  status: ('A' for Active; 'I' for Inactive)
REMARK    1  A    between atoms: C2_2  and  C3_3 
REMARK    2  A    between atoms: C3_3  and  C5_5 
REMARK    3  A    between atoms: C5_5  and  O1_6 
REMARK    4  A    between atoms: C5_5  and  C6_8 
REMARK    5  A    between atoms: C6_8  and  C7_10 
REMARK    6  A    between atoms: C7_10  and  O3_11 
REMARK    7  A    between atoms: C9_15  and  O5_16 
REMARK    8  A    between atoms: C17_26  and  O7_27 
REMARK    9  A    between atoms: C17_26  and  C18_29 
REMARK   10  A    between atoms: C20_32  and  O9_33 
REMARK   11  A    between atoms: C20_32  and  C21_35 
REMARK   12  A    between atoms: C21_35  and  O10_36 
REMARK   13  A    between atoms: C21_35  and  C22_38 
REMARK   14  A    between atoms: C25_42  and  O12_43 
REMARK   15  A    between atoms: O12_43  and  C26_44 
REMARK   16  A    between atoms: C26_44  and  C27_46 
REMARK   17  A    between atoms: C27_46  and  C28_47 
ROOT
HETATM    1  C7  UNL     1      -5.777   1.111   6.641  1.00  0.00     0.218 C 
HETATM    2  C8  UNL     1      -6.180   0.481   5.358  1.00  0.00     0.214 C 
HETATM    3  O4  UNL     1      -5.399   0.566   4.445  1.00  0.00    -0.290 OA
HETATM    4  C9  UNL     1      -7.473  -0.216   5.196  1.00  0.00     0.190 C 
HETATM    5  C10 UNL     1      -8.423   0.652   5.943  1.00  0.00     0.036 C 
HETATM    6  C11 UNL     1      -9.377   1.335   5.357  1.00  0.00     0.026 C 
HETATM    7  C12 UNL     1      -9.592   1.304   3.919  1.00  0.00     0.002 A 
HETATM    8  C13 UNL     1      -8.827   0.544   3.174  1.00  0.00    -0.007 A 
HETATM    9  C14 UNL     1      -9.006   0.539   1.720  1.00  0.00     0.015 A 
HETATM   10  C15 UNL     1      -9.933   1.284   1.168  1.00  0.00     0.055 A 
HETATM   11  C16 UNL     1     -10.800   2.126   1.942  1.00  0.00     0.196 A 
HETATM   12  O6  UNL     1     -11.657   2.844   1.376  1.00  0.00    -0.289 OA
HETATM   13  C17 UNL     1     -10.712   2.171   3.395  1.00  0.00     0.210 A 
HETATM   14  C20 UNL     1      -7.994  -0.497   3.834  1.00  0.00     0.154 C 
HETATM   15  C24 UNL     1      -8.124   0.796   7.382  1.00  0.00     0.192 C 
HETATM   16  O11 UNL     1      -9.092   0.899   8.149  1.00  0.00    -0.290 OA
HETATM   17  C25 UNL     1      -6.698   0.813   7.812  1.00  0.00     0.256 C 
ENDROOT
BRANCH   1  18
HETATM   18  C6  UNL     1      -4.385   0.745   6.970  1.00  0.00     0.200 C 
HETATM   19  O2  UNL     1      -3.618   1.622   7.370  1.00  0.00    -0.291 OA
BRANCH  18  20
HETATM   20  C5  UNL     1      -3.820  -0.599   6.850  1.00  0.00     0.195 C 
BRANCH  20  21
HETATM   21  C3  UNL     1      -2.863  -1.039   7.900  1.00  0.00     0.017 C 
HETATM   22  C4  UNL     1      -1.451  -0.530   7.639  1.00  0.00     0.013 C 
BRANCH  21  23
HETATM   23  C2  UNL     1      -2.726  -2.570   7.715  1.00  0.00     0.002 C 
HETATM   24  C1  UNL     1      -3.973  -3.278   8.164  1.00  0.00     0.005 C 
ENDBRANCH  21  23
ENDBRANCH  20  21
BRANCH  20  25
HETATM   25  O1  UNL     1      -3.179  -0.836   5.620  1.00  0.00    -0.388 OA
ATOM     26  H1  UNL     1      -3.747  -1.426   5.140  1.00  0.00     0.210 HD
ENDBRANCH  20  25
ENDBRANCH  18  20
ENDBRANCH   1  18
BRANCH   1  27
HETATM   27  O3  UNL     1      -5.783   2.508   6.407  1.00  0.00    -0.372 OA
ATOM     28  H3  UNL     1      -6.297   2.897   7.105  1.00  0.00     0.211 HD
ENDBRANCH   1  27
BRANCH  17  29
HETATM   29  O12 UNL     1      -6.293  -0.212   8.640  1.00  0.00    -0.304 OA
BRANCH  29  30
HETATM   30  C26 UNL     1      -6.163  -0.184   9.999  1.00  0.00     0.260 C 
HETATM   31  O13 UNL     1      -7.171   0.167  10.654  1.00  0.00    -0.265 OA
BRANCH  30  32
HETATM   32  C27 UNL     1      -4.931  -0.536  10.738  1.00  0.00     0.115 C 
BRANCH  32  33
HETATM   33  C28 UNL     1      -4.638   0.383  11.875  1.00  0.00    -0.013 C 
HETATM   34  C29 UNL     1      -3.236   0.926  11.885  1.00  0.00     0.010 C 
HETATM   35  C30 UNL     1      -4.801  -0.445  13.159  1.00  0.00     0.010 C 
ENDBRANCH  32  33
ENDBRANCH  30  32
ENDBRANCH  29  30
ENDBRANCH  17  29
BRANCH   4  36
HETATM   36  O5  UNL     1      -7.376  -1.483   5.841  1.00  0.00    -0.374 OA
ATOM     37  H5  UNL     1      -6.483  -1.592   6.145  1.00  0.00     0.211 HD
ENDBRANCH   4  36
BRANCH  14  38
HETATM   38  O9  UNL     1      -9.012  -1.485   4.211  1.00  0.00    -0.378 OA
ATOM     39  H9  UNL     1      -9.323  -1.689   3.337  1.00  0.00     0.211 HD
ENDBRANCH  14  38
BRANCH  14  40
HETATM   40  C21 UNL     1      -7.072  -1.252   2.967  1.00  0.00     0.161 C 
BRANCH  40  41
HETATM   41  O10 UNL     1      -6.523  -2.299   3.821  1.00  0.00    -0.392 OA
ATOM     42  H10 UNL     1      -7.260  -2.608   4.336  1.00  0.00     0.210 HD
ENDBRANCH  40  41
BRANCH  40  43
HETATM   43  C22 UNL     1      -7.773  -2.103   1.913  1.00  0.00     0.031 C 
HETATM   44  C23 UNL     1      -7.680  -3.581   2.093  1.00  0.00     0.007 C 
ENDBRANCH  40  43
ENDBRANCH  14  40
BRANCH  13  45
HETATM   45  O7  UNL     1     -10.428   3.499   3.759  1.00  0.00    -0.370 OA
ATOM     46  H7  UNL     1     -10.636   4.052   3.015  1.00  0.00     0.212 HD
ENDBRANCH  13  45
BRANCH  13  47
HETATM   47  C18 UNL     1     -11.990   1.810   4.048  1.00  0.00     0.170 C 
HETATM   48  C19 UNL     1     -12.816   2.786   4.803  1.00  0.00     0.095 C 
HETATM   49  O8  UNL     1     -12.406   0.662   3.976  1.00  0.00    -0.294 OA
ENDBRANCH  13  47
TORSDOF 17
ENDMDL
MODEL 3
REMARK VINA RESULT: -7.708984471      2.109      2.972
REMARK  17 active torsions:
REMARK  status: ('A' for Active; 'I' for Inactive)
REMARK    1  A    between atoms: C2_2  and  C3_3 
REMARK    2  A    between atoms: C3_3  and  C5_5 
REMARK    3  A    between atoms: C5_5  and  O1_6 
REMARK    4  A    between atoms: C5_5  and  C6_8 
REMARK    5  A    between atoms: C6_8  and  C7_10 
REMARK    6  A    between atoms: C7_10  and  O3_11 
REMARK    7  A    between atoms: C9_15  and  O5_16 
REMARK    8  A    between atoms: C17_26  and  O7_27 
REMARK    9  A    between atoms: C17_26  and  C18_29 
REMARK   10  A    between atoms: C20_32  and  O9_33 
REMARK   11  A    between atoms: C20_32  and  C21_35 
REMARK   12  A    between atoms: C21_35  and  O10_36 
REMARK   13  A    between atoms: C21_35  and  C22_38 
REMARK   14  A    between atoms: C25_42  and  O12_43 
REMARK   15  A    between atoms: O12_43  and  C26_44 
REMARK   16  A    between atoms: C26_44  and  C27_46 
REMARK   17  A    between atoms: C27_46  and  C28_47 
ROOT
HETATM    1  C7  UNL     1      -5.188   0.670   6.047  1.00  0.00     0.218 C 
HETATM    2  C8  UNL     1      -5.830   0.106   4.832  1.00  0.00     0.214 C 
HETATM    3  O4  UNL     1      -5.195   0.162   3.810  1.00  0.00    -0.290 OA
HETATM    4  C9  UNL     1      -7.181  -0.493   4.862  1.00  0.00     0.190 C 
HETATM    5  C10 UNL     1      -7.938   0.418   5.763  1.00  0.00     0.036 C 
HETATM    6  C11 UNL     1      -8.918   1.182   5.344  1.00  0.00     0.026 C 
HETATM    7  C12 UNL     1      -9.353   1.207   3.957  1.00  0.00     0.002 A 
HETATM    8  C13 UNL     1      -8.770   0.416   3.088  1.00  0.00    -0.007 A 
HETATM    9  C14 UNL     1      -9.171   0.465   1.680  1.00  0.00     0.015 A 
HETATM   10  C15 UNL     1     -10.114   1.289   1.292  1.00  0.00     0.055 A 
HETATM   11  C16 UNL     1     -10.787   2.167   2.206  1.00  0.00     0.196 A 
HETATM   12  O6  UNL     1     -11.666   2.959   1.793  1.00  0.00    -0.289 OA
HETATM   13  C17 UNL     1     -10.473   2.165   3.628  1.00  0.00     0.210 A 
HETATM   14  C20 UNL     1      -7.924  -0.699   3.593  1.00  0.00     0.154 C 
HETATM   15  C24 UNL     1      -7.411   0.500   7.139  1.00  0.00     0.192 C 
HETATM   16  O11 UNL     1      -8.238   0.649   8.050  1.00  0.00    -0.290 OA
HETATM   17  C25 UNL     1      -5.938   0.404   7.342  1.00  0.00     0.256 C 
ENDROOT
BRANCH   1  18
HETATM   18  C6  UNL     1      -3.793   0.198   6.149  1.00  0.00     0.200 C 
HETATM   19  O2  UNL     1      -3.535  -0.966   5.843  1.00  0.00    -0.291 OA
BRANCH  18  20
HETATM   20  C5  UNL     1      -2.664   1.011   6.602  1.00  0.00     0.195 C 
BRANCH  20  21
HETATM   21  C3  UNL     1      -1.406   0.302   6.960  1.00  0.00     0.017 C 
HETATM   22  C4  UNL     1      -1.057   0.463   8.434  1.00  0.00     0.013 C 
BRANCH  21  23
HETATM   23  C2  UNL     1      -0.277   1.081   6.242  1.00  0.00     0.002 C 
HETATM   24  C1  UNL     1      -0.643   1.359   4.811  1.00  0.00     0.005 C 
ENDBRANCH  21  23
ENDBRANCH  20  21
BRANCH  20  25
HETATM   25  O1  UNL     1      -2.967   1.837   7.700  1.00  0.00    -0.388 OA
ATOM     26  H1  UNL     1      -3.463   1.297   8.303  1.00  0.00     0.210 HD
ENDBRANCH  20  25
ENDBRANCH  18  20
ENDBRANCH   1  18
BRANCH   1  27
HETATM   27  O3  UNL     1      -5.127   2.069   5.841  1.00  0.00    -0.372 OA
ATOM     28  H3  UNL     1      -5.994   2.339   5.560  1.00  0.00     0.211 HD
ENDBRANCH   1  27
BRANCH  17  29
HETATM   29  O12 UNL     1      -5.487  -0.669   8.080  1.00  0.00    -0.304 OA
BRANCH  29  30
HETATM   30  C26 UNL     1      -4.841  -0.642   9.282  1.00  0.00     0.260 C 
HETATM   31  O13 UNL     1      -3.825  -1.365   9.392  1.00  0.00    -0.265 OA
BRANCH  30  32
HETATM   32  C27 UNL     1      -5.254   0.172  10.446  1.00  0.00     0.115 C 
BRANCH  32  33
HETATM   33  C28 UNL     1      -6.123  -0.566  11.408  1.00  0.00    -0.013 C 
HETATM   34  C29 UNL     1      -7.589  -0.252  11.281  1.00  0.00     0.010 C 
HETATM   35  C30 UNL     1      -5.696  -0.120  12.814  1.00  0.00     0.010 C 
ENDBRANCH  32  33
ENDBRANCH  30  32
ENDBRANCH  29  30
ENDBRANCH  17  29
BRANCH   4  36
HETATM   36  O5  UNL     1      -7.079  -1.782   5.462  1.00  0.00    -0.374 OA
ATOM     37  H5  UNL     1      -7.791  -2.319   5.131  1.00  0.00     0.211 HD
ENDBRANCH   4  36
BRANCH  14  38
HETATM   38  O9  UNL     1      -8.943  -1.624   4.107  1.00  0.00    -0.378 OA
ATOM     39  H9  UNL     1      -9.500  -1.641   3.338  1.00  0.00     0.211 HD
ENDBRANCH  14  38
BRANCH  14  40
HETATM   40  C21 UNL     1      -7.205  -1.492   2.581  1.00  0.00     0.161 C 
BRANCH  40  41
HETATM   41  O10 UNL     1      -6.341  -2.385   3.344  1.00  0.00    -0.392 OA
ATOM     42  H10 UNL     1      -6.857  -2.639   4.101  1.00  0.00     0.210 HD
ENDBRANCH  40  41
BRANCH  40  43
HETATM   43  C22 UNL     1      -8.081  -2.514   1.861  1.00  0.00     0.031 C 
HETATM   44  C23 UNL     1      -7.730  -3.947   2.077  1.00  0.00     0.007 C 
ENDBRANCH  40  43
ENDBRANCH  14  40
BRANCH  13  45
HETATM   45  O7  UNL     1     -10.040   3.459   3.966  1.00  0.00    -0.370 OA
ATOM     46  H7  UNL     1     -10.812   4.000   4.082  1.00  0.00     0.212 HD
ENDBRANCH  13  45
BRANCH  13  47
HETATM   47  C18 UNL     1     -11.659   1.877   4.466  1.00  0.00     0.170 C 
HETATM   48  C19 UNL     1     -12.199   0.507   4.658  1.00  0.00     0.095 C 
HETATM   49  O8  UNL     1     -12.237   2.792   5.035  1.00  0.00    -0.294 OA
ENDBRANCH  13  47
TORSDOF 17
ENDMDL
MODEL 4
REMARK VINA RESULT: -7.164667602      2.327      4.785
REMARK  17 active torsions:
REMARK  status: ('A' for Active; 'I' for Inactive)
REMARK    1  A    between atoms: C2_2  and  C3_3 
REMARK    2  A    between atoms: C3_3  and  C5_5 
REMARK    3  A    between atoms: C5_5  and  O1_6 
REMARK    4  A    between atoms: C5_5  and  C6_8 
REMARK    5  A    between atoms: C6_8  and  C7_10 
REMARK    6  A    between atoms: C7_10  and  O3_11 
REMARK    7  A    between atoms: C9_15  and  O5_16 
REMARK    8  A    between atoms: C17_26  and  O7_27 
REMARK    9  A    between atoms: C17_26  and  C18_29 
REMARK   10  A    between atoms: C20_32  and  O9_33 
REMARK   11  A    between atoms: C20_32  and  C21_35 
REMARK   12  A    between atoms: C21_35  and  O10_36 
REMARK   13  A    between atoms: C21_35  and  C22_38 
REMARK   14  A    between atoms: C25_42  and  O12_43 
REMARK   15  A    between atoms: O12_43  and  C26_44 
REMARK   16  A    between atoms: C26_44  and  C27_46 
REMARK   17  A    between atoms: C27_46  and  C28_47 
ROOT
HETATM    1  C7  UNL     1      -4.987  -0.311   7.596  1.00  0.00     0.218 C 
HETATM    2  C8  UNL     1      -4.883   0.764   6.575  1.00  0.00     0.214 C 
HETATM    3  O4  UNL     1      -4.983   1.897   6.971  1.00  0.00    -0.290 OA
HETATM    4  C9  UNL     1      -4.672   0.469   5.143  1.00  0.00     0.190 C 
HETATM    5  C10 UNL     1      -5.539  -0.716   4.906  1.00  0.00     0.036 C 
HETATM    6  C11 UNL     1      -6.607  -0.678   4.146  1.00  0.00     0.026 C 
HETATM    7  C12 UNL     1      -7.038   0.531   3.462  1.00  0.00     0.002 A 
HETATM    8  C13 UNL     1      -6.324   1.624   3.581  1.00  0.00    -0.007 A 
HETATM    9  C14 UNL     1      -6.773   2.858   2.933  1.00  0.00     0.015 A 
HETATM   10  C15 UNL     1      -7.881   2.868   2.231  1.00  0.00     0.055 A 
HETATM   11  C16 UNL     1      -8.693   1.696   2.065  1.00  0.00     0.196 A 
HETATM   12  O6  UNL     1      -9.758   1.751   1.409  1.00  0.00    -0.289 OA
HETATM   13  C17 UNL     1      -8.306   0.419   2.650  1.00  0.00     0.210 A 
HETATM   14  C20 UNL     1      -4.944   1.518   4.127  1.00  0.00     0.154 C 
HETATM   15  C24 UNL     1      -5.186  -1.906   5.705  1.00  0.00     0.192 C 
HETATM   16  O11 UNL     1      -5.353  -3.011   5.171  1.00  0.00    -0.290 OA
HETATM   17  C25 UNL     1      -4.662  -1.704   7.085  1.00  0.00     0.256 C 
ENDROOT
BRANCH   1  18
HETATM   18  C6  UNL     1      -4.151   0.021   8.767  1.00  0.00     0.200 C 
HETATM   19  O2  UNL     1      -3.289   0.893   8.655  1.00  0.00    -0.291 OA
BRANCH  18  20
HETATM   20  C5  UNL     1      -4.255  -0.620  10.079  1.00  0.00     0.195 C 
BRANCH  20  21
HETATM   21  C3  UNL     1      -4.751   0.209  11.210  1.00  0.00     0.017 C 
HETATM   22  C4  UNL     1      -4.090  -0.168  12.530  1.00  0.00     0.013 C 
BRANCH  21  23
HETATM   23  C2  UNL     1      -6.224  -0.221  11.418  1.00  0.00     0.002 C 
HETATM   24  C1  UNL     1      -6.578  -0.235  12.878  1.00  0.00     0.005 C 
ENDBRANCH  21  23
ENDBRANCH  20  21
BRANCH  20  25
HETATM   25  O1  UNL     1      -3.051  -1.198  10.522  1.00  0.00    -0.388 OA
ATOM     26  H1  UNL     1      -2.718  -1.701   9.789  1.00  0.00     0.210 HD
ENDBRANCH  20  25
ENDBRANCH  18  20
ENDBRANCH   1  18
BRANCH   1  27
HETATM   27  O3  UNL     1      -6.331  -0.295   8.041  1.00  0.00    -0.372 OA
ATOM     28  H3  UNL     1      -6.301  -0.239   8.989  1.00  0.00     0.211 HD
ENDBRANCH   1  27
BRANCH  17  29
HETATM   29  O12 UNL     1      -3.377  -2.140   7.325  1.00  0.00    -0.304 OA
BRANCH  29  30
HETATM   30  C26 UNL     1      -2.980  -3.380   7.737  1.00  0.00     0.260 C 
HETATM   31  O13 UNL     1      -1.831  -3.744   7.399  1.00  0.00    -0.265 OA
BRANCH  30  32
HETATM   32  C27 UNL     1      -3.804  -4.307   8.544  1.00  0.00     0.115 C 
BRANCH  32  33
HETATM   33  C28 UNL     1      -3.759  -5.716   8.058  1.00  0.00    -0.013 C 
HETATM   34  C29 UNL     1      -4.228  -5.895   6.641  1.00  0.00     0.010 C 
HETATM   35  C30 UNL     1      -4.724  -6.515   8.948  1.00  0.00     0.010 C 
ENDBRANCH  32  33
ENDBRANCH  30  32
ENDBRANCH  29  30
ENDBRANCH  17  29
BRANCH   4  36
HETATM   36  O5  UNL     1      -3.305   0.105   4.963  1.00  0.00    -0.374 OA
ATOM     37  H5  UNL     1      -3.021  -0.366   5.738  1.00  0.00     0.211 HD
ENDBRANCH   4  36
BRANCH  14  38
HETATM   38  O9  UNL     1      -4.235   0.894   3.002  1.00  0.00    -0.378 OA
ATOM     39  H9  UNL     1      -4.308  -0.008   3.290  1.00  0.00     0.211 HD
ENDBRANCH  14  38
BRANCH  14  40
HETATM   40  C21 UNL     1      -4.221   2.784   4.341  1.00  0.00     0.161 C 
BRANCH  40  41
HETATM   41  O10 UNL     1      -3.052   2.422   5.134  1.00  0.00    -0.392 OA
ATOM     42  H10 UNL     1      -2.333   2.390   4.513  1.00  0.00     0.210 HD
ENDBRANCH  40  41
BRANCH  40  43
HETATM   43  C22 UNL     1      -3.539   3.326   3.088  1.00  0.00     0.031 C 
HETATM   44  C23 UNL     1      -3.619   4.801   2.881  1.00  0.00     0.007 C 
ENDBRANCH  40  43
ENDBRANCH  14  40
BRANCH  13  45
HETATM   45  O7  UNL     1      -9.338   0.026   3.521  1.00  0.00    -0.370 OA
ATOM     46  H7  UNL     1      -9.098  -0.816   3.889  1.00  0.00     0.212 HD
ENDBRANCH  13  45
BRANCH  13  47
HETATM   47  C18 UNL     1      -8.173  -0.648   1.633  1.00  0.00     0.170 C 
HETATM   48  C19 UNL     1      -7.420  -0.468   0.366  1.00  0.00     0.095 C 
HETATM   49  O8  UNL     1      -8.699  -1.736   1.822  1.00  0.00    -0.294 OA
ENDBRANCH  13  47
TORSDOF 17
ENDMDL
MODEL 5
REMARK VINA RESULT: -7.149363787      1.257      1.975
REMARK  17 active torsions:
REMARK  status: ('A' for Active; 'I' for Inactive)
REMARK    1  A    between atoms: C2_2  and  C3_3 
REMARK    2  A    between atoms: C3_3  and  C5_5 
REMARK    3  A    between atoms: C5_5  and  O1_6 
REMARK    4  A    between atoms: C5_5  and  C6_8 
REMARK    5  A    between atoms: C6_8  and  C7_10 
REMARK    6  A    between atoms: C7_10  and  O3_11 
REMARK    7  A    between atoms: C9_15  and  O5_16 
REMARK    8  A    between atoms: C17_26  and  O7_27 
REMARK    9  A    between atoms: C17_26  and  C18_29 
REMARK   10  A    between atoms: C20_32  and  O9_33 
REMARK   11  A    between atoms: C20_32  and  C21_35 
REMARK   12  A    between atoms: C21_35  and  O10_36 
REMARK   13  A    between atoms: C21_35  and  C22_38 
REMARK   14  A    between atoms: C25_42  and  O12_43 
REMARK   15  A    between atoms: O12_43  and  C26_44 
REMARK   16  A    between atoms: C26_44  and  C27_46 
REMARK   17  A    between atoms: C27_46  and  C28_47 
ROOT
HETATM    1  C7  UNL     1      -4.894   0.047   6.768  1.00  0.00     0.218 C 
HETATM    2  C8  UNL     1      -5.296  -0.512   5.452  1.00  0.00     0.214 C 
HETATM    3  O4  UNL     1      -4.423  -1.009   4.787  1.00  0.00    -0.290 OA
HETATM    4  C9  UNL     1      -6.692  -0.465   4.971  1.00  0.00     0.190 C 
HETATM    5  C10 UNL     1      -7.150   0.888   5.388  1.00  0.00     0.036 C 
HETATM    6  C11 UNL     1      -7.434   1.840   4.533  1.00  0.00     0.026 C 
HETATM    7  C12 UNL     1      -7.325   1.658   3.094  1.00  0.00     0.002 A 
HETATM    8  C13 UNL     1      -6.959   0.491   2.622  1.00  0.00    -0.007 A 
HETATM    9  C14 UNL     1      -6.804   0.309   1.177  1.00  0.00     0.015 A 
HETATM   10  C15 UNL     1      -7.038   1.307   0.359  1.00  0.00     0.055 A 
HETATM   11  C16 UNL     1      -7.449   2.600   0.826  1.00  0.00     0.196 A 
HETATM   12  O6  UNL     1      -7.639   3.536   0.016  1.00  0.00    -0.289 OA
HETATM   13  C17 UNL     1      -7.657   2.861   2.245  1.00  0.00     0.210 A 
HETATM   14  C20 UNL     1      -6.983  -0.686   3.531  1.00  0.00     0.154 C 
HETATM   15  C24 UNL     1      -7.130   1.122   6.846  1.00  0.00     0.192 C 
HETATM   16  O11 UNL     1      -8.021   1.845   7.312  1.00  0.00    -0.290 OA
HETATM   17  C25 UNL     1      -6.050   0.485   7.651  1.00  0.00     0.256 C 
ENDROOT
BRANCH   1  18
HETATM   18  C6  UNL     1      -4.028  -0.911   7.483  1.00  0.00     0.200 C 
HETATM   19  O2  UNL     1      -2.983  -0.503   7.993  1.00  0.00    -0.291 OA
BRANCH  18  20
HETATM   20  C5  UNL     1      -4.305  -2.339   7.636  1.00  0.00     0.195 C 
BRANCH  20  21
HETATM   21  C3  UNL     1      -3.154  -3.277   7.537  1.00  0.00     0.017 C 
HETATM   22  C4  UNL     1      -3.284  -4.221   6.348  1.00  0.00     0.013 C 
BRANCH  21  23
HETATM   23  C2  UNL     1      -3.289  -4.222   8.755  1.00  0.00     0.002 C 
HETATM   24  C1  UNL     1      -4.043  -5.469   8.386  1.00  0.00     0.005 C 
ENDBRANCH  21  23
ENDBRANCH  20  21
BRANCH  20  25
HETATM   25  O1  UNL     1      -5.276  -2.826   6.741  1.00  0.00    -0.388 OA
ATOM     26  H1  UNL     1      -4.999  -3.704   6.509  1.00  0.00     0.210 HD
ENDBRANCH  20  25
ENDBRANCH  18  20
ENDBRANCH   1  18
BRANCH   1  27
HETATM   27  O3  UNL     1      -4.092   1.179   6.480  1.00  0.00    -0.372 OA
ATOM     28  H3  UNL     1      -3.189   0.907   6.595  1.00  0.00     0.211 HD
ENDBRANCH   1  27
BRANCH  17  29
HETATM   29  O12 UNL     1      -6.449  -0.428   8.603  1.00  0.00    -0.304 OA
BRANCH  29  30
HETATM   30  C26 UNL     1      -6.637  -0.213   9.938  1.00  0.00     0.260 C 
HETATM   31  O13 UNL     1      -7.704   0.347  10.273  1.00  0.00    -0.265 OA
BRANCH  30  32
HETATM   32  C27 UNL     1      -5.678  -0.594  10.999  1.00  0.00     0.115 C 
BRANCH  32  33
HETATM   33  C28 UNL     1      -5.802   0.232  12.234  1.00  0.00    -0.013 C 
HETATM   34  C29 UNL     1      -4.492   0.532  12.910  1.00  0.00     0.010 C 
HETATM   35  C30 UNL     1      -6.633  -0.592  13.229  1.00  0.00     0.010 C 
ENDBRANCH  32  33
ENDBRANCH  30  32
ENDBRANCH  29  30
ENDBRANCH  17  29
BRANCH   4  36
HETATM   36  O5  UNL     1      -7.435  -1.459   5.672  1.00  0.00    -0.374 OA
ATOM     37  H5  UNL     1      -8.359  -1.261   5.573  1.00  0.00     0.211 HD
ENDBRANCH   4  36
BRANCH  14  38
HETATM   38  O9  UNL     1      -8.427  -0.925   3.656  1.00  0.00    -0.378 OA
ATOM     39  H9  UNL     1      -8.381  -1.756   4.114  1.00  0.00     0.211 HD
ENDBRANCH  14  38
BRANCH  14  40
HETATM   40  C21 UNL     1      -6.461  -1.952   2.986  1.00  0.00     0.161 C 
BRANCH  40  41
HETATM   41  O10 UNL     1      -6.524  -2.896   4.096  1.00  0.00    -0.392 OA
ATOM     42  H10 UNL     1      -5.834  -3.525   3.923  1.00  0.00     0.210 HD
ENDBRANCH  40  41
BRANCH  40  43
HETATM   43  C22 UNL     1      -7.404  -2.634   1.999  1.00  0.00     0.031 C 
HETATM   44  C23 UNL     1      -7.918  -3.975   2.401  1.00  0.00     0.007 C 
ENDBRANCH  40  43
ENDBRANCH  14  40
BRANCH  13  45
HETATM   45  O7  UNL     1      -6.782   3.898   2.614  1.00  0.00    -0.370 OA
ATOM     46  H7  UNL     1      -5.946   3.732   2.194  1.00  0.00     0.212 HD
ENDBRANCH  13  45
BRANCH  13  47
HETATM   47  C18 UNL     1      -9.029   3.334   2.535  1.00  0.00     0.170 C 
HETATM   48  C19 UNL     1     -10.229   2.472   2.387  1.00  0.00     0.095 C 
HETATM   49  O8  UNL     1      -9.208   4.483   2.914  1.00  0.00    -0.294 OA
ENDBRANCH  13  47
TORSDOF 17
ENDMDL
