MODEL 1
REMARK VINA RESULT: -7.435693758      0.000      0.000
REMARK  17 active torsions:
REMARK  status: ('A' for Active; 'I' for Inactive)
REMARK    1  A    between atoms: O1_2  and  C2_3 
REMARK    2  A    between atoms: C4_5  and  O2_6 
REMARK    3  A    between atoms: C7_9  and  O3_10 
REMARK    4  A    between atoms: O3_10  and  C8_11 
REMARK    5  A    between atoms: C8_11  and  C9_13 
REMARK    6  A    between atoms: C9_13  and  N1_14 
REMARK    7  A    between atoms: C15_23  and  O5_24 
REMARK    8  A    between atoms: O5_24  and  C16_25 
REMARK    9  A    between atoms: C16_25  and  C17_26 
REMARK   10  A    between atoms: C17_26  and  O6_27 
REMARK   11  A    between atoms: C17_26  and  O7_29 
REMARK   12  A    between atoms: C17_26  and  C18_31 
REMARK   13  A    between atoms: C18_31  and  C19_33 
REMARK   14  A    between atoms: C19_33  and  C20_35 
REMARK   15  A    between atoms: C20_35  and  O10_36 
REMARK   16  A    between atoms: C20_35  and  O11_38 
REMARK   17  A    between atoms: C21_40  and  C22_41 
ROOT
HETATM    1  C2  UNL     1      -5.240   4.628   4.285  1.00  0.00     0.071 A 
HETATM    2  C3  UNL     1      -4.010   4.910   4.843  1.00  0.00     0.074 A 
HETATM    3  C4  UNL     1      -3.324   4.011   5.625  1.00  0.00     0.084 A 
HETATM    4  C6  UNL     1      -3.866   2.767   5.881  1.00  0.00     0.044 A 
HETATM    5  C7  UNL     1      -3.228   1.822   6.655  1.00  0.00     0.127 A 
HETATM    6  C10 UNL     1      -3.821   0.577   6.877  1.00  0.00     0.113 A 
HETATM    7  C11 UNL     1      -5.043   0.264   6.336  1.00  0.00     0.011 A 
HETATM    8  C12 UNL     1      -5.654   1.215   5.575  1.00  0.00     0.025 A 
HETATM    9  C13 UNL     1      -5.093   2.470   5.331  1.00  0.00    -0.017 A 
HETATM   10  C14 UNL     1      -5.789   3.386   4.535  1.00  0.00     0.049 A 
HETATM   11  C15 UNL     1      -5.396  -1.147   6.762  1.00  0.00     0.191 C 
HETATM   12  C21 UNL     1      -4.463  -1.348   7.945  1.00  0.00     0.196 C 
HETATM   13  O14 UNL     1      -3.348  -0.496   7.618  1.00  0.00    -0.335 OA
ENDROOT
BRANCH  11  14
HETATM   14  O5  UNL     1      -5.368  -2.053   5.902  1.00  0.00    -0.372 OA
BRANCH  14  15
HETATM   15  C16 UNL     1      -5.311  -2.961   5.063  1.00  0.00     0.246 C 
BRANCH  15  16
HETATM   16  C17 UNL     1      -6.505  -2.955   4.062  1.00  0.00     0.253 C 
BRANCH  16  17
HETATM   17  O6  UNL     1      -6.422  -4.118   3.306  1.00  0.00    -0.358 OA
ATOM     18  H6  UNL     1      -6.502  -3.870   2.392  1.00  0.00     0.213 HD
ENDBRANCH  16  17
BRANCH  16  19
HETATM   19  O7  UNL     1      -7.650  -2.895   4.843  1.00  0.00    -0.358 OA
ATOM     20  H7  UNL     1      -7.966  -2.002   4.769  1.00  0.00     0.213 HD
ENDBRANCH  16  19
BRANCH  16  21
HETATM   21  C18 UNL     1      -6.398  -1.782   3.179  1.00  0.00     0.263 C 
HETATM   22  O8  UNL     1      -5.267  -1.436   2.769  1.00  0.00    -0.283 OA
BRANCH  21  23
HETATM   23  C19 UNL     1      -7.579  -1.045   2.793  1.00  0.00     0.254 C 
HETATM   24  O9  UNL     1      -8.122  -0.196   3.538  1.00  0.00    -0.284 OA
BRANCH  23  25
HETATM   25  C20 UNL     1      -8.201  -1.279   1.461  1.00  0.00     0.334 C 
BRANCH  25  26
HETATM   26  O10 UNL     1      -9.301  -0.463   1.256  1.00  0.00    -0.364 OA
ATOM     27  H10 UNL     1      -9.116   0.228   0.631  1.00  0.00     0.213 HD
ENDBRANCH  25  26
BRANCH  25  28
HETATM   28  O11 UNL     1      -8.602  -2.622   1.440  1.00  0.00    -0.364 OA
ATOM     29  H11 UNL     1      -8.005  -3.072   0.854  1.00  0.00     0.213 HD
ENDBRANCH  25  28
ENDBRANCH  23  25
ENDBRANCH  21  23
ENDBRANCH  16  21
ENDBRANCH  15  16
ENDBRANCH  14  15
ENDBRANCH  11  14
BRANCH  12  30
HETATM   30  C22 UNL     1      -4.943  -0.964   9.247  1.00  0.00    -0.023 A 
HETATM   31  C23 UNL     1      -3.950  -0.745  10.215  1.00  0.00     0.013 A 
HETATM   32  C24 UNL     1      -4.222  -0.387  11.493  1.00  0.00     0.040 A 
HETATM   33  C25 UNL     1      -5.537  -0.224  11.882  1.00  0.00     0.105 A 
HETATM   34  C26 UNL     1      -6.551  -0.421  10.987  1.00  0.00     0.105 A 
HETATM   35  O13 UNL     1      -6.149   0.132  13.094  1.00  0.00    -0.323 OA
HETATM   36  C27 UNL     1      -6.233  -0.790   9.680  1.00  0.00     0.049 A 
HETATM   37  O12 UNL     1      -7.750  -0.190  11.644  1.00  0.00    -0.323 OA
HETATM   38  C28 UNL     1      -7.507  -0.270  13.041  1.00  0.00     0.352 C 
ENDBRANCH  12  30
BRANCH   5  39
HETATM   39  O3  UNL     1      -2.011   2.108   7.208  1.00  0.00    -0.274 OA
BRANCH  39  40
HETATM   40  C8  UNL     1      -1.752   2.134   8.560  1.00  0.00     0.289 C 
HETATM   41  O4  UNL     1      -2.379   2.907   9.299  1.00  0.00    -0.263 OA
BRANCH  40  42
HETATM   42  C9  UNL     1      -0.728   1.240   9.124  1.00  0.00     0.340 C 
BRANCH  42  43
HETATM   43  N1  UNL     1      -0.612   0.004   8.342  1.00  0.00    -0.070 N 
ATOM     44  H13 UNL     1      -0.810  -0.820   8.911  1.00  0.00     0.274 HD
ATOM     45  H12 UNL     1      -1.371  -0.086   7.667  1.00  0.00     0.274 HD
ATOM     46  H11 UNL     1       0.301  -0.064   7.891  1.00  0.00     0.274 HD
ENDBRANCH  42  43
ENDBRANCH  40  42
ENDBRANCH  39  40
ENDBRANCH   5  39
BRANCH   3  47
HETATM   47  O2  UNL     1      -2.092   4.357   6.152  1.00  0.00    -0.355 OA
HETATM   48  C5  UNL     1      -1.947   5.592   6.820  1.00  0.00     0.210 C 
ENDBRANCH   3  47
BRANCH   1  49
HETATM   49  O1  UNL     1      -5.948   5.513   3.497  1.00  0.00    -0.356 OA
HETATM   50  C1  UNL     1      -6.944   5.072   2.612  1.00  0.00     0.210 C 
ENDBRANCH   1  49
TORSDOF 17
ENDMDL
MODEL 2
REMARK VINA RESULT: -7.402672701      1.333      2.400
REMARK  17 active torsions:
REMARK  status: ('A' for Active; 'I' for Inactive)
REMARK    1  A    between atoms: O1_2  and  C2_3 
REMARK    2  A    between atoms: C4_5  and  O2_6 
REMARK    3  A    between atoms: C7_9  and  O3_10 
REMARK    4  A    between atoms: O3_10  and  C8_11 
REMARK    5  A    between atoms: C8_11  and  C9_13 
REMARK    6  A    between atoms: C9_13  and  N1_14 
REMARK    7  A    between atoms: C15_23  and  O5_24 
REMARK    8  A    between atoms: O5_24  and  C16_25 
REMARK    9  A    between atoms: C16_25  and  C17_26 
REMARK   10  A    between atoms: C17_26  and  O6_27 
REMARK   11  A    between atoms: C17_26  and  O7_29 
REMARK   12  A    between atoms: C17_26  and  C18_31 
REMARK   13  A    between atoms: C18_31  and  C19_33 
REMARK   14  A    between atoms: C19_33  and  C20_35 
REMARK   15  A    between atoms: C20_35  and  O10_36 
REMARK   16  A    between atoms: C20_35  and  O11_38 
REMARK   17  A    between atoms: C21_40  and  C22_41 
ROOT
HETATM    1  C2  UNL     1      -5.144   5.476   4.881  1.00  0.00     0.071 A 
HETATM    2  C3  UNL     1      -3.823   5.130   5.071  1.00  0.00     0.074 A 
HETATM    3  C4  UNL     1      -3.436   3.890   5.523  1.00  0.00     0.084 A 
HETATM    4  C6  UNL     1      -4.390   2.933   5.806  1.00  0.00     0.044 A 
HETATM    5  C7  UNL     1      -4.067   1.672   6.259  1.00  0.00     0.127 A 
HETATM    6  C10 UNL     1      -5.074   0.740   6.526  1.00  0.00     0.113 A 
HETATM    7  C11 UNL     1      -6.398   1.053   6.345  1.00  0.00     0.011 A 
HETATM    8  C12 UNL     1      -6.692   2.306   5.897  1.00  0.00     0.025 A 
HETATM    9  C13 UNL     1      -5.714   3.263   5.620  1.00  0.00    -0.017 A 
HETATM   10  C14 UNL     1      -6.105   4.525   5.161  1.00  0.00     0.049 A 
HETATM   11  C15 UNL     1      -7.221  -0.164   6.718  1.00  0.00     0.191 C 
HETATM   12  C21 UNL     1      -6.224  -0.961   7.544  1.00  0.00     0.196 C 
HETATM   13  O14 UNL     1      -4.958  -0.564   6.984  1.00  0.00    -0.335 OA
ENDROOT
BRANCH  11  14
HETATM   14  O5  UNL     1      -7.787  -0.802   5.805  1.00  0.00    -0.372 OA
BRANCH  14  15
HETATM   15  C16 UNL     1      -8.319  -1.454   4.898  1.00  0.00     0.246 C 
BRANCH  15  16
HETATM   16  C17 UNL     1      -7.542  -1.387   3.548  1.00  0.00     0.253 C 
BRANCH  16  17
HETATM   17  O6  UNL     1      -8.266  -2.117   2.613  1.00  0.00    -0.358 OA
ATOM     18  H6  UNL     1      -7.821  -2.033   1.778  1.00  0.00     0.213 HD
ENDBRANCH  16  17
BRANCH  16  19
HETATM   19  O7  UNL     1      -7.451  -0.039   3.234  1.00  0.00    -0.358 OA
ATOM     20  H7  UNL     1      -6.528   0.128   3.083  1.00  0.00     0.213 HD
ENDBRANCH  16  19
BRANCH  16  21
HETATM   21  C18 UNL     1      -6.210  -1.989   3.721  1.00  0.00     0.263 C 
HETATM   22  O8  UNL     1      -5.198  -1.267   3.578  1.00  0.00    -0.283 OA
BRANCH  21  23
HETATM   23  C19 UNL     1      -6.076  -3.389   4.050  1.00  0.00     0.254 C 
HETATM   24  O9  UNL     1      -6.606  -4.300   3.369  1.00  0.00    -0.284 OA
BRANCH  23  25
HETATM   25  C20 UNL     1      -5.282  -3.803   5.239  1.00  0.00     0.334 C 
BRANCH  25  26
HETATM   26  O10 UNL     1      -4.296  -2.881   5.546  1.00  0.00    -0.364 OA
ATOM     27  H10 UNL     1      -4.529  -2.352   6.300  1.00  0.00     0.213 HD
ENDBRANCH  25  26
BRANCH  25  28
HETATM   28  O11 UNL     1      -4.691  -5.032   4.915  1.00  0.00    -0.364 OA
ATOM     29  H11 UNL     1      -3.751  -4.889   4.921  1.00  0.00     0.213 HD
ENDBRANCH  25  28
ENDBRANCH  23  25
ENDBRANCH  21  23
ENDBRANCH  16  21
ENDBRANCH  15  16
ENDBRANCH  14  15
ENDBRANCH  11  14
BRANCH  12  30
HETATM   30  C22 UNL     1      -6.178  -0.709   8.961  1.00  0.00    -0.023 A 
HETATM   31  C23 UNL     1      -4.892  -0.579   9.508  1.00  0.00     0.013 A 
HETATM   32  C24 UNL     1      -4.662  -0.348  10.822  1.00  0.00     0.040 A 
HETATM   33  C25 UNL     1      -5.734  -0.232  11.684  1.00  0.00     0.105 A 
HETATM   34  C26 UNL     1      -7.013  -0.347  11.215  1.00  0.00     0.105 A 
HETATM   35  O13 UNL     1      -5.844   0.000  13.064  1.00  0.00    -0.323 OA
HETATM   36  C27 UNL     1      -7.211  -0.585   9.855  1.00  0.00     0.049 A 
HETATM   37  O12 UNL     1      -7.877  -0.189  12.287  1.00  0.00    -0.323 OA
HETATM   38  C28 UNL     1      -7.138  -0.402  13.481  1.00  0.00     0.352 C 
ENDBRANCH  12  30
BRANCH   5  39
HETATM   39  O3  UNL     1      -2.756   1.335   6.450  1.00  0.00    -0.274 OA
BRANCH  39  40
HETATM   40  C8  UNL     1      -2.196   1.028   7.669  1.00  0.00     0.289 C 
HETATM   41  O4  UNL     1      -2.361   1.785   8.638  1.00  0.00    -0.263 OA
BRANCH  40  42
HETATM   42  C9  UNL     1      -1.401  -0.200   7.819  1.00  0.00     0.340 C 
BRANCH  42  43
HETATM   43  N1  UNL     1      -2.238  -1.397   7.678  1.00  0.00    -0.070 N 
ATOM     44  H13 UNL     1      -3.160  -1.167   7.308  1.00  0.00     0.274 HD
ATOM     45  H12 UNL     1      -1.910  -1.997   6.920  1.00  0.00     0.274 HD
ATOM     46  H11 UNL     1      -2.304  -1.909   8.558  1.00  0.00     0.274 HD
ENDBRANCH  42  43
ENDBRANCH  40  42
ENDBRANCH  39  40
ENDBRANCH   5  39
BRANCH   3  47
HETATM   47  O2  UNL     1      -2.092   3.607   5.690  1.00  0.00    -0.355 OA
HETATM   48  C5  UNL     1      -1.277   4.514   6.401  1.00  0.00     0.210 C 
ENDBRANCH   3  47
BRANCH   1  49
HETATM   49  O1  UNL     1      -5.557   6.714   4.428  1.00  0.00    -0.356 OA
HETATM   50  C1  UNL     1      -5.558   7.838   5.267  1.00  0.00     0.210 C 
ENDBRANCH   1  49
TORSDOF 17
ENDMDL
MODEL 3
REMARK VINA RESULT: -7.365389830      1.369      1.911
REMARK  17 active torsions:
REMARK  status: ('A' for Active; 'I' for Inactive)
REMARK    1  A    between atoms: O1_2  and  C2_3 
REMARK    2  A    between atoms: C4_5  and  O2_6 
REMARK    3  A    between atoms: C7_9  and  O3_10 
REMARK    4  A    between atoms: O3_10  and  C8_11 
REMARK    5  A    between atoms: C8_11  and  C9_13 
REMARK    6  A    between atoms: C9_13  and  N1_14 
REMARK    7  A    between atoms: C15_23  and  O5_24 
REMARK    8  A    between atoms: O5_24  and  C16_25 
REMARK    9  A    between atoms: C16_25  and  C17_26 
REMARK   10  A    between atoms: C17_26  and  O6_27 
REMARK   11  A    between atoms: C17_26  and  O7_29 
REMARK   12  A    between atoms: C17_26  and  C18_31 
REMARK   13  A    between atoms: C18_31  and  C19_33 
REMARK   14  A    between atoms: C19_33  and  C20_35 
REMARK   15  A    between atoms: C20_35  and  O10_36 
REMARK   16  A    between atoms: C20_35  and  O11_38 
REMARK   17  A    between atoms: C21_40  and  C22_41 
ROOT
HETATM    1  C2  UNL     1      -5.241   5.457   4.879  1.00  0.00     0.071 A 
HETATM    2  C3  UNL     1      -3.903   5.275   5.162  1.00  0.00     0.074 A 
HETATM    3  C4  UNL     1      -3.402   4.094   5.659  1.00  0.00     0.084 A 
HETATM    4  C6  UNL     1      -4.252   3.032   5.896  1.00  0.00     0.044 A 
HETATM    5  C7  UNL     1      -3.811   1.823   6.391  1.00  0.00     0.127 A 
HETATM    6  C10 UNL     1      -4.715   0.780   6.608  1.00  0.00     0.113 A 
HETATM    7  C11 UNL     1      -6.052   0.929   6.335  1.00  0.00     0.011 A 
HETATM    8  C12 UNL     1      -6.463   2.133   5.846  1.00  0.00     0.025 A 
HETATM    9  C13 UNL     1      -5.590   3.198   5.618  1.00  0.00    -0.017 A 
HETATM   10  C14 UNL     1      -6.097   4.400   5.112  1.00  0.00     0.049 A 
HETATM   11  C15 UNL     1      -6.747  -0.375   6.674  1.00  0.00     0.191 C 
HETATM   12  C21 UNL     1      -5.720  -1.039   7.578  1.00  0.00     0.196 C 
HETATM   13  O14 UNL     1      -4.475  -0.497   7.096  1.00  0.00    -0.335 OA
ENDROOT
BRANCH  11  14
HETATM   14  O5  UNL     1      -7.169  -1.085   5.737  1.00  0.00    -0.372 OA
BRANCH  14  15
HETATM   15  C16 UNL     1      -7.600  -1.762   4.795  1.00  0.00     0.246 C 
BRANCH  15  16
HETATM   16  C17 UNL     1      -6.528  -2.059   3.704  1.00  0.00     0.253 C 
BRANCH  16  17
HETATM   17  O6  UNL     1      -6.729  -1.158   2.665  1.00  0.00    -0.358 OA
ATOM     18  H6  UNL     1      -6.018  -1.273   2.046  1.00  0.00     0.213 HD
ENDBRANCH  16  17
BRANCH  16  19
HETATM   19  O7  UNL     1      -5.301  -1.902   4.331  1.00  0.00    -0.358 OA
ATOM     20  H7  UNL     1      -4.676  -2.375   3.794  1.00  0.00     0.213 HD
ENDBRANCH  16  19
BRANCH  16  21
HETATM   21  C18 UNL     1      -6.704  -3.433   3.206  1.00  0.00     0.263 C 
HETATM   22  O8  UNL     1      -5.958  -4.336   3.648  1.00  0.00    -0.283 OA
BRANCH  21  23
HETATM   23  C19 UNL     1      -7.721  -3.733   2.224  1.00  0.00     0.254 C 
HETATM   24  O9  UNL     1      -8.288  -2.846   1.542  1.00  0.00    -0.284 OA
BRANCH  23  25
HETATM   25  C20 UNL     1      -8.138  -5.142   1.989  1.00  0.00     0.334 C 
BRANCH  25  26
HETATM   26  O10 UNL     1      -7.117  -5.894   1.432  1.00  0.00    -0.364 OA
ATOM     27  H10 UNL     1      -7.098  -6.777   1.782  1.00  0.00     0.213 HD
ENDBRANCH  25  26
BRANCH  25  28
HETATM   28  O11 UNL     1      -9.222  -5.093   1.102  1.00  0.00    -0.364 OA
ATOM     29  H11 UNL     1      -9.708  -5.901   1.225  1.00  0.00     0.213 HD
ENDBRANCH  25  28
ENDBRANCH  23  25
ENDBRANCH  21  23
ENDBRANCH  16  21
ENDBRANCH  15  16
ENDBRANCH  14  15
ENDBRANCH  11  14
BRANCH  12  30
HETATM   30  C22 UNL     1      -5.800  -0.769   8.990  1.00  0.00    -0.023 A 
HETATM   31  C23 UNL     1      -4.567  -0.669   9.655  1.00  0.00     0.013 A 
HETATM   32  C24 UNL     1      -4.455  -0.428  10.983  1.00  0.00     0.040 A 
HETATM   33  C25 UNL     1      -5.600  -0.269  11.738  1.00  0.00     0.105 A 
HETATM   34  C26 UNL     1      -6.832  -0.354  11.151  1.00  0.00     0.105 A 
HETATM   35  O13 UNL     1      -5.833  -0.016  13.099  1.00  0.00    -0.323 OA
HETATM   36  C27 UNL     1      -6.908  -0.604   9.781  1.00  0.00     0.049 A 
HETATM   37  O12 UNL     1      -7.788  -0.156  12.135  1.00  0.00    -0.323 OA
HETATM   38  C28 UNL     1      -7.171  -0.375  13.396  1.00  0.00     0.352 C 
ENDBRANCH  12  30
BRANCH   5  39
HETATM   39  O3  UNL     1      -2.486   1.649   6.674  1.00  0.00    -0.274 OA
BRANCH  39  40
HETATM   40  C8  UNL     1      -1.978   1.405   7.930  1.00  0.00     0.289 C 
HETATM   41  O4  UNL     1      -2.349   2.091   8.895  1.00  0.00    -0.263 OA
BRANCH  40  42
HETATM   42  C9  UNL     1      -0.993   0.329   8.124  1.00  0.00     0.340 C 
BRANCH  42  43
HETATM   43  N1  UNL     1      -1.590  -0.989   7.881  1.00  0.00    -0.070 N 
ATOM     44  H13 UNL     1      -1.299  -1.667   8.586  1.00  0.00     0.274 HD
ATOM     45  H12 UNL     1      -2.593  -0.987   8.070  1.00  0.00     0.274 HD
ATOM     46  H11 UNL     1      -1.388  -1.319   6.937  1.00  0.00     0.274 HD
ENDBRANCH  42  43
ENDBRANCH  40  42
ENDBRANCH  39  40
ENDBRANCH   5  39
BRANCH   3  47
HETATM   47  O2  UNL     1      -2.048   3.976   5.919  1.00  0.00    -0.355 OA
HETATM   48  C5  UNL     1      -1.275   5.143   6.105  1.00  0.00     0.210 C 
ENDBRANCH   3  47
BRANCH   1  49
HETATM   49  O1  UNL     1      -5.767   6.631   4.379  1.00  0.00    -0.356 OA
HETATM   50  C1  UNL     1      -5.979   7.749   5.200  1.00  0.00     0.210 C 
ENDBRANCH   1  49
TORSDOF 17
ENDMDL
MODEL 4
REMARK VINA RESULT: -7.305367595      1.015      1.326
REMARK  17 active torsions:
REMARK  status: ('A' for Active; 'I' for Inactive)
REMARK    1  A    between atoms: O1_2  and  C2_3 
REMARK    2  A    between atoms: C4_5  and  O2_6 
REMARK    3  A    between atoms: C7_9  and  O3_10 
REMARK    4  A    between atoms: O3_10  and  C8_11 
REMARK    5  A    between atoms: C8_11  and  C9_13 
REMARK    6  A    between atoms: C9_13  and  N1_14 
REMARK    7  A    between atoms: C15_23  and  O5_24 
REMARK    8  A    between atoms: O5_24  and  C16_25 
REMARK    9  A    between atoms: C16_25  and  C17_26 
REMARK   10  A    between atoms: C17_26  and  O6_27 
REMARK   11  A    between atoms: C17_26  and  O7_29 
REMARK   12  A    between atoms: C17_26  and  C18_31 
REMARK   13  A    between atoms: C18_31  and  C19_33 
REMARK   14  A    between atoms: C19_33  and  C20_35 
REMARK   15  A    between atoms: C20_35  and  O10_36 
REMARK   16  A    between atoms: C20_35  and  O11_38 
REMARK   17  A    between atoms: C21_40  and  C22_41 
ROOT
HETATM    1  C2  UNL     1      -5.267   5.248   4.746  1.00  0.00     0.071 A 
HETATM    2  C3  UNL     1      -3.929   5.081   5.038  1.00  0.00     0.074 A 
HETATM    3  C4  UNL     1      -3.424   3.921   5.578  1.00  0.00     0.084 A 
HETATM    4  C6  UNL     1      -4.270   2.864   5.850  1.00  0.00     0.044 A 
HETATM    5  C7  UNL     1      -3.825   1.676   6.388  1.00  0.00     0.127 A 
HETATM    6  C10 UNL     1      -4.724   0.636   6.638  1.00  0.00     0.113 A 
HETATM    7  C11 UNL     1      -6.062   0.770   6.358  1.00  0.00     0.011 A 
HETATM    8  C12 UNL     1      -6.477   1.954   5.826  1.00  0.00     0.025 A 
HETATM    9  C13 UNL     1      -5.608   3.014   5.563  1.00  0.00    -0.017 A 
HETATM   10  C14 UNL     1      -6.119   4.196   5.014  1.00  0.00     0.049 A 
HETATM   11  C15 UNL     1      -6.751  -0.524   6.740  1.00  0.00     0.191 C 
HETATM   12  C21 UNL     1      -5.724  -1.152   7.669  1.00  0.00     0.196 C 
HETATM   13  O14 UNL     1      -4.481  -0.621   7.171  1.00  0.00    -0.335 OA
ENDROOT
BRANCH  11  14
HETATM   14  O5  UNL     1      -7.168  -1.269   5.828  1.00  0.00    -0.372 OA
BRANCH  14  15
HETATM   15  C16 UNL     1      -7.602  -1.983   4.914  1.00  0.00     0.246 C 
BRANCH  15  16
HETATM   16  C17 UNL     1      -6.479  -2.626   4.045  1.00  0.00     0.253 C 
BRANCH  16  17
HETATM   17  O6  UNL     1      -5.290  -2.522   4.756  1.00  0.00    -0.358 OA
ATOM     18  H6  UNL     1      -4.665  -3.116   4.356  1.00  0.00     0.213 HD
ENDBRANCH  16  17
BRANCH  16  19
HETATM   19  O7  UNL     1      -6.874  -3.939   3.834  1.00  0.00    -0.358 OA
ATOM     20  H7  UNL     1      -6.070  -4.439   3.748  1.00  0.00     0.213 HD
ENDBRANCH  16  19
BRANCH  16  21
HETATM   21  C18 UNL     1      -6.362  -1.891   2.775  1.00  0.00     0.263 C 
HETATM   22  O8  UNL     1      -5.256  -1.394   2.465  1.00  0.00    -0.283 OA
BRANCH  21  23
HETATM   23  C19 UNL     1      -7.505  -1.747   1.904  1.00  0.00     0.254 C 
HETATM   24  O9  UNL     1      -8.164  -2.726   1.481  1.00  0.00    -0.284 OA
BRANCH  23  25
HETATM   25  C20 UNL     1      -7.945  -0.393   1.469  1.00  0.00     0.334 C 
BRANCH  25  26
HETATM   26  O10 UNL     1      -7.552   0.588   2.364  1.00  0.00    -0.364 OA
ATOM     27  H10 UNL     1      -6.671   0.440   2.687  1.00  0.00     0.213 HD
ENDBRANCH  25  26
BRANCH  25  28
HETATM   28  O11 UNL     1      -9.344  -0.432   1.400  1.00  0.00    -0.364 OA
ATOM     29  H11 UNL     1      -9.659  -0.399   2.296  1.00  0.00     0.213 HD
ENDBRANCH  25  28
ENDBRANCH  23  25
ENDBRANCH  21  23
ENDBRANCH  16  21
ENDBRANCH  15  16
ENDBRANCH  14  15
ENDBRANCH  11  14
BRANCH  12  30
HETATM   30  C22 UNL     1      -5.808  -0.833   9.071  1.00  0.00    -0.023 A 
HETATM   31  C23 UNL     1      -4.578  -0.670   9.727  1.00  0.00     0.013 A 
HETATM   32  C24 UNL     1      -4.470  -0.377  11.045  1.00  0.00     0.040 A 
HETATM   33  C25 UNL     1      -5.618  -0.227  11.798  1.00  0.00     0.105 A 
HETATM   34  C26 UNL     1      -6.848  -0.373  11.219  1.00  0.00     0.105 A 
HETATM   35  O13 UNL     1      -5.855   0.068  13.150  1.00  0.00    -0.323 OA
HETATM   36  C27 UNL     1      -6.920  -0.675   9.860  1.00  0.00     0.049 A 
HETATM   37  O12 UNL     1      -7.807  -0.170  12.200  1.00  0.00    -0.323 OA
HETATM   38  C28 UNL     1      -7.180  -0.323  13.465  1.00  0.00     0.352 C 
ENDBRANCH  12  30
BRANCH   5  39
HETATM   39  O3  UNL     1      -2.499   1.517   6.679  1.00  0.00    -0.274 OA
BRANCH  39  40
HETATM   40  C8  UNL     1      -1.986   1.392   7.951  1.00  0.00     0.289 C 
HETATM   41  O4  UNL     1      -2.322   2.191   8.839  1.00  0.00    -0.263 OA
BRANCH  40  42
HETATM   42  C9  UNL     1      -1.038   0.308   8.253  1.00  0.00     0.340 C 
BRANCH  42  43
HETATM   43  N1  UNL     1      -1.617  -1.005   7.950  1.00  0.00    -0.070 N 
ATOM     44  H13 UNL     1      -1.040  -1.762   8.317  1.00  0.00     0.274 HD
ATOM     45  H12 UNL     1      -2.464  -1.176   8.493  1.00  0.00     0.274 HD
ATOM     46  H11 UNL     1      -1.786  -1.114   6.950  1.00  0.00     0.274 HD
ENDBRANCH  42  43
ENDBRANCH  40  42
ENDBRANCH  39  40
ENDBRANCH   5  39
BRANCH   3  47
HETATM   47  O2  UNL     1      -2.070   3.819   5.845  1.00  0.00    -0.355 OA
HETATM   48  C5  UNL     1      -1.406   4.892   6.477  1.00  0.00     0.210 C 
ENDBRANCH   3  47
BRANCH   1  49
HETATM   49  O1  UNL     1      -5.797   6.401   4.204  1.00  0.00    -0.356 OA
HETATM   50  C1  UNL     1      -6.847   7.090   4.830  1.00  0.00     0.210 C 
ENDBRANCH   1  49
TORSDOF 17
ENDMDL
MODEL 5
REMARK VINA RESULT: -7.258034630      1.752      2.966
REMARK  17 active torsions:
REMARK  status: ('A' for Active; 'I' for Inactive)
REMARK    1  A    between atoms: O1_2  and  C2_3 
REMARK    2  A    between atoms: C4_5  and  O2_6 
REMARK    3  A    between atoms: C7_9  and  O3_10 
REMARK    4  A    between atoms: O3_10  and  C8_11 
REMARK    5  A    between atoms: C8_11  and  C9_13 
REMARK    6  A    between atoms: C9_13  and  N1_14 
REMARK    7  A    between atoms: C15_23  and  O5_24 
REMARK    8  A    between atoms: O5_24  and  C16_25 
REMARK    9  A    between atoms: C16_25  and  C17_26 
REMARK   10  A    between atoms: C17_26  and  O6_27 
REMARK   11  A    between atoms: C17_26  and  O7_29 
REMARK   12  A    between atoms: C17_26  and  C18_31 
REMARK   13  A    between atoms: C18_31  and  C19_33 
REMARK   14  A    between atoms: C19_33  and  C20_35 
REMARK   15  A    between atoms: C20_35  and  O10_36 
REMARK   16  A    between atoms: C20_35  and  O11_38 
REMARK   17  A    between atoms: C21_40  and  C22_41 
ROOT
HETATM    1  C2  UNL     1      -3.321   5.730   5.147  1.00  0.00     0.071 A 
HETATM    2  C3  UNL     1      -2.280   4.836   5.290  1.00  0.00     0.074 A 
HETATM    3  C4  UNL     1      -2.479   3.495   5.524  1.00  0.00     0.084 A 
HETATM    4  C6  UNL     1      -3.763   2.998   5.626  1.00  0.00     0.044 A 
HETATM    5  C7  UNL     1      -4.028   1.665   5.858  1.00  0.00     0.127 A 
HETATM    6  C10 UNL     1      -5.347   1.214   5.948  1.00  0.00     0.113 A 
HETATM    7  C11 UNL     1      -6.405   2.079   5.809  1.00  0.00     0.011 A 
HETATM    8  C12 UNL     1      -6.117   3.391   5.581  1.00  0.00     0.025 A 
HETATM    9  C13 UNL     1      -4.812   3.878   5.485  1.00  0.00    -0.017 A 
HETATM   10  C14 UNL     1      -4.607   5.241   5.247  1.00  0.00     0.049 A 
HETATM   11  C15 UNL     1      -7.685   1.280   5.955  1.00  0.00     0.191 C 
HETATM   12  C21 UNL     1      -7.178   0.022   6.642  1.00  0.00     0.196 C 
HETATM   13  O14 UNL     1      -5.819  -0.070   6.175  1.00  0.00    -0.335 OA
ENDROOT
BRANCH  11  14
HETATM   14  O5  UNL     1      -8.385   1.086   4.939  1.00  0.00    -0.372 OA
BRANCH  14  15
HETATM   15  C16 UNL     1      -9.055   0.874   3.920  1.00  0.00     0.246 C 
BRANCH  15  16
HETATM   16  C17 UNL     1      -8.409  -0.170   2.960  1.00  0.00     0.253 C 
BRANCH  16  17
HETATM   17  O6  UNL     1      -9.189  -0.219   1.811  1.00  0.00    -0.358 OA
ATOM     18  H6  UNL     1     -10.076  -0.431   2.077  1.00  0.00     0.213 HD
ENDBRANCH  16  17
BRANCH  16  19
HETATM   19  O7  UNL     1      -7.119   0.284   2.724  1.00  0.00    -0.358 OA
ATOM     20  H7  UNL     1      -7.035   0.337   1.779  1.00  0.00     0.213 HD
ENDBRANCH  16  19
BRANCH  16  21
HETATM   21  C18 UNL     1      -8.401  -1.491   3.609  1.00  0.00     0.263 C 
HETATM   22  O8  UNL     1      -9.289  -1.757   4.450  1.00  0.00    -0.283 OA
BRANCH  21  23
HETATM   23  C19 UNL     1      -7.384  -2.464   3.280  1.00  0.00     0.254 C 
HETATM   24  O9  UNL     1      -6.296  -2.544   3.899  1.00  0.00    -0.284 OA
BRANCH  23  25
HETATM   25  C20 UNL     1      -7.605  -3.424   2.164  1.00  0.00     0.334 C 
BRANCH  25  26
HETATM   26  O10 UNL     1      -8.925  -3.433   1.746  1.00  0.00    -0.364 OA
ATOM     27  H10 UNL     1      -9.328  -4.284   1.868  1.00  0.00     0.213 HD
ENDBRANCH  25  26
BRANCH  25  28
HETATM   28  O11 UNL     1      -7.259  -4.690   2.655  1.00  0.00    -0.364 OA
ATOM     29  H11 UNL     1      -6.923  -4.556   3.534  1.00  0.00     0.213 HD
ENDBRANCH  25  28
ENDBRANCH  23  25
ENDBRANCH  21  23
ENDBRANCH  16  21
ENDBRANCH  15  16
ENDBRANCH  14  15
ENDBRANCH  11  14
BRANCH  12  30
HETATM   30  C22 UNL     1      -7.150   0.012   8.082  1.00  0.00    -0.023 A 
HETATM   31  C23 UNL     1      -8.340   0.413   8.711  1.00  0.00     0.013 A 
HETATM   32  C24 UNL     1      -8.488   0.472  10.055  1.00  0.00     0.040 A 
HETATM   33  C25 UNL     1      -7.425   0.124  10.866  1.00  0.00     0.105 A 
HETATM   34  C26 UNL     1      -6.239  -0.275  10.317  1.00  0.00     0.105 A 
HETATM   35  O13 UNL     1      -7.247   0.076  12.258  1.00  0.00    -0.323 OA
HETATM   36  C27 UNL     1      -6.123  -0.323   8.928  1.00  0.00     0.049 A 
HETATM   37  O12 UNL     1      -5.363  -0.559  11.354  1.00  0.00    -0.323 OA
HETATM   38  C28 UNL     1      -5.856   0.069  12.528  1.00  0.00     0.352 C 
ENDBRANCH  12  30
BRANCH   5  39
HETATM   39  O3  UNL     1      -2.994   0.783   6.003  1.00  0.00    -0.274 OA
BRANCH  39  40
HETATM   40  C8  UNL     1      -2.739   0.055   7.143  1.00  0.00     0.289 C 
HETATM   41  O4  UNL     1      -2.701  -1.184   7.094  1.00  0.00    -0.263 OA
BRANCH  40  42
HETATM   42  C9  UNL     1      -2.514   0.751   8.419  1.00  0.00     0.340 C 
BRANCH  42  43
HETATM   43  N1  UNL     1      -2.639  -0.167   9.556  1.00  0.00    -0.070 N 
ATOM     44  H13 UNL     1      -1.776  -0.212  10.099  1.00  0.00     0.274 HD
ATOM     45  H12 UNL     1      -3.257   0.209  10.276  1.00  0.00     0.274 HD
ATOM     46  H11 UNL     1      -2.939  -1.094   9.253  1.00  0.00     0.274 HD
ENDBRANCH  42  43
ENDBRANCH  40  42
ENDBRANCH  39  40
ENDBRANCH   5  39
BRANCH   3  47
HETATM   47  O2  UNL     1      -1.391   2.651   5.655  1.00  0.00    -0.355 OA
HETATM   48  C5  UNL     1      -0.284   3.064   6.427  1.00  0.00     0.210 C 
ENDBRANCH   3  47
BRANCH   1  49
HETATM   49  O1  UNL     1      -3.147   7.080   4.911  1.00  0.00    -0.356 OA
HETATM   50  C1  UNL     1      -4.221   7.904   4.546  1.00  0.00     0.210 C 
ENDBRANCH   1  49
TORSDOF 17
ENDMDL
