MODEL 1
REMARK VINA RESULT: -6.750118554      0.000      0.000
REMARK  18 active torsions:
REMARK  status: ('A' for Active; 'I' for Inactive)
REMARK    1  A    between atoms: C2_2  and  O1_3 
REMARK    2  A    between atoms: O1_3  and  N1_4 
REMARK    3  A    between atoms: N1_4  and  C3_6 
REMARK    4  A    between atoms: C3_6  and  C4_7 
REMARK    5  A    between atoms: C3_6  and  C26_47 
REMARK       I    between atoms: C4_7  and  N2_9 
REMARK    6  A    between atoms: N2_9  and  C5_11 
REMARK    7  A    between atoms: N3_14  and  O3_15 
REMARK    8  A    between atoms: O3_15  and  C8_16 
REMARK    9  A    between atoms: C11_19  and  O4_20 
REMARK   10  A    between atoms: C13_22  and  O5_23 
REMARK   11  A    between atoms: C20_30  and  C21_31 
REMARK   12  A    between atoms: C22_33  and  C23_34 
REMARK   13  A    between atoms: C23_34  and  O6_35 
REMARK   14  A    between atoms: C23_34  and  N4_37 
REMARK   15  A    between atoms: N4_37  and  O7_39 
REMARK   16  A    between atoms: C25_42  and  O8_43 
REMARK   17  A    between atoms: C26_47  and  O9_48 
REMARK   18  A    between atoms: C26_47  and  O10_50 
ROOT
HETATM    1  C8  UNL     1      -6.184   0.741   6.598  1.00  0.00     0.102 A 
HETATM    2  C9  UNL     1      -5.918   0.305   7.848  1.00  0.00     0.010 A 
HETATM    3  C10 UNL     1      -6.983   0.477   8.725  1.00  0.00     0.054 A 
HETATM    4  C11 UNL     1      -6.949   0.097  10.052  1.00  0.00     0.102 A 
HETATM    5  C13 UNL     1      -5.769  -0.487  10.500  1.00  0.00     0.102 A 
HETATM    6  C15 UNL     1      -4.704  -0.662   9.640  1.00  0.00     0.052 A 
HETATM    7  C16 UNL     1      -4.762  -0.271   8.311  1.00  0.00    -0.021 A 
HETATM    8  C17 UNL     1      -3.643  -0.481   7.630  1.00  0.00     0.012 A 
HETATM    9  C18 UNL     1      -3.305  -0.180   6.252  1.00  0.00    -0.002 A 
HETATM   10  C19 UNL     1      -4.059   0.342   5.332  1.00  0.00    -0.010 A 
HETATM   11  C20 UNL     1      -5.448   0.789   5.357  1.00  0.00     0.111 A 
ENDROOT
BRANCH   1  12
HETATM   12  O3  UNL     1      -7.467   1.243   6.557  1.00  0.00    -0.218 OA
BRANCH  12  13
HETATM   13  N3  UNL     1      -8.540   0.892   5.868  1.00  0.00    -0.166 N 
HETATM   14  C7  UNL     1      -9.223  -0.259   5.927  1.00  0.00     0.148 A 
HETATM   15  C6  UNL     1     -10.276  -0.244   5.045  1.00  0.00     0.071 A 
HETATM   16  C5  UNL     1     -10.208   1.008   4.420  1.00  0.00     0.126 A 
HETATM   17  N5  UNL     1      -9.162   1.643   4.943  1.00  0.00    -0.259 N 
ATOM     18  H5  UNL     1      -8.869   2.582   4.675  1.00  0.00     0.191 HD
BRANCH  16  19
HETATM   19  N2  UNL     1     -11.062   1.341   3.529  1.00  0.00    -0.307 N 
HETATM   20  C4  UNL     1     -10.827   1.828   2.240  1.00  0.00     0.276 C 
HETATM   21  O2  UNL     1      -9.641   2.043   1.844  1.00  0.00    -0.266 OA
ATOM     22  H2  UNL     1     -12.042   1.238   3.793  1.00  0.00     0.170 HD
BRANCH  20  23
HETATM   23  C3  UNL     1     -11.936   2.109   1.292  1.00  0.00     0.154 C 
BRANCH  23  24
HETATM   24  N1  UNL     1     -12.005   3.256   0.816  1.00  0.00    -0.261 N 
ATOM     25  H1  UNL     1     -11.067   3.641   0.704  1.00  0.00     0.194 HD
BRANCH  24  26
HETATM   26  O1  UNL     1     -12.890   4.125   0.412  1.00  0.00    -0.280 OA
BRANCH  26  27
HETATM   27  C2  UNL     1     -12.748   5.430  -0.092  1.00  0.00     0.196 C 
HETATM   28  C1  UNL     1     -14.133   6.080  -0.132  1.00  0.00     0.036 C 
ENDBRANCH  26  27
ENDBRANCH  24  26
ENDBRANCH  23  24
BRANCH  23  29
HETATM   29  C26 UNL     1     -12.889   1.030   0.983  1.00  0.00     0.312 C 
BRANCH  29  30
HETATM   30  O9  UNL     1     -13.397   0.366   2.070  1.00  0.00    -0.366 OA
ATOM     31  H9  UNL     1     -14.030   0.853   2.585  1.00  0.00     0.213 HD
ENDBRANCH  29  30
BRANCH  29  32
HETATM   32  O10 UNL     1     -13.893   1.537   0.140  1.00  0.00    -0.366 OA
ATOM     33  H10 UNL     1     -14.525   2.013   0.666  1.00  0.00     0.213 HD
ENDBRANCH  29  32
ENDBRANCH  23  29
ENDBRANCH  20  23
ENDBRANCH  16  19
ENDBRANCH  12  13
ENDBRANCH   1  12
BRANCH  11  34
HETATM   34  C21 UNL     1      -6.173  -0.053   4.317  1.00  0.00     0.031 A 
HETATM   35  S1  UNL     1      -6.420  -1.742   4.310  1.00  0.00    -0.086 SA
HETATM   36  C22 UNL     1      -7.288  -1.888   2.852  1.00  0.00     0.060 A 
HETATM   37  C24 UNL     1      -7.358  -0.595   2.409  1.00  0.00     0.061 A 
HETATM   38  C25 UNL     1      -6.786   0.353   3.159  1.00  0.00     0.081 A 
BRANCH  36  39
HETATM   39  C23 UNL     1      -7.821  -3.093   2.234  1.00  0.00     0.177 C 
BRANCH  39  40
HETATM   40  O6  UNL     1      -8.900  -2.999   1.397  1.00  0.00    -0.344 OA
ATOM     41  H6  UNL     1      -8.802  -2.568   0.556  1.00  0.00     0.219 HD
ENDBRANCH  39  40
BRANCH  39  42
HETATM   42  N4  UNL     1      -7.285  -4.228   2.473  1.00  0.00    -0.246 N 
ATOM     43  H4  UNL     1      -6.416  -4.258   3.006  1.00  0.00     0.196 HD
BRANCH  42  44
HETATM   44  O7  UNL     1      -7.843  -5.424   2.030  1.00  0.00    -0.288 OA
ATOM     45  H7  UNL     1      -7.990  -6.162   2.611  1.00  0.00     0.244 HD
ENDBRANCH  42  44
ENDBRANCH  39  42
ENDBRANCH  36  39
BRANCH  38  46
HETATM   46  O8  UNL     1      -6.778   1.731   2.831  1.00  0.00    -0.360 OA
ATOM     47  H8  UNL     1      -7.450   2.291   3.198  1.00  0.00     0.217 HD
ENDBRANCH  38  46
ENDBRANCH  11  34
BRANCH   4  48
HETATM   48  O4  UNL     1      -8.032   0.285  10.906  1.00  0.00    -0.353 OA
HETATM   49  C12 UNL     1      -8.677  -0.831  11.506  1.00  0.00     0.210 C 
ENDBRANCH   4  48
BRANCH   5  50
HETATM   50  O5  UNL     1      -5.712  -0.880  11.834  1.00  0.00    -0.353 OA
HETATM   51  C14 UNL     1      -4.951  -0.220  12.815  1.00  0.00     0.210 C 
ENDBRANCH   5  50
TORSDOF 18
ENDMDL
MODEL 2
REMARK VINA RESULT: -6.747090024      4.535      9.512
REMARK  18 active torsions:
REMARK  status: ('A' for Active; 'I' for Inactive)
REMARK    1  A    between atoms: C2_2  and  O1_3 
REMARK    2  A    between atoms: O1_3  and  N1_4 
REMARK    3  A    between atoms: N1_4  and  C3_6 
REMARK    4  A    between atoms: C3_6  and  C4_7 
REMARK    5  A    between atoms: C3_6  and  C26_47 
REMARK       I    between atoms: C4_7  and  N2_9 
REMARK    6  A    between atoms: N2_9  and  C5_11 
REMARK    7  A    between atoms: N3_14  and  O3_15 
REMARK    8  A    between atoms: O3_15  and  C8_16 
REMARK    9  A    between atoms: C11_19  and  O4_20 
REMARK   10  A    between atoms: C13_22  and  O5_23 
REMARK   11  A    between atoms: C20_30  and  C21_31 
REMARK   12  A    between atoms: C22_33  and  C23_34 
REMARK   13  A    between atoms: C23_34  and  O6_35 
REMARK   14  A    between atoms: C23_34  and  N4_37 
REMARK   15  A    between atoms: N4_37  and  O7_39 
REMARK   16  A    between atoms: C25_42  and  O8_43 
REMARK   17  A    between atoms: C26_47  and  O9_48 
REMARK   18  A    between atoms: C26_47  and  O10_50 
ROOT
HETATM    1  C8  UNL     1      -4.297   1.270   4.891  1.00  0.00     0.102 A 
HETATM    2  C9  UNL     1      -3.497   2.094   4.180  1.00  0.00     0.010 A 
HETATM    3  C10 UNL     1      -2.201   1.610   4.042  1.00  0.00     0.054 A 
HETATM    4  C11 UNL     1      -1.208   2.272   3.348  1.00  0.00     0.102 A 
HETATM    5  C13 UNL     1      -1.560   3.487   2.769  1.00  0.00     0.102 A 
HETATM    6  C15 UNL     1      -2.843   3.979   2.901  1.00  0.00     0.052 A 
HETATM    7  C16 UNL     1      -3.822   3.295   3.604  1.00  0.00    -0.021 A 
HETATM    8  C17 UNL     1      -4.991   3.921   3.662  1.00  0.00     0.012 A 
HETATM    9  C18 UNL     1      -6.228   3.552   4.322  1.00  0.00    -0.002 A 
HETATM   10  C19 UNL     1      -6.494   2.471   4.994  1.00  0.00    -0.010 A 
HETATM   11  C20 UNL     1      -5.680   1.301   5.305  1.00  0.00     0.111 A 
ENDROOT
BRANCH   1  12
HETATM   12  O3  UNL     1      -3.576   0.163   5.281  1.00  0.00    -0.218 OA
BRANCH  12  13
HETATM   13  N3  UNL     1      -3.568  -0.548   6.396  1.00  0.00    -0.166 N 
HETATM   14  C7  UNL     1      -3.086  -0.202   7.597  1.00  0.00     0.148 A 
HETATM   15  C6  UNL     1      -3.258  -1.222   8.501  1.00  0.00     0.071 A 
HETATM   16  C5  UNL     1      -3.888  -2.245   7.780  1.00  0.00     0.126 A 
HETATM   17  N5  UNL     1      -4.050  -1.795   6.538  1.00  0.00    -0.259 N 
ATOM     18  H5  UNL     1      -4.486  -2.331   5.787  1.00  0.00     0.191 HD
BRANCH  16  19
HETATM   19  N2  UNL     1      -4.191  -3.350   8.344  1.00  0.00    -0.307 N 
HETATM   20  C4  UNL     1      -3.828  -4.647   7.965  1.00  0.00     0.276 C 
HETATM   21  O2  UNL     1      -3.153  -4.838   6.908  1.00  0.00    -0.266 OA
ATOM     22  H2  UNL     1      -4.774  -3.278   9.178  1.00  0.00     0.170 HD
BRANCH  20  23
HETATM   23  C3  UNL     1      -4.209  -5.835   8.769  1.00  0.00     0.154 C 
BRANCH  23  24
HETATM   24  N1  UNL     1      -3.543  -6.073   9.792  1.00  0.00    -0.261 N 
ATOM     25  H1  UNL     1      -2.869  -5.323   9.947  1.00  0.00     0.194 HD
BRANCH  24  26
HETATM   26  O1  UNL     1      -3.428  -6.971  10.731  1.00  0.00    -0.280 OA
BRANCH  26  27
HETATM   27  C2  UNL     1      -4.354  -7.459  11.670  1.00  0.00     0.196 C 
HETATM   28  C1  UNL     1      -3.576  -8.107  12.816  1.00  0.00     0.036 C 
ENDBRANCH  26  27
ENDBRANCH  24  26
ENDBRANCH  23  24
BRANCH  23  29
HETATM   29  C26 UNL     1      -5.335  -6.666   8.308  1.00  0.00     0.312 C 
BRANCH  29  30
HETATM   30  O9  UNL     1      -5.898  -6.284   7.118  1.00  0.00    -0.366 OA
ATOM     31  H9  UNL     1      -6.815  -6.505   7.012  1.00  0.00     0.213 HD
ENDBRANCH  29  30
BRANCH  29  32
HETATM   32  O10 UNL     1      -4.937  -8.014   8.313  1.00  0.00    -0.366 OA
ATOM     33  H10 UNL     1      -5.710  -8.563   8.257  1.00  0.00     0.213 HD
ENDBRANCH  29  32
ENDBRANCH  23  29
ENDBRANCH  20  23
ENDBRANCH  16  19
ENDBRANCH  12  13
ENDBRANCH   1  12
BRANCH  11  34
HETATM   34  C21 UNL     1      -6.409   0.115   4.693  1.00  0.00     0.031 A 
HETATM   35  S1  UNL     1      -6.680  -0.221   3.041  1.00  0.00    -0.086 SA
HETATM   36  C22 UNL     1      -7.538  -1.684   3.193  1.00  0.00     0.060 A 
HETATM   37  C24 UNL     1      -7.588  -1.868   4.549  1.00  0.00     0.061 A 
HETATM   38  C25 UNL     1      -7.008  -0.945   5.324  1.00  0.00     0.081 A 
BRANCH  36  39
HETATM   39  C23 UNL     1      -8.082  -2.527   2.139  1.00  0.00     0.177 C 
BRANCH  39  40
HETATM   40  O6  UNL     1      -8.390  -1.972   0.926  1.00  0.00    -0.344 OA
ATOM     41  H6  UNL     1      -8.692  -2.531   0.220  1.00  0.00     0.219 HD
ENDBRANCH  39  40
BRANCH  39  42
HETATM   42  N4  UNL     1      -8.268  -3.774   2.345  1.00  0.00    -0.246 N 
ATOM     43  H4  UNL     1      -9.222  -4.116   2.458  1.00  0.00     0.196 HD
BRANCH  42  44
HETATM   44  O7  UNL     1      -7.215  -4.682   2.423  1.00  0.00    -0.288 OA
ATOM     45  H7  UNL     1      -7.188  -5.374   3.073  1.00  0.00     0.244 HD
ENDBRANCH  42  44
ENDBRANCH  39  42
ENDBRANCH  36  39
BRANCH  38  46
HETATM   46  O8  UNL     1      -6.978  -1.000   6.739  1.00  0.00    -0.360 OA
ATOM     47  H8  UNL     1      -7.060  -1.844   7.165  1.00  0.00     0.217 HD
ENDBRANCH  38  46
ENDBRANCH  11  34
BRANCH   4  48
HETATM   48  O4  UNL     1       0.082   1.763   3.228  1.00  0.00    -0.353 OA
HETATM   49  C12 UNL     1       1.049   2.006   4.242  1.00  0.00     0.210 C 
ENDBRANCH   4  48
BRANCH   5  50
HETATM   50  O5  UNL     1      -0.576   4.172   2.062  1.00  0.00    -0.353 OA
HETATM   51  C14 UNL     1      -0.599   4.364   0.669  1.00  0.00     0.210 C 
ENDBRANCH   5  50
TORSDOF 18
ENDMDL
MODEL 3
REMARK VINA RESULT: -6.745743282      3.580      9.135
REMARK  18 active torsions:
REMARK  status: ('A' for Active; 'I' for Inactive)
REMARK    1  A    between atoms: C2_2  and  O1_3 
REMARK    2  A    between atoms: O1_3  and  N1_4 
REMARK    3  A    between atoms: N1_4  and  C3_6 
REMARK    4  A    between atoms: C3_6  and  C4_7 
REMARK    5  A    between atoms: C3_6  and  C26_47 
REMARK       I    between atoms: C4_7  and  N2_9 
REMARK    6  A    between atoms: N2_9  and  C5_11 
REMARK    7  A    between atoms: N3_14  and  O3_15 
REMARK    8  A    between atoms: O3_15  and  C8_16 
REMARK    9  A    between atoms: C11_19  and  O4_20 
REMARK   10  A    between atoms: C13_22  and  O5_23 
REMARK   11  A    between atoms: C20_30  and  C21_31 
REMARK   12  A    between atoms: C22_33  and  C23_34 
REMARK   13  A    between atoms: C23_34  and  O6_35 
REMARK   14  A    between atoms: C23_34  and  N4_37 
REMARK   15  A    between atoms: N4_37  and  O7_39 
REMARK   16  A    between atoms: C25_42  and  O8_43 
REMARK   17  A    between atoms: C26_47  and  O9_48 
REMARK   18  A    between atoms: C26_47  and  O10_50 
ROOT
HETATM    1  C8  UNL     1      -8.398   0.895   2.428  1.00  0.00     0.102 A 
HETATM    2  C9  UNL     1      -9.495   1.677   2.526  1.00  0.00     0.010 A 
HETATM    3  C10 UNL     1     -10.455   1.164   3.391  1.00  0.00     0.054 A 
HETATM    4  C11 UNL     1     -11.655   1.792   3.659  1.00  0.00     0.102 A 
HETATM    5  C13 UNL     1     -11.881   3.003   3.011  1.00  0.00     0.102 A 
HETATM    6  C15 UNL     1     -10.936   3.521   2.149  1.00  0.00     0.052 A 
HETATM    7  C16 UNL     1      -9.738   2.870   1.895  1.00  0.00    -0.021 A 
HETATM    8  C17 UNL     1      -8.956   3.488   1.019  1.00  0.00     0.012 A 
HETATM    9  C18 UNL     1      -7.664   3.111   0.477  1.00  0.00    -0.002 A 
HETATM   10  C19 UNL     1      -6.938   2.073   0.767  1.00  0.00    -0.010 A 
HETATM   11  C20 UNL     1      -7.155   0.970   1.697  1.00  0.00     0.111 A 
ENDROOT
BRANCH   1  12
HETATM   12  O3  UNL     1      -8.556  -0.211   3.235  1.00  0.00    -0.218 OA
BRANCH  12  13
HETATM   13  N3  UNL     1      -7.835  -1.308   3.395  1.00  0.00    -0.166 N 
HETATM   14  C7  UNL     1      -7.680  -2.331   2.543  1.00  0.00     0.148 A 
HETATM   15  C6  UNL     1      -6.856  -3.290   3.081  1.00  0.00     0.071 A 
HETATM   16  C5  UNL     1      -6.499  -2.795   4.343  1.00  0.00     0.126 A 
HETATM   17  N5  UNL     1      -7.104  -1.619   4.480  1.00  0.00    -0.259 N 
ATOM     18  H5  UNL     1      -7.025  -1.026   5.306  1.00  0.00     0.191 HD
BRANCH  16  19
HETATM   19  N2  UNL     1      -5.726  -3.463   5.111  1.00  0.00    -0.307 N 
HETATM   20  C4  UNL     1      -4.616  -3.011   5.832  1.00  0.00     0.276 C 
HETATM   21  O2  UNL     1      -4.232  -1.807   5.724  1.00  0.00    -0.266 OA
ATOM     22  H2  UNL     1      -5.948  -4.454   5.211  1.00  0.00     0.170 HD
BRANCH  20  23
HETATM   23  C3  UNL     1      -3.853  -3.905   6.740  1.00  0.00     0.154 C 
BRANCH  23  24
HETATM   24  N1  UNL     1      -3.892  -5.126   6.508  1.00  0.00    -0.261 N 
ATOM     25  H1  UNL     1      -3.895  -5.286   5.501  1.00  0.00     0.194 HD
BRANCH  24  26
HETATM   26  O1  UNL     1      -3.930  -6.268   7.138  1.00  0.00    -0.280 OA
BRANCH  26  27
HETATM   27  C2  UNL     1      -4.665  -6.686   8.261  1.00  0.00     0.196 C 
HETATM   28  C1  UNL     1      -3.856  -7.763   8.987  1.00  0.00     0.036 C 
ENDBRANCH  26  27
ENDBRANCH  24  26
ENDBRANCH  23  24
BRANCH  23  29
HETATM   29  C26 UNL     1      -3.111  -3.302   7.861  1.00  0.00     0.312 C 
BRANCH  29  30
HETATM   30  O9  UNL     1      -1.981  -2.608   7.511  1.00  0.00    -0.366 OA
ATOM     31  H9  UNL     1      -2.092  -1.669   7.422  1.00  0.00     0.213 HD
ENDBRANCH  29  30
BRANCH  29  32
HETATM   32  O10 UNL     1      -4.000  -2.537   8.636  1.00  0.00    -0.366 OA
ATOM     33  H10 UNL     1      -3.916  -2.798   9.546  1.00  0.00     0.213 HD
ENDBRANCH  29  32
ENDBRANCH  23  29
ENDBRANCH  20  23
ENDBRANCH  16  19
ENDBRANCH  12  13
ENDBRANCH   1  12
BRANCH  11  34
HETATM   34  C21 UNL     1      -6.000   1.028   2.685  1.00  0.00     0.031 A 
HETATM   35  S1  UNL     1      -5.910   1.890   4.156  1.00  0.00    -0.086 SA
HETATM   36  C22 UNL     1      -4.340   1.442   4.643  1.00  0.00     0.060 A 
HETATM   37  C24 UNL     1      -3.929   0.622   3.627  1.00  0.00     0.061 A 
HETATM   38  C25 UNL     1      -4.779   0.407   2.617  1.00  0.00     0.081 A 
BRANCH  36  39
HETATM   39  C23 UNL     1      -3.620   1.837   5.844  1.00  0.00     0.177 C 
BRANCH  39  40
HETATM   40  O6  UNL     1      -3.845   3.073   6.387  1.00  0.00    -0.344 OA
ATOM     41  H6  UNL     1      -3.201   3.448   6.977  1.00  0.00     0.219 HD
ENDBRANCH  39  40
BRANCH  39  42
HETATM   42  N4  UNL     1      -2.786   1.035   6.385  1.00  0.00    -0.246 N 
ATOM     43  H4  UNL     1      -1.821   1.032   6.055  1.00  0.00     0.196 HD
BRANCH  42  44
HETATM   44  O7  UNL     1      -3.148   0.163   7.409  1.00  0.00    -0.288 OA
ATOM     45  H7  UNL     1      -2.602   0.024   8.175  1.00  0.00     0.244 HD
ENDBRANCH  42  44
ENDBRANCH  39  42
ENDBRANCH  36  39
BRANCH  38  46
HETATM   46  O8  UNL     1      -4.495  -0.416   1.500  1.00  0.00    -0.360 OA
ATOM     47  H8  UNL     1      -3.590  -0.529   1.235  1.00  0.00     0.217 HD
ENDBRANCH  38  46
ENDBRANCH  11  34
BRANCH   4  48
HETATM   48  O4  UNL     1     -12.598   1.252   4.528  1.00  0.00    -0.353 OA
HETATM   49  C12 UNL     1     -12.187   0.463   5.637  1.00  0.00     0.210 C 
ENDBRANCH   4  48
BRANCH   5  50
HETATM   50  O5  UNL     1     -13.083   3.655   3.267  1.00  0.00    -0.353 OA
HETATM   51  C14 UNL     1     -14.188   3.634   2.399  1.00  0.00     0.210 C 
ENDBRANCH   5  50
TORSDOF 18
ENDMDL
MODEL 4
REMARK VINA RESULT: -6.706749675      5.013      8.936
REMARK  18 active torsions:
REMARK  status: ('A' for Active; 'I' for Inactive)
REMARK    1  A    between atoms: C2_2  and  O1_3 
REMARK    2  A    between atoms: O1_3  and  N1_4 
REMARK    3  A    between atoms: N1_4  and  C3_6 
REMARK    4  A    between atoms: C3_6  and  C4_7 
REMARK    5  A    between atoms: C3_6  and  C26_47 
REMARK       I    between atoms: C4_7  and  N2_9 
REMARK    6  A    between atoms: N2_9  and  C5_11 
REMARK    7  A    between atoms: N3_14  and  O3_15 
REMARK    8  A    between atoms: O3_15  and  C8_16 
REMARK    9  A    between atoms: C11_19  and  O4_20 
REMARK   10  A    between atoms: C13_22  and  O5_23 
REMARK   11  A    between atoms: C20_30  and  C21_31 
REMARK   12  A    between atoms: C22_33  and  C23_34 
REMARK   13  A    between atoms: C23_34  and  O6_35 
REMARK   14  A    between atoms: C23_34  and  N4_37 
REMARK   15  A    between atoms: N4_37  and  O7_39 
REMARK   16  A    between atoms: C25_42  and  O8_43 
REMARK   17  A    between atoms: C26_47  and  O9_48 
REMARK   18  A    between atoms: C26_47  and  O10_50 
ROOT
HETATM    1  C8  UNL     1      -2.488   2.067   6.661  1.00  0.00     0.102 A 
HETATM    2  C9  UNL     1      -1.154   1.894   6.542  1.00  0.00     0.010 A 
HETATM    3  C10 UNL     1      -0.556   1.440   7.712  1.00  0.00     0.054 A 
HETATM    4  C11 UNL     1       0.795   1.180   7.829  1.00  0.00     0.102 A 
HETATM    5  C13 UNL     1       1.569   1.396   6.692  1.00  0.00     0.102 A 
HETATM    6  C15 UNL     1       0.987   1.849   5.526  1.00  0.00     0.052 A 
HETATM    7  C16 UNL     1      -0.373   2.104   5.434  1.00  0.00    -0.021 A 
HETATM    8  C17 UNL     1      -0.764   2.563   4.252  1.00  0.00     0.012 A 
HETATM    9  C18 UNL     1      -2.075   2.971   3.785  1.00  0.00    -0.002 A 
HETATM   10  C19 UNL     1      -3.206   2.940   4.425  1.00  0.00    -0.010 A 
HETATM   11  C20 UNL     1      -3.542   2.502   5.775  1.00  0.00     0.111 A 
ENDROOT
BRANCH   1  12
HETATM   12  O3  UNL     1      -2.876   1.734   7.940  1.00  0.00    -0.218 OA
BRANCH  12  13
HETATM   13  N3  UNL     1      -3.466   0.663   8.442  1.00  0.00    -0.166 N 
HETATM   14  C7  UNL     1      -4.213   0.570   9.551  1.00  0.00     0.148 A 
HETATM   15  C6  UNL     1      -4.641  -0.722   9.741  1.00  0.00     0.071 A 
HETATM   16  C5  UNL     1      -4.107  -1.444   8.665  1.00  0.00     0.126 A 
HETATM   17  N5  UNL     1      -3.419  -0.578   7.924  1.00  0.00    -0.259 N 
ATOM     18  H5  UNL     1      -2.920  -0.824   7.070  1.00  0.00     0.191 HD
BRANCH  16  19
HETATM   19  N2  UNL     1      -4.324  -2.697   8.546  1.00  0.00    -0.307 N 
HETATM   20  C4  UNL     1      -3.516  -3.665   7.942  1.00  0.00     0.276 C 
HETATM   21  O2  UNL     1      -2.435  -3.329   7.370  1.00  0.00    -0.266 OA
ATOM     22  H2  UNL     1      -5.201  -3.035   8.944  1.00  0.00     0.170 HD
BRANCH  20  23
HETATM   23  C3  UNL     1      -3.881  -5.105   7.944  1.00  0.00     0.154 C 
BRANCH  23  24
HETATM   24  N1  UNL     1      -3.853  -5.702   9.035  1.00  0.00    -0.261 N 
ATOM     25  H1  UNL     1      -3.126  -5.303   9.629  1.00  0.00     0.194 HD
BRANCH  24  26
HETATM   26  O1  UNL     1      -4.454  -6.673   9.666  1.00  0.00    -0.280 OA
BRANCH  26  27
HETATM   27  C2  UNL     1      -3.948  -7.811  10.319  1.00  0.00     0.196 C 
HETATM   28  C1  UNL     1      -4.199  -7.651  11.819  1.00  0.00     0.036 C 
ENDBRANCH  26  27
ENDBRANCH  24  26
ENDBRANCH  23  24
BRANCH  23  29
HETATM   29  C26 UNL     1      -4.240  -5.743   6.666  1.00  0.00     0.312 C 
BRANCH  29  30
HETATM   30  O9  UNL     1      -5.578  -5.746   6.366  1.00  0.00    -0.366 OA
ATOM     31  H9  UNL     1      -5.918  -6.566   6.030  1.00  0.00     0.213 HD
ENDBRANCH  29  30
BRANCH  29  32
HETATM   32  O10 UNL     1      -3.456  -5.183   5.642  1.00  0.00    -0.366 OA
ATOM     33  H10 UNL     1      -4.019  -4.961   4.910  1.00  0.00     0.213 HD
ENDBRANCH  29  32
ENDBRANCH  23  29
ENDBRANCH  20  23
ENDBRANCH  16  19
ENDBRANCH  12  13
ENDBRANCH   1  12
BRANCH  11  34
HETATM   34  C21 UNL     1      -4.547   1.373   5.606  1.00  0.00     0.031 A 
HETATM   35  S1  UNL     1      -4.264  -0.222   5.066  1.00  0.00    -0.086 SA
HETATM   36  C22 UNL     1      -5.852  -0.832   5.161  1.00  0.00     0.060 A 
HETATM   37  C24 UNL     1      -6.564   0.244   5.617  1.00  0.00     0.061 A 
HETATM   38  C25 UNL     1      -5.897   1.380   5.848  1.00  0.00     0.081 A 
BRANCH  36  39
HETATM   39  C23 UNL     1      -6.327  -2.168   4.836  1.00  0.00     0.177 C 
BRANCH  39  40
HETATM   40  O6  UNL     1      -7.672  -2.390   4.707  1.00  0.00    -0.344 OA
ATOM     41  H6  UNL     1      -8.229  -2.340   5.475  1.00  0.00     0.219 HD
ENDBRANCH  39  40
BRANCH  39  42
HETATM   42  N4  UNL     1      -5.495  -3.123   4.673  1.00  0.00    -0.246 N 
ATOM     43  H4  UNL     1      -4.627  -3.116   5.207  1.00  0.00     0.196 HD
BRANCH  42  44
HETATM   44  O7  UNL     1      -5.731  -4.174   3.791  1.00  0.00    -0.288 OA
ATOM     45  H7  UNL     1      -5.931  -4.033   2.873  1.00  0.00     0.244 HD
ENDBRANCH  42  44
ENDBRANCH  39  42
ENDBRANCH  36  39
BRANCH  38  46
HETATM   46  O8  UNL     1      -6.497   2.573   6.321  1.00  0.00    -0.360 OA
ATOM     47  H8  UNL     1      -6.113   3.011   7.070  1.00  0.00     0.217 HD
ENDBRANCH  38  46
ENDBRANCH  11  34
BRANCH   4  48
HETATM   48  O4  UNL     1       1.365   0.728   9.015  1.00  0.00    -0.353 OA
HETATM   49  C12 UNL     1       1.029   1.339  10.254  1.00  0.00     0.210 C 
ENDBRANCH   4  48
BRANCH   5  50
HETATM   50  O5  UNL     1       2.934   1.140   6.786  1.00  0.00    -0.353 OA
HETATM   51  C14 UNL     1       3.618   0.226   5.965  1.00  0.00     0.210 C 
ENDBRANCH   5  50
TORSDOF 18
ENDMDL
MODEL 5
REMARK VINA RESULT: -6.673600172      3.743      8.446
REMARK  18 active torsions:
REMARK  status: ('A' for Active; 'I' for Inactive)
REMARK    1  A    between atoms: C2_2  and  O1_3 
REMARK    2  A    between atoms: O1_3  and  N1_4 
REMARK    3  A    between atoms: N1_4  and  C3_6 
REMARK    4  A    between atoms: C3_6  and  C4_7 
REMARK    5  A    between atoms: C3_6  and  C26_47 
REMARK       I    between atoms: C4_7  and  N2_9 
REMARK    6  A    between atoms: N2_9  and  C5_11 
REMARK    7  A    between atoms: N3_14  and  O3_15 
REMARK    8  A    between atoms: O3_15  and  C8_16 
REMARK    9  A    between atoms: C11_19  and  O4_20 
REMARK   10  A    between atoms: C13_22  and  O5_23 
REMARK   11  A    between atoms: C20_30  and  C21_31 
REMARK   12  A    between atoms: C22_33  and  C23_34 
REMARK   13  A    between atoms: C23_34  and  O6_35 
REMARK   14  A    between atoms: C23_34  and  N4_37 
REMARK   15  A    between atoms: N4_37  and  O7_39 
REMARK   16  A    between atoms: C25_42  and  O8_43 
REMARK   17  A    between atoms: C26_47  and  O9_48 
REMARK   18  A    between atoms: C26_47  and  O10_50 
ROOT
HETATM    1  C8  UNL     1      -6.592   2.521   3.444  1.00  0.00     0.102 A 
HETATM    2  C9  UNL     1      -5.428   3.108   3.095  1.00  0.00     0.010 A 
HETATM    3  C10 UNL     1      -4.653   3.476   4.190  1.00  0.00     0.054 A 
HETATM    4  C11 UNL     1      -3.417   4.083   4.081  1.00  0.00     0.102 A 
HETATM    5  C13 UNL     1      -2.954   4.323   2.791  1.00  0.00     0.102 A 
HETATM    6  C15 UNL     1      -3.715   3.964   1.697  1.00  0.00     0.052 A 
HETATM    7  C16 UNL     1      -4.954   3.356   1.832  1.00  0.00    -0.021 A 
HETATM    8  C17 UNL     1      -5.568   3.105   0.683  1.00  0.00     0.012 A 
HETATM    9  C18 UNL     1      -6.868   2.522   0.415  1.00  0.00    -0.002 A 
HETATM   10  C19 UNL     1      -7.738   2.062   1.264  1.00  0.00    -0.010 A 
HETATM   11  C20 UNL     1      -7.713   1.971   2.719  1.00  0.00     0.111 A 
ENDROOT
BRANCH   1  12
HETATM   12  O3  UNL     1      -6.674   2.457   4.818  1.00  0.00    -0.218 OA
BRANCH  12  13
HETATM   13  N3  UNL     1      -6.576   1.452   5.672  1.00  0.00    -0.166 N 
HETATM   14  C7  UNL     1      -7.345   1.190   6.737  1.00  0.00     0.148 A 
HETATM   15  C6  UNL     1      -6.914   0.054   7.379  1.00  0.00     0.071 A 
HETATM   16  C5  UNL     1      -5.810  -0.386   6.636  1.00  0.00     0.126 A 
HETATM   17  N5  UNL     1      -5.651   0.476   5.635  1.00  0.00    -0.259 N 
ATOM     18  H5  UNL     1      -4.920   0.405   4.929  1.00  0.00     0.191 HD
BRANCH  16  19
HETATM   19  N2  UNL     1      -5.171  -1.439   6.977  1.00  0.00    -0.307 N 
HETATM   20  C4  UNL     1      -4.503  -2.353   6.158  1.00  0.00     0.276 C 
HETATM   21  O2  UNL     1      -4.530  -2.219   4.897  1.00  0.00    -0.266 OA
ATOM     22  H2  UNL     1      -5.145  -1.638   7.978  1.00  0.00     0.170 HD
BRANCH  20  23
HETATM   23  C3  UNL     1      -3.745  -3.501   6.717  1.00  0.00     0.154 C 
BRANCH  23  24
HETATM   24  N1  UNL     1      -4.122  -4.644   6.404  1.00  0.00    -0.261 N 
ATOM     25  H1  UNL     1      -4.542  -4.627   5.474  1.00  0.00     0.194 HD
BRANCH  24  26
HETATM   26  O1  UNL     1      -4.155  -5.858   6.880  1.00  0.00    -0.280 OA
BRANCH  26  27
HETATM   27  C2  UNL     1      -4.885  -6.421   7.942  1.00  0.00     0.196 C 
HETATM   28  C1  UNL     1      -3.984  -7.426   8.662  1.00  0.00     0.036 C 
ENDBRANCH  26  27
ENDBRANCH  24  26
ENDBRANCH  23  24
BRANCH  23  29
HETATM   29  C26 UNL     1      -2.607  -3.226   7.612  1.00  0.00     0.312 C 
BRANCH  29  30
HETATM   30  O9  UNL     1      -2.155  -1.932   7.605  1.00  0.00    -0.366 OA
ATOM     31  H9  UNL     1      -1.215  -1.830   7.517  1.00  0.00     0.213 HD
ENDBRANCH  29  30
BRANCH  29  32
HETATM   32  O10 UNL     1      -2.923  -3.684   8.902  1.00  0.00    -0.366 OA
ATOM     33  H10 UNL     1      -2.952  -2.941   9.493  1.00  0.00     0.213 HD
ENDBRANCH  29  32
ENDBRANCH  23  29
ENDBRANCH  20  23
ENDBRANCH  16  19
ENDBRANCH  12  13
ENDBRANCH   1  12
BRANCH  11  34
HETATM   34  C21 UNL     1      -7.835   0.489   3.044  1.00  0.00     0.031 A 
HETATM   35  S1  UNL     1      -6.841  -0.794   2.515  1.00  0.00    -0.086 SA
HETATM   36  C22 UNL     1      -7.623  -2.090   3.297  1.00  0.00     0.060 A 
HETATM   37  C24 UNL     1      -8.651  -1.472   3.955  1.00  0.00     0.061 A 
HETATM   38  C25 UNL     1      -8.765  -0.145   3.828  1.00  0.00     0.081 A 
BRANCH  36  39
HETATM   39  C23 UNL     1      -7.278  -3.503   3.268  1.00  0.00     0.177 C 
BRANCH  39  40
HETATM   40  O6  UNL     1      -6.663  -4.067   4.354  1.00  0.00    -0.344 OA
ATOM     41  H6  UNL     1      -7.176  -4.586   4.963  1.00  0.00     0.219 HD
ENDBRANCH  39  40
BRANCH  39  42
HETATM   42  N4  UNL     1      -7.548  -4.209   2.239  1.00  0.00    -0.246 N 
ATOM     43  H4  UNL     1      -6.860  -4.889   1.915  1.00  0.00     0.196 HD
BRANCH  42  44
HETATM   44  O7  UNL     1      -8.747  -4.084   1.542  1.00  0.00    -0.288 OA
ATOM     45  H7  UNL     1      -9.043  -4.736   0.918  1.00  0.00     0.244 HD
ENDBRANCH  42  44
ENDBRANCH  39  42
ENDBRANCH  36  39
BRANCH  38  46
HETATM   46  O8  UNL     1      -9.775   0.630   4.449  1.00  0.00    -0.360 OA
ATOM     47  H8  UNL     1     -10.593   0.767   3.987  1.00  0.00     0.217 HD
ENDBRANCH  38  46
ENDBRANCH  11  34
BRANCH   4  48
HETATM   48  O4  UNL     1      -2.665   4.442   5.196  1.00  0.00    -0.353 OA
HETATM   49  C12 UNL     1      -2.666   3.624   6.358  1.00  0.00     0.210 C 
ENDBRANCH   4  48
BRANCH   5  50
HETATM   50  O5  UNL     1      -1.710   4.932   2.657  1.00  0.00    -0.353 OA
HETATM   51  C14 UNL     1      -0.966   4.943   1.464  1.00  0.00     0.210 C 
ENDBRANCH   5  50
TORSDOF 18
ENDMDL
