MODEL 1
REMARK VINA RESULT: -8.726557038      0.000      0.000
REMARK  16 active torsions:
REMARK  status: ('A' for Active; 'I' for Inactive)
REMARK    1  A    between atoms: O1_2  and  C2_3 
REMARK    2  A    between atoms: C6_7  and  O2_8 
REMARK    3  A    between atoms: O2_8  and  C7_9 
REMARK    4  A    between atoms: C7_9  and  C8_10 
REMARK    5  A    between atoms: C8_10  and  O4_12 
REMARK    6  A    between atoms: O4_12  and  C9_13 
REMARK    7  A    between atoms: C9_13  and  C10_14 
REMARK    8  A    between atoms: C11_15  and  O5_16 
REMARK    9  A    between atoms: C15_21  and  O6_22 
REMARK   10  A    between atoms: C18_27  and  C19_28 
REMARK   11  A    between atoms: C21_32  and  C22_33 
REMARK   12  A    between atoms: C22_33  and  O9_34 
REMARK   13  A    between atoms: C22_33  and  C23_36 
REMARK   14  A    between atoms: C23_36  and  O10_37 
REMARK   15  A    between atoms: C24_39  and  O11_40 
REMARK   16  A    between atoms: C25_42  and  O12_43 
ROOT
HETATM    1  C10 UNL     1      -4.195   0.374   7.092  1.00  0.00     0.033 A 
HETATM    2  C11 UNL     1      -4.292  -1.003   7.116  1.00  0.00     0.077 A 
HETATM    3  C12 UNL     1      -5.372  -1.619   6.534  1.00  0.00     0.049 A 
HETATM    4  C13 UNL     1      -6.392  -0.881   5.906  1.00  0.00    -0.020 A 
HETATM    5  C14 UNL     1      -6.299   0.479   5.874  1.00  0.00     0.027 A 
HETATM    6  C15 UNL     1      -5.190   1.112   6.478  1.00  0.00     0.089 A 
HETATM    7  C16 UNL     1      -7.204   1.180   5.216  1.00  0.00     0.044 C 
HETATM    8 CL1  UNL     1      -7.030   2.928   5.216  1.00  0.00    -0.087 Cl
HETATM    9  C17 UNL     1      -8.304   0.537   4.479  1.00  0.00     0.106 A 
HETATM   10  C18 UNL     1      -9.031   1.201   3.372  1.00  0.00     0.211 C 
HETATM   11  O8  UNL     1     -10.341   0.716   3.465  1.00  0.00    -0.366 OA
HETATM   12  C21 UNL     1     -10.573   0.808   4.807  1.00  0.00     0.192 C 
HETATM   13  C24 UNL     1      -9.432   0.046   5.441  1.00  0.00     0.141 A 
HETATM   14  C25 UNL     1      -8.544  -0.867   4.714  1.00  0.00     0.130 A 
HETATM   15  C26 UNL     1      -7.420  -1.497   5.391  1.00  0.00     0.027 C 
ENDROOT
BRANCH   1  16
HETATM   16  C9  UNL     1      -2.997   1.027   7.660  1.00  0.00     0.223 C 
BRANCH  16  17
HETATM   17  O4  UNL     1      -3.180   0.982   9.074  1.00  0.00    -0.315 OA
BRANCH  17  18
HETATM   18  C8  UNL     1      -2.107   0.761   9.942  1.00  0.00     0.283 C 
HETATM   19  O3  UNL     1      -0.982   0.661   9.409  1.00  0.00    -0.263 OA
BRANCH  18  20
HETATM   20  C7  UNL     1      -2.372   0.653  11.405  1.00  0.00     0.286 C 
BRANCH  20  21
HETATM   21  O2  UNL     1      -3.223  -0.318  11.795  1.00  0.00    -0.341 OA
BRANCH  21  22
HETATM   22  C6  UNL     1      -4.495  -0.373  12.255  1.00  0.00     0.072 A 
HETATM   23  C5  UNL     1      -4.817  -0.598  13.568  1.00  0.00     0.037 A 
HETATM   24  C4  UNL     1      -6.160  -0.638  13.946  1.00  0.00     0.005 A 
HETATM   25  C3  UNL     1      -7.139  -0.451  13.009  1.00  0.00     0.037 A 
HETATM   26  C2  UNL     1      -6.845  -0.225  11.671  1.00  0.00     0.070 A 
HETATM   27  C27 UNL     1      -5.531  -0.189  11.324  1.00  0.00     0.073 A 
BRANCH  26  28
HETATM   28  O1  UNL     1      -7.852  -0.042  10.733  1.00  0.00    -0.356 OA
HETATM   29  C1  UNL     1      -7.457   0.163   9.364  1.00  0.00     0.210 C 
ENDBRANCH  26  28
ENDBRANCH  21  22
ENDBRANCH  20  21
ENDBRANCH  18  20
ENDBRANCH  17  18
ENDBRANCH  16  17
ENDBRANCH   1  16
BRANCH   2  30
HETATM   30  O5  UNL     1      -3.295  -1.781   7.731  1.00  0.00    -0.360 OA
ATOM     31  H5  UNL     1      -3.225  -1.818   8.678  1.00  0.00     0.217 HD
ENDBRANCH   2  30
BRANCH   6  32
HETATM   32  O6  UNL     1      -5.181   2.490   6.403  1.00  0.00    -0.359 OA
ATOM     33  H6  UNL     1      -5.712   3.049   6.958  1.00  0.00     0.217 HD
ENDBRANCH   6  32
BRANCH  14  34
HETATM   34  O12 UNL     1      -9.026  -1.629   3.632  1.00  0.00    -0.381 OA
ATOM     35  H12 UNL     1      -8.521  -1.608   2.827  1.00  0.00     0.211 HD
ENDBRANCH  14  34
BRANCH  10  36
HETATM   36  C19 UNL     1      -8.444   0.766   2.063  1.00  0.00     0.153 C 
HETATM   37  C20 UNL     1      -7.092   1.270   1.653  1.00  0.00     0.093 C 
HETATM   38  O7  UNL     1      -9.036   0.007   1.319  1.00  0.00    -0.296 OA
ENDBRANCH  10  36
BRANCH  13  39
HETATM   39  O11 UNL     1      -9.219   0.224   6.785  1.00  0.00    -0.382 OA
ATOM     40  H11 UNL     1      -9.973   0.467   7.310  1.00  0.00     0.210 HD
ENDBRANCH  13  39
BRANCH  12  41
HETATM   41  C22 UNL     1     -11.906   0.417   5.276  1.00  0.00     0.173 C 
BRANCH  41  42
HETATM   42  O9  UNL     1     -12.172   1.061   6.509  1.00  0.00    -0.391 OA
ATOM     43  H9  UNL     1     -12.974   1.565   6.431  1.00  0.00     0.210 HD
ENDBRANCH  41  42
BRANCH  41  44
HETATM   44  C23 UNL     1     -13.045   0.653   4.351  1.00  0.00     0.198 C 
BRANCH  44  45
HETATM   45  O10 UNL     1     -13.208   2.001   4.043  1.00  0.00    -0.398 OA
ATOM     46  H10 UNL     1     -12.598   2.296   3.377  1.00  0.00     0.209 HD
ENDBRANCH  44  45
ENDBRANCH  41  44
ENDBRANCH  12  41
TORSDOF 16
ENDMDL
MODEL 2
REMARK VINA RESULT: -8.673839835      0.844      1.544
REMARK  16 active torsions:
REMARK  status: ('A' for Active; 'I' for Inactive)
REMARK    1  A    between atoms: O1_2  and  C2_3 
REMARK    2  A    between atoms: C6_7  and  O2_8 
REMARK    3  A    between atoms: O2_8  and  C7_9 
REMARK    4  A    between atoms: C7_9  and  C8_10 
REMARK    5  A    between atoms: C8_10  and  O4_12 
REMARK    6  A    between atoms: O4_12  and  C9_13 
REMARK    7  A    between atoms: C9_13  and  C10_14 
REMARK    8  A    between atoms: C11_15  and  O5_16 
REMARK    9  A    between atoms: C15_21  and  O6_22 
REMARK   10  A    between atoms: C18_27  and  C19_28 
REMARK   11  A    between atoms: C21_32  and  C22_33 
REMARK   12  A    between atoms: C22_33  and  O9_34 
REMARK   13  A    between atoms: C22_33  and  C23_36 
REMARK   14  A    between atoms: C23_36  and  O10_37 
REMARK   15  A    between atoms: C24_39  and  O11_40 
REMARK   16  A    between atoms: C25_42  and  O12_43 
ROOT
HETATM    1  C10 UNL     1      -3.730   0.153   6.444  1.00  0.00     0.033 A 
HETATM    2  C11 UNL     1      -3.816  -1.225   6.405  1.00  0.00     0.077 A 
HETATM    3  C12 UNL     1      -4.956  -1.821   5.925  1.00  0.00     0.049 A 
HETATM    4  C13 UNL     1      -6.048  -1.063   5.466  1.00  0.00    -0.020 A 
HETATM    5  C14 UNL     1      -5.966   0.298   5.498  1.00  0.00     0.027 A 
HETATM    6  C15 UNL     1      -4.796   0.911   5.997  1.00  0.00     0.089 A 
HETATM    7  C16 UNL     1      -6.949   1.022   4.995  1.00  0.00     0.044 C 
HETATM    8 CL1  UNL     1      -6.786   2.770   5.068  1.00  0.00    -0.087 Cl
HETATM    9  C17 UNL     1      -8.127   0.406   4.362  1.00  0.00     0.106 A 
HETATM   10  C18 UNL     1      -8.987   1.120   3.389  1.00  0.00     0.211 C 
HETATM   11  O8  UNL     1     -10.273   0.615   3.614  1.00  0.00    -0.366 OA
HETATM   12  C21 UNL     1     -10.341   0.633   4.977  1.00  0.00     0.192 C 
HETATM   13  C24 UNL     1      -9.127  -0.149   5.425  1.00  0.00     0.141 A 
HETATM   14  C25 UNL     1      -8.329  -1.011   4.547  1.00  0.00     0.130 A 
HETATM   15  C26 UNL     1      -7.127  -1.663   5.047  1.00  0.00     0.027 C 
ENDROOT
BRANCH   1  16
HETATM   16  C9  UNL     1      -2.475   0.789   6.898  1.00  0.00     0.223 C 
BRANCH  16  17
HETATM   17  O4  UNL     1      -2.812   1.460   8.110  1.00  0.00    -0.315 OA
BRANCH  17  18
HETATM   18  C8  UNL     1      -1.999   1.370   9.244  1.00  0.00     0.283 C 
HETATM   19  O3  UNL     1      -0.863   1.879   9.148  1.00  0.00    -0.263 OA
BRANCH  18  20
HETATM   20  C7  UNL     1      -2.528   0.682  10.457  1.00  0.00     0.286 C 
BRANCH  20  21
HETATM   21  O2  UNL     1      -3.523  -0.207  10.263  1.00  0.00    -0.341 OA
BRANCH  21  22
HETATM   22  C6  UNL     1      -4.863  -0.227  10.448  1.00  0.00     0.072 A 
HETATM   23  C5  UNL     1      -5.769  -0.271   9.420  1.00  0.00     0.037 A 
HETATM   24  C4  UNL     1      -7.134  -0.288   9.712  1.00  0.00     0.005 A 
HETATM   25  C3  UNL     1      -7.555  -0.263  11.013  1.00  0.00     0.037 A 
HETATM   26  C2  UNL     1      -6.663  -0.214  12.075  1.00  0.00     0.070 A 
HETATM   27  C27 UNL     1      -5.338  -0.199  11.770  1.00  0.00     0.073 A 
BRANCH  26  28
HETATM   28  O1  UNL     1      -7.108  -0.183  13.389  1.00  0.00    -0.356 OA
HETATM   29  C1  UNL     1      -6.326  -0.884  14.374  1.00  0.00     0.210 C 
ENDBRANCH  26  28
ENDBRANCH  21  22
ENDBRANCH  20  21
ENDBRANCH  18  20
ENDBRANCH  17  18
ENDBRANCH  16  17
ENDBRANCH   1  16
BRANCH   2  30
HETATM   30  O5  UNL     1      -2.747  -2.023   6.851  1.00  0.00    -0.360 OA
ATOM     31  H5  UNL     1      -2.587  -2.877   6.466  1.00  0.00     0.217 HD
ENDBRANCH   2  30
BRANCH   6  32
HETATM   32  O6  UNL     1      -4.803   2.291   5.997  1.00  0.00    -0.359 OA
ATOM     33  H6  UNL     1      -4.729   2.816   5.209  1.00  0.00     0.217 HD
ENDBRANCH   6  32
BRANCH  14  34
HETATM   34  O12 UNL     1      -8.935  -1.719   3.491  1.00  0.00    -0.381 OA
ATOM     35  H12 UNL     1      -8.374  -2.273   2.961  1.00  0.00     0.211 HD
ENDBRANCH  14  34
BRANCH  10  36
HETATM   36  C19 UNL     1      -8.561   0.764   1.997  1.00  0.00     0.153 C 
HETATM   37  C20 UNL     1      -7.213   1.196   1.500  1.00  0.00     0.093 C 
HETATM   38  O7  UNL     1      -9.283   0.125   1.254  1.00  0.00    -0.296 OA
ENDBRANCH  10  36
BRANCH  13  39
HETATM   39  O11 UNL     1      -8.753  -0.041   6.742  1.00  0.00    -0.382 OA
ATOM     40  H11 UNL     1      -7.970  -0.512   7.005  1.00  0.00     0.210 HD
ENDBRANCH  13  39
BRANCH  12  41
HETATM   41  C22 UNL     1     -11.604   0.201   5.582  1.00  0.00     0.173 C 
BRANCH  41  42
HETATM   42  O9  UNL     1     -11.816   0.923   6.782  1.00  0.00    -0.391 OA
ATOM     43  H9  UNL     1     -12.647   1.380   6.729  1.00  0.00     0.210 HD
ENDBRANCH  41  42
BRANCH  41  44
HETATM   44  C23 UNL     1     -12.826   0.296   4.739  1.00  0.00     0.198 C 
BRANCH  44  45
HETATM   45  O10 UNL     1     -13.058   1.591   4.286  1.00  0.00    -0.398 OA
ATOM     46  H10 UNL     1     -13.420   1.608   3.409  1.00  0.00     0.209 HD
ENDBRANCH  44  45
ENDBRANCH  41  44
ENDBRANCH  12  41
TORSDOF 16
ENDMDL
MODEL 3
REMARK VINA RESULT: -8.492753508      1.374      2.018
REMARK  16 active torsions:
REMARK  status: ('A' for Active; 'I' for Inactive)
REMARK    1  A    between atoms: O1_2  and  C2_3 
REMARK    2  A    between atoms: C6_7  and  O2_8 
REMARK    3  A    between atoms: O2_8  and  C7_9 
REMARK    4  A    between atoms: C7_9  and  C8_10 
REMARK    5  A    between atoms: C8_10  and  O4_12 
REMARK    6  A    between atoms: O4_12  and  C9_13 
REMARK    7  A    between atoms: C9_13  and  C10_14 
REMARK    8  A    between atoms: C11_15  and  O5_16 
REMARK    9  A    between atoms: C15_21  and  O6_22 
REMARK   10  A    between atoms: C18_27  and  C19_28 
REMARK   11  A    between atoms: C21_32  and  C22_33 
REMARK   12  A    between atoms: C22_33  and  O9_34 
REMARK   13  A    between atoms: C22_33  and  C23_36 
REMARK   14  A    between atoms: C23_36  and  O10_37 
REMARK   15  A    between atoms: C24_39  and  O11_40 
REMARK   16  A    between atoms: C25_42  and  O12_43 
ROOT
HETATM    1  C10 UNL     1      -3.007  -0.486   6.793  1.00  0.00     0.033 A 
HETATM    2  C11 UNL     1      -3.220  -1.841   6.954  1.00  0.00     0.077 A 
HETATM    3  C12 UNL     1      -4.342  -2.422   6.417  1.00  0.00     0.049 A 
HETATM    4  C13 UNL     1      -5.290  -1.669   5.700  1.00  0.00    -0.020 A 
HETATM    5  C14 UNL     1      -5.083  -0.332   5.534  1.00  0.00     0.027 A 
HETATM    6  C15 UNL     1      -3.931   0.265   6.091  1.00  0.00     0.089 A 
HETATM    7  C16 UNL     1      -5.920   0.371   4.794  1.00  0.00     0.044 C 
HETATM    8 CL1  UNL     1      -5.600   2.090   4.621  1.00  0.00    -0.087 Cl
HETATM    9  C17 UNL     1      -7.063  -0.251   4.104  1.00  0.00     0.106 A 
HETATM   10  C18 UNL     1      -7.721   0.356   2.924  1.00  0.00     0.211 C 
HETATM   11  O8  UNL     1      -9.068  -0.008   3.042  1.00  0.00    -0.366 OA
HETATM   12  C21 UNL     1      -9.304   0.238   4.363  1.00  0.00     0.192 C 
HETATM   13  C24 UNL     1      -8.237  -0.547   5.090  1.00  0.00     0.141 A 
HETATM   14  C25 UNL     1      -7.422  -1.599   4.475  1.00  0.00     0.130 A 
HETATM   15  C26 UNL     1      -6.361  -2.248   5.231  1.00  0.00     0.027 C 
ENDROOT
BRANCH   1  16
HETATM   16  C9  UNL     1      -1.764   0.120   7.315  1.00  0.00     0.223 C 
BRANCH  16  17
HETATM   17  O4  UNL     1      -2.190   1.075   8.284  1.00  0.00    -0.315 OA
BRANCH  17  18
HETATM   18  C8  UNL     1      -1.627   1.118   9.563  1.00  0.00     0.283 C 
HETATM   19  O3  UNL     1      -0.491   1.630   9.646  1.00  0.00    -0.263 OA
BRANCH  18  20
HETATM   20  C7  UNL     1      -2.397   0.557  10.709  1.00  0.00     0.286 C 
BRANCH  20  21
HETATM   21  O2  UNL     1      -3.409  -0.282  10.406  1.00  0.00    -0.341 OA
BRANCH  21  22
HETATM   22  C6  UNL     1      -4.758  -0.259  10.509  1.00  0.00     0.072 A 
HETATM   23  C5  UNL     1      -5.601  -0.247   9.428  1.00  0.00     0.037 A 
HETATM   24  C4  UNL     1      -6.981  -0.224   9.636  1.00  0.00     0.005 A 
HETATM   25  C3  UNL     1      -7.480  -0.215  10.910  1.00  0.00     0.037 A 
HETATM   26  C2  UNL     1      -6.653  -0.223  12.025  1.00  0.00     0.070 A 
HETATM   27  C27 UNL     1      -5.311  -0.247  11.800  1.00  0.00     0.073 A 
BRANCH  26  28
HETATM   28  O1  UNL     1      -7.176  -0.209  13.310  1.00  0.00    -0.356 OA
HETATM   29  C1  UNL     1      -6.419  -0.864  14.345  1.00  0.00     0.210 C 
ENDBRANCH  26  28
ENDBRANCH  21  22
ENDBRANCH  20  21
ENDBRANCH  18  20
ENDBRANCH  17  18
ENDBRANCH  16  17
ENDBRANCH   1  16
BRANCH   2  30
HETATM   30  O5  UNL     1      -2.297  -2.633   7.661  1.00  0.00    -0.360 OA
ATOM     31  H5  UNL     1      -1.638  -2.230   8.215  1.00  0.00     0.217 HD
ENDBRANCH   2  30
BRANCH   6  32
HETATM   32  O6  UNL     1      -3.805   1.623   5.879  1.00  0.00    -0.359 OA
ATOM     33  H6  UNL     1      -4.080   2.280   6.509  1.00  0.00     0.217 HD
ENDBRANCH   6  32
BRANCH  14  34
HETATM   34  O12 UNL     1      -7.956  -2.424   3.466  1.00  0.00    -0.381 OA
ATOM     35  H12 UNL     1      -8.674  -2.997   3.708  1.00  0.00     0.211 HD
ENDBRANCH  14  34
BRANCH  10  36
HETATM   36  C19 UNL     1      -7.160  -0.256   1.676  1.00  0.00     0.153 C 
HETATM   37  C20 UNL     1      -5.722  -0.023   1.317  1.00  0.00     0.093 C 
HETATM   38  O7  UNL     1      -7.843  -0.945   0.941  1.00  0.00    -0.296 OA
ENDBRANCH  10  36
BRANCH  13  39
HETATM   39  O11 UNL     1      -8.022  -0.252   6.414  1.00  0.00    -0.382 OA
ATOM     40  H11 UNL     1      -7.700   0.620   6.612  1.00  0.00     0.210 HD
ENDBRANCH  13  39
BRANCH  12  41
HETATM   41  C22 UNL     1     -10.670   0.008   4.845  1.00  0.00     0.173 C 
BRANCH  41  42
HETATM   42  O9  UNL     1     -10.761  -1.303   5.374  1.00  0.00    -0.391 OA
ATOM     43  H9  UNL     1     -10.015  -1.812   5.079  1.00  0.00     0.210 HD
ENDBRANCH  41  42
BRANCH  41  44
HETATM   44  C23 UNL     1     -11.206   0.970   5.844  1.00  0.00     0.198 C 
BRANCH  44  45
HETATM   45  O10 UNL     1     -12.389   0.526   6.426  1.00  0.00    -0.398 OA
ATOM     46  H10 UNL     1     -12.356   0.545   7.375  1.00  0.00     0.209 HD
ENDBRANCH  44  45
ENDBRANCH  41  44
ENDBRANCH  12  41
TORSDOF 16
ENDMDL
MODEL 4
REMARK VINA RESULT: -8.476155544      1.289      1.519
REMARK  16 active torsions:
REMARK  status: ('A' for Active; 'I' for Inactive)
REMARK    1  A    between atoms: O1_2  and  C2_3 
REMARK    2  A    between atoms: C6_7  and  O2_8 
REMARK    3  A    between atoms: O2_8  and  C7_9 
REMARK    4  A    between atoms: C7_9  and  C8_10 
REMARK    5  A    between atoms: C8_10  and  O4_12 
REMARK    6  A    between atoms: O4_12  and  C9_13 
REMARK    7  A    between atoms: C9_13  and  C10_14 
REMARK    8  A    between atoms: C11_15  and  O5_16 
REMARK    9  A    between atoms: C15_21  and  O6_22 
REMARK   10  A    between atoms: C18_27  and  C19_28 
REMARK   11  A    between atoms: C21_32  and  C22_33 
REMARK   12  A    between atoms: C22_33  and  O9_34 
REMARK   13  A    between atoms: C22_33  and  C23_36 
REMARK   14  A    between atoms: C23_36  and  O10_37 
REMARK   15  A    between atoms: C24_39  and  O11_40 
REMARK   16  A    between atoms: C25_42  and  O12_43 
ROOT
HETATM    1  C10 UNL     1      -3.043  -0.729   6.761  1.00  0.00     0.033 A 
HETATM    2  C11 UNL     1      -3.286  -2.084   6.872  1.00  0.00     0.077 A 
HETATM    3  C12 UNL     1      -4.418  -2.620   6.308  1.00  0.00     0.049 A 
HETATM    4  C13 UNL     1      -5.345  -1.822   5.613  1.00  0.00    -0.020 A 
HETATM    5  C14 UNL     1      -5.107  -0.484   5.496  1.00  0.00     0.027 A 
HETATM    6  C15 UNL     1      -3.946   0.067   6.080  1.00  0.00     0.089 A 
HETATM    7  C16 UNL     1      -5.924   0.263   4.776  1.00  0.00     0.044 C 
HETATM    8 CL1  UNL     1      -5.565   1.979   4.667  1.00  0.00    -0.087 Cl
HETATM    9  C17 UNL     1      -7.076  -0.309   4.059  1.00  0.00     0.106 A 
HETATM   10  C18 UNL     1      -7.713   0.354   2.897  1.00  0.00     0.211 C 
HETATM   11  O8  UNL     1      -9.069   0.016   2.995  1.00  0.00    -0.366 OA
HETATM   12  C21 UNL     1      -9.308   0.220   4.323  1.00  0.00     0.192 C 
HETATM   13  C24 UNL     1      -8.262  -0.614   5.027  1.00  0.00     0.141 A 
HETATM   14  C25 UNL     1      -7.467  -1.661   4.380  1.00  0.00     0.130 A 
HETATM   15  C26 UNL     1      -6.425  -2.360   5.118  1.00  0.00     0.027 C 
ENDROOT
BRANCH   1  16
HETATM   16  C9  UNL     1      -1.790  -0.169   7.310  1.00  0.00     0.223 C 
BRANCH  16  17
HETATM   17  O4  UNL     1      -2.007  -0.073   8.716  1.00  0.00    -0.315 OA
BRANCH  17  18
HETATM   18  C8  UNL     1      -2.352   1.140   9.320  1.00  0.00     0.283 C 
HETATM   19  O3  UNL     1      -2.259   2.157   8.601  1.00  0.00    -0.263 OA
BRANCH  18  20
HETATM   20  C7  UNL     1      -2.788   1.138  10.746  1.00  0.00     0.286 C 
BRANCH  20  21
HETATM   21  O2  UNL     1      -3.488   0.063  11.163  1.00  0.00    -0.341 OA
BRANCH  21  22
HETATM   22  C6  UNL     1      -4.637  -0.147  11.846  1.00  0.00     0.072 A 
HETATM   23  C5  UNL     1      -4.684  -0.396  13.193  1.00  0.00     0.037 A 
HETATM   24  C4  UNL     1      -5.919  -0.600  13.809  1.00  0.00     0.005 A 
HETATM   25  C3  UNL     1      -7.068  -0.549  13.069  1.00  0.00     0.037 A 
HETATM   26  C2  UNL     1      -7.054  -0.302  11.702  1.00  0.00     0.070 A 
HETATM   27  C27 UNL     1      -5.840  -0.105  11.122  1.00  0.00     0.073 A 
BRANCH  26  28
HETATM   28  O1  UNL     1      -8.230  -0.259  10.966  1.00  0.00    -0.356 OA
HETATM   29  C1  UNL     1      -8.216   0.482   9.731  1.00  0.00     0.210 C 
ENDBRANCH  26  28
ENDBRANCH  21  22
ENDBRANCH  20  21
ENDBRANCH  18  20
ENDBRANCH  17  18
ENDBRANCH  16  17
ENDBRANCH   1  16
BRANCH   2  30
HETATM   30  O5  UNL     1      -2.386  -2.920   7.556  1.00  0.00    -0.360 OA
ATOM     31  H5  UNL     1      -2.690  -3.713   7.982  1.00  0.00     0.217 HD
ENDBRANCH   2  30
BRANCH   6  32
HETATM   32  O6  UNL     1      -3.789   1.429   5.918  1.00  0.00    -0.359 OA
ATOM     33  H6  UNL     1      -3.738   1.853   5.070  1.00  0.00     0.217 HD
ENDBRANCH   6  32
BRANCH  14  34
HETATM   34  O12 UNL     1      -8.012  -2.437   3.339  1.00  0.00    -0.381 OA
ATOM     35  H12 UNL     1      -8.269  -1.981   2.545  1.00  0.00     0.211 HD
ENDBRANCH  14  34
BRANCH  10  36
HETATM   36  C19 UNL     1      -7.158  -0.226   1.632  1.00  0.00     0.153 C 
HETATM   37  C20 UNL     1      -5.693  -0.095   1.336  1.00  0.00     0.093 C 
HETATM   38  O7  UNL     1      -7.867  -0.807   0.832  1.00  0.00    -0.296 OA
ENDBRANCH  10  36
BRANCH  13  39
HETATM   39  O11 UNL     1      -8.050  -0.371   6.362  1.00  0.00    -0.382 OA
ATOM     40  H11 UNL     1      -7.913   0.535   6.616  1.00  0.00     0.210 HD
ENDBRANCH  13  39
BRANCH  12  41
HETATM   41  C22 UNL     1     -10.681   0.003   4.789  1.00  0.00     0.173 C 
BRANCH  41  42
HETATM   42  O9  UNL     1     -10.778  -1.287   5.365  1.00  0.00    -0.391 OA
ATOM     43  H9  UNL     1      -9.931  -1.538   5.714  1.00  0.00     0.210 HD
ENDBRANCH  41  42
BRANCH  41  44
HETATM   44  C23 UNL     1     -11.238   1.000   5.741  1.00  0.00     0.198 C 
BRANCH  44  45
HETATM   45  O10 UNL     1     -12.337   0.510   6.440  1.00  0.00    -0.398 OA
ATOM     46  H10 UNL     1     -12.912  -0.009   5.891  1.00  0.00     0.209 HD
ENDBRANCH  44  45
ENDBRANCH  41  44
ENDBRANCH  12  41
TORSDOF 16
ENDMDL
MODEL 5
REMARK VINA RESULT: -8.388310098      4.996      6.696
REMARK  16 active torsions:
REMARK  status: ('A' for Active; 'I' for Inactive)
REMARK    1  A    between atoms: O1_2  and  C2_3 
REMARK    2  A    between atoms: C6_7  and  O2_8 
REMARK    3  A    between atoms: O2_8  and  C7_9 
REMARK    4  A    between atoms: C7_9  and  C8_10 
REMARK    5  A    between atoms: C8_10  and  O4_12 
REMARK    6  A    between atoms: O4_12  and  C9_13 
REMARK    7  A    between atoms: C9_13  and  C10_14 
REMARK    8  A    between atoms: C11_15  and  O5_16 
REMARK    9  A    between atoms: C15_21  and  O6_22 
REMARK   10  A    between atoms: C18_27  and  C19_28 
REMARK   11  A    between atoms: C21_32  and  C22_33 
REMARK   12  A    between atoms: C22_33  and  O9_34 
REMARK   13  A    between atoms: C22_33  and  C23_36 
REMARK   14  A    between atoms: C23_36  and  O10_37 
REMARK   15  A    between atoms: C24_39  and  O11_40 
REMARK   16  A    between atoms: C25_42  and  O12_43 
ROOT
HETATM    1  C10 UNL     1      -3.876  -3.974   6.465  1.00  0.00     0.033 A 
HETATM    2  C11 UNL     1      -3.158  -2.968   7.081  1.00  0.00     0.077 A 
HETATM    3  C12 UNL     1      -3.479  -1.656   6.837  1.00  0.00     0.049 A 
HETATM    4  C13 UNL     1      -4.530  -1.303   5.970  1.00  0.00    -0.020 A 
HETATM    5  C14 UNL     1      -5.245  -2.292   5.363  1.00  0.00     0.027 A 
HETATM    6  C15 UNL     1      -4.910  -3.642   5.610  1.00  0.00     0.089 A 
HETATM    7  C16 UNL     1      -6.285  -1.979   4.612  1.00  0.00     0.044 C 
HETATM    8 CL1  UNL     1      -7.164  -3.298   3.855  1.00  0.00    -0.087 Cl
HETATM    9  C17 UNL     1      -6.726  -0.585   4.433  1.00  0.00     0.106 A 
HETATM   10  C18 UNL     1      -8.104  -0.220   4.028  1.00  0.00     0.211 C 
HETATM   11  O8  UNL     1      -7.952   0.938   3.255  1.00  0.00    -0.366 OA
HETATM   12  C21 UNL     1      -6.896   0.600   2.460  1.00  0.00     0.192 C 
HETATM   13  C24 UNL     1      -5.812   0.183   3.428  1.00  0.00     0.141 A 
HETATM   14  C25 UNL     1      -5.836   0.465   4.866  1.00  0.00     0.130 A 
HETATM   15  C26 UNL     1      -4.786  -0.046   5.736  1.00  0.00     0.027 C 
ENDROOT
BRANCH   1  16
HETATM   16  C9  UNL     1      -3.569  -5.385   6.785  1.00  0.00     0.223 C 
BRANCH  16  17
HETATM   17  O4  UNL     1      -3.792  -5.508   8.188  1.00  0.00    -0.315 OA
BRANCH  17  18
HETATM   18  C8  UNL     1      -4.475  -6.604   8.724  1.00  0.00     0.283 C 
HETATM   19  O3  UNL     1      -5.722  -6.543   8.691  1.00  0.00    -0.263 OA
BRANCH  18  20
HETATM   20  C7  UNL     1      -3.690  -7.737   9.292  1.00  0.00     0.286 C 
BRANCH  20  21
HETATM   21  O2  UNL     1      -4.184  -8.318  10.404  1.00  0.00    -0.341 OA
BRANCH  21  22
HETATM   22  C6  UNL     1      -3.804  -8.427  11.699  1.00  0.00     0.072 A 
HETATM   23  C5  UNL     1      -4.352  -7.687  12.714  1.00  0.00     0.037 A 
HETATM   24  C4  UNL     1      -3.893  -7.871  14.020  1.00  0.00     0.005 A 
HETATM   25  C3  UNL     1      -2.907  -8.784  14.275  1.00  0.00     0.037 A 
HETATM   26  C2  UNL     1      -2.330  -9.546  13.268  1.00  0.00     0.070 A 
HETATM   27  C27 UNL     1      -2.792  -9.352  12.003  1.00  0.00     0.073 A 
BRANCH  26  28
HETATM   28  O1  UNL     1      -1.327 -10.465  13.545  1.00  0.00    -0.356 OA
HETATM   29  C1  UNL     1      -0.443 -10.175  14.643  1.00  0.00     0.210 C 
ENDBRANCH  26  28
ENDBRANCH  21  22
ENDBRANCH  20  21
ENDBRANCH  18  20
ENDBRANCH  17  18
ENDBRANCH  16  17
ENDBRANCH   1  16
BRANCH   2  30
HETATM   30  O5  UNL     1      -2.102  -3.275   7.957  1.00  0.00    -0.360 OA
ATOM     31  H5  UNL     1      -2.019  -2.827   8.792  1.00  0.00     0.217 HD
ENDBRANCH   2  30
BRANCH   6  32
HETATM   32  O6  UNL     1      -5.683  -4.575   4.949  1.00  0.00    -0.359 OA
ATOM     33  H6  UNL     1      -5.932  -4.498   4.036  1.00  0.00     0.217 HD
ENDBRANCH   6  32
BRANCH  14  34
HETATM   34  O12 UNL     1      -6.424   1.647   5.357  1.00  0.00    -0.381 OA
ATOM     35  H12 UNL     1      -5.891   2.433   5.349  1.00  0.00     0.211 HD
ENDBRANCH  14  34
BRANCH  10  36
HETATM   36  C19 UNL     1      -8.907   0.111   5.249  1.00  0.00     0.153 C 
HETATM   37  C20 UNL     1     -10.275   0.708   5.097  1.00  0.00     0.093 C 
HETATM   38  O7  UNL     1      -8.479  -0.095   6.369  1.00  0.00    -0.296 OA
ENDBRANCH  10  36
BRANCH  13  39
HETATM   39  O11 UNL     1      -4.737  -0.504   2.919  1.00  0.00    -0.382 OA
ATOM     40  H11 UNL     1      -4.102  -0.000   2.425  1.00  0.00     0.210 HD
ENDBRANCH  13  39
BRANCH  12  41
HETATM   41  C22 UNL     1      -6.477   1.589   1.462  1.00  0.00     0.173 C 
BRANCH  41  42
HETATM   42  O9  UNL     1      -5.367   2.313   1.960  1.00  0.00    -0.391 OA
ATOM     43  H9  UNL     1      -4.774   2.508   1.245  1.00  0.00     0.210 HD
ENDBRANCH  41  42
BRANCH  41  44
HETATM   44  C23 UNL     1      -6.152   1.082   0.102  1.00  0.00     0.198 C 
BRANCH  44  45
HETATM   45  O10 UNL     1      -5.008   0.290   0.091  1.00  0.00    -0.398 OA
ATOM     46  H10 UNL     1      -4.455   0.464  -0.662  1.00  0.00     0.209 HD
ENDBRANCH  44  45
ENDBRANCH  41  44
ENDBRANCH  12  41
TORSDOF 16
ENDMDL
