MODEL 1
REMARK VINA RESULT: -8.707107696      0.000      0.000
REMARK  18 active torsions:
REMARK  status: ('A' for Active; 'I' for Inactive)
REMARK    1  A    between atoms: O1_2  and  C2_3 
REMARK    2  A    between atoms: C2_3  and  O2_4 
REMARK    3  A    between atoms: C2_3  and  C3_6 
REMARK    4  A    between atoms: C4_11  and  N3_12 
REMARK       I    between atoms: N3_12  and  C5_14 
REMARK    5  A    between atoms: C6_17  and  N5_18 
REMARK    6  A    between atoms: N5_18  and  C7_20 
REMARK    7  A    between atoms: C7_20  and  C16_39 
REMARK    8  A    between atoms: N6_21  and  O4_23 
REMARK    9  A    between atoms: O4_23  and  C8_24 
REMARK   10  A    between atoms: C8_24  and  C10_26 
REMARK   11  A    between atoms: C10_26  and  O6_28 
REMARK   12  A    between atoms: O6_28  and  C11_29 
REMARK   13  A    between atoms: C11_29  and  C13_31 
REMARK   14  A    between atoms: C13_31  and  C14_33 
REMARK   15  A    between atoms: C14_33  and  O7_34 
REMARK   16  A    between atoms: C14_33  and  C15_36 
REMARK   17  A    between atoms: C15_36  and  O8_37 
REMARK   18  A    between atoms: C19_42  and  C20_43 
ROOT
HETATM    1  C7  UNL     1      -6.801   0.060   7.944  1.00  0.00     0.136 C 
HETATM    2  N6  UNL     1      -6.298  -0.764   7.115  1.00  0.00    -0.249 N 
ATOM      3  H6  UNL     1      -6.477  -0.605   6.123  1.00  0.00     0.196 HD
ENDROOT
BRANCH   1   4
HETATM    4  N5  UNL     1      -7.580   1.157   7.500  1.00  0.00    -0.332 N 
ATOM      5  H5  UNL     1      -8.010   1.765   8.197  1.00  0.00     0.168 HD
BRANCH   4   6
HETATM    6  C6  UNL     1      -7.768   1.420   6.253  1.00  0.00     0.123 A 
HETATM    7  C4  UNL     1      -8.937   0.978   5.627  1.00  0.00     0.158 A 
HETATM    8  N2  UNL     1      -9.205   1.205   4.355  1.00  0.00    -0.282 N 
HETATM    9  N1  UNL     1      -8.493   1.843   3.464  1.00  0.00    -0.292 N 
ATOM     10  H2  UNL     1     -10.092   0.830   4.020  1.00  0.00     0.188 HD
HETATM   11  C3  UNL     1      -7.308   2.424   3.638  1.00  0.00     0.123 A 
ATOM     12  H1  UNL     1      -8.891   1.901   2.526  1.00  0.00     0.187 HD
HETATM   13  S1  UNL     1      -6.722   2.273   5.232  1.00  0.00    -0.049 SA
BRANCH   7  14
HETATM   14  N3  UNL     1      -9.813   0.307   6.343  1.00  0.00    -0.294 N 
HETATM   15  C5  UNL     1     -11.031  -0.083   5.749  1.00  0.00     0.334 C 
HETATM   16  N4  UNL     1     -12.215   0.696   5.806  1.00  0.00    -0.040 NA
HETATM   17  O3  UNL     1     -11.064  -1.186   5.134  1.00  0.00    -0.251 OA
ATOM     18  H3  UNL     1      -9.613   0.072   7.315  1.00  0.00     0.172 HD
ENDBRANCH   7  14
BRANCH  11  19
HETATM   19  C2  UNL     1      -6.587   3.126   2.533  1.00  0.00     0.316 C 
BRANCH  19  20
HETATM   20  O1  UNL     1      -7.120   2.728   1.331  1.00  0.00    -0.360 OA
HETATM   21  C1  UNL     1      -6.215   2.570   0.313  1.00  0.00     0.205 C 
ENDBRANCH  19  20
BRANCH  19  22
HETATM   22  O2  UNL     1      -6.676   4.515   2.716  1.00  0.00    -0.365 OA
ATOM     23  H2  UNL     1      -6.726   4.983   1.891  1.00  0.00     0.213 HD
ENDBRANCH  19  22
ENDBRANCH  11  19
ENDBRANCH   4   6
ENDBRANCH   1   4
BRANCH   1  24
HETATM   24  C16 UNL     1      -6.623  -0.083   9.377  1.00  0.00     0.010 A 
HETATM   25  C17 UNL     1      -7.640  -0.251  10.278  1.00  0.00     0.016 A 
HETATM   26  C18 UNL     1      -7.400  -0.398  11.643  1.00  0.00     0.019 A 
HETATM   27  C19 UNL     1      -6.107  -0.375  12.105  1.00  0.00     0.040 A 
HETATM   28  C21 UNL     1      -5.068  -0.206  11.203  1.00  0.00     0.019 A 
HETATM   29  C22 UNL     1      -5.330  -0.063   9.865  1.00  0.00     0.016 A 
BRANCH  27  30
HETATM   30  C20 UNL     1      -5.826  -0.526  13.538  1.00  0.00     0.209 C 
HETATM   31  O9  UNL     1      -4.653  -0.499  13.930  1.00  0.00    -0.644 OA
HETATM   32  O10 UNL     1      -6.888  -0.693  14.424  1.00  0.00    -0.644 OA
ENDBRANCH  27  30
ENDBRANCH   1  24
BRANCH   2  33
HETATM   33  O4  UNL     1      -5.540  -1.841   7.452  1.00  0.00    -0.264 OA
BRANCH  33  34
HETATM   34  C8  UNL     1      -4.420  -2.286   6.712  1.00  0.00     0.247 C 
HETATM   35  C9  UNL     1      -3.168  -1.955   7.483  1.00  0.00     0.053 C 
BRANCH  34  36
HETATM   36  C10 UNL     1      -4.361  -1.556   5.410  1.00  0.00     0.290 C 
HETATM   37  O5  UNL     1      -3.669  -0.494   5.321  1.00  0.00    -0.262 OA
BRANCH  36  38
HETATM   38  O6  UNL     1      -5.014  -1.954   4.269  1.00  0.00    -0.311 OA
BRANCH  38  39
HETATM   39  C11 UNL     1      -6.003  -1.155   3.663  1.00  0.00     0.164 C 
HETATM   40  C12 UNL     1      -5.586  -0.640   2.308  1.00  0.00     0.043 C 
BRANCH  39  41
HETATM   41  C13 UNL     1      -7.309  -1.867   3.500  1.00  0.00     0.229 C 
HETATM   42  F1  UNL     1      -8.053  -1.883   4.656  1.00  0.00    -0.244 F 
BRANCH  41  43
HETATM   43  C14 UNL     1      -7.093  -3.289   3.032  1.00  0.00     0.178 C 
BRANCH  43  44
HETATM   44  O7  UNL     1      -7.111  -4.145   4.158  1.00  0.00    -0.390 OA
ATOM     45  H7  UNL     1      -7.446  -4.993   3.891  1.00  0.00     0.210 HD
ENDBRANCH  43  44
BRANCH  43  46
HETATM   46  C15 UNL     1      -8.226  -3.744   2.114  1.00  0.00     0.198 C 
BRANCH  46  47
HETATM   47  O8  UNL     1      -8.515  -2.676   1.237  1.00  0.00    -0.398 OA
ATOM     48  H8  UNL     1      -7.824  -2.647   0.587  1.00  0.00     0.209 HD
ENDBRANCH  46  47
ENDBRANCH  43  46
ENDBRANCH  41  43
ENDBRANCH  39  41
ENDBRANCH  38  39
ENDBRANCH  36  38
ENDBRANCH  34  36
ENDBRANCH  33  34
ENDBRANCH   2  33
TORSDOF 18
ENDMDL
MODEL 2
REMARK VINA RESULT: -8.565356291      1.767      2.958
REMARK  18 active torsions:
REMARK  status: ('A' for Active; 'I' for Inactive)
REMARK    1  A    between atoms: O1_2  and  C2_3 
REMARK    2  A    between atoms: C2_3  and  O2_4 
REMARK    3  A    between atoms: C2_3  and  C3_6 
REMARK    4  A    between atoms: C4_11  and  N3_12 
REMARK       I    between atoms: N3_12  and  C5_14 
REMARK    5  A    between atoms: C6_17  and  N5_18 
REMARK    6  A    between atoms: N5_18  and  C7_20 
REMARK    7  A    between atoms: C7_20  and  C16_39 
REMARK    8  A    between atoms: N6_21  and  O4_23 
REMARK    9  A    between atoms: O4_23  and  C8_24 
REMARK   10  A    between atoms: C8_24  and  C10_26 
REMARK   11  A    between atoms: C10_26  and  O6_28 
REMARK   12  A    between atoms: O6_28  and  C11_29 
REMARK   13  A    between atoms: C11_29  and  C13_31 
REMARK   14  A    between atoms: C13_31  and  C14_33 
REMARK   15  A    between atoms: C14_33  and  O7_34 
REMARK   16  A    between atoms: C14_33  and  C15_36 
REMARK   17  A    between atoms: C15_36  and  O8_37 
REMARK   18  A    between atoms: C19_42  and  C20_43 
ROOT
HETATM    1  C7  UNL     1      -6.758   0.016   7.939  1.00  0.00     0.136 C 
HETATM    2  N6  UNL     1      -6.339  -0.819   7.076  1.00  0.00    -0.249 N 
ATOM      3  H6  UNL     1      -6.599  -0.662   6.102  1.00  0.00     0.196 HD
ENDROOT
BRANCH   1   4
HETATM    4  N5  UNL     1      -7.556   1.122   7.556  1.00  0.00    -0.332 N 
ATOM      5  H5  UNL     1      -8.001   1.680   8.285  1.00  0.00     0.168 HD
BRANCH   4   6
HETATM    6  C6  UNL     1      -7.742   1.455   6.325  1.00  0.00     0.123 A 
HETATM    7  C4  UNL     1      -6.834   2.313   5.700  1.00  0.00     0.158 A 
HETATM    8  N2  UNL     1      -6.954   2.701   4.445  1.00  0.00    -0.282 N 
HETATM    9  N1  UNL     1      -7.878   2.396   3.572  1.00  0.00    -0.292 N 
ATOM     10  H2  UNL     1      -6.223   3.328   4.108  1.00  0.00     0.188 HD
HETATM   11  C3  UNL     1      -8.933   1.605   3.752  1.00  0.00     0.123 A 
ATOM     12  H1  UNL     1      -7.779   2.813   2.647  1.00  0.00     0.187 HD
HETATM   13  S1  UNL     1      -9.016   0.956   5.328  1.00  0.00    -0.049 SA
BRANCH   7  14
HETATM   14  N3  UNL     1      -5.808   2.750   6.398  1.00  0.00    -0.294 N 
HETATM   15  C5  UNL     1      -4.886   3.626   5.788  1.00  0.00     0.334 C 
HETATM   16  N4  UNL     1      -3.710   3.189   5.126  1.00  0.00    -0.040 NA
HETATM   17  O3  UNL     1      -5.126   4.865   5.834  1.00  0.00    -0.251 OA
ATOM     18  H3  UNL     1      -5.681   2.459   7.367  1.00  0.00     0.172 HD
ENDBRANCH   7  14
BRANCH  11  19
HETATM   19  C2  UNL     1      -9.927   1.333   2.670  1.00  0.00     0.316 C 
BRANCH  19  20
HETATM   20  O1  UNL     1     -10.220   2.511   2.028  1.00  0.00    -0.360 OA
HETATM   21  C1  UNL     1     -11.369   2.502   1.282  1.00  0.00     0.205 C 
ENDBRANCH  19  20
BRANCH  19  22
HETATM   22  O2  UNL     1      -9.419   0.363   1.792  1.00  0.00    -0.365 OA
ATOM     23  H2  UNL     1      -8.516   0.142   1.987  1.00  0.00     0.213 HD
ENDBRANCH  19  22
ENDBRANCH  11  19
ENDBRANCH   4   6
ENDBRANCH   1   4
BRANCH   1  24
HETATM   24  C16 UNL     1      -6.462  -0.123   9.353  1.00  0.00     0.010 A 
HETATM   25  C17 UNL     1      -5.209  -0.062   9.899  1.00  0.00     0.016 A 
HETATM   26  C18 UNL     1      -4.993  -0.189  11.270  1.00  0.00     0.019 A 
HETATM   27  C19 UNL     1      -6.067  -0.382  12.105  1.00  0.00     0.040 A 
HETATM   28  C21 UNL     1      -7.343  -0.445  11.565  1.00  0.00     0.019 A 
HETATM   29  C22 UNL     1      -7.528  -0.318  10.212  1.00  0.00     0.016 A 
BRANCH  27  30
HETATM   30  C20 UNL     1      -5.869  -0.521  13.553  1.00  0.00     0.209 C 
HETATM   31  O9  UNL     1      -4.719  -0.545  14.006  1.00  0.00    -0.644 OA
HETATM   32  O10 UNL     1      -6.984  -0.620  14.383  1.00  0.00    -0.644 OA
ENDBRANCH  27  30
ENDBRANCH   1  24
BRANCH   2  33
HETATM   33  O4  UNL     1      -5.571  -1.906   7.355  1.00  0.00    -0.264 OA
BRANCH  33  34
HETATM   34  C8  UNL     1      -4.455  -2.308   6.584  1.00  0.00     0.247 C 
HETATM   35  C9  UNL     1      -3.199  -2.036   7.372  1.00  0.00     0.053 C 
BRANCH  34  36
HETATM   36  C10 UNL     1      -4.395  -1.494   5.333  1.00  0.00     0.290 C 
HETATM   37  O5  UNL     1      -3.707  -0.426   5.316  1.00  0.00    -0.262 OA
BRANCH  36  38
HETATM   38  O6  UNL     1      -5.043  -1.820   4.166  1.00  0.00    -0.311 OA
BRANCH  38  39
HETATM   39  C11 UNL     1      -6.138  -1.072   3.691  1.00  0.00     0.164 C 
HETATM   40  C12 UNL     1      -5.873  -0.439   2.349  1.00  0.00     0.043 C 
BRANCH  39  41
HETATM   41  C13 UNL     1      -7.391  -1.882   3.577  1.00  0.00     0.229 C 
HETATM   42  F1  UNL     1      -8.061  -1.996   4.772  1.00  0.00    -0.244 F 
BRANCH  41  43
HETATM   43  C14 UNL     1      -7.092  -3.265   3.045  1.00  0.00     0.178 C 
BRANCH  43  44
HETATM   44  O7  UNL     1      -7.114  -4.181   4.123  1.00  0.00    -0.390 OA
ATOM     45  H7  UNL     1      -7.347  -5.039   3.790  1.00  0.00     0.210 HD
ENDBRANCH  43  44
BRANCH  43  46
HETATM   46  C15 UNL     1      -8.167  -3.720   2.059  1.00  0.00     0.198 C 
BRANCH  46  47
HETATM   47  O8  UNL     1      -8.525  -2.600   1.278  1.00  0.00    -0.398 OA
ATOM     48  H8  UNL     1      -9.453  -2.671   1.087  1.00  0.00     0.209 HD
ENDBRANCH  46  47
ENDBRANCH  43  46
ENDBRANCH  41  43
ENDBRANCH  39  41
ENDBRANCH  38  39
ENDBRANCH  36  38
ENDBRANCH  34  36
ENDBRANCH  33  34
ENDBRANCH   2  33
TORSDOF 18
ENDMDL
MODEL 3
REMARK VINA RESULT: -8.521880226      1.737      3.416
REMARK  18 active torsions:
REMARK  status: ('A' for Active; 'I' for Inactive)
REMARK    1  A    between atoms: O1_2  and  C2_3 
REMARK    2  A    between atoms: C2_3  and  O2_4 
REMARK    3  A    between atoms: C2_3  and  C3_6 
REMARK    4  A    between atoms: C4_11  and  N3_12 
REMARK       I    between atoms: N3_12  and  C5_14 
REMARK    5  A    between atoms: C6_17  and  N5_18 
REMARK    6  A    between atoms: N5_18  and  C7_20 
REMARK    7  A    between atoms: C7_20  and  C16_39 
REMARK    8  A    between atoms: N6_21  and  O4_23 
REMARK    9  A    between atoms: O4_23  and  C8_24 
REMARK   10  A    between atoms: C8_24  and  C10_26 
REMARK   11  A    between atoms: C10_26  and  O6_28 
REMARK   12  A    between atoms: O6_28  and  C11_29 
REMARK   13  A    between atoms: C11_29  and  C13_31 
REMARK   14  A    between atoms: C13_31  and  C14_33 
REMARK   15  A    between atoms: C14_33  and  O7_34 
REMARK   16  A    between atoms: C14_33  and  C15_36 
REMARK   17  A    between atoms: C15_36  and  O8_37 
REMARK   18  A    between atoms: C19_42  and  C20_43 
ROOT
HETATM    1  C7  UNL     1      -6.095   0.032   7.851  1.00  0.00     0.136 C 
HETATM    2  N6  UNL     1      -5.721  -0.915   7.087  1.00  0.00    -0.249 N 
ATOM      3  H6  UNL     1      -5.752  -0.750   6.081  1.00  0.00     0.196 HD
ENDROOT
BRANCH   1   4
HETATM    4  N5  UNL     1      -6.539   1.266   7.317  1.00  0.00    -0.332 N 
ATOM      5  H5  UNL     1      -6.105   2.127   7.651  1.00  0.00     0.168 HD
BRANCH   4   6
HETATM    6  C6  UNL     1      -7.466   1.349   6.427  1.00  0.00     0.123 A 
HETATM    7  C4  UNL     1      -7.210   2.022   5.229  1.00  0.00     0.158 A 
HETATM    8  N2  UNL     1      -8.105   2.151   4.268  1.00  0.00    -0.282 N 
HETATM    9  N1  UNL     1      -9.336   1.716   4.224  1.00  0.00    -0.292 N 
ATOM     10  H2  UNL     1      -7.792   2.664   3.444  1.00  0.00     0.188 HD
HETATM   11  C3  UNL     1      -9.985   1.024   5.159  1.00  0.00     0.123 A 
ATOM     12  H1  UNL     1      -9.861   1.930   3.376  1.00  0.00     0.187 HD
HETATM   13  S1  UNL     1      -9.031   0.714   6.539  1.00  0.00    -0.049 SA
BRANCH   7  14
HETATM   14  N3  UNL     1      -6.017   2.547   5.051  1.00  0.00    -0.294 N 
HETATM   15  C5  UNL     1      -5.063   1.843   4.287  1.00  0.00     0.334 C 
HETATM   16  N4  UNL     1      -4.120   0.944   4.848  1.00  0.00    -0.040 NA
HETATM   17  O3  UNL     1      -5.054   2.024   3.037  1.00  0.00    -0.251 OA
ATOM     18  H3  UNL     1      -5.786   3.452   5.460  1.00  0.00     0.172 HD
ENDBRANCH   7  14
BRANCH  11  19
HETATM   19  C2  UNL     1     -11.403   0.581   4.992  1.00  0.00     0.316 C 
BRANCH  19  20
HETATM   20  O1  UNL     1     -11.843   0.959   3.747  1.00  0.00    -0.360 OA
HETATM   21  C1  UNL     1     -12.981   1.722   3.734  1.00  0.00     0.205 C 
ENDBRANCH  19  20
BRANCH  19  22
HETATM   22  O2  UNL     1     -11.492  -0.806   5.186  1.00  0.00    -0.365 OA
ATOM     23  H2  UNL     1     -10.651  -1.193   5.401  1.00  0.00     0.213 HD
ENDBRANCH  19  22
ENDBRANCH  11  19
ENDBRANCH   4   6
ENDBRANCH   1   4
BRANCH   1  24
HETATM   24  C16 UNL     1      -6.107  -0.103   9.296  1.00  0.00     0.010 A 
HETATM   25  C17 UNL     1      -7.232  -0.278  10.055  1.00  0.00     0.016 A 
HETATM   26  C18 UNL     1      -7.174  -0.416  11.441  1.00  0.00     0.019 A 
HETATM   27  C19 UNL     1      -5.954  -0.376  12.070  1.00  0.00     0.040 A 
HETATM   28  C21 UNL     1      -4.806  -0.199  11.313  1.00  0.00     0.019 A 
HETATM   29  C22 UNL     1      -4.890  -0.066   9.951  1.00  0.00     0.016 A 
BRANCH  27  30
HETATM   30  C20 UNL     1      -5.863  -0.516  13.528  1.00  0.00     0.209 C 
HETATM   31  O9  UNL     1      -4.753  -0.476  14.072  1.00  0.00    -0.644 OA
HETATM   32  O10 UNL     1      -7.032  -0.691  14.267  1.00  0.00    -0.644 OA
ENDBRANCH  27  30
ENDBRANCH   1  24
BRANCH   2  33
HETATM   33  O4  UNL     1      -5.281  -2.129   7.513  1.00  0.00    -0.264 OA
BRANCH  33  34
HETATM   34  C8  UNL     1      -4.228  -2.851   6.902  1.00  0.00     0.247 C 
HETATM   35  C9  UNL     1      -3.072  -1.913   6.668  1.00  0.00     0.053 C 
BRANCH  34  36
HETATM   36  C10 UNL     1      -4.680  -3.361   5.573  1.00  0.00     0.290 C 
HETATM   37  O5  UNL     1      -4.468  -4.575   5.266  1.00  0.00    -0.262 OA
BRANCH  36  38
HETATM   38  O6  UNL     1      -5.325  -2.598   4.630  1.00  0.00    -0.311 OA
BRANCH  38  39
HETATM   39  C11 UNL     1      -6.620  -2.917   4.177  1.00  0.00     0.164 C 
HETATM   40  C12 UNL     1      -7.646  -1.886   4.574  1.00  0.00     0.043 C 
BRANCH  39  41
HETATM   41  C13 UNL     1      -6.692  -3.088   2.692  1.00  0.00     0.229 C 
HETATM   42  F1  UNL     1      -6.287  -1.966   2.008  1.00  0.00    -0.244 F 
BRANCH  41  43
HETATM   43  C14 UNL     1      -8.095  -3.451   2.259  1.00  0.00     0.178 C 
BRANCH  43  44
HETATM   44  O7  UNL     1      -8.455  -2.637   1.159  1.00  0.00    -0.390 OA
ATOM     45  H7  UNL     1      -9.395  -2.694   1.033  1.00  0.00     0.210 HD
ENDBRANCH  43  44
BRANCH  43  46
HETATM   46  C15 UNL     1      -8.164  -4.899   1.777  1.00  0.00     0.198 C 
BRANCH  46  47
HETATM   47  O8  UNL     1      -9.366  -5.047   1.053  1.00  0.00    -0.398 OA
ATOM     48  H8  UNL     1      -9.228  -5.729   0.408  1.00  0.00     0.209 HD
ENDBRANCH  46  47
ENDBRANCH  43  46
ENDBRANCH  41  43
ENDBRANCH  39  41
ENDBRANCH  38  39
ENDBRANCH  36  38
ENDBRANCH  34  36
ENDBRANCH  33  34
ENDBRANCH   2  33
TORSDOF 18
ENDMDL
MODEL 4
REMARK VINA RESULT: -8.241549228      1.011      1.557
REMARK  18 active torsions:
REMARK  status: ('A' for Active; 'I' for Inactive)
REMARK    1  A    between atoms: O1_2  and  C2_3 
REMARK    2  A    between atoms: C2_3  and  O2_4 
REMARK    3  A    between atoms: C2_3  and  C3_6 
REMARK    4  A    between atoms: C4_11  and  N3_12 
REMARK       I    between atoms: N3_12  and  C5_14 
REMARK    5  A    between atoms: C6_17  and  N5_18 
REMARK    6  A    between atoms: N5_18  and  C7_20 
REMARK    7  A    between atoms: C7_20  and  C16_39 
REMARK    8  A    between atoms: N6_21  and  O4_23 
REMARK    9  A    between atoms: O4_23  and  C8_24 
REMARK   10  A    between atoms: C8_24  and  C10_26 
REMARK   11  A    between atoms: C10_26  and  O6_28 
REMARK   12  A    between atoms: O6_28  and  C11_29 
REMARK   13  A    between atoms: C11_29  and  C13_31 
REMARK   14  A    between atoms: C13_31  and  C14_33 
REMARK   15  A    between atoms: C14_33  and  O7_34 
REMARK   16  A    between atoms: C14_33  and  C15_36 
REMARK   17  A    between atoms: C15_36  and  O8_37 
REMARK   18  A    between atoms: C19_42  and  C20_43 
ROOT
HETATM    1  C7  UNL     1      -6.806   0.114   7.650  1.00  0.00     0.136 C 
HETATM    2  N6  UNL     1      -6.435  -0.714   6.758  1.00  0.00    -0.249 N 
ATOM      3  H6  UNL     1      -6.743  -0.547   5.800  1.00  0.00     0.196 HD
ENDROOT
BRANCH   1   4
HETATM    4  N5  UNL     1      -7.616   1.227   7.319  1.00  0.00    -0.332 N 
ATOM      5  H5  UNL     1      -8.052   1.757   8.074  1.00  0.00     0.168 HD
BRANCH   4   6
HETATM    6  C6  UNL     1      -7.826   1.600   6.104  1.00  0.00     0.123 A 
HETATM    7  C4  UNL     1      -8.992   1.190   5.451  1.00  0.00     0.158 A 
HETATM    8  N2  UNL     1      -9.281   1.528   4.208  1.00  0.00    -0.282 N 
HETATM    9  N1  UNL     1      -8.595   2.263   3.374  1.00  0.00    -0.292 N 
ATOM     10  H2  UNL     1     -10.163   1.163   3.849  1.00  0.00     0.188 HD
HETATM   11  C3  UNL     1      -7.422   2.855   3.589  1.00  0.00     0.123 A 
ATOM     12  H1  UNL     1      -9.006   2.399   2.450  1.00  0.00     0.187 HD
HETATM   13  S1  UNL     1      -6.813   2.572   5.157  1.00  0.00    -0.049 SA
BRANCH   7  14
HETATM   14  N3  UNL     1      -9.842   0.433   6.110  1.00  0.00    -0.294 N 
HETATM   15  C5  UNL     1     -10.741  -0.380   5.388  1.00  0.00     0.334 C 
HETATM   16  N4  UNL     1     -12.046   0.033   5.018  1.00  0.00    -0.040 NA
HETATM   17  O3  UNL     1     -10.356  -1.536   5.054  1.00  0.00    -0.251 OA
ATOM     18  H3  UNL     1      -9.851   0.435   7.130  1.00  0.00     0.172 HD
ENDBRANCH   7  14
BRANCH  11  19
HETATM   19  C2  UNL     1      -6.733   3.675   2.548  1.00  0.00     0.316 C 
BRANCH  19  20
HETATM   20  O1  UNL     1      -7.281   3.390   1.321  1.00  0.00    -0.360 OA
HETATM   21  C1  UNL     1      -6.384   3.267   0.292  1.00  0.00     0.205 C 
ENDBRANCH  19  20
BRANCH  19  22
HETATM   22  O2  UNL     1      -6.837   5.037   2.870  1.00  0.00    -0.365 OA
ATOM     23  H2  UNL     1      -6.020   5.391   3.200  1.00  0.00     0.213 HD
ENDBRANCH  19  22
ENDBRANCH  11  19
ENDBRANCH   4   6
ENDBRANCH   1   4
BRANCH   1  24
HETATM   24  C16 UNL     1      -6.439  -0.041   9.046  1.00  0.00     0.010 A 
HETATM   25  C17 UNL     1      -5.157  -0.026   9.524  1.00  0.00     0.016 A 
HETATM   26  C18 UNL     1      -4.872  -0.165  10.881  1.00  0.00     0.019 A 
HETATM   27  C19 UNL     1      -5.906  -0.323  11.772  1.00  0.00     0.040 A 
HETATM   28  C21 UNL     1      -7.210  -0.339  11.301  1.00  0.00     0.019 A 
HETATM   29  C22 UNL     1      -7.463  -0.201   9.961  1.00  0.00     0.016 A 
BRANCH  27  30
HETATM   30  C20 UNL     1      -5.635  -0.474  13.207  1.00  0.00     0.209 C 
HETATM   31  O9  UNL     1      -4.476  -0.350  13.619  1.00  0.00    -0.644 OA
HETATM   32  O10 UNL     1      -6.692  -0.752  14.071  1.00  0.00    -0.644 OA
ENDBRANCH  27  30
ENDBRANCH   1  24
BRANCH   2  33
HETATM   33  O4  UNL     1      -5.658  -1.807   6.988  1.00  0.00    -0.264 OA
BRANCH  33  34
HETATM   34  C8  UNL     1      -4.439  -2.069   6.320  1.00  0.00     0.247 C 
HETATM   35  C9  UNL     1      -3.340  -2.176   7.345  1.00  0.00     0.053 C 
BRANCH  34  36
HETATM   36  C10 UNL     1      -4.111  -0.925   5.417  1.00  0.00     0.290 C 
HETATM   37  O5  UNL     1      -3.649   0.150   5.913  1.00  0.00    -0.262 OA
BRANCH  36  38
HETATM   38  O6  UNL     1      -4.273  -0.944   4.053  1.00  0.00    -0.311 OA
BRANCH  38  39
HETATM   39  C11 UNL     1      -5.095  -0.013   3.389  1.00  0.00     0.164 C 
HETATM   40  C12 UNL     1      -4.311   0.949   2.532  1.00  0.00     0.043 C 
BRANCH  39  41
HETATM   41  C13 UNL     1      -6.129  -0.660   2.523  1.00  0.00     0.229 C 
HETATM   42  F1  UNL     1      -6.584   0.171   1.527  1.00  0.00    -0.244 F 
BRANCH  41  43
HETATM   43  C14 UNL     1      -7.305  -1.132   3.349  1.00  0.00     0.178 C 
BRANCH  43  44
HETATM   44  O7  UNL     1      -8.494  -0.899   2.618  1.00  0.00    -0.390 OA
ATOM     45  H7  UNL     1      -9.216  -1.322   3.068  1.00  0.00     0.210 HD
ENDBRANCH  43  44
BRANCH  43  46
HETATM   46  C15 UNL     1      -7.231  -2.636   3.604  1.00  0.00     0.198 C 
BRANCH  46  47
HETATM   47  O8  UNL     1      -7.596  -2.855   4.949  1.00  0.00    -0.398 OA
ATOM     48  H8  UNL     1      -6.804  -2.808   5.471  1.00  0.00     0.209 HD
ENDBRANCH  46  47
ENDBRANCH  43  46
ENDBRANCH  41  43
ENDBRANCH  39  41
ENDBRANCH  38  39
ENDBRANCH  36  38
ENDBRANCH  34  36
ENDBRANCH  33  34
ENDBRANCH   2  33
TORSDOF 18
ENDMDL
MODEL 5
REMARK VINA RESULT: -8.162936490      1.767      3.522
REMARK  18 active torsions:
REMARK  status: ('A' for Active; 'I' for Inactive)
REMARK    1  A    between atoms: O1_2  and  C2_3 
REMARK    2  A    between atoms: C2_3  and  O2_4 
REMARK    3  A    between atoms: C2_3  and  C3_6 
REMARK    4  A    between atoms: C4_11  and  N3_12 
REMARK       I    between atoms: N3_12  and  C5_14 
REMARK    5  A    between atoms: C6_17  and  N5_18 
REMARK    6  A    between atoms: N5_18  and  C7_20 
REMARK    7  A    between atoms: C7_20  and  C16_39 
REMARK    8  A    between atoms: N6_21  and  O4_23 
REMARK    9  A    between atoms: O4_23  and  C8_24 
REMARK   10  A    between atoms: C8_24  and  C10_26 
REMARK   11  A    between atoms: C10_26  and  O6_28 
REMARK   12  A    between atoms: O6_28  and  C11_29 
REMARK   13  A    between atoms: C11_29  and  C13_31 
REMARK   14  A    between atoms: C13_31  and  C14_33 
REMARK   15  A    between atoms: C14_33  and  O7_34 
REMARK   16  A    between atoms: C14_33  and  C15_36 
REMARK   17  A    between atoms: C15_36  and  O8_37 
REMARK   18  A    between atoms: C19_42  and  C20_43 
ROOT
HETATM    1  C7  UNL     1      -6.162   0.077   7.809  1.00  0.00     0.136 C 
HETATM    2  N6  UNL     1      -5.836  -0.874   7.029  1.00  0.00    -0.249 N 
ATOM      3  H6  UNL     1      -5.879  -0.698   6.025  1.00  0.00     0.196 HD
ENDROOT
BRANCH   1   4
HETATM    4  N5  UNL     1      -6.570   1.332   7.296  1.00  0.00    -0.332 N 
ATOM      5  H5  UNL     1      -6.143   2.177   7.676  1.00  0.00     0.168 HD
BRANCH   4   6
HETATM    6  C6  UNL     1      -7.457   1.453   6.371  1.00  0.00     0.123 A 
HETATM    7  C4  UNL     1      -7.166   2.212   5.234  1.00  0.00     0.158 A 
HETATM    8  N2  UNL     1      -8.019   2.386   4.243  1.00  0.00    -0.282 N 
HETATM    9  N1  UNL     1      -9.234   1.924   4.111  1.00  0.00    -0.292 N 
ATOM     10  H2  UNL     1      -7.682   2.961   3.471  1.00  0.00     0.188 HD
HETATM   11  C3  UNL     1      -9.906   1.155   4.965  1.00  0.00     0.123 A 
ATOM     12  H1  UNL     1      -9.725   2.183   3.255  1.00  0.00     0.187 HD
HETATM   13  S1  UNL     1      -9.008   0.774   6.365  1.00  0.00    -0.049 SA
BRANCH   7  14
HETATM   14  N3  UNL     1      -5.981   2.778   5.149  1.00  0.00    -0.294 N 
HETATM   15  C5  UNL     1      -5.695   3.613   4.049  1.00  0.00     0.334 C 
HETATM   16  N4  UNL     1      -5.094   3.153   2.850  1.00  0.00    -0.040 NA
HETATM   17  O3  UNL     1      -5.996   4.837   4.142  1.00  0.00    -0.251 OA
ATOM     18  H3  UNL     1      -5.277   2.613   5.869  1.00  0.00     0.172 HD
ENDBRANCH   7  14
BRANCH  11  19
HETATM   19  C2  UNL     1     -11.301   0.689   4.701  1.00  0.00     0.316 C 
BRANCH  19  20
HETATM   20  O1  UNL     1     -11.623   0.966   3.394  1.00  0.00    -0.360 OA
HETATM   21  C1  UNL     1     -12.743   1.734   3.216  1.00  0.00     0.205 C 
ENDBRANCH  19  20
BRANCH  19  22
HETATM   22  O2  UNL     1     -11.408  -0.679   4.994  1.00  0.00    -0.365 OA
ATOM     23  H2  UNL     1     -12.311  -0.974   5.003  1.00  0.00     0.213 HD
ENDBRANCH  19  22
ENDBRANCH  11  19
ENDBRANCH   4   6
ENDBRANCH   1   4
BRANCH   1  24
HETATM   24  C16 UNL     1      -6.153  -0.073   9.253  1.00  0.00     0.010 A 
HETATM   25  C17 UNL     1      -7.267  -0.253  10.027  1.00  0.00     0.016 A 
HETATM   26  C18 UNL     1      -7.189  -0.406  11.410  1.00  0.00     0.019 A 
HETATM   27  C19 UNL     1      -5.959  -0.376  12.021  1.00  0.00     0.040 A 
HETATM   28  C21 UNL     1      -4.822  -0.195  11.249  1.00  0.00     0.019 A 
HETATM   29  C22 UNL     1      -4.926  -0.046   9.890  1.00  0.00     0.016 A 
BRANCH  27  30
HETATM   30  C20 UNL     1      -5.847  -0.532  13.477  1.00  0.00     0.209 C 
HETATM   31  O9  UNL     1      -4.726  -0.547  13.999  1.00  0.00    -0.644 OA
HETATM   32  O10 UNL     1      -7.009  -0.659  14.236  1.00  0.00    -0.644 OA
ENDBRANCH  27  30
ENDBRANCH   1  24
BRANCH   2  33
HETATM   33  O4  UNL     1      -5.433  -2.108   7.434  1.00  0.00    -0.264 OA
BRANCH  33  34
HETATM   34  C8  UNL     1      -4.382  -2.838   6.830  1.00  0.00     0.247 C 
HETATM   35  C9  UNL     1      -3.164  -1.954   6.748  1.00  0.00     0.053 C 
BRANCH  34  36
HETATM   36  C10 UNL     1      -4.772  -3.210   5.436  1.00  0.00     0.290 C 
HETATM   37  O5  UNL     1      -4.708  -4.426   5.074  1.00  0.00    -0.262 OA
BRANCH  36  38
HETATM   38  O6  UNL     1      -5.206  -2.314   4.489  1.00  0.00    -0.311 OA
BRANCH  38  39
HETATM   39  C11 UNL     1      -6.370  -2.542   3.730  1.00  0.00     0.164 C 
HETATM   40  C12 UNL     1      -7.631  -2.192   4.478  1.00  0.00     0.043 C 
BRANCH  39  41
HETATM   41  C13 UNL     1      -6.379  -1.789   2.437  1.00  0.00     0.229 C 
HETATM   42  F1  UNL     1      -5.138  -1.308   2.094  1.00  0.00    -0.244 F 
BRANCH  41  43
HETATM   43  C14 UNL     1      -7.359  -0.639   2.490  1.00  0.00     0.178 C 
BRANCH  43  44
HETATM   44  O7  UNL     1      -6.633   0.569   2.614  1.00  0.00    -0.390 OA
ATOM     45  H7  UNL     1      -7.232   1.298   2.500  1.00  0.00     0.210 HD
ENDBRANCH  43  44
BRANCH  43  46
HETATM   46  C15 UNL     1      -8.162  -0.540   1.195  1.00  0.00     0.198 C 
BRANCH  46  47
HETATM   47  O8  UNL     1      -9.367   0.130   1.495  1.00  0.00    -0.398 OA
ATOM     48  H8  UNL     1      -9.731  -0.273   2.274  1.00  0.00     0.209 HD
ENDBRANCH  46  47
ENDBRANCH  43  46
ENDBRANCH  41  43
ENDBRANCH  39  41
ENDBRANCH  38  39
ENDBRANCH  36  38
ENDBRANCH  34  36
ENDBRANCH  33  34
ENDBRANCH   2  33
TORSDOF 18
ENDMDL
