MODEL 1
REMARK VINA RESULT: -8.963397383      0.000      0.000
REMARK  20 active torsions:
REMARK  status: ('A' for Active; 'I' for Inactive)
REMARK    1  A    between atoms: C2_2  and  C3_4 
REMARK    2  A    between atoms: C4_5  and  O2_6 
REMARK    3  A    between atoms: C6_9  and  O3_10 
REMARK    4  A    between atoms: C7_12  and  N1_13 
REMARK       I    between atoms: N1_13  and  C8_15 
REMARK    5  A    between atoms: C8_15  and  C9_17 
REMARK    6  A    between atoms: C9_17  and  C10_18 
REMARK    7  A    between atoms: C10_18  and  O6_20 
REMARK    8  A    between atoms: O6_20  and  C11_21 
REMARK    9  A    between atoms: C11_21  and  C12_22 
REMARK   10  A    between atoms: C11_21  and  C23_43 
REMARK   11  A    between atoms: C12_22  and  O7_23 
REMARK   12  A    between atoms: O7_23  and  C13_24 
REMARK   13  A    between atoms: C13_24  and  C14_26 
REMARK   14  A    between atoms: N2_28  and  C16_29 
REMARK   15  A    between atoms: C16_29  and  C17_30 
REMARK   16  A    between atoms: C17_30  and  C18_31 
REMARK   17  A    between atoms: C18_31  and  C19_32 
REMARK   18  A    between atoms: C19_32  and  O9_35 
REMARK   19  A    between atoms: N4_40  and  O10_41 
REMARK   20  A    between atoms: C24_46  and  O13_47 
ROOT
HETATM    1  C11 UNL     1      -3.725  -4.332   7.117  1.00  0.00     0.256 C 
ENDROOT
BRANCH   1   2
HETATM    2  O6  UNL     1      -3.370  -5.571   7.711  1.00  0.00    -0.302 OA
BRANCH   2   3
HETATM    3  C10 UNL     1      -4.280  -6.454   8.263  1.00  0.00     0.268 C 
HETATM    4  O5  UNL     1      -5.476  -6.127   8.239  1.00  0.00    -0.265 OA
BRANCH   3   5
HETATM    5  C9  UNL     1      -3.813  -7.731   8.850  1.00  0.00     0.214 C 
BRANCH   5   6
HETATM    6  C8  UNL     1      -3.506  -7.628  10.287  1.00  0.00     0.231 C 
HETATM    7  N1  UNL     1      -3.631  -8.732  11.146  1.00  0.00    -0.322 N 
ATOM      8  H1  UNL     1      -3.942  -9.611  10.732  1.00  0.00     0.169 HD
HETATM    9  O4  UNL     1      -3.129  -6.528  10.749  1.00  0.00    -0.273 OA
BRANCH   7  10
HETATM   10  C7  UNL     1      -3.364  -8.733  12.534  1.00  0.00     0.102 A 
HETATM   11  C6  UNL     1      -4.198  -8.054  13.412  1.00  0.00     0.098 A 
HETATM   12  C5  UNL     1      -3.919  -8.077  14.760  1.00  0.00     0.076 A 
HETATM   13  C4  UNL     1      -2.828  -8.757  15.288  1.00  0.00     0.085 A 
HETATM   14  C3  UNL     1      -1.995  -9.433  14.426  1.00  0.00     0.078 A 
HETATM   15  C24 UNL     1      -2.292  -9.399  13.066  1.00  0.00     0.112 A 
BRANCH  11  16
HETATM   16  O3  UNL     1      -5.272  -7.386  12.886  1.00  0.00    -0.358 OA
ATOM     17  H3  UNL     1      -5.946  -7.815  12.372  1.00  0.00     0.217 HD
ENDBRANCH  11  16
BRANCH  13  18
HETATM   18  O2  UNL     1      -2.591  -8.749  16.656  1.00  0.00    -0.360 OA
ATOM     19  H2  UNL     1      -3.278  -8.970  17.274  1.00  0.00     0.217 HD
ENDBRANCH  13  18
BRANCH  14  20
HETATM   20  C2  UNL     1      -0.830 -10.175  14.866  1.00  0.00     0.161 C 
HETATM   21  C1  UNL     1       0.546  -9.670  14.670  1.00  0.00     0.097 C 
HETATM   22  O1  UNL     1      -1.008 -11.300  15.439  1.00  0.00    -0.293 OA
ENDBRANCH  14  20
BRANCH  15  23
HETATM   23  O13 UNL     1      -1.456 -10.080  12.174  1.00  0.00    -0.357 OA
ATOM     24  H13 UNL     1      -0.666  -9.652  11.868  1.00  0.00     0.217 HD
ENDBRANCH  15  23
ENDBRANCH   7  10
ENDBRANCH   5   6
ENDBRANCH   3   5
ENDBRANCH   2   3
ENDBRANCH   1   2
BRANCH   1  25
HETATM   25  C12 UNL     1      -2.643  -3.316   7.229  1.00  0.00     0.222 C 
BRANCH  25  26
HETATM   26  O7  UNL     1      -2.937  -2.155   6.511  1.00  0.00    -0.313 OA
BRANCH  26  27
HETATM   27  C13 UNL     1      -3.218  -0.911   7.019  1.00  0.00     0.315 C 
HETATM   28  O8  UNL     1      -2.639   0.085   6.517  1.00  0.00    -0.257 OA
BRANCH  27  29
HETATM   29  C14 UNL     1      -4.173  -0.721   8.123  1.00  0.00     0.171 A 
HETATM   30  C15 UNL     1      -3.794  -0.186   9.340  1.00  0.00     0.133 A 
HETATM   31  N2  UNL     1      -4.668  -0.016  10.342  1.00  0.00    -0.338 N 
HETATM   32  C22 UNL     1      -5.941  -0.377  10.152  1.00  0.00     0.203 A 
HETATM   33  N3  UNL     1      -6.349  -0.910   8.959  1.00  0.00    -0.269 N 
HETATM   34  N4  UNL     1      -5.457  -1.073   7.965  1.00  0.00    -0.155 N 
ATOM     35  H3  UNL     1      -7.322  -1.181   8.824  1.00  0.00     0.190 HD
BRANCH  31  36
HETATM   36  C16 UNL     1      -4.245   0.540  11.593  1.00  0.00     0.223 C 
BRANCH  36  37
HETATM   37  C17 UNL     1      -2.784   0.797  11.626  1.00  0.00    -0.083 C 
BRANCH  37  38
HETATM   38  C18 UNL     1      -1.593   0.989  11.661  1.00  0.00    -0.067 C 
BRANCH  38  39
HETATM   39  C19 UNL     1      -0.146   1.229  11.683  1.00  0.00     0.114 C 
HETATM   40  C20 UNL     1       0.469   1.031  10.299  1.00  0.00     0.060 C 
HETATM   41  C21 UNL     1       0.154   2.653  12.122  1.00  0.00     0.060 C 
BRANCH  39  42
HETATM   42  O9  UNL     1       0.399   0.302  12.564  1.00  0.00    -0.378 OA
ATOM     43  H9  UNL     1       0.957   0.787  13.161  1.00  0.00     0.211 HD
ENDBRANCH  39  42
ENDBRANCH  38  39
ENDBRANCH  37  38
ENDBRANCH  36  37
ENDBRANCH  31  36
BRANCH  34  44
HETATM   44  O10 UNL     1      -5.926  -1.620   6.773  1.00  0.00    -0.267 OA
ATOM     45  H10 UNL     1      -6.555  -1.164   6.227  1.00  0.00     0.247 HD
ENDBRANCH  34  44
ENDBRANCH  27  29
ENDBRANCH  26  27
ENDBRANCH  25  26
ENDBRANCH   1  25
BRANCH   1  46
HETATM   46  C23 UNL     1      -4.129  -4.605   5.724  1.00  0.00     0.206 C 
HETATM   47  O11 UNL     1      -5.174  -4.158   5.185  1.00  0.00    -0.646 OA
HETATM   48  O12 UNL     1      -3.315  -5.406   4.940  1.00  0.00    -0.646 OA
ENDBRANCH   1  46
TORSDOF 20
ENDMDL
MODEL 2
REMARK VINA RESULT: -8.865916394      2.182      4.419
REMARK  20 active torsions:
REMARK  status: ('A' for Active; 'I' for Inactive)
REMARK    1  A    between atoms: C2_2  and  C3_4 
REMARK    2  A    between atoms: C4_5  and  O2_6 
REMARK    3  A    between atoms: C6_9  and  O3_10 
REMARK    4  A    between atoms: C7_12  and  N1_13 
REMARK       I    between atoms: N1_13  and  C8_15 
REMARK    5  A    between atoms: C8_15  and  C9_17 
REMARK    6  A    between atoms: C9_17  and  C10_18 
REMARK    7  A    between atoms: C10_18  and  O6_20 
REMARK    8  A    between atoms: O6_20  and  C11_21 
REMARK    9  A    between atoms: C11_21  and  C12_22 
REMARK   10  A    between atoms: C11_21  and  C23_43 
REMARK   11  A    between atoms: C12_22  and  O7_23 
REMARK   12  A    between atoms: O7_23  and  C13_24 
REMARK   13  A    between atoms: C13_24  and  C14_26 
REMARK   14  A    between atoms: N2_28  and  C16_29 
REMARK   15  A    between atoms: C16_29  and  C17_30 
REMARK   16  A    between atoms: C17_30  and  C18_31 
REMARK   17  A    between atoms: C18_31  and  C19_32 
REMARK   18  A    between atoms: C19_32  and  O9_35 
REMARK   19  A    between atoms: N4_40  and  O10_41 
REMARK   20  A    between atoms: C24_46  and  O13_47 
ROOT
HETATM    1  C11 UNL     1      -3.686  -4.403   7.083  1.00  0.00     0.256 C 
ENDROOT
BRANCH   1   2
HETATM    2  O6  UNL     1      -3.360  -5.658   7.661  1.00  0.00    -0.302 OA
BRANCH   2   3
HETATM    3  C10 UNL     1      -4.282  -6.499   8.256  1.00  0.00     0.268 C 
HETATM    4  O5  UNL     1      -5.468  -6.135   8.256  1.00  0.00    -0.265 OA
BRANCH   3   5
HETATM    5  C9  UNL     1      -3.840  -7.776   8.861  1.00  0.00     0.214 C 
BRANCH   5   6
HETATM    6  C8  UNL     1      -3.543  -7.662  10.300  1.00  0.00     0.231 C 
HETATM    7  N1  UNL     1      -3.629  -8.770  11.158  1.00  0.00    -0.322 N 
ATOM      8  H1  UNL     1      -3.905  -9.660  10.743  1.00  0.00     0.169 HD
HETATM    9  O4  UNL     1      -3.209  -6.549  10.762  1.00  0.00    -0.273 OA
BRANCH   7  10
HETATM   10  C7  UNL     1      -3.367  -8.761  12.546  1.00  0.00     0.102 A 
HETATM   11  C6  UNL     1      -4.192  -8.058  13.414  1.00  0.00     0.098 A 
HETATM   12  C5  UNL     1      -3.918  -8.072  14.764  1.00  0.00     0.076 A 
HETATM   13  C4  UNL     1      -2.842  -8.766  15.303  1.00  0.00     0.085 A 
HETATM   14  C3  UNL     1      -2.018  -9.466  14.451  1.00  0.00     0.078 A 
HETATM   15  C24 UNL     1      -2.310  -9.441  13.090  1.00  0.00     0.112 A 
BRANCH  11  16
HETATM   16  O3  UNL     1      -5.251  -7.376  12.877  1.00  0.00    -0.358 OA
ATOM     17  H3  UNL     1      -5.830  -7.752  12.223  1.00  0.00     0.217 HD
ENDBRANCH  11  16
BRANCH  13  18
HETATM   18  O2  UNL     1      -2.610  -8.748  16.672  1.00  0.00    -0.360 OA
ATOM     19  H2  UNL     1      -3.139  -9.267  17.266  1.00  0.00     0.217 HD
ENDBRANCH  13  18
BRANCH  14  20
HETATM   20  C2  UNL     1      -0.869 -10.225  14.904  1.00  0.00     0.161 C 
HETATM   21  C1  UNL     1       0.518  -9.758  14.689  1.00  0.00     0.097 C 
HETATM   22  O1  UNL     1      -1.071 -11.331  15.506  1.00  0.00    -0.293 OA
ENDBRANCH  14  20
BRANCH  15  23
HETATM   23  O13 UNL     1      -1.483 -10.147  12.208  1.00  0.00    -0.357 OA
ATOM     24  H13 UNL     1      -0.855  -9.666  11.684  1.00  0.00     0.217 HD
ENDBRANCH  15  23
ENDBRANCH   7  10
ENDBRANCH   5   6
ENDBRANCH   3   5
ENDBRANCH   2   3
ENDBRANCH   1   2
BRANCH   1  25
HETATM   25  C12 UNL     1      -2.596  -3.402   7.245  1.00  0.00     0.222 C 
BRANCH  25  26
HETATM   26  O7  UNL     1      -2.921  -2.174   6.664  1.00  0.00    -0.313 OA
BRANCH  26  27
HETATM   27  C13 UNL     1      -3.073  -0.967   7.300  1.00  0.00     0.315 C 
HETATM   28  O8  UNL     1      -2.133  -0.135   7.236  1.00  0.00    -0.257 OA
BRANCH  27  29
HETATM   29  C14 UNL     1      -4.297  -0.630   8.045  1.00  0.00     0.171 A 
HETATM   30  C15 UNL     1      -5.468  -0.262   7.409  1.00  0.00     0.133 A 
HETATM   31  N2  UNL     1      -6.579   0.044   8.094  1.00  0.00    -0.338 N 
HETATM   32  C22 UNL     1      -6.546  -0.012   9.429  1.00  0.00     0.203 A 
HETATM   33  N3  UNL     1      -5.403  -0.372  10.089  1.00  0.00    -0.269 N 
HETATM   34  N4  UNL     1      -4.297  -0.675   9.385  1.00  0.00    -0.155 N 
ATOM     35  H3  UNL     1      -5.389  -0.411  11.108  1.00  0.00     0.190 HD
BRANCH  31  36
HETATM   36  C16 UNL     1      -7.778   0.423   7.407  1.00  0.00     0.223 C 
BRANCH  36  37
HETATM   37  C17 UNL     1      -7.825  -0.114   6.025  1.00  0.00    -0.083 C 
BRANCH  37  38
HETATM   38  C18 UNL     1      -7.845  -0.542   4.896  1.00  0.00    -0.067 C 
BRANCH  38  39
HETATM   39  C19 UNL     1      -7.849  -1.053   3.522  1.00  0.00     0.114 C 
HETATM   40  C20 UNL     1      -8.304   0.020   2.534  1.00  0.00     0.060 C 
HETATM   41  C21 UNL     1      -6.454  -1.497   3.111  1.00  0.00     0.060 C 
BRANCH  39  42
HETATM   42  O9  UNL     1      -8.747  -2.114   3.493  1.00  0.00    -0.378 OA
ATOM     43  H9  UNL     1      -9.340  -1.950   2.768  1.00  0.00     0.211 HD
ENDBRANCH  39  42
ENDBRANCH  38  39
ENDBRANCH  37  38
ENDBRANCH  36  37
ENDBRANCH  31  36
BRANCH  34  44
HETATM   44  O10 UNL     1      -3.162  -1.034  10.107  1.00  0.00    -0.267 OA
ATOM     45  H10 UNL     1      -2.852  -0.518  10.842  1.00  0.00     0.247 HD
ENDBRANCH  34  44
ENDBRANCH  27  29
ENDBRANCH  26  27
ENDBRANCH  25  26
ENDBRANCH   1  25
BRANCH   1  46
HETATM   46  C23 UNL     1      -4.057  -4.642   5.675  1.00  0.00     0.206 C 
HETATM   47  O11 UNL     1      -5.097  -4.195   5.127  1.00  0.00    -0.646 OA
HETATM   48  O12 UNL     1      -3.214  -5.407   4.886  1.00  0.00    -0.646 OA
ENDBRANCH   1  46
TORSDOF 20
ENDMDL
MODEL 3
REMARK VINA RESULT: -8.843107531      1.743      2.345
REMARK  20 active torsions:
REMARK  status: ('A' for Active; 'I' for Inactive)
REMARK    1  A    between atoms: C2_2  and  C3_4 
REMARK    2  A    between atoms: C4_5  and  O2_6 
REMARK    3  A    between atoms: C6_9  and  O3_10 
REMARK    4  A    between atoms: C7_12  and  N1_13 
REMARK       I    between atoms: N1_13  and  C8_15 
REMARK    5  A    between atoms: C8_15  and  C9_17 
REMARK    6  A    between atoms: C9_17  and  C10_18 
REMARK    7  A    between atoms: C10_18  and  O6_20 
REMARK    8  A    between atoms: O6_20  and  C11_21 
REMARK    9  A    between atoms: C11_21  and  C12_22 
REMARK   10  A    between atoms: C11_21  and  C23_43 
REMARK   11  A    between atoms: C12_22  and  O7_23 
REMARK   12  A    between atoms: O7_23  and  C13_24 
REMARK   13  A    between atoms: C13_24  and  C14_26 
REMARK   14  A    between atoms: N2_28  and  C16_29 
REMARK   15  A    between atoms: C16_29  and  C17_30 
REMARK   16  A    between atoms: C17_30  and  C18_31 
REMARK   17  A    between atoms: C18_31  and  C19_32 
REMARK   18  A    between atoms: C19_32  and  O9_35 
REMARK   19  A    between atoms: N4_40  and  O10_41 
REMARK   20  A    between atoms: C24_46  and  O13_47 
ROOT
HETATM    1  C11 UNL     1      -3.938  -4.441   7.081  1.00  0.00     0.256 C 
ENDROOT
BRANCH   1   2
HETATM    2  O6  UNL     1      -3.508  -5.674   7.638  1.00  0.00    -0.302 OA
BRANCH   2   3
HETATM    3  C10 UNL     1      -4.341  -6.554   8.303  1.00  0.00     0.268 C 
HETATM    4  O5  UNL     1      -5.540  -6.250   8.386  1.00  0.00    -0.265 OA
BRANCH   3   5
HETATM    5  C9  UNL     1      -3.792  -7.802   8.881  1.00  0.00     0.214 C 
BRANCH   5   6
HETATM    6  C8  UNL     1      -3.494  -7.689  10.320  1.00  0.00     0.231 C 
HETATM    7  N1  UNL     1      -3.618  -8.789  11.185  1.00  0.00    -0.322 N 
ATOM      8  H1  UNL     1      -3.924  -9.671  10.774  1.00  0.00     0.169 HD
HETATM    9  O4  UNL     1      -3.123  -6.586  10.777  1.00  0.00    -0.273 OA
BRANCH   7  10
HETATM   10  C7  UNL     1      -3.358  -8.781  12.573  1.00  0.00     0.102 A 
HETATM   11  C6  UNL     1      -4.187  -8.082  13.441  1.00  0.00     0.098 A 
HETATM   12  C5  UNL     1      -3.915  -8.096  14.791  1.00  0.00     0.076 A 
HETATM   13  C4  UNL     1      -2.837  -8.787  15.331  1.00  0.00     0.085 A 
HETATM   14  C3  UNL     1      -2.010  -9.483  14.479  1.00  0.00     0.078 A 
HETATM   15  C24 UNL     1      -2.299  -9.458  13.117  1.00  0.00     0.112 A 
BRANCH  11  16
HETATM   16  O3  UNL     1      -5.247  -7.402  12.903  1.00  0.00    -0.358 OA
ATOM     17  H3  UNL     1      -6.013  -7.156  13.409  1.00  0.00     0.217 HD
ENDBRANCH  11  16
BRANCH  13  18
HETATM   18  O2  UNL     1      -2.607  -8.770  16.700  1.00  0.00    -0.360 OA
ATOM     19  H2  UNL     1      -3.144  -9.280  17.294  1.00  0.00     0.217 HD
ENDBRANCH  13  18
BRANCH  14  20
HETATM   20  C2  UNL     1      -0.858 -10.239  14.932  1.00  0.00     0.161 C 
HETATM   21  C1  UNL     1       0.527  -9.771  14.713  1.00  0.00     0.097 C 
HETATM   22  O1  UNL     1      -1.058 -11.343  15.540  1.00  0.00    -0.293 OA
ENDBRANCH  14  20
BRANCH  15  23
HETATM   23  O13 UNL     1      -1.469 -10.160  12.236  1.00  0.00    -0.357 OA
ATOM     24  H13 UNL     1      -1.203  -9.742  11.426  1.00  0.00     0.217 HD
ENDBRANCH  15  23
ENDBRANCH   7  10
ENDBRANCH   5   6
ENDBRANCH   3   5
ENDBRANCH   2   3
ENDBRANCH   1   2
BRANCH   1  25
HETATM   25  C12 UNL     1      -2.988  -3.328   7.363  1.00  0.00     0.222 C 
BRANCH  25  26
HETATM   26  O7  UNL     1      -2.943  -2.401   6.319  1.00  0.00    -0.313 OA
BRANCH  26  27
HETATM   27  C13 UNL     1      -3.467  -1.132   6.310  1.00  0.00     0.315 C 
HETATM   28  O8  UNL     1      -2.681  -0.161   6.184  1.00  0.00    -0.257 OA
BRANCH  27  29
HETATM   29  C14 UNL     1      -4.913  -0.889   6.443  1.00  0.00     0.171 A 
HETATM   30  C15 UNL     1      -5.495  -0.545   7.649  1.00  0.00     0.133 A 
HETATM   31  N2  UNL     1      -6.813  -0.325   7.762  1.00  0.00    -0.338 N 
HETATM   32  C22 UNL     1      -7.579  -0.442   6.674  1.00  0.00     0.203 A 
HETATM   33  N3  UNL     1      -7.035  -0.781   5.465  1.00  0.00    -0.269 N 
HETATM   34  N4  UNL     1      -5.710  -0.998   5.370  1.00  0.00    -0.155 N 
ATOM     35  H3  UNL     1      -7.629  -0.867   4.641  1.00  0.00     0.190 HD
BRANCH  31  36
HETATM   36  C16 UNL     1      -7.387   0.028   9.027  1.00  0.00     0.223 C 
BRANCH  36  37
HETATM   37  C17 UNL     1      -6.382   0.022  10.119  1.00  0.00    -0.083 C 
BRANCH  37  38
HETATM   38  C18 UNL     1      -5.569  -0.002  11.011  1.00  0.00    -0.067 C 
BRANCH  38  39
HETATM   39  C19 UNL     1      -4.565  -0.027  12.079  1.00  0.00     0.114 C 
HETATM   40  C20 UNL     1      -5.125  -0.666  13.350  1.00  0.00     0.060 C 
HETATM   41  C21 UNL     1      -3.350  -0.835  11.654  1.00  0.00     0.060 C 
BRANCH  39  42
HETATM   42  O9  UNL     1      -4.228   1.296  12.342  1.00  0.00    -0.378 OA
ATOM     43  H9  UNL     1      -3.685   1.588  11.618  1.00  0.00     0.211 HD
ENDBRANCH  39  42
ENDBRANCH  38  39
ENDBRANCH  37  38
ENDBRANCH  36  37
ENDBRANCH  31  36
BRANCH  34  44
HETATM   44  O10 UNL     1      -5.210  -1.340   4.116  1.00  0.00    -0.267 OA
ATOM     45  H10 UNL     1      -5.756  -1.330   3.340  1.00  0.00     0.247 HD
ENDBRANCH  34  44
ENDBRANCH  27  29
ENDBRANCH  26  27
ENDBRANCH  25  26
ENDBRANCH   1  25
BRANCH   1  46
HETATM   46  C23 UNL     1      -4.173  -4.659   5.641  1.00  0.00     0.206 C 
HETATM   47  O11 UNL     1      -5.177  -4.238   5.012  1.00  0.00    -0.646 OA
HETATM   48  O12 UNL     1      -3.234  -5.373   4.914  1.00  0.00    -0.646 OA
ENDBRANCH   1  46
TORSDOF 20
ENDMDL
MODEL 4
REMARK VINA RESULT: -8.555074323      5.379      8.756
REMARK  20 active torsions:
REMARK  status: ('A' for Active; 'I' for Inactive)
REMARK    1  A    between atoms: C2_2  and  C3_4 
REMARK    2  A    between atoms: C4_5  and  O2_6 
REMARK    3  A    between atoms: C6_9  and  O3_10 
REMARK    4  A    between atoms: C7_12  and  N1_13 
REMARK       I    between atoms: N1_13  and  C8_15 
REMARK    5  A    between atoms: C8_15  and  C9_17 
REMARK    6  A    between atoms: C9_17  and  C10_18 
REMARK    7  A    between atoms: C10_18  and  O6_20 
REMARK    8  A    between atoms: O6_20  and  C11_21 
REMARK    9  A    between atoms: C11_21  and  C12_22 
REMARK   10  A    between atoms: C11_21  and  C23_43 
REMARK   11  A    between atoms: C12_22  and  O7_23 
REMARK   12  A    between atoms: O7_23  and  C13_24 
REMARK   13  A    between atoms: C13_24  and  C14_26 
REMARK   14  A    between atoms: N2_28  and  C16_29 
REMARK   15  A    between atoms: C16_29  and  C17_30 
REMARK   16  A    between atoms: C17_30  and  C18_31 
REMARK   17  A    between atoms: C18_31  and  C19_32 
REMARK   18  A    between atoms: C19_32  and  O9_35 
REMARK   19  A    between atoms: N4_40  and  O10_41 
REMARK   20  A    between atoms: C24_46  and  O13_47 
ROOT
HETATM    1  C11 UNL     1      -6.642  -3.085   4.323  1.00  0.00     0.256 C 
ENDROOT
BRANCH   1   2
HETATM    2  O6  UNL     1      -5.339  -3.223   4.867  1.00  0.00    -0.302 OA
BRANCH   2   3
HETATM    3  C10 UNL     1      -4.870  -4.374   5.474  1.00  0.00     0.268 C 
HETATM    4  O5  UNL     1      -5.601  -5.375   5.433  1.00  0.00    -0.265 OA
BRANCH   3   5
HETATM    5  C9  UNL     1      -3.546  -4.378   6.136  1.00  0.00     0.214 C 
BRANCH   5   6
HETATM    6  C8  UNL     1      -3.500  -3.531   7.341  1.00  0.00     0.231 C 
HETATM    7  N1  UNL     1      -3.720  -2.146   7.274  1.00  0.00    -0.322 N 
ATOM      8  H1  UNL     1      -3.914  -1.749   6.354  1.00  0.00     0.169 HD
HETATM    9  O4  UNL     1      -3.258  -4.064   8.446  1.00  0.00    -0.273 OA
BRANCH   7  10
HETATM   10  C7  UNL     1      -3.696  -1.253   8.368  1.00  0.00     0.102 A 
HETATM   11  C6  UNL     1      -2.550  -0.524   8.658  1.00  0.00     0.098 A 
HETATM   12  C5  UNL     1      -2.556   0.345   9.725  1.00  0.00     0.076 A 
HETATM   13  C4  UNL     1      -3.669   0.529  10.536  1.00  0.00     0.085 A 
HETATM   14  C3  UNL     1      -4.810  -0.189  10.258  1.00  0.00     0.078 A 
HETATM   15  C24 UNL     1      -4.787  -1.063   9.175  1.00  0.00     0.112 A 
BRANCH  11  16
HETATM   16  O3  UNL     1      -1.456  -0.709   7.855  1.00  0.00    -0.358 OA
ATOM     17  H3  UNL     1      -1.301  -0.201   7.067  1.00  0.00     0.217 HD
ENDBRANCH  11  16
BRANCH  13  18
HETATM   18  O2  UNL     1      -3.623   1.419  11.601  1.00  0.00    -0.360 OA
ATOM     19  H2  UNL     1      -3.829   2.338  11.482  1.00  0.00     0.217 HD
ENDBRANCH  13  18
BRANCH  14  20
HETATM   20  C2  UNL     1      -6.029  -0.076  11.036  1.00  0.00     0.161 C 
HETATM   21  C1  UNL     1      -6.039  -0.211  12.508  1.00  0.00     0.097 C 
HETATM   22  O1  UNL     1      -7.123   0.148  10.420  1.00  0.00    -0.293 OA
ENDBRANCH  14  20
BRANCH  15  23
HETATM   23  O13 UNL     1      -5.937  -1.802   8.876  1.00  0.00    -0.357 OA
ATOM     24  H13 UNL     1      -6.771  -1.350   8.821  1.00  0.00     0.217 HD
ENDBRANCH  15  23
ENDBRANCH   7  10
ENDBRANCH   5   6
ENDBRANCH   3   5
ENDBRANCH   2   3
ENDBRANCH   1   2
BRANCH   1  25
HETATM   25  C12 UNL     1      -7.438  -2.032   5.012  1.00  0.00     0.222 C 
BRANCH  25  26
HETATM   26  O7  UNL     1      -6.680  -1.336   5.956  1.00  0.00    -0.313 OA
BRANCH  26  27
HETATM   27  C13 UNL     1      -6.339  -0.006   5.931  1.00  0.00     0.315 C 
HETATM   28  O8  UNL     1      -6.431   0.655   6.995  1.00  0.00    -0.257 OA
BRANCH  27  29
HETATM   29  C14 UNL     1      -5.872   0.654   4.700  1.00  0.00     0.171 A 
HETATM   30  C15 UNL     1      -6.576   1.683   4.104  1.00  0.00     0.133 A 
HETATM   31  N2  UNL     1      -6.146   2.279   2.983  1.00  0.00    -0.338 N 
HETATM   32  C22 UNL     1      -5.003   1.861   2.432  1.00  0.00     0.203 A 
HETATM   33  N3  UNL     1      -4.282   0.844   2.997  1.00  0.00    -0.269 N 
HETATM   34  N4  UNL     1      -4.730   0.258   4.122  1.00  0.00    -0.155 N 
ATOM     35  H3  UNL     1      -3.411   0.533   2.568  1.00  0.00     0.190 HD
BRANCH  31  36
HETATM   36  C16 UNL     1      -6.898   3.343   2.388  1.00  0.00     0.223 C 
BRANCH  36  37
HETATM   37  C17 UNL     1      -8.361   3.149   2.543  1.00  0.00    -0.083 C 
BRANCH  37  38
HETATM   38  C18 UNL     1      -9.555   3.007   2.657  1.00  0.00    -0.067 C 
BRANCH  38  39
HETATM   39  C19 UNL     1     -11.007   2.851   2.781  1.00  0.00     0.114 C 
HETATM   40  C20 UNL     1     -11.607   2.235   1.517  1.00  0.00     0.060 C 
HETATM   41  C21 UNL     1     -11.350   1.937   3.947  1.00  0.00     0.060 C 
BRANCH  39  42
HETATM   42  O9  UNL     1     -11.533   4.125   2.964  1.00  0.00    -0.378 OA
ATOM     43  H9  UNL     1     -12.424   4.012   3.273  1.00  0.00     0.211 HD
ENDBRANCH  39  42
ENDBRANCH  38  39
ENDBRANCH  37  38
ENDBRANCH  36  37
ENDBRANCH  31  36
BRANCH  34  44
HETATM   44  O10 UNL     1      -3.957  -0.773   4.653  1.00  0.00    -0.267 OA
ATOM     45  H10 UNL     1      -3.009  -0.764   4.602  1.00  0.00     0.247 HD
ENDBRANCH  34  44
ENDBRANCH  27  29
ENDBRANCH  26  27
ENDBRANCH  25  26
ENDBRANCH   1  25
BRANCH   1  46
HETATM   46  C23 UNL     1      -6.498  -2.855   2.873  1.00  0.00     0.206 C 
HETATM   47  O11 UNL     1      -5.726  -2.004   2.360  1.00  0.00    -0.646 OA
HETATM   48  O12 UNL     1      -7.255  -3.618   1.999  1.00  0.00    -0.646 OA
ENDBRANCH   1  46
TORSDOF 20
ENDMDL
MODEL 5
REMARK VINA RESULT: -8.350882662      6.223     10.053
REMARK  20 active torsions:
REMARK  status: ('A' for Active; 'I' for Inactive)
REMARK    1  A    between atoms: C2_2  and  C3_4 
REMARK    2  A    between atoms: C4_5  and  O2_6 
REMARK    3  A    between atoms: C6_9  and  O3_10 
REMARK    4  A    between atoms: C7_12  and  N1_13 
REMARK       I    between atoms: N1_13  and  C8_15 
REMARK    5  A    between atoms: C8_15  and  C9_17 
REMARK    6  A    between atoms: C9_17  and  C10_18 
REMARK    7  A    between atoms: C10_18  and  O6_20 
REMARK    8  A    between atoms: O6_20  and  C11_21 
REMARK    9  A    between atoms: C11_21  and  C12_22 
REMARK   10  A    between atoms: C11_21  and  C23_43 
REMARK   11  A    between atoms: C12_22  and  O7_23 
REMARK   12  A    between atoms: O7_23  and  C13_24 
REMARK   13  A    between atoms: C13_24  and  C14_26 
REMARK   14  A    between atoms: N2_28  and  C16_29 
REMARK   15  A    between atoms: C16_29  and  C17_30 
REMARK   16  A    between atoms: C17_30  and  C18_31 
REMARK   17  A    between atoms: C18_31  and  C19_32 
REMARK   18  A    between atoms: C19_32  and  O9_35 
REMARK   19  A    between atoms: N4_40  and  O10_41 
REMARK   20  A    between atoms: C24_46  and  O13_47 
ROOT
HETATM    1  C11 UNL     1      -6.155  -1.600   4.732  1.00  0.00     0.256 C 
ENDROOT
BRANCH   1   2
HETATM    2  O6  UNL     1      -5.239  -0.982   3.841  1.00  0.00    -0.302 OA
BRANCH   2   3
HETATM    3  C10 UNL     1      -4.546   0.180   4.127  1.00  0.00     0.268 C 
HETATM    4  O5  UNL     1      -4.898   1.212   3.537  1.00  0.00    -0.265 OA
BRANCH   3   5
HETATM    5  C9  UNL     1      -3.434   0.160   5.105  1.00  0.00     0.214 C 
BRANCH   5   6
HETATM    6  C8  UNL     1      -3.873   0.434   6.484  1.00  0.00     0.231 C 
HETATM    7  N1  UNL     1      -4.049  -0.599   7.419  1.00  0.00    -0.322 N 
ATOM      8  H1  UNL     1      -3.859  -1.550   7.102  1.00  0.00     0.169 HD
HETATM    9  O4  UNL     1      -4.094   1.617   6.826  1.00  0.00    -0.273 OA
BRANCH   7  10
HETATM   10  C7  UNL     1      -4.467  -0.439   8.759  1.00  0.00     0.102 A 
HETATM   11  C6  UNL     1      -3.532  -0.362   9.783  1.00  0.00     0.098 A 
HETATM   12  C5  UNL     1      -3.966  -0.198  11.080  1.00  0.00     0.076 A 
HETATM   13  C4  UNL     1      -5.312  -0.104  11.414  1.00  0.00     0.085 A 
HETATM   14  C3  UNL     1      -6.246  -0.179  10.405  1.00  0.00     0.078 A 
HETATM   15  C24 UNL     1      -5.790  -0.345   9.100  1.00  0.00     0.112 A 
BRANCH  11  16
HETATM   16  O3  UNL     1      -2.208  -0.455   9.448  1.00  0.00    -0.358 OA
ATOM     17  H3  UNL     1      -1.908  -0.559   8.553  1.00  0.00     0.217 HD
ENDBRANCH  11  16
BRANCH  13  18
HETATM   18  O2  UNL     1      -5.697   0.061  12.737  1.00  0.00    -0.360 OA
ATOM     19  H2  UNL     1      -5.780   0.927  13.119  1.00  0.00     0.217 HD
ENDBRANCH  13  18
BRANCH  14  20
HETATM   20  C2  UNL     1      -7.674  -0.092  10.638  1.00  0.00     0.161 C 
HETATM   21  C1  UNL     1      -8.362  -0.936  11.639  1.00  0.00     0.097 C 
HETATM   22  O1  UNL     1      -8.351   0.743   9.952  1.00  0.00    -0.293 OA
ENDBRANCH  14  20
BRANCH  15  23
HETATM   23  O13 UNL     1      -6.724  -0.424   8.062  1.00  0.00    -0.357 OA
ATOM     24  H13 UNL     1      -7.498  -0.961   8.180  1.00  0.00     0.217 HD
ENDBRANCH  15  23
ENDBRANCH   7  10
ENDBRANCH   5   6
ENDBRANCH   3   5
ENDBRANCH   2   3
ENDBRANCH   1   2
BRANCH   1  25
HETATM   25  C12 UNL     1      -7.546  -1.612   4.199  1.00  0.00     0.222 C 
BRANCH  25  26
HETATM   26  O7  UNL     1      -8.474  -1.185   5.151  1.00  0.00    -0.313 OA
BRANCH  26  27
HETATM   27  C13 UNL     1      -8.730   0.105   5.545  1.00  0.00     0.315 C 
HETATM   28  O8  UNL     1      -9.263   0.294   6.667  1.00  0.00    -0.257 OA
BRANCH  27  29
HETATM   29  C14 UNL     1      -8.396   1.257   4.692  1.00  0.00     0.171 A 
HETATM   30  C15 UNL     1      -8.951   1.430   3.437  1.00  0.00     0.133 A 
HETATM   31  N2  UNL     1      -8.642   2.482   2.665  1.00  0.00    -0.338 N 
HETATM   32  C22 UNL     1      -7.773   3.385   3.128  1.00  0.00     0.203 A 
HETATM   33  N3  UNL     1      -7.206   3.243   4.366  1.00  0.00    -0.269 N 
HETATM   34  N4  UNL     1      -7.527   2.181   5.126  1.00  0.00    -0.155 N 
ATOM     35  H3  UNL     1      -6.544   3.939   4.709  1.00  0.00     0.190 HD
BRANCH  31  36
HETATM   36  C16 UNL     1      -9.233   2.633   1.369  1.00  0.00     0.223 C 
BRANCH  36  37
HETATM   37  C17 UNL     1     -10.671   2.266   1.362  1.00  0.00    -0.083 C 
BRANCH  37  38
HETATM   38  C18 UNL     1     -11.838   1.958   1.374  1.00  0.00    -0.067 C 
BRANCH  38  39
HETATM   39  C19 UNL     1     -13.250   1.564   1.398  1.00  0.00     0.114 C 
HETATM   40  C20 UNL     1     -13.771   1.460   2.831  1.00  0.00     0.060 C 
HETATM   41  C21 UNL     1     -14.105   2.589   0.670  1.00  0.00     0.060 C 
BRANCH  39  42
HETATM   42  O9  UNL     1     -13.327   0.316   0.790  1.00  0.00    -0.378 OA
ATOM     43  H9  UNL     1     -13.813  -0.247   1.382  1.00  0.00     0.211 HD
ENDBRANCH  39  42
ENDBRANCH  38  39
ENDBRANCH  37  38
ENDBRANCH  36  37
ENDBRANCH  31  36
BRANCH  34  44
HETATM   44  O10 UNL     1      -6.920   2.086   6.376  1.00  0.00    -0.267 OA
ATOM     45  H10 UNL     1      -6.491   2.831   6.782  1.00  0.00     0.247 HD
ENDBRANCH  34  44
ENDBRANCH  27  29
ENDBRANCH  26  27
ENDBRANCH  25  26
ENDBRANCH   1  25
BRANCH   1  46
HETATM   46  C23 UNL     1      -5.636  -2.946   5.042  1.00  0.00     0.206 C 
HETATM   47  O11 UNL     1      -4.636  -3.173   5.770  1.00  0.00    -0.646 OA
HETATM   48  O12 UNL     1      -6.281  -4.048   4.506  1.00  0.00    -0.646 OA
ENDBRANCH   1  46
TORSDOF 20
ENDMDL
