MODEL 1
REMARK VINA RESULT: -6.787873870      0.000      0.000
REMARK  15 active torsions:
REMARK  status: ('A' for Active; 'I' for Inactive)
REMARK    1  A    between atoms: O1_2  and  N1_3 
REMARK       I    between atoms: N1_3  and  C2_5 
REMARK    2  A    between atoms: C2_5  and  C3_7 
REMARK    3  A    between atoms: C4_8  and  N2_9 
REMARK    4  A    between atoms: N2_9  and  C5_11 
REMARK    5  A    between atoms: C5_11  and  C6_12 
REMARK    6  A    between atoms: C6_12  and  N3_13 
REMARK    7  A    between atoms: C6_12  and  C12_22 
REMARK       I    between atoms: N3_13  and  C7_15 
REMARK    8  A    between atoms: C7_15  and  O4_17 
REMARK    9  A    between atoms: O4_17  and  C8_18 
REMARK   10  A    between atoms: C12_22  and  O6_24 
REMARK   11  A    between atoms: C17_35  and  C18_36 
REMARK   12  A    between atoms: C18_36  and  O7_37 
REMARK   13  A    between atoms: C18_36  and  N7_39 
REMARK       I    between atoms: N7_39  and  C19_41 
REMARK   14  A    between atoms: C19_41  and  C20_43 
REMARK   15  A    between atoms: C20_43  and  O9_46 
ROOT
HETATM    1  C3  UNL     1      -3.767   0.026  10.544  1.00  0.00     0.124 A 
HETATM    2  C4  UNL     1      -3.798  -0.585   9.309  1.00  0.00     0.136 A 
HETATM    3  N4  UNL     1      -2.782   0.002   8.601  1.00  0.00    -0.280 N 
ATOM      4  H4  UNL     1      -2.538  -0.232   7.639  1.00  0.00     0.189 HD
HETATM    5  N5  UNL     1      -2.161   0.915   9.335  1.00  0.00    -0.263 N 
HETATM    6  C14 UNL     1      -2.741   0.958  10.549  1.00  0.00     0.142 A 
HETATM    7  N6  UNL     1      -2.230   1.805  11.558  1.00  0.00    -0.352 N 
ATOM      8  H6  UNL     1      -2.684   1.836  12.470  1.00  0.00     0.166 HD
HETATM    9  C15 UNL     1      -1.207   2.527  11.336  1.00  0.00     0.085 C 
HETATM   10  C16 UNL     1      -0.490   2.540  10.065  1.00  0.00     0.149 C 
HETATM   11 CL1  UNL     1       1.092   1.704  10.438  1.00  0.00    -0.117 Cl
HETATM   12  C17 UNL     1      -1.084   1.808   8.957  1.00  0.00     0.182 C 
ENDROOT
BRANCH   2  13
HETATM   13  N2  UNL     1      -4.655  -1.602   8.808  1.00  0.00    -0.372 N 
ATOM     14  H2  UNL     1      -5.664  -1.459   8.757  1.00  0.00     0.161 HD
BRANCH  13  15
HETATM   15  C5  UNL     1      -4.062  -2.840   8.375  1.00  0.00     0.156 C 
BRANCH  15  16
HETATM   16  C6  UNL     1      -3.595  -2.837   6.939  1.00  0.00     0.204 C 
BRANCH  16  17
HETATM   17  N3  UNL     1      -4.652  -2.161   6.157  1.00  0.00    -0.321 N 
HETATM   18  C7  UNL     1      -4.408  -0.887   5.585  1.00  0.00     0.362 C 
HETATM   19  O3  UNL     1      -3.324  -0.276   5.701  1.00  0.00    -0.238 OA
ATOM     20  H3  UNL     1      -5.558  -2.612   6.029  1.00  0.00     0.165 HD
BRANCH  18  21
HETATM   21  O4  UNL     1      -5.416  -0.285   4.863  1.00  0.00    -0.294 OA
BRANCH  21  22
HETATM   22  C8  UNL     1      -6.519   0.364   5.429  1.00  0.00     0.061 C 
HETATM   23  C9  UNL     1      -7.723  -0.550   5.546  1.00  0.00     0.046 C 
HETATM   24  C10 UNL     1      -6.912   1.513   4.524  1.00  0.00     0.046 C 
HETATM   25  C11 UNL     1      -6.260   0.926   6.802  1.00  0.00     0.046 C 
ENDBRANCH  21  22
ENDBRANCH  18  21
ENDBRANCH  16  17
BRANCH  16  26
HETATM   26  C12 UNL     1      -3.521  -4.235   6.474  1.00  0.00     0.283 C 
HETATM   27  O5  UNL     1      -2.516  -4.628   5.850  1.00  0.00    -0.263 OA
BRANCH  26  28
HETATM   28  O6  UNL     1      -4.548  -5.109   6.721  1.00  0.00    -0.325 OA
HETATM   29  C13 UNL     1      -4.300  -6.245   7.527  1.00  0.00     0.213 C 
ENDBRANCH  26  28
ENDBRANCH  16  26
ENDBRANCH  15  16
ENDBRANCH  13  15
ENDBRANCH   2  13
BRANCH   1  30
HETATM   30  C2  UNL     1      -4.683  -0.274  11.657  1.00  0.00     0.282 C 
HETATM   31  N1  UNL     1      -6.086  -0.261  11.569  1.00  0.00    -0.231 N 
ATOM     32  H1  UNL     1      -6.538  -0.031  10.685  1.00  0.00     0.197 HD
HETATM   33  O2  UNL     1      -4.209  -0.574  12.807  1.00  0.00    -0.265 OA
BRANCH  31  34
HETATM   34  O1  UNL     1      -6.832  -0.552  12.651  1.00  0.00    -0.282 OA
HETATM   35  C1  UNL     1      -8.130  -0.785  12.195  1.00  0.00     0.237 C 
ENDBRANCH  31  34
ENDBRANCH   1  30
BRANCH  12  36
HETATM   36  C18 UNL     1      -0.108   1.097   8.027  1.00  0.00     0.247 C 
BRANCH  36  37
HETATM   37  O7  UNL     1      -0.286  -0.285   8.360  1.00  0.00    -0.374 OA
ATOM     38  H7  UNL     1      -1.115  -0.293   8.823  1.00  0.00     0.212 HD
ENDBRANCH  36  37
BRANCH  36  39
HETATM   39  N7  UNL     1      -0.487   1.208   6.657  1.00  0.00    -0.330 N 
HETATM   40  C19 UNL     1      -0.187   2.274   5.779  1.00  0.00     0.253 C 
HETATM   41  O8  UNL     1       0.482   3.247   6.194  1.00  0.00    -0.270 OA
ATOM     42  H7  UNL     1      -1.031   0.437   6.269  1.00  0.00     0.165 HD
BRANCH  40  43
HETATM   43  C20 UNL     1      -0.644   2.274   4.376  1.00  0.00     0.131 C 
HETATM   44  C21 UNL     1       0.420   1.712   3.458  1.00  0.00     0.056 C 
HETATM   45  C22 UNL     1      -0.907   3.739   4.011  1.00  0.00     0.056 C 
BRANCH  43  46
HETATM   46  O9  UNL     1      -1.815   1.583   4.185  1.00  0.00    -0.381 OA
ATOM     47  H9  UNL     1      -1.709   0.641   4.244  1.00  0.00     0.211 HD
ENDBRANCH  43  46
ENDBRANCH  40  43
ENDBRANCH  36  39
ENDBRANCH  12  36
TORSDOF 15
ENDMDL
MODEL 2
REMARK VINA RESULT: -6.760957222      1.174      1.368
REMARK  15 active torsions:
REMARK  status: ('A' for Active; 'I' for Inactive)
REMARK    1  A    between atoms: O1_2  and  N1_3 
REMARK       I    between atoms: N1_3  and  C2_5 
REMARK    2  A    between atoms: C2_5  and  C3_7 
REMARK    3  A    between atoms: C4_8  and  N2_9 
REMARK    4  A    between atoms: N2_9  and  C5_11 
REMARK    5  A    between atoms: C5_11  and  C6_12 
REMARK    6  A    between atoms: C6_12  and  N3_13 
REMARK    7  A    between atoms: C6_12  and  C12_22 
REMARK       I    between atoms: N3_13  and  C7_15 
REMARK    8  A    between atoms: C7_15  and  O4_17 
REMARK    9  A    between atoms: O4_17  and  C8_18 
REMARK   10  A    between atoms: C12_22  and  O6_24 
REMARK   11  A    between atoms: C17_35  and  C18_36 
REMARK   12  A    between atoms: C18_36  and  O7_37 
REMARK   13  A    between atoms: C18_36  and  N7_39 
REMARK       I    between atoms: N7_39  and  C19_41 
REMARK   14  A    between atoms: C19_41  and  C20_43 
REMARK   15  A    between atoms: C20_43  and  O9_46 
ROOT
HETATM    1  C3  UNL     1      -3.688   0.344  10.268  1.00  0.00     0.124 A 
HETATM    2  C4  UNL     1      -3.852  -0.389   9.113  1.00  0.00     0.136 A 
HETATM    3  N4  UNL     1      -3.201   0.328   8.145  1.00  0.00    -0.280 N 
ATOM      4  H4  UNL     1      -3.136   0.051   7.165  1.00  0.00     0.189 HD
HETATM    5  N5  UNL     1      -2.668   1.431   8.652  1.00  0.00    -0.263 N 
HETATM    6  C14 UNL     1      -2.946   1.477   9.968  1.00  0.00     0.142 A 
HETATM    7  N6  UNL     1      -2.437   2.521  10.772  1.00  0.00    -0.352 N 
ATOM      8  H6  UNL     1      -2.662   2.550  11.766  1.00  0.00     0.166 HD
HETATM    9  C15 UNL     1      -1.701   3.424  10.265  1.00  0.00     0.085 C 
HETATM   10  C16 UNL     1      -1.321   3.458   8.856  1.00  0.00     0.149 C 
HETATM   11 CL1  UNL     1       0.460   3.041   8.865  1.00  0.00    -0.117 Cl
HETATM   12  C17 UNL     1      -1.958   2.495   7.971  1.00  0.00     0.182 C 
ENDROOT
BRANCH   2  13
HETATM   13  N2  UNL     1      -4.528  -1.621   8.895  1.00  0.00    -0.372 N 
ATOM     14  H2  UNL     1      -5.522  -1.717   9.105  1.00  0.00     0.161 HD
BRANCH  13  15
HETATM   15  C5  UNL     1      -3.773  -2.728   8.371  1.00  0.00     0.156 C 
BRANCH  15  16
HETATM   16  C6  UNL     1      -3.684  -2.762   6.863  1.00  0.00     0.204 C 
BRANCH  16  17
HETATM   17  N3  UNL     1      -5.011  -2.351   6.356  1.00  0.00    -0.321 N 
HETATM   18  C7  UNL     1      -5.152  -1.136   5.639  1.00  0.00     0.362 C 
HETATM   19  O3  UNL     1      -4.199  -0.364   5.399  1.00  0.00    -0.238 OA
ATOM     20  H3  UNL     1      -5.826  -2.942   6.523  1.00  0.00     0.165 HD
BRANCH  18  21
HETATM   21  O4  UNL     1      -6.403  -0.783   5.183  1.00  0.00    -0.294 OA
BRANCH  21  22
HETATM   22  C8  UNL     1      -7.221   0.186   5.775  1.00  0.00     0.061 C 
HETATM   23  C9  UNL     1      -6.945   0.338   7.258  1.00  0.00     0.046 C 
HETATM   24  C10 UNL     1      -8.663  -0.254   5.628  1.00  0.00     0.046 C 
HETATM   25  C11 UNL     1      -7.091   1.555   5.162  1.00  0.00     0.046 C 
ENDBRANCH  21  22
ENDBRANCH  18  21
ENDBRANCH  16  17
BRANCH  16  26
HETATM   26  C12 UNL     1      -3.460  -4.159   6.445  1.00  0.00     0.283 C 
HETATM   27  O5  UNL     1      -2.332  -4.512   6.048  1.00  0.00    -0.263 OA
BRANCH  26  28
HETATM   28  O6  UNL     1      -4.480  -5.073   6.488  1.00  0.00    -0.325 OA
HETATM   29  C13 UNL     1      -4.378  -6.169   7.378  1.00  0.00     0.213 C 
ENDBRANCH  26  28
ENDBRANCH  16  26
ENDBRANCH  15  16
ENDBRANCH  13  15
ENDBRANCH   2  13
BRANCH   1  30
HETATM   30  C2  UNL     1      -4.221  -0.029  11.589  1.00  0.00     0.282 C 
HETATM   31  N1  UNL     1      -5.563  -0.356  11.849  1.00  0.00    -0.231 N 
ATOM     32  H1  UNL     1      -6.246  -0.345  11.093  1.00  0.00     0.197 HD
HETATM   33  O2  UNL     1      -3.440  -0.071  12.601  1.00  0.00    -0.265 OA
BRANCH  31  34
HETATM   34  O1  UNL     1      -5.947  -0.684  13.098  1.00  0.00    -0.282 OA
HETATM   35  C1  UNL     1      -7.318  -0.438  13.176  1.00  0.00     0.237 C 
ENDBRANCH  31  34
ENDBRANCH   1  30
BRANCH  12  36
HETATM   36  C18 UNL     1      -1.080   1.922   6.865  1.00  0.00     0.247 C 
BRANCH  36  37
HETATM   37  O7  UNL     1      -0.871   0.567   7.280  1.00  0.00    -0.374 OA
ATOM     38  H7  UNL     1      -0.349   0.201   6.576  1.00  0.00     0.212 HD
ENDBRANCH  36  37
BRANCH  36  39
HETATM   39  N7  UNL     1      -1.766   1.834   5.618  1.00  0.00    -0.330 N 
HETATM   40  C19 UNL     1      -1.186   1.829   4.330  1.00  0.00     0.253 C 
HETATM   41  O8  UNL     1       0.058   1.902   4.212  1.00  0.00    -0.270 OA
ATOM     42  H7  UNL     1      -2.783   1.768   5.661  1.00  0.00     0.165 HD
BRANCH  40  43
HETATM   43  C20 UNL     1      -2.009   1.739   3.109  1.00  0.00     0.131 C 
HETATM   44  C21 UNL     1      -1.223   1.129   1.967  1.00  0.00     0.056 C 
HETATM   45  C22 UNL     1      -2.398   3.176   2.747  1.00  0.00     0.056 C 
BRANCH  43  46
HETATM   46  O9  UNL     1      -3.170   1.028   3.287  1.00  0.00    -0.381 OA
ATOM     47  H9  UNL     1      -3.713   1.364   3.990  1.00  0.00     0.211 HD
ENDBRANCH  43  46
ENDBRANCH  40  43
ENDBRANCH  36  39
ENDBRANCH  12  36
TORSDOF 15
ENDMDL
MODEL 3
REMARK VINA RESULT: -6.753690515      3.386      7.275
REMARK  15 active torsions:
REMARK  status: ('A' for Active; 'I' for Inactive)
REMARK    1  A    between atoms: O1_2  and  N1_3 
REMARK       I    between atoms: N1_3  and  C2_5 
REMARK    2  A    between atoms: C2_5  and  C3_7 
REMARK    3  A    between atoms: C4_8  and  N2_9 
REMARK    4  A    between atoms: N2_9  and  C5_11 
REMARK    5  A    between atoms: C5_11  and  C6_12 
REMARK    6  A    between atoms: C6_12  and  N3_13 
REMARK    7  A    between atoms: C6_12  and  C12_22 
REMARK       I    between atoms: N3_13  and  C7_15 
REMARK    8  A    between atoms: C7_15  and  O4_17 
REMARK    9  A    between atoms: O4_17  and  C8_18 
REMARK   10  A    between atoms: C12_22  and  O6_24 
REMARK   11  A    between atoms: C17_35  and  C18_36 
REMARK   12  A    between atoms: C18_36  and  O7_37 
REMARK   13  A    between atoms: C18_36  and  N7_39 
REMARK       I    between atoms: N7_39  and  C19_41 
REMARK   14  A    between atoms: C19_41  and  C20_43 
REMARK   15  A    between atoms: C20_43  and  O9_46 
ROOT
HETATM    1  C3  UNL     1      -6.252  -2.794   4.758  1.00  0.00     0.124 A 
HETATM    2  C4  UNL     1      -7.126  -1.743   4.937  1.00  0.00     0.136 A 
HETATM    3  N4  UNL     1      -6.599  -1.020   5.973  1.00  0.00    -0.280 N 
ATOM      4  H4  UNL     1      -7.013  -0.169   6.354  1.00  0.00     0.189 HD
HETATM    5  N5  UNL     1      -5.479  -1.574   6.415  1.00  0.00    -0.263 N 
HETATM    6  C14 UNL     1      -5.228  -2.677   5.685  1.00  0.00     0.142 A 
HETATM    7  N6  UNL     1      -4.052  -3.428   5.903  1.00  0.00    -0.352 N 
ATOM      8  H6  UNL     1      -3.878  -4.267   5.350  1.00  0.00     0.166 HD
HETATM    9  C15 UNL     1      -3.209  -3.066   6.783  1.00  0.00     0.085 C 
HETATM   10  C16 UNL     1      -3.372  -1.877   7.613  1.00  0.00     0.149 C 
HETATM   11 CL1  UNL     1      -2.108  -0.717   6.983  1.00  0.00    -0.117 Cl
HETATM   12  C17 UNL     1      -4.644  -1.175   7.530  1.00  0.00     0.182 C 
ENDROOT
BRANCH   2  13
HETATM   13  N2  UNL     1      -8.322  -1.414   4.242  1.00  0.00    -0.372 N 
ATOM     14  H2  UNL     1      -8.641  -1.977   3.453  1.00  0.00     0.161 HD
BRANCH  13  15
HETATM   15  C5  UNL     1      -9.070  -0.266   4.681  1.00  0.00     0.156 C 
BRANCH  15  16
HETATM   16  C6  UNL     1      -8.810   0.989   3.881  1.00  0.00     0.204 C 
BRANCH  16  17
HETATM   17  N3  UNL     1      -8.166   1.948   4.806  1.00  0.00    -0.321 N 
HETATM   18  C7  UNL     1      -6.754   2.066   4.835  1.00  0.00     0.362 C 
HETATM   19  O3  UNL     1      -5.991   1.393   4.110  1.00  0.00    -0.238 OA
ATOM     20  H3  UNL     1      -8.740   2.524   5.422  1.00  0.00     0.165 HD
BRANCH  18  21
HETATM   21  O4  UNL     1      -6.188   2.969   5.710  1.00  0.00    -0.294 OA
BRANCH  21  22
HETATM   22  C8  UNL     1      -5.453   4.095   5.323  1.00  0.00     0.061 C 
HETATM   23  C9  UNL     1      -3.960   3.884   5.479  1.00  0.00     0.046 C 
HETATM   24  C10 UNL     1      -5.841   5.249   6.223  1.00  0.00     0.046 C 
HETATM   25  C11 UNL     1      -5.690   4.521   3.898  1.00  0.00     0.046 C 
ENDBRANCH  21  22
ENDBRANCH  18  21
ENDBRANCH  16  17
BRANCH  16  26
HETATM   26  C12 UNL     1     -10.110   1.560   3.481  1.00  0.00     0.283 C 
HETATM   27  O5  UNL     1     -10.143   2.588   2.777  1.00  0.00    -0.263 OA
BRANCH  26  28
HETATM   28  O6  UNL     1     -11.283   0.971   3.875  1.00  0.00    -0.325 OA
HETATM   29  C13 UNL     1     -12.309   1.785   4.410  1.00  0.00     0.213 C 
ENDBRANCH  26  28
ENDBRANCH  16  26
ENDBRANCH  15  16
ENDBRANCH  13  15
ENDBRANCH   2  13
BRANCH   1  30
HETATM   30  C2  UNL     1      -6.403  -3.854   3.747  1.00  0.00     0.282 C 
HETATM   31  N1  UNL     1      -7.547  -4.053   2.957  1.00  0.00    -0.231 N 
ATOM     32  H1  UNL     1      -8.353  -3.438   3.062  1.00  0.00     0.197 HD
HETATM   33  O2  UNL     1      -5.445  -4.677   3.543  1.00  0.00    -0.265 OA
BRANCH  31  34
HETATM   34  O1  UNL     1      -7.580  -5.057   2.059  1.00  0.00    -0.282 OA
HETATM   35  C1  UNL     1      -8.919  -5.246   1.716  1.00  0.00     0.237 C 
ENDBRANCH  31  34
ENDBRANCH   1  30
BRANCH  12  36
HETATM   36  C18 UNL     1      -4.574   0.345   7.623  1.00  0.00     0.247 C 
BRANCH  36  37
HETATM   37  O7  UNL     1      -5.929   0.718   7.905  1.00  0.00    -0.374 OA
ATOM     38  H7  UNL     1      -5.842   1.590   8.270  1.00  0.00     0.212 HD
ENDBRANCH  36  37
BRANCH  36  39
HETATM   39  N7  UNL     1      -3.818   0.785   8.749  1.00  0.00    -0.330 N 
HETATM   40  C19 UNL     1      -4.070   0.489  10.107  1.00  0.00     0.253 C 
HETATM   41  O8  UNL     1      -5.045  -0.236  10.411  1.00  0.00    -0.270 OA
ATOM     42  H7  UNL     1      -3.010   1.376   8.553  1.00  0.00     0.165 HD
BRANCH  40  43
HETATM   43  C20 UNL     1      -3.213   1.013  11.187  1.00  0.00     0.131 C 
HETATM   44  C21 UNL     1      -1.877   0.303  11.214  1.00  0.00     0.056 C 
HETATM   45  C22 UNL     1      -3.960   0.741  12.497  1.00  0.00     0.056 C 
BRANCH  43  46
HETATM   46  O9  UNL     1      -3.001   2.368  11.105  1.00  0.00    -0.381 OA
ATOM     47  H9  UNL     1      -3.641   2.878  11.587  1.00  0.00     0.211 HD
ENDBRANCH  43  46
ENDBRANCH  40  43
ENDBRANCH  36  39
ENDBRANCH  12  36
TORSDOF 15
ENDMDL
MODEL 4
REMARK VINA RESULT: -6.724682762      0.844      1.202
REMARK  15 active torsions:
REMARK  status: ('A' for Active; 'I' for Inactive)
REMARK    1  A    between atoms: O1_2  and  N1_3 
REMARK       I    between atoms: N1_3  and  C2_5 
REMARK    2  A    between atoms: C2_5  and  C3_7 
REMARK    3  A    between atoms: C4_8  and  N2_9 
REMARK    4  A    between atoms: N2_9  and  C5_11 
REMARK    5  A    between atoms: C5_11  and  C6_12 
REMARK    6  A    between atoms: C6_12  and  N3_13 
REMARK    7  A    between atoms: C6_12  and  C12_22 
REMARK       I    between atoms: N3_13  and  C7_15 
REMARK    8  A    between atoms: C7_15  and  O4_17 
REMARK    9  A    between atoms: O4_17  and  C8_18 
REMARK   10  A    between atoms: C12_22  and  O6_24 
REMARK   11  A    between atoms: C17_35  and  C18_36 
REMARK   12  A    between atoms: C18_36  and  O7_37 
REMARK   13  A    between atoms: C18_36  and  N7_39 
REMARK       I    between atoms: N7_39  and  C19_41 
REMARK   14  A    between atoms: C19_41  and  C20_43 
REMARK   15  A    between atoms: C20_43  and  O9_46 
ROOT
HETATM    1  C3  UNL     1      -3.616  -0.052  10.629  1.00  0.00     0.124 A 
HETATM    2  C4  UNL     1      -3.490  -0.701   9.420  1.00  0.00     0.136 A 
HETATM    3  N4  UNL     1      -2.352  -0.186   8.860  1.00  0.00    -0.280 N 
ATOM      4  H4  UNL     1      -1.977  -0.462   7.952  1.00  0.00     0.189 HD
HETATM    5  N5  UNL     1      -1.803   0.721   9.656  1.00  0.00    -0.263 N 
HETATM    6  C14 UNL     1      -2.556   0.832  10.766  1.00  0.00     0.142 A 
HETATM    7  N6  UNL     1      -2.160   1.686  11.818  1.00  0.00    -0.352 N 
ATOM      8  H6  UNL     1      -2.744   1.769  12.650  1.00  0.00     0.166 HD
HETATM    9  C15 UNL     1      -1.081   2.354  11.736  1.00  0.00     0.085 C 
HETATM   10  C16 UNL     1      -0.181   2.292  10.588  1.00  0.00     0.149 C 
HETATM   11 CL1  UNL     1       1.283   1.397  11.219  1.00  0.00    -0.117 Cl
HETATM   12  C17 UNL     1      -0.638   1.551   9.423  1.00  0.00     0.182 C 
ENDROOT
BRANCH   2  13
HETATM   13  N2  UNL     1      -4.313  -1.694   8.821  1.00  0.00    -0.372 N 
ATOM     14  H2  UNL     1      -5.325  -1.576   8.770  1.00  0.00     0.161 HD
BRANCH  13  15
HETATM   15  C5  UNL     1      -3.679  -2.871   8.287  1.00  0.00     0.156 C 
BRANCH  15  16
HETATM   16  C6  UNL     1      -3.595  -2.904   6.779  1.00  0.00     0.204 C 
BRANCH  16  17
HETATM   17  N3  UNL     1      -4.860  -2.323   6.278  1.00  0.00    -0.321 N 
HETATM   18  C7  UNL     1      -4.899  -0.975   5.842  1.00  0.00     0.362 C 
HETATM   19  O3  UNL     1      -3.904  -0.219   5.853  1.00  0.00    -0.238 OA
ATOM     20  H3  UNL     1      -5.705  -2.894   6.246  1.00  0.00     0.165 HD
BRANCH  18  21
HETATM   21  O4  UNL     1      -6.094  -0.467   5.381  1.00  0.00    -0.294 OA
BRANCH  21  22
HETATM   22  C8  UNL     1      -6.919   0.401   6.105  1.00  0.00     0.061 C 
HETATM   23  C9  UNL     1      -6.831   0.162   7.600  1.00  0.00     0.046 C 
HETATM   24  C10 UNL     1      -8.354   0.149   5.693  1.00  0.00     0.046 C 
HETATM   25  C11 UNL     1      -6.623   1.860   5.876  1.00  0.00     0.046 C 
ENDBRANCH  21  22
ENDBRANCH  18  21
ENDBRANCH  16  17
BRANCH  16  26
HETATM   26  C12 UNL     1      -3.550  -4.313   6.349  1.00  0.00     0.283 C 
HETATM   27  O5  UNL     1      -2.562  -4.735   5.716  1.00  0.00    -0.263 OA
BRANCH  26  28
HETATM   28  O6  UNL     1      -4.583  -5.166   6.638  1.00  0.00    -0.325 OA
HETATM   29  C13 UNL     1      -4.350  -6.247   7.521  1.00  0.00     0.213 C 
ENDBRANCH  26  28
ENDBRANCH  16  26
ENDBRANCH  15  16
ENDBRANCH  13  15
ENDBRANCH   2  13
BRANCH   1  30
HETATM   30  C2  UNL     1      -4.703  -0.273  11.598  1.00  0.00     0.282 C 
HETATM   31  N1  UNL     1      -6.072  -0.270  11.282  1.00  0.00    -0.231 N 
ATOM     32  H1  UNL     1      -6.373  -0.106  10.322  1.00  0.00     0.197 HD
HETATM   33  O2  UNL     1      -4.424  -0.487  12.828  1.00  0.00    -0.265 OA
BRANCH  31  34
HETATM   34  O1  UNL     1      -6.987  -0.484  12.247  1.00  0.00    -0.282 OA
HETATM   35  C1  UNL     1      -8.196  -0.751  11.604  1.00  0.00     0.237 C 
ENDBRANCH  31  34
ENDBRANCH   1  30
BRANCH  12  36
HETATM   36  C18 UNL     1       0.430   0.766   8.671  1.00  0.00     0.247 C 
BRANCH  36  37
HETATM   37  O7  UNL     1      -0.273  -0.401   8.226  1.00  0.00    -0.374 OA
ATOM     38  H7  UNL     1      -1.172  -0.221   8.474  1.00  0.00     0.212 HD
ENDBRANCH  36  37
BRANCH  36  39
HETATM   39  N7  UNL     1       0.853   1.429   7.481  1.00  0.00    -0.330 N 
HETATM   40  C19 UNL     1       0.074   1.681   6.329  1.00  0.00     0.253 C 
HETATM   41  O8  UNL     1      -1.121   1.310   6.298  1.00  0.00    -0.270 OA
ATOM     42  H7  UNL     1       1.819   1.754   7.458  1.00  0.00     0.165 HD
BRANCH  40  43
HETATM   43  C20 UNL     1       0.631   2.374   5.152  1.00  0.00     0.131 C 
HETATM   44  C21 UNL     1      -0.029   1.897   3.877  1.00  0.00     0.056 C 
HETATM   45  C22 UNL     1       2.122   2.024   5.114  1.00  0.00     0.056 C 
BRANCH  43  46
HETATM   46  O9  UNL     1       0.529   3.742   5.228  1.00  0.00    -0.381 OA
ATOM     47  H9  UNL     1       0.652   4.175   4.391  1.00  0.00     0.211 HD
ENDBRANCH  43  46
ENDBRANCH  40  43
ENDBRANCH  36  39
ENDBRANCH  12  36
TORSDOF 15
ENDMDL
MODEL 5
REMARK VINA RESULT: -6.705459675      1.214      1.728
REMARK  15 active torsions:
REMARK  status: ('A' for Active; 'I' for Inactive)
REMARK    1  A    between atoms: O1_2  and  N1_3 
REMARK       I    between atoms: N1_3  and  C2_5 
REMARK    2  A    between atoms: C2_5  and  C3_7 
REMARK    3  A    between atoms: C4_8  and  N2_9 
REMARK    4  A    between atoms: N2_9  and  C5_11 
REMARK    5  A    between atoms: C5_11  and  C6_12 
REMARK    6  A    between atoms: C6_12  and  N3_13 
REMARK    7  A    between atoms: C6_12  and  C12_22 
REMARK       I    between atoms: N3_13  and  C7_15 
REMARK    8  A    between atoms: C7_15  and  O4_17 
REMARK    9  A    between atoms: O4_17  and  C8_18 
REMARK   10  A    between atoms: C12_22  and  O6_24 
REMARK   11  A    between atoms: C17_35  and  C18_36 
REMARK   12  A    between atoms: C18_36  and  O7_37 
REMARK   13  A    between atoms: C18_36  and  N7_39 
REMARK       I    between atoms: N7_39  and  C19_41 
REMARK   14  A    between atoms: C19_41  and  C20_43 
REMARK   15  A    between atoms: C20_43  and  O9_46 
ROOT
HETATM    1  C3  UNL     1      -3.704  -0.082  10.757  1.00  0.00     0.124 A 
HETATM    2  C4  UNL     1      -3.572  -0.726   9.545  1.00  0.00     0.136 A 
HETATM    3  N4  UNL     1      -2.428  -0.212   8.996  1.00  0.00    -0.280 N 
ATOM      4  H4  UNL     1      -2.048  -0.486   8.090  1.00  0.00     0.189 HD
HETATM    5  N5  UNL     1      -1.881   0.689   9.800  1.00  0.00    -0.263 N 
HETATM    6  C14 UNL     1      -2.642   0.797  10.905  1.00  0.00     0.142 A 
HETATM    7  N6  UNL     1      -2.250   1.645  11.965  1.00  0.00    -0.352 N 
ATOM      8  H6  UNL     1      -2.840   1.726  12.792  1.00  0.00     0.166 HD
HETATM    9  C15 UNL     1      -1.168   2.309  11.893  1.00  0.00     0.085 C 
HETATM   10  C16 UNL     1      -0.260   2.248  10.752  1.00  0.00     0.149 C 
HETATM   11 CL1  UNL     1       1.196   1.345  11.389  1.00  0.00    -0.117 Cl
HETATM   12  C17 UNL     1      -0.711   1.515   9.579  1.00  0.00     0.182 C 
ENDROOT
BRANCH   2  13
HETATM   13  N2  UNL     1      -4.394  -1.713   8.935  1.00  0.00    -0.372 N 
ATOM     14  H2  UNL     1      -5.406  -1.594   8.886  1.00  0.00     0.161 HD
BRANCH  13  15
HETATM   15  C5  UNL     1      -3.759  -2.883   8.389  1.00  0.00     0.156 C 
BRANCH  15  16
HETATM   16  C6  UNL     1      -3.555  -2.840   6.893  1.00  0.00     0.204 C 
BRANCH  16  17
HETATM   17  N3  UNL     1      -4.772  -2.222   6.323  1.00  0.00    -0.321 N 
HETATM   18  C7  UNL     1      -4.768  -0.852   5.957  1.00  0.00     0.362 C 
HETATM   19  O3  UNL     1      -3.773  -0.107   6.089  1.00  0.00    -0.238 OA
ATOM     20  H3  UNL     1      -5.614  -2.782   6.193  1.00  0.00     0.165 HD
BRANCH  18  21
HETATM   21  O4  UNL     1      -5.919  -0.309   5.430  1.00  0.00    -0.294 OA
BRANCH  21  22
HETATM   22  C8  UNL     1      -6.784   0.545   6.123  1.00  0.00     0.061 C 
HETATM   23  C9  UNL     1      -6.808   0.252   7.610  1.00  0.00     0.046 C 
HETATM   24  C10 UNL     1      -8.188   0.328   5.598  1.00  0.00     0.046 C 
HETATM   25  C11 UNL     1      -6.454   2.006   5.969  1.00  0.00     0.046 C 
ENDBRANCH  21  22
ENDBRANCH  18  21
ENDBRANCH  16  17
BRANCH  16  26
HETATM   26  C12 UNL     1      -3.484  -4.226   6.396  1.00  0.00     0.283 C 
HETATM   27  O5  UNL     1      -2.463  -4.616   5.795  1.00  0.00    -0.263 OA
BRANCH  26  28
HETATM   28  O6  UNL     1      -4.529  -5.092   6.587  1.00  0.00    -0.325 OA
HETATM   29  C13 UNL     1      -4.342  -6.212   7.431  1.00  0.00     0.213 C 
ENDBRANCH  26  28
ENDBRANCH  16  26
ENDBRANCH  15  16
ENDBRANCH  13  15
ENDBRANCH   2  13
BRANCH   1  30
HETATM   30  C2  UNL     1      -4.799  -0.303  11.716  1.00  0.00     0.282 C 
HETATM   31  N1  UNL     1      -6.166  -0.255  11.398  1.00  0.00    -0.231 N 
ATOM     32  H1  UNL     1      -6.461  -0.054  10.443  1.00  0.00     0.197 HD
HETATM   33  O2  UNL     1      -4.529  -0.562  12.940  1.00  0.00    -0.265 OA
BRANCH  31  34
HETATM   34  O1  UNL     1      -7.089  -0.473  12.355  1.00  0.00    -0.282 OA
HETATM   35  C1  UNL     1      -8.274  -0.812  11.702  1.00  0.00     0.237 C 
ENDBRANCH  31  34
ENDBRANCH   1  30
BRANCH  12  36
HETATM   36  C18 UNL     1       0.359   0.730   8.831  1.00  0.00     0.247 C 
BRANCH  36  37
HETATM   37  O7  UNL     1      -0.364  -0.387   8.301  1.00  0.00    -0.374 OA
ATOM     38  H7  UNL     1       0.033  -0.519   7.449  1.00  0.00     0.212 HD
ENDBRANCH  36  37
BRANCH  36  39
HETATM   39  N7  UNL     1       0.854   1.434   7.695  1.00  0.00    -0.330 N 
HETATM   40  C19 UNL     1       1.984   1.098   6.916  1.00  0.00     0.253 C 
HETATM   41  O8  UNL     1       2.655   0.082   7.206  1.00  0.00    -0.270 OA
ATOM     42  H7  UNL     1       0.339   2.269   7.415  1.00  0.00     0.165 HD
BRANCH  40  43
HETATM   43  C20 UNL     1       2.400   1.916   5.760  1.00  0.00     0.131 C 
HETATM   44  C21 UNL     1       1.200   2.496   5.044  1.00  0.00     0.056 C 
HETATM   45  C22 UNL     1       3.149   0.972   4.814  1.00  0.00     0.056 C 
BRANCH  43  46
HETATM   46  O9  UNL     1       3.259   2.934   6.096  1.00  0.00    -0.381 OA
ATOM     47  H9  UNL     1       2.815   3.711   6.413  1.00  0.00     0.211 HD
ENDBRANCH  43  46
ENDBRANCH  40  43
ENDBRANCH  36  39
ENDBRANCH  12  36
TORSDOF 15
ENDMDL
