MODEL 1
REMARK VINA RESULT: -8.855536111      0.000      0.000
REMARK  11 active torsions:
REMARK  status: ('A' for Active; 'I' for Inactive)
REMARK    1  A    between atoms: C4_7  and  C5_8 
REMARK       I    between atoms: C5_8  and  N3_10 
REMARK    2  A    between atoms: N3_10  and  C6_12 
REMARK    3  A    between atoms: C6_12  and  C7_13 
REMARK    4  A    between atoms: C6_12  and  C8_16 
REMARK    5  A    between atoms: C8_16  and  O4_17 
REMARK    6  A    between atoms: C8_16  and  C9_19 
REMARK    7  A    between atoms: N4_20  and  N5_22 
REMARK       I    between atoms: N5_22  and  C10_24 
REMARK    8  A    between atoms: C10_24  and  C11_26 
REMARK    9  A    between atoms: N6_28  and  C13_29 
REMARK   10  A    between atoms: C18_35  and  C19_36 
REMARK       I    between atoms: C19_36  and  N7_38 
REMARK   11  A    between atoms: N7_38  and  C20_40 
ROOT
HETATM    1  C20 UNL     1      -5.627   0.666   6.680  1.00  0.00     0.247 C 
HETATM    2  C21 UNL     1      -6.821   0.805   5.849  1.00  0.00     0.078 C 
HETATM    3  N8  UNL     1      -7.776   0.895   5.183  1.00  0.00    -0.196 NA
ENDROOT
BRANCH   1   4
HETATM    4  N7  UNL     1      -6.035   0.757   8.082  1.00  0.00    -0.344 N 
HETATM    5  C19 UNL     1      -6.031  -0.404   8.869  1.00  0.00     0.254 C 
HETATM    6  O6  UNL     1      -5.652  -1.499   8.321  1.00  0.00    -0.268 OA
ATOM      7  H7  UNL     1      -6.319   1.652   8.482  1.00  0.00     0.163 HD
BRANCH   5   8
HETATM    8  C18 UNL     1      -6.428  -0.400  10.261  1.00  0.00     0.062 A 
HETATM    9  C13 UNL     1      -5.545  -0.346  11.290  1.00  0.00     0.094 A 
HETATM   10  C14 UNL     1      -6.063  -0.435  12.594  1.00  0.00     0.063 A 
HETATM   11 CL1  UNL     1      -4.972  -0.367  13.957  1.00  0.00    -0.082 Cl
HETATM   12  C15 UNL     1      -7.405  -0.570  12.842  1.00  0.00     0.026 A 
HETATM   13  C16 UNL     1      -8.287  -0.620  11.762  1.00  0.00     0.003 A 
HETATM   14  C17 UNL     1      -7.811  -0.536  10.483  1.00  0.00     0.019 A 
BRANCH   9  15
HETATM   15  N6  UNL     1      -4.156  -0.128  11.096  1.00  0.00    -0.248 N 
HETATM   16  C12 UNL     1      -3.449   0.854  11.753  1.00  0.00     0.155 A 
HETATM   17  C11 UNL     1      -2.128   0.838  11.390  1.00  0.00     0.136 A 
HETATM   18  N10 UNL     1      -2.048  -0.181  10.495  1.00  0.00    -0.279 N 
HETATM   19  N9  UNL     1      -3.245  -0.717  10.350  1.00  0.00    -0.235 N 
ATOM     20  H10 UNL     1      -1.201  -0.481  10.013  1.00  0.00     0.189 HD
ATOM     21  H9  UNL     1      -3.442  -1.502   9.729  1.00  0.00     0.209 HD
BRANCH  17  22
HETATM   22  C10 UNL     1      -1.061   1.697  11.857  1.00  0.00     0.289 C 
HETATM   23  N5  UNL     1       0.020   1.149  12.575  1.00  0.00    -0.265 N 
ATOM     24  H5  UNL     1       0.033   0.145  12.759  1.00  0.00     0.190 HD
HETATM   25  O5  UNL     1      -1.082   2.927  11.631  1.00  0.00    -0.264 OA
BRANCH  23  26
HETATM   26  N4  UNL     1       1.085   1.944  13.050  1.00  0.00    -0.310 N 
HETATM   27  C9  UNL     1       1.926   1.455  13.912  1.00  0.00     0.114 C 
ATOM     28  H4  UNL     1       1.196   2.902  12.717  1.00  0.00     0.185 HD
BRANCH  27  29
HETATM   29  C8  UNL     1       1.745   0.078  14.373  1.00  0.00     0.191 C 
BRANCH  29  30
HETATM   30  C6  UNL     1       2.518  -0.215  15.649  1.00  0.00     0.219 C 
BRANCH  30  31
HETATM   31  N3  UNL     1       2.267   0.867  16.617  1.00  0.00    -0.338 N 
HETATM   32  C5  UNL     1       1.474   0.599  17.733  1.00  0.00     0.271 C 
HETATM   33  O1  UNL     1       0.997  -0.584  17.860  1.00  0.00    -0.266 OA
ATOM     34  H3  UNL     1       2.665   1.795  16.473  1.00  0.00     0.163 HD
BRANCH  32  35
HETATM   35  C4  UNL     1       1.127   1.536  18.779  1.00  0.00     0.126 A 
HETATM   36  N2  UNL     1       1.591   1.497  20.068  1.00  0.00    -0.291 N 
HETATM   37  N1  UNL     1       1.100   2.495  20.770  1.00  0.00    -0.302 N 
HETATM   38  C3  UNL     1       2.487   0.486  20.593  1.00  0.00     0.178 C 
HETATM   39  C2  UNL     1       0.294   3.253  20.027  1.00  0.00     0.030 A 
ATOM     40  H1  UNL     1       1.309   2.666  21.754  1.00  0.00     0.186 HD
HETATM   41  C1  UNL     1      -0.440   4.462  20.485  1.00  0.00     0.070 C 
HETATM   42  C22 UNL     1       0.304   2.653  18.761  1.00  0.00    -0.004 A 
HETATM   43  C23 UNL     1      -0.464   3.174  17.619  1.00  0.00     0.053 C 
ENDBRANCH  32  35
ENDBRANCH  30  31
BRANCH  30  44
HETATM   44  C7  UNL     1       3.966  -0.199  15.350  1.00  0.00     0.199 C 
HETATM   45  O2  UNL     1       4.734   0.711  15.726  1.00  0.00    -0.646 OA
HETATM   46  O3  UNL     1       4.574  -1.220  14.608  1.00  0.00    -0.646 OA
ENDBRANCH  30  44
ENDBRANCH  29  30
BRANCH  29  47
HETATM   47  O4  UNL     1       2.114  -0.851  13.410  1.00  0.00    -0.388 OA
ATOM     48  H4  UNL     1       1.481  -1.559  13.415  1.00  0.00     0.210 HD
ENDBRANCH  29  47
ENDBRANCH  27  29
ENDBRANCH  23  26
ENDBRANCH  17  22
ENDBRANCH   9  15
ENDBRANCH   5   8
ENDBRANCH   1   4
TORSDOF 11
ENDMDL
MODEL 2
REMARK VINA RESULT: -8.772042138      5.462     11.690
REMARK  11 active torsions:
REMARK  status: ('A' for Active; 'I' for Inactive)
REMARK    1  A    between atoms: C4_7  and  C5_8 
REMARK       I    between atoms: C5_8  and  N3_10 
REMARK    2  A    between atoms: N3_10  and  C6_12 
REMARK    3  A    between atoms: C6_12  and  C7_13 
REMARK    4  A    between atoms: C6_12  and  C8_16 
REMARK    5  A    between atoms: C8_16  and  O4_17 
REMARK    6  A    between atoms: C8_16  and  C9_19 
REMARK    7  A    between atoms: N4_20  and  N5_22 
REMARK       I    between atoms: N5_22  and  C10_24 
REMARK    8  A    between atoms: C10_24  and  C11_26 
REMARK    9  A    between atoms: N6_28  and  C13_29 
REMARK   10  A    between atoms: C18_35  and  C19_36 
REMARK       I    between atoms: C19_36  and  N7_38 
REMARK   11  A    between atoms: N7_38  and  C20_40 
ROOT
HETATM    1  C20 UNL     1      -0.182   0.980  10.743  1.00  0.00     0.247 C 
HETATM    2  C21 UNL     1      -0.016   0.630   9.333  1.00  0.00     0.078 C 
HETATM    3  N8  UNL     1       0.130   0.335   8.213  1.00  0.00    -0.196 NA
ENDROOT
BRANCH   1   4
HETATM    4  N7  UNL     1      -1.422   0.367  11.221  1.00  0.00    -0.344 N 
HETATM    5  C19 UNL     1      -2.634   1.048  11.035  1.00  0.00     0.254 C 
HETATM    6  O6  UNL     1      -2.600   2.180  10.435  1.00  0.00    -0.268 OA
ATOM      7  H7  UNL     1      -1.405  -0.543  11.683  1.00  0.00     0.163 HD
BRANCH   5   8
HETATM    8  C18 UNL     1      -3.901   0.513  11.484  1.00  0.00     0.062 A 
HETATM    9  C13 UNL     1      -4.848   0.026  10.643  1.00  0.00     0.094 A 
HETATM   10  C14 UNL     1      -6.068  -0.384  11.208  1.00  0.00     0.063 A 
HETATM   11 CL1  UNL     1      -7.321  -1.024  10.173  1.00  0.00    -0.082 Cl
HETATM   12  C15 UNL     1      -6.316  -0.304  12.555  1.00  0.00     0.026 A 
HETATM   13  C16 UNL     1      -5.320   0.200  13.393  1.00  0.00     0.003 A 
HETATM   14  C17 UNL     1      -4.124   0.606  12.871  1.00  0.00     0.019 A 
BRANCH   9  15
HETATM   15  N6  UNL     1      -4.618  -0.153   9.254  1.00  0.00    -0.248 N 
HETATM   16  C12 UNL     1      -4.583  -1.390   8.650  1.00  0.00     0.155 A 
HETATM   17  C11 UNL     1      -4.357  -1.274   7.304  1.00  0.00     0.136 A 
HETATM   18  N10 UNL     1      -4.255   0.065   7.103  1.00  0.00    -0.279 N 
HETATM   19  N9  UNL     1      -4.413   0.683   8.258  1.00  0.00    -0.235 N 
ATOM     20  H10 UNL     1      -4.085   0.518   6.205  1.00  0.00     0.189 HD
ATOM     21  H9  UNL     1      -4.378   1.696   8.367  1.00  0.00     0.209 HD
BRANCH  17  22
HETATM   22  C10 UNL     1      -4.258  -2.332   6.319  1.00  0.00     0.289 C 
HETATM   23  N5  UNL     1      -5.391  -2.701   5.568  1.00  0.00    -0.265 N 
ATOM     24  H5  UNL     1      -6.273  -2.214   5.732  1.00  0.00     0.190 HD
HETATM   25  O5  UNL     1      -3.176  -2.926   6.122  1.00  0.00    -0.264 OA
BRANCH  23  26
HETATM   26  N4  UNL     1      -5.346  -3.722   4.595  1.00  0.00    -0.310 N 
HETATM   27  C9  UNL     1      -6.241  -3.762   3.654  1.00  0.00     0.114 C 
ATOM     28  H4  UNL     1      -4.611  -4.430   4.631  1.00  0.00     0.185 HD
BRANCH  27  29
HETATM   29  C8  UNL     1      -7.284  -2.736   3.626  1.00  0.00     0.191 C 
BRANCH  29  30
HETATM   30  C6  UNL     1      -6.928  -1.569   2.719  1.00  0.00     0.219 C 
BRANCH  30  31
HETATM   31  N3  UNL     1      -7.208  -0.310   3.431  1.00  0.00    -0.338 N 
HETATM   32  C5  UNL     1      -6.144   0.397   3.988  1.00  0.00     0.271 C 
HETATM   33  O1  UNL     1      -4.965  -0.088   3.855  1.00  0.00    -0.266 OA
ATOM     34  H3  UNL     1      -8.164   0.037   3.514  1.00  0.00     0.163 HD
BRANCH  32  35
HETATM   35  C4  UNL     1      -6.234   1.645   4.716  1.00  0.00     0.126 A 
HETATM   36  N2  UNL     1      -6.952   1.845   5.866  1.00  0.00    -0.291 N 
HETATM   37  N1  UNL     1      -6.820   3.083   6.288  1.00  0.00    -0.302 N 
HETATM   38  C3  UNL     1      -7.762   0.836   6.521  1.00  0.00     0.178 C 
HETATM   39  C2  UNL     1      -6.029   3.784   5.477  1.00  0.00     0.030 A 
ATOM     40  H1  UNL     1      -7.265   3.457   7.126  1.00  0.00     0.186 HD
HETATM   41  C1  UNL     1      -5.657   5.215   5.635  1.00  0.00     0.070 C 
HETATM   42  C22 UNL     1      -5.651   2.880   4.475  1.00  0.00    -0.004 A 
HETATM   43  C23 UNL     1      -4.765   3.243   3.357  1.00  0.00     0.053 C 
ENDBRANCH  32  35
ENDBRANCH  30  31
BRANCH  30  44
HETATM   44  C7  UNL     1      -7.807  -1.598   1.529  1.00  0.00     0.199 C 
HETATM   45  O2  UNL     1      -7.865  -0.668   0.698  1.00  0.00    -0.646 OA
HETATM   46  O3  UNL     1      -8.646  -2.688   1.263  1.00  0.00    -0.646 OA
ENDBRANCH  30  44
ENDBRANCH  29  30
BRANCH  29  47
HETATM   47  O4  UNL     1      -7.567  -2.242   4.891  1.00  0.00    -0.388 OA
ATOM     48  H4  UNL     1      -6.747  -2.065   5.337  1.00  0.00     0.210 HD
ENDBRANCH  29  47
ENDBRANCH  27  29
ENDBRANCH  23  26
ENDBRANCH  17  22
ENDBRANCH   9  15
ENDBRANCH   5   8
ENDBRANCH   1   4
TORSDOF 11
ENDMDL
MODEL 3
REMARK VINA RESULT: -8.634146593      6.056      8.694
REMARK  11 active torsions:
REMARK  status: ('A' for Active; 'I' for Inactive)
REMARK    1  A    between atoms: C4_7  and  C5_8 
REMARK       I    between atoms: C5_8  and  N3_10 
REMARK    2  A    between atoms: N3_10  and  C6_12 
REMARK    3  A    between atoms: C6_12  and  C7_13 
REMARK    4  A    between atoms: C6_12  and  C8_16 
REMARK    5  A    between atoms: C8_16  and  O4_17 
REMARK    6  A    between atoms: C8_16  and  C9_19 
REMARK    7  A    between atoms: N4_20  and  N5_22 
REMARK       I    between atoms: N5_22  and  C10_24 
REMARK    8  A    between atoms: C10_24  and  C11_26 
REMARK    9  A    between atoms: N6_28  and  C13_29 
REMARK   10  A    between atoms: C18_35  and  C19_36 
REMARK       I    between atoms: C19_36  and  N7_38 
REMARK   11  A    between atoms: N7_38  and  C20_40 
ROOT
HETATM    1  C20 UNL     1      -4.863  -2.717   6.284  1.00  0.00     0.247 C 
HETATM    2  C21 UNL     1      -3.801  -3.696   6.056  1.00  0.00     0.078 C 
HETATM    3  N8  UNL     1      -2.967  -4.493   5.876  1.00  0.00    -0.196 NA
ENDROOT
BRANCH   1   4
HETATM    4  N7  UNL     1      -5.268  -2.175   4.986  1.00  0.00    -0.344 N 
HETATM    5  C19 UNL     1      -6.595  -1.757   4.808  1.00  0.00     0.254 C 
HETATM    6  O6  UNL     1      -7.395  -1.857   5.805  1.00  0.00    -0.268 OA
ATOM      7  H7  UNL     1      -4.595  -2.103   4.222  1.00  0.00     0.163 HD
BRANCH   5   8
HETATM    8  C18 UNL     1      -7.077  -1.218   3.555  1.00  0.00     0.062 A 
HETATM    9  C13 UNL     1      -7.339   0.100   3.360  1.00  0.00     0.094 A 
HETATM   10  C14 UNL     1      -7.883   0.475   2.119  1.00  0.00     0.063 A 
HETATM   11 CL1  UNL     1      -8.236   2.158   1.811  1.00  0.00    -0.082 Cl
HETATM   12  C15 UNL     1      -8.148  -0.436   1.128  1.00  0.00     0.026 A 
HETATM   13  C16 UNL     1      -7.865  -1.783   1.360  1.00  0.00     0.003 A 
HETATM   14  C17 UNL     1      -7.336  -2.176   2.557  1.00  0.00     0.019 A 
BRANCH   9  15
HETATM   15  N6  UNL     1      -7.013   1.095   4.317  1.00  0.00    -0.248 N 
HETATM   16  C12 UNL     1      -5.728   1.540   4.533  1.00  0.00     0.155 A 
HETATM   17  C11 UNL     1      -5.698   2.508   5.501  1.00  0.00     0.136 A 
HETATM   18  N10 UNL     1      -6.998   2.643   5.870  1.00  0.00    -0.279 N 
HETATM   19  N9  UNL     1      -7.731   1.806   5.161  1.00  0.00    -0.235 N 
ATOM     20  H10 UNL     1      -7.350   3.286   6.579  1.00  0.00     0.189 HD
ATOM     21  H9  UNL     1      -8.743   1.720   5.256  1.00  0.00     0.209 HD
BRANCH  17  22
HETATM   22  C10 UNL     1      -4.550   3.231   6.009  1.00  0.00     0.289 C 
HETATM   23  N5  UNL     1      -3.680   2.612   6.929  1.00  0.00    -0.265 N 
ATOM     24  H5  UNL     1      -3.876   1.656   7.227  1.00  0.00     0.190 HD
HETATM   25  O5  UNL     1      -4.316   4.403   5.642  1.00  0.00    -0.264 OA
BRANCH  23  26
HETATM   26  N4  UNL     1      -2.548   3.273   7.451  1.00  0.00    -0.310 N 
HETATM   27  C9  UNL     1      -1.498   2.588   7.794  1.00  0.00     0.114 C 
ATOM     28  H4  UNL     1      -2.553   4.288   7.559  1.00  0.00     0.185 HD
BRANCH  27  29
HETATM   29  C8  UNL     1      -1.517   1.134   7.629  1.00  0.00     0.191 C 
BRANCH  29  30
HETATM   30  C6  UNL     1      -1.504   0.397   8.959  1.00  0.00     0.219 C 
BRANCH  30  31
HETATM   31  N3  UNL     1      -2.774   0.656   9.659  1.00  0.00    -0.338 N 
HETATM   32  C5  UNL     1      -3.712  -0.372   9.752  1.00  0.00     0.271 C 
HETATM   33  O1  UNL     1      -3.421  -1.500   9.217  1.00  0.00    -0.266 OA
ATOM     34  H3  UNL     1      -2.964   1.571  10.068  1.00  0.00     0.163 HD
BRANCH  32  35
HETATM   35  C4  UNL     1      -5.003  -0.295  10.401  1.00  0.00     0.126 A 
HETATM   36  N2  UNL     1      -6.207  -0.148   9.762  1.00  0.00    -0.291 N 
HETATM   37  N1  UNL     1      -7.195  -0.126  10.630  1.00  0.00    -0.302 N 
HETATM   38  C3  UNL     1      -6.371  -0.014   8.328  1.00  0.00     0.178 C 
HETATM   39  C2  UNL     1      -6.740  -0.253  11.877  1.00  0.00     0.030 A 
ATOM     40  H1  UNL     1      -8.179  -0.025  10.382  1.00  0.00     0.186 HD
HETATM   41  C1  UNL     1      -7.565  -0.268  13.113  1.00  0.00     0.070 C 
HETATM   42  C22 UNL     1      -5.350  -0.362  11.742  1.00  0.00    -0.004 A 
HETATM   43  C23 UNL     1      -4.441  -0.521  12.889  1.00  0.00     0.053 C 
ENDBRANCH  32  35
ENDBRANCH  30  31
BRANCH  30  44
HETATM   44  C7  UNL     1      -0.424   0.948   9.806  1.00  0.00     0.199 C 
HETATM   45  O2  UNL     1      -0.636   1.621  10.836  1.00  0.00    -0.646 OA
HETATM   46  O3  UNL     1       0.927   0.749   9.493  1.00  0.00    -0.646 OA
ENDBRANCH  30  44
ENDBRANCH  29  30
BRANCH  29  47
HETATM   47  O4  UNL     1      -0.453   0.680   6.862  1.00  0.00    -0.388 OA
ATOM     48  H4  UNL     1      -0.744   0.597   5.962  1.00  0.00     0.210 HD
ENDBRANCH  29  47
ENDBRANCH  27  29
ENDBRANCH  23  26
ENDBRANCH  17  22
ENDBRANCH   9  15
ENDBRANCH   5   8
ENDBRANCH   1   4
TORSDOF 11
ENDMDL
MODEL 4
REMARK VINA RESULT: -8.370312225      4.766     13.024
REMARK  11 active torsions:
REMARK  status: ('A' for Active; 'I' for Inactive)
REMARK    1  A    between atoms: C4_7  and  C5_8 
REMARK       I    between atoms: C5_8  and  N3_10 
REMARK    2  A    between atoms: N3_10  and  C6_12 
REMARK    3  A    between atoms: C6_12  and  C7_13 
REMARK    4  A    between atoms: C6_12  and  C8_16 
REMARK    5  A    between atoms: C8_16  and  O4_17 
REMARK    6  A    between atoms: C8_16  and  C9_19 
REMARK    7  A    between atoms: N4_20  and  N5_22 
REMARK       I    between atoms: N5_22  and  C10_24 
REMARK    8  A    between atoms: C10_24  and  C11_26 
REMARK    9  A    between atoms: N6_28  and  C13_29 
REMARK   10  A    between atoms: C18_35  and  C19_36 
REMARK       I    between atoms: C19_36  and  N7_38 
REMARK   11  A    between atoms: N7_38  and  C20_40 
ROOT
HETATM    1  C20 UNL     1      -0.359   0.789  11.254  1.00  0.00     0.247 C 
HETATM    2  C21 UNL     1       0.595   0.581  12.342  1.00  0.00     0.078 C 
HETATM    3  N8  UNL     1       1.354   0.436  13.217  1.00  0.00    -0.196 NA
ENDROOT
BRANCH   1   4
HETATM    4  N7  UNL     1      -1.642   0.212  11.657  1.00  0.00    -0.344 N 
HETATM    5  C19 UNL     1      -2.828   0.841  11.253  1.00  0.00     0.254 C 
HETATM    6  O6  UNL     1      -2.732   1.896  10.530  1.00  0.00    -0.268 OA
ATOM      7  H7  UNL     1      -1.673  -0.636  12.224  1.00  0.00     0.163 HD
BRANCH   5   8
HETATM    8  C18 UNL     1      -4.135   0.339  11.616  1.00  0.00     0.062 A 
HETATM    9  C13 UNL     1      -5.078  -0.017  10.707  1.00  0.00     0.094 A 
HETATM   10  C14 UNL     1      -6.336  -0.409  11.197  1.00  0.00     0.063 A 
HETATM   11 CL1  UNL     1      -7.586  -0.883  10.073  1.00  0.00    -0.082 Cl
HETATM   12  C15 UNL     1      -6.624  -0.438  12.539  1.00  0.00     0.026 A 
HETATM   13  C16 UNL     1      -5.631  -0.068  13.447  1.00  0.00     0.003 A 
HETATM   14  C17 UNL     1      -4.399   0.318  12.998  1.00  0.00     0.019 A 
BRANCH   9  15
HETATM   15  N6  UNL     1      -4.813  -0.082   9.314  1.00  0.00    -0.248 N 
HETATM   16  C12 UNL     1      -4.925  -1.241   8.580  1.00  0.00     0.155 A 
HETATM   17  C11 UNL     1      -4.623  -1.020   7.262  1.00  0.00     0.136 A 
HETATM   18  N10 UNL     1      -4.324   0.303   7.212  1.00  0.00    -0.279 N 
HETATM   19  N9  UNL     1      -4.446   0.814   8.422  1.00  0.00    -0.235 N 
ATOM     20  H10 UNL     1      -4.051   0.819   6.375  1.00  0.00     0.189 HD
ATOM     21  H9  UNL     1      -4.274   1.795   8.643  1.00  0.00     0.209 HD
BRANCH  17  22
HETATM   22  C10 UNL     1      -4.629  -1.972   6.171  1.00  0.00     0.289 C 
HETATM   23  N5  UNL     1      -5.703  -1.991   5.260  1.00  0.00    -0.265 N 
ATOM     24  H5  UNL     1      -6.469  -1.328   5.386  1.00  0.00     0.190 HD
HETATM   25  O5  UNL     1      -3.689  -2.783   6.022  1.00  0.00    -0.264 OA
BRANCH  23  26
HETATM   26  N4  UNL     1      -5.755  -2.897   4.179  1.00  0.00    -0.310 N 
HETATM   27  C9  UNL     1      -6.817  -2.956   3.432  1.00  0.00     0.114 C 
ATOM     28  H4  UNL     1      -4.959  -3.505   3.984  1.00  0.00     0.185 HD
BRANCH  27  29
HETATM   29  C8  UNL     1      -7.944  -2.073   3.734  1.00  0.00     0.191 C 
BRANCH  29  30
HETATM   30  C6  UNL     1      -7.697  -0.641   3.288  1.00  0.00     0.219 C 
BRANCH  30  31
HETATM   31  N3  UNL     1      -8.995   0.029   3.098  1.00  0.00    -0.338 N 
HETATM   32  C5  UNL     1      -9.478   0.857   4.111  1.00  0.00     0.271 C 
HETATM   33  O1  UNL     1      -8.765   0.992   5.167  1.00  0.00    -0.266 OA
ATOM     34  H3  UNL     1      -9.530  -0.110   2.241  1.00  0.00     0.163 HD
BRANCH  32  35
HETATM   35  C4  UNL     1     -10.725   1.591   4.094  1.00  0.00     0.126 A 
HETATM   36  N2  UNL     1     -11.789   1.373   4.930  1.00  0.00    -0.291 N 
HETATM   37  N1  UNL     1     -12.766   2.213   4.670  1.00  0.00    -0.302 N 
HETATM   38  C3  UNL     1     -11.840   0.345   5.951  1.00  0.00     0.178 C 
HETATM   39  C2  UNL     1     -12.441   3.032   3.670  1.00  0.00     0.030 A 
ATOM     40  H1  UNL     1     -13.656   2.235   5.168  1.00  0.00     0.186 HD
HETATM   41  C1  UNL     1     -13.297   4.106   3.102  1.00  0.00     0.070 C 
HETATM   42  C22 UNL     1     -11.147   2.645   3.297  1.00  0.00    -0.004 A 
HETATM   43  C23 UNL     1     -10.394   3.297   2.212  1.00  0.00     0.053 C 
ENDBRANCH  32  35
ENDBRANCH  30  31
BRANCH  30  44
HETATM   44  C7  UNL     1      -7.021  -0.655   1.973  1.00  0.00     0.199 C 
HETATM   45  O2  UNL     1      -7.636  -0.708   0.887  1.00  0.00    -0.646 OA
HETATM   46  O3  UNL     1      -5.625  -0.614   1.864  1.00  0.00    -0.646 OA
ENDBRANCH  30  44
ENDBRANCH  29  30
BRANCH  29  47
HETATM   47  O4  UNL     1      -8.258  -2.067   5.086  1.00  0.00    -0.388 OA
ATOM     48  H4  UNL     1      -9.029  -2.605   5.219  1.00  0.00     0.210 HD
ENDBRANCH  29  47
ENDBRANCH  27  29
ENDBRANCH  23  26
ENDBRANCH  17  22
ENDBRANCH   9  15
ENDBRANCH   5   8
ENDBRANCH   1   4
TORSDOF 11
ENDMDL
MODEL 5
REMARK VINA RESULT: -8.261829560      2.351      3.745
REMARK  11 active torsions:
REMARK  status: ('A' for Active; 'I' for Inactive)
REMARK    1  A    between atoms: C4_7  and  C5_8 
REMARK       I    between atoms: C5_8  and  N3_10 
REMARK    2  A    between atoms: N3_10  and  C6_12 
REMARK    3  A    between atoms: C6_12  and  C7_13 
REMARK    4  A    between atoms: C6_12  and  C8_16 
REMARK    5  A    between atoms: C8_16  and  O4_17 
REMARK    6  A    between atoms: C8_16  and  C9_19 
REMARK    7  A    between atoms: N4_20  and  N5_22 
REMARK       I    between atoms: N5_22  and  C10_24 
REMARK    8  A    between atoms: C10_24  and  C11_26 
REMARK    9  A    between atoms: N6_28  and  C13_29 
REMARK   10  A    between atoms: C18_35  and  C19_36 
REMARK       I    between atoms: C19_36  and  N7_38 
REMARK   11  A    between atoms: N7_38  and  C20_40 
ROOT
HETATM    1  C20 UNL     1      -7.444   0.419   6.034  1.00  0.00     0.247 C 
HETATM    2  C21 UNL     1      -8.740  -0.149   5.667  1.00  0.00     0.078 C 
HETATM    3  N8  UNL     1      -9.766  -0.621   5.372  1.00  0.00    -0.196 NA
ENDROOT
BRANCH   1   4
HETATM    4  N7  UNL     1      -7.407   0.564   7.490  1.00  0.00    -0.344 N 
HETATM    5  C19 UNL     1      -6.655  -0.347   8.245  1.00  0.00     0.254 C 
HETATM    6  O6  UNL     1      -6.016  -1.264   7.617  1.00  0.00    -0.268 OA
ATOM      7  H7  UNL     1      -7.922   1.317   7.949  1.00  0.00     0.163 HD
BRANCH   5   8
HETATM    8  C18 UNL     1      -6.572  -0.277   9.688  1.00  0.00     0.062 A 
HETATM    9  C13 UNL     1      -5.403  -0.336  10.374  1.00  0.00     0.094 A 
HETATM   10  C14 UNL     1      -5.475  -0.343  11.778  1.00  0.00     0.063 A 
HETATM   11 CL1  UNL     1      -4.000  -0.412  12.713  1.00  0.00    -0.082 Cl
HETATM   12  C15 UNL     1      -6.669  -0.292  12.452  1.00  0.00     0.026 A 
HETATM   13  C16 UNL     1      -7.853  -0.230  11.716  1.00  0.00     0.003 A 
HETATM   14  C17 UNL     1      -7.813  -0.222  10.350  1.00  0.00     0.019 A 
BRANCH   9  15
HETATM   15  N6  UNL     1      -4.137  -0.310   9.733  1.00  0.00    -0.248 N 
HETATM   16  C12 UNL     1      -3.408   0.843   9.552  1.00  0.00     0.155 A 
HETATM   17  C11 UNL     1      -2.223   0.583   8.917  1.00  0.00     0.136 A 
HETATM   18  N10 UNL     1      -2.247  -0.760   8.716  1.00  0.00    -0.279 N 
HETATM   19  N9  UNL     1      -3.374  -1.243   9.203  1.00  0.00    -0.235 N 
ATOM     20  H10 UNL     1      -1.514  -1.306   8.264  1.00  0.00     0.189 HD
ATOM     21  H9  UNL     1      -3.626  -2.231   9.173  1.00  0.00     0.209 HD
BRANCH  17  22
HETATM   22  C10 UNL     1      -1.178   1.517   8.552  1.00  0.00     0.289 C 
HETATM   23  N5  UNL     1       0.172   1.186   8.779  1.00  0.00    -0.265 N 
ATOM     24  H5  UNL     1       0.395   0.285   9.203  1.00  0.00     0.190 HD
HETATM   25  O5  UNL     1      -1.457   2.620   8.035  1.00  0.00    -0.264 OA
BRANCH  23  26
HETATM   26  N4  UNL     1       1.226   2.061   8.439  1.00  0.00    -0.310 N 
HETATM   27  C9  UNL     1       2.206   2.251   9.272  1.00  0.00     0.114 C 
ATOM     28  H4  UNL     1       1.220   2.544   7.541  1.00  0.00     0.185 HD
BRANCH  27  29
HETATM   29  C8  UNL     1       2.191   1.547  10.554  1.00  0.00     0.191 C 
BRANCH  29  30
HETATM   30  C6  UNL     1       2.095   2.495  11.739  1.00  0.00     0.219 C 
BRANCH  30  31
HETATM   31  N3  UNL     1       1.685   1.730  12.929  1.00  0.00    -0.338 N 
HETATM   32  C5  UNL     1       2.645   1.419  13.892  1.00  0.00     0.271 C 
HETATM   33  O1  UNL     1       3.848   1.815  13.690  1.00  0.00    -0.266 OA
ATOM     34  H3  UNL     1       0.716   1.433  13.047  1.00  0.00     0.163 HD
BRANCH  32  35
HETATM   35  C4  UNL     1       2.421   0.681  15.116  1.00  0.00     0.126 A 
HETATM   36  N2  UNL     1       2.667  -0.655  15.297  1.00  0.00    -0.291 N 
HETATM   37  N1  UNL     1       2.372  -1.021  16.525  1.00  0.00    -0.302 N 
HETATM   38  C3  UNL     1       3.167  -1.549  14.271  1.00  0.00     0.178 C 
HETATM   39  C2  UNL     1       1.919   0.010  17.237  1.00  0.00     0.030 A 
ATOM     40  H1  UNL     1       2.476  -1.970  16.884  1.00  0.00     0.186 HD
HETATM   41  C1  UNL     1       1.486  -0.028  18.658  1.00  0.00     0.070 C 
HETATM   42  C22 UNL     1       1.946   1.096  16.352  1.00  0.00    -0.004 A 
HETATM   43  C23 UNL     1       1.522   2.454  16.732  1.00  0.00     0.053 C 
ENDBRANCH  32  35
ENDBRANCH  30  31
BRANCH  30  44
HETATM   44  C7  UNL     1       1.032   3.489  11.477  1.00  0.00     0.199 C 
HETATM   45  O2  UNL     1       1.232   4.721  11.473  1.00  0.00    -0.646 OA
HETATM   46  O3  UNL     1      -0.288   3.100  11.217  1.00  0.00    -0.646 OA
ENDBRANCH  30  44
ENDBRANCH  29  30
BRANCH  29  47
HETATM   47  O4  UNL     1       3.308   0.740  10.723  1.00  0.00    -0.388 OA
ATOM     48  H4  UNL     1       4.049   1.159  10.301  1.00  0.00     0.210 HD
ENDBRANCH  29  47
ENDBRANCH  27  29
ENDBRANCH  23  26
ENDBRANCH  17  22
ENDBRANCH   9  15
ENDBRANCH   5   8
ENDBRANCH   1   4
TORSDOF 11
ENDMDL
