MODEL 1
REMARK VINA RESULT: -7.258214668      0.000      0.000
REMARK  15 active torsions:
REMARK  status: ('A' for Active; 'I' for Inactive)
REMARK    1  A    between atoms: C3_4  and  C4_5 
REMARK    2  A    between atoms: C4_5  and  O2_6 
REMARK    3  A    between atoms: O2_6  and  C5_7 
REMARK    4  A    between atoms: C6_8  and  O3_9 
REMARK    5  A    between atoms: O3_9  and  C7_10 
REMARK    6  A    between atoms: C10_14  and  N1_15 
REMARK    7  A    between atoms: C12_20  and  N2_21 
REMARK    8  A    between atoms: C13_26  and  C14_27 
REMARK    9  A    between atoms: C14_27  and  O6_28 
REMARK   10  A    between atoms: C15_30  and  O7_31 
REMARK   11  A    between atoms: O7_31  and  C16_32 
REMARK   12  A    between atoms: C19_36  and  O9_37 
REMARK   13  A    between atoms: O9_37  and  C20_38 
REMARK   14  A    between atoms: C25_44  and  O11_45 
REMARK   15  A    between atoms: C27_48  and  N3_49 
ROOT
HETATM    1  C5  UNL     1      -3.399  -0.312   8.792  1.00  0.00     0.208 C 
HETATM    2  C6  UNL     1      -2.306   0.473   8.035  1.00  0.00     0.295 C 
HETATM    3  O5  UNL     1      -2.998   1.566   7.491  1.00  0.00    -0.348 OA
HETATM    4  C13 UNL     1      -3.564   1.049   6.299  1.00  0.00     0.180 C 
HETATM    5  C15 UNL     1      -4.575  -0.001   6.597  1.00  0.00     0.187 C 
HETATM    6  C25 UNL     1      -4.701  -0.310   8.075  1.00  0.00     0.183 C 
ENDROOT
BRANCH   2   7
HETATM    7  O3  UNL     1      -1.323   0.815   8.900  1.00  0.00    -0.327 OA
BRANCH   7   8
HETATM    8  C7  UNL     1      -0.891   2.121   8.878  1.00  0.00     0.293 C 
HETATM    9  O4  UNL     1       0.444   2.300   8.645  1.00  0.00    -0.352 OA
HETATM   10  C8  UNL     1       0.704   3.513   8.021  1.00  0.00     0.151 C 
HETATM   11  C9  UNL     1       2.181   3.844   8.151  1.00  0.00     0.042 C 
HETATM   12  C10 UNL     1      -0.191   4.546   8.632  1.00  0.00     0.214 C 
HETATM   13  C11 UNL     1      -0.536   4.215  10.076  1.00  0.00     0.073 C 
HETATM   14  C12 UNL     1      -1.216   2.862  10.168  1.00  0.00     0.240 C 
BRANCH  12  15
HETATM   15  N1  UNL     1       0.470   5.820   8.596  1.00  0.00    -0.072 N 
ATOM     16  H13 UNL     1       0.508   6.262   9.515  1.00  0.00     0.274 HD
ATOM     17  H12 UNL     1       1.473   5.732   8.437  1.00  0.00     0.274 HD
ATOM     18  H11 UNL     1       0.018   6.411   7.900  1.00  0.00     0.274 HD
ENDBRANCH  12  15
BRANCH  14  19
HETATM   19  N2  UNL     1      -2.643   3.115  10.283  1.00  0.00    -0.070 N 
ATOM     20  H23 UNL     1      -2.931   3.907   9.710  1.00  0.00     0.274 HD
ATOM     21  H22 UNL     1      -3.191   2.385   9.828  1.00  0.00     0.274 HD
ATOM     22  H21 UNL     1      -2.918   3.238  11.258  1.00  0.00     0.274 HD
ENDBRANCH  14  19
ENDBRANCH   7   8
ENDBRANCH   2   7
BRANCH   1  23
HETATM   23  O2  UNL     1      -3.530   0.314  10.022  1.00  0.00    -0.376 OA
BRANCH  23  24
HETATM   24  C4  UNL     1      -4.383  -0.283  10.897  1.00  0.00     0.200 C 
BRANCH  24  25
HETATM   25  C3  UNL     1      -4.986   0.587  11.965  1.00  0.00     0.147 C 
HETATM   26  O1  UNL     1      -6.357   0.602  11.769  1.00  0.00    -0.377 OA
HETATM   27  C2  UNL     1      -7.004  -0.012  12.793  1.00  0.00     0.148 C 
HETATM   28  C1  UNL     1      -8.153  -0.865  12.295  1.00  0.00     0.042 C 
HETATM   29  C27 UNL     1      -5.983  -0.893  13.484  1.00  0.00     0.214 C 
HETATM   30  C26 UNL     1      -4.757  -0.019  13.339  1.00  0.00     0.069 C 
BRANCH  29  31
HETATM   31  N3  UNL     1      -6.329  -1.110  14.876  1.00  0.00    -0.072 N 
ATOM     32  H33 UNL     1      -6.983  -0.404  15.214  1.00  0.00     0.274 HD
ATOM     33  H32 UNL     1      -6.918  -1.935  14.991  1.00  0.00     0.274 HD
ATOM     34  H31 UNL     1      -5.496  -1.159  15.462  1.00  0.00     0.274 HD
ENDBRANCH  29  31
ENDBRANCH  24  25
ENDBRANCH  23  24
ENDBRANCH   1  23
BRANCH   6  35
HETATM   35  O11 UNL     1      -5.330  -1.571   8.244  1.00  0.00    -0.390 OA
ATOM     36  H11 UNL     1      -6.270  -1.447   8.297  1.00  0.00     0.210 HD
ENDBRANCH   6  35
BRANCH   4  37
HETATM   37  C14 UNL     1      -4.215   2.179   5.539  1.00  0.00     0.198 C 
BRANCH  37  38
HETATM   38  O6  UNL     1      -5.351   2.599   6.226  1.00  0.00    -0.398 OA
ATOM     39  H6  UNL     1      -6.051   2.760   5.605  1.00  0.00     0.209 HD
ENDBRANCH  37  38
ENDBRANCH   4  37
BRANCH   5  40
HETATM   40  O7  UNL     1      -4.287  -1.168   5.894  1.00  0.00    -0.347 OA
BRANCH  40  41
HETATM   41  C16 UNL     1      -5.236  -1.598   5.034  1.00  0.00     0.298 C 
HETATM   42  O8  UNL     1      -6.550  -1.748   5.634  1.00  0.00    -0.330 OA
HETATM   43  C17 UNL     1      -7.225  -2.586   4.714  1.00  0.00     0.137 C 
HETATM   44  C18 UNL     1      -6.361  -3.391   4.143  1.00  0.00     0.034 C 
HETATM   45  C19 UNL     1      -5.010  -3.074   4.716  1.00  0.00     0.204 C 
BRANCH  45  46
HETATM   46  O9  UNL     1      -4.971  -3.736   5.932  1.00  0.00    -0.347 OA
BRANCH  46  47
HETATM   47  C20 UNL     1      -4.299  -4.924   5.946  1.00  0.00     0.260 C 
HETATM   48  C21 UNL     1      -4.882  -5.775   7.060  1.00  0.00     0.061 C 
HETATM   49  C22 UNL     1      -3.935  -5.804   8.248  1.00  0.00     0.007 C 
HETATM   50  C23 UNL     1      -3.498  -4.400   8.566  1.00  0.00     0.026 C 
HETATM   51  C24 UNL     1      -2.938  -3.769   7.339  1.00  0.00     0.171 C 
HETATM   52  O10 UNL     1      -2.977  -4.665   6.277  1.00  0.00    -0.361 OA
ENDBRANCH  46  47
ENDBRANCH  45  46
ENDBRANCH  40  41
ENDBRANCH   5  40
TORSDOF 15
ENDMDL
MODEL 2
REMARK VINA RESULT: -7.227699699      2.348      6.379
REMARK  15 active torsions:
REMARK  status: ('A' for Active; 'I' for Inactive)
REMARK    1  A    between atoms: C3_4  and  C4_5 
REMARK    2  A    between atoms: C4_5  and  O2_6 
REMARK    3  A    between atoms: O2_6  and  C5_7 
REMARK    4  A    between atoms: C6_8  and  O3_9 
REMARK    5  A    between atoms: O3_9  and  C7_10 
REMARK    6  A    between atoms: C10_14  and  N1_15 
REMARK    7  A    between atoms: C12_20  and  N2_21 
REMARK    8  A    between atoms: C13_26  and  C14_27 
REMARK    9  A    between atoms: C14_27  and  O6_28 
REMARK   10  A    between atoms: C15_30  and  O7_31 
REMARK   11  A    between atoms: O7_31  and  C16_32 
REMARK   12  A    between atoms: C19_36  and  O9_37 
REMARK   13  A    between atoms: O9_37  and  C20_38 
REMARK   14  A    between atoms: C25_44  and  O11_45 
REMARK   15  A    between atoms: C27_48  and  N3_49 
ROOT
HETATM    1  C5  UNL     1      -4.048  -0.516   6.698  1.00  0.00     0.208 C 
HETATM    2  C6  UNL     1      -4.217  -1.544   7.838  1.00  0.00     0.295 C 
HETATM    3  O5  UNL     1      -3.614  -2.706   7.331  1.00  0.00    -0.348 OA
HETATM    4  C13 UNL     1      -4.630  -3.297   6.538  1.00  0.00     0.180 C 
HETATM    5  C15 UNL     1      -4.969  -2.438   5.372  1.00  0.00     0.187 C 
HETATM    6  C25 UNL     1      -4.210  -1.127   5.353  1.00  0.00     0.183 C 
ENDROOT
BRANCH   2   7
HETATM    7  O3  UNL     1      -3.636  -1.064   8.962  1.00  0.00    -0.327 OA
BRANCH   7   8
HETATM    8  C7  UNL     1      -4.464  -0.761  10.018  1.00  0.00     0.293 C 
HETATM    9  O4  UNL     1      -5.723  -0.350   9.684  1.00  0.00    -0.352 OA
HETATM   10  C8  UNL     1      -6.650  -0.667  10.668  1.00  0.00     0.151 C 
HETATM   11  C9  UNL     1      -7.915   0.145  10.454  1.00  0.00     0.042 C 
HETATM   12  C10 UNL     1      -6.010  -0.426  11.999  1.00  0.00     0.214 C 
HETATM   13  C11 UNL     1      -4.954   0.668  11.932  1.00  0.00     0.073 C 
HETATM   14  C12 UNL     1      -3.875   0.311  10.927  1.00  0.00     0.240 C 
BRANCH  12  15
HETATM   15  N1  UNL     1      -7.018  -0.034  12.942  1.00  0.00    -0.072 N 
ATOM     16  H13 UNL     1      -7.911   0.170  12.492  1.00  0.00     0.274 HD
ATOM     17  H12 UNL     1      -7.326  -0.812  13.526  1.00  0.00     0.274 HD
ATOM     18  H11 UNL     1      -6.674   0.751  13.494  1.00  0.00     0.274 HD
ENDBRANCH  12  15
BRANCH  14  19
HETATM   19  N2  UNL     1      -2.747  -0.204  11.685  1.00  0.00    -0.070 N 
ATOM     20  H23 UNL     1      -2.220  -0.895  11.151  1.00  0.00     0.274 HD
ATOM     21  H22 UNL     1      -2.017   0.498  11.794  1.00  0.00     0.274 HD
ATOM     22  H21 UNL     1      -3.047  -0.577  12.586  1.00  0.00     0.274 HD
ENDBRANCH  14  19
ENDBRANCH   7   8
ENDBRANCH   2   7
BRANCH   1  23
HETATM   23  O2  UNL     1      -2.767  -0.004   6.840  1.00  0.00    -0.376 OA
BRANCH  23  24
HETATM   24  C4  UNL     1      -2.665   1.350   6.764  1.00  0.00     0.200 C 
BRANCH  24  25
HETATM   25  C3  UNL     1      -1.304   1.946   6.995  1.00  0.00     0.147 C 
HETATM   26  O1  UNL     1      -1.460   3.031   7.844  1.00  0.00    -0.377 OA
HETATM   27  C2  UNL     1      -0.867   2.802   9.043  1.00  0.00     0.148 C 
HETATM   28  C1  UNL     1      -1.713   3.314  10.190  1.00  0.00     0.042 C 
HETATM   29  C27 UNL     1      -0.704   1.301   9.167  1.00  0.00     0.214 C 
HETATM   30  C26 UNL     1      -0.406   0.961   7.723  1.00  0.00     0.069 C 
BRANCH  29  31
HETATM   31  N3  UNL     1       0.405   0.961  10.040  1.00  0.00    -0.072 N 
ATOM     32  H33 UNL     1       1.301   1.211   9.623  1.00  0.00     0.274 HD
ATOM     33  H32 UNL     1       0.437   1.570  10.858  1.00  0.00     0.274 HD
ATOM     34  H31 UNL     1       0.378  -0.023  10.307  1.00  0.00     0.274 HD
ENDBRANCH  29  31
ENDBRANCH  24  25
ENDBRANCH  23  24
ENDBRANCH   1  23
BRANCH   6  35
HETATM   35  O11 UNL     1      -4.873  -0.207   4.499  1.00  0.00    -0.390 OA
ATOM     36  H11 UNL     1      -5.778  -0.473   4.395  1.00  0.00     0.210 HD
ENDBRANCH   6  35
BRANCH   4  37
HETATM   37  C14 UNL     1      -4.149  -4.643   6.054  1.00  0.00     0.198 C 
BRANCH  37  38
HETATM   38  O6  UNL     1      -2.757  -4.665   6.071  1.00  0.00    -0.398 OA
ATOM     39  H6  UNL     1      -2.458  -5.566   6.020  1.00  0.00     0.209 HD
ENDBRANCH  37  38
ENDBRANCH   4  37
BRANCH   5  40
HETATM   40  O7  UNL     1      -6.339  -2.190   5.331  1.00  0.00    -0.347 OA
BRANCH  40  41
HETATM   41  C16 UNL     1      -6.987  -2.600   4.218  1.00  0.00     0.298 C 
HETATM   42  O8  UNL     1      -6.301  -2.271   2.982  1.00  0.00    -0.330 OA
HETATM   43  C17 UNL     1      -7.324  -2.390   2.010  1.00  0.00     0.137 C 
HETATM   44  C18 UNL     1      -8.477  -2.076   2.551  1.00  0.00     0.034 C 
HETATM   45  C19 UNL     1      -8.214  -1.722   3.987  1.00  0.00     0.204 C 
BRANCH  45  46
HETATM   46  O9  UNL     1      -7.761  -0.414   3.958  1.00  0.00    -0.347 OA
BRANCH  46  47
HETATM   47  C20 UNL     1      -8.249   0.411   4.929  1.00  0.00     0.260 C 
HETATM   48  C21 UNL     1      -9.733   0.125   5.079  1.00  0.00     0.061 C 
HETATM   49  C22 UNL     1     -10.549   1.233   4.434  1.00  0.00     0.007 C 
HETATM   50  C23 UNL     1     -10.004   1.513   3.061  1.00  0.00     0.026 C 
HETATM   51  C24 UNL     1      -8.543   1.791   3.158  1.00  0.00     0.171 C 
HETATM   52  O10 UNL     1      -8.127   1.719   4.482  1.00  0.00    -0.361 OA
ENDBRANCH  46  47
ENDBRANCH  45  46
ENDBRANCH  40  41
ENDBRANCH   5  40
TORSDOF 15
ENDMDL
MODEL 3
REMARK VINA RESULT: -7.179990321      2.453      6.435
REMARK  15 active torsions:
REMARK  status: ('A' for Active; 'I' for Inactive)
REMARK    1  A    between atoms: C3_4  and  C4_5 
REMARK    2  A    between atoms: C4_5  and  O2_6 
REMARK    3  A    between atoms: O2_6  and  C5_7 
REMARK    4  A    between atoms: C6_8  and  O3_9 
REMARK    5  A    between atoms: O3_9  and  C7_10 
REMARK    6  A    between atoms: C10_14  and  N1_15 
REMARK    7  A    between atoms: C12_20  and  N2_21 
REMARK    8  A    between atoms: C13_26  and  C14_27 
REMARK    9  A    between atoms: C14_27  and  O6_28 
REMARK   10  A    between atoms: C15_30  and  O7_31 
REMARK   11  A    between atoms: O7_31  and  C16_32 
REMARK   12  A    between atoms: C19_36  and  O9_37 
REMARK   13  A    between atoms: O9_37  and  C20_38 
REMARK   14  A    between atoms: C25_44  and  O11_45 
REMARK   15  A    between atoms: C27_48  and  N3_49 
ROOT
HETATM    1  C5  UNL     1      -4.306  -0.651   6.198  1.00  0.00     0.208 C 
HETATM    2  C6  UNL     1      -4.432  -1.618   7.396  1.00  0.00     0.295 C 
HETATM    3  O5  UNL     1      -3.789  -2.784   6.951  1.00  0.00    -0.348 OA
HETATM    4  C13 UNL     1      -4.787  -3.456   6.201  1.00  0.00     0.180 C 
HETATM    5  C15 UNL     1      -5.163  -2.678   4.990  1.00  0.00     0.187 C 
HETATM    6  C25 UNL     1      -4.453  -1.343   4.891  1.00  0.00     0.183 C 
ENDROOT
BRANCH   2   7
HETATM    7  O3  UNL     1      -3.863  -1.054   8.486  1.00  0.00    -0.327 OA
BRANCH   7   8
HETATM    8  C7  UNL     1      -4.682  -0.795   9.561  1.00  0.00     0.293 C 
HETATM    9  O4  UNL     1      -5.901  -0.257   9.260  1.00  0.00    -0.352 OA
HETATM   10  C8  UNL     1      -6.865  -0.600  10.200  1.00  0.00     0.151 C 
HETATM   11  C9  UNL     1      -8.062   0.324  10.058  1.00  0.00     0.042 C 
HETATM   12  C10 UNL     1      -6.229  -0.543  11.554  1.00  0.00     0.214 C 
HETATM   13  C11 UNL     1      -5.094   0.469  11.605  1.00  0.00     0.073 C 
HETATM   14  C12 UNL     1      -4.029   0.132  10.578  1.00  0.00     0.240 C 
BRANCH  12  15
HETATM   15  N1  UNL     1      -7.220  -0.172  12.523  1.00  0.00    -0.072 N 
ATOM     16  H13 UNL     1      -7.842   0.561  12.180  1.00  0.00     0.274 HD
ATOM     17  H12 UNL     1      -7.919  -0.901  12.662  1.00  0.00     0.274 HD
ATOM     18  H11 UNL     1      -6.756   0.090  13.392  1.00  0.00     0.274 HD
ENDBRANCH  12  15
BRANCH  14  19
HETATM   19  N2  UNL     1      -2.955  -0.541  11.289  1.00  0.00    -0.070 N 
ATOM     20  H23 UNL     1      -2.499   0.082  11.956  1.00  0.00     0.274 HD
ATOM     21  H22 UNL     1      -3.315  -1.233  11.945  1.00  0.00     0.274 HD
ATOM     22  H21 UNL     1      -2.283  -0.952  10.641  1.00  0.00     0.274 HD
ENDBRANCH  14  19
ENDBRANCH   7   8
ENDBRANCH   2   7
BRANCH   1  23
HETATM   23  O2  UNL     1      -3.044  -0.085   6.301  1.00  0.00    -0.376 OA
BRANCH  23  24
HETATM   24  C4  UNL     1      -3.014   1.271   6.390  1.00  0.00     0.200 C 
BRANCH  24  25
HETATM   25  C3  UNL     1      -1.677   1.910   6.642  1.00  0.00     0.147 C 
HETATM   26  O1  UNL     1      -1.864   2.924   7.567  1.00  0.00    -0.377 OA
HETATM   27  C2  UNL     1      -1.240   2.639   8.738  1.00  0.00     0.148 C 
HETATM   28  C1  UNL     1      -2.086   3.030   9.932  1.00  0.00     0.042 C 
HETATM   29  C27 UNL     1      -1.009   1.141   8.752  1.00  0.00     0.214 C 
HETATM   30  C26 UNL     1      -0.724   0.917   7.284  1.00  0.00     0.069 C 
BRANCH  29  31
HETATM   31  N3  UNL     1       0.129   0.790   9.582  1.00  0.00    -0.072 N 
ATOM     32  H33 UNL     1       0.598   1.620   9.945  1.00  0.00     0.274 HD
ATOM     33  H32 UNL     1      -0.166   0.377  10.467  1.00  0.00     0.274 HD
ATOM     34  H31 UNL     1       0.779   0.182   9.083  1.00  0.00     0.274 HD
ENDBRANCH  29  31
ENDBRANCH  24  25
ENDBRANCH  23  24
ENDBRANCH   1  23
BRANCH   6  35
HETATM   35  O11 UNL     1      -5.153  -0.498   3.991  1.00  0.00    -0.390 OA
ATOM     36  H11 UNL     1      -5.111  -0.868   3.117  1.00  0.00     0.210 HD
ENDBRANCH   6  35
BRANCH   4  37
HETATM   37  C14 UNL     1      -4.260  -4.809   5.791  1.00  0.00     0.198 C 
BRANCH  37  38
HETATM   38  O6  UNL     1      -2.874  -4.823   5.932  1.00  0.00    -0.398 OA
ATOM     39  H6  UNL     1      -2.522  -5.580   5.479  1.00  0.00     0.209 HD
ENDBRANCH  37  38
ENDBRANCH   4  37
BRANCH   5  40
HETATM   40  O7  UNL     1      -6.541  -2.482   4.945  1.00  0.00    -0.347 OA
BRANCH  40  41
HETATM   41  C16 UNL     1      -7.240  -3.331   4.159  1.00  0.00     0.298 C 
HETATM   42  O8  UNL     1      -6.453  -3.931   3.096  1.00  0.00    -0.330 OA
HETATM   43  C17 UNL     1      -7.442  -4.396   2.194  1.00  0.00     0.137 C 
HETATM   44  C18 UNL     1      -8.488  -3.608   2.251  1.00  0.00     0.034 C 
HETATM   45  C19 UNL     1      -8.187  -2.538   3.262  1.00  0.00     0.204 C 
BRANCH  45  46
HETATM   46  O9  UNL     1      -7.405  -1.615   2.586  1.00  0.00    -0.347 OA
BRANCH  46  47
HETATM   47  C20 UNL     1      -7.982  -1.025   1.499  1.00  0.00     0.260 C 
HETATM   48  C21 UNL     1      -6.957  -0.094   0.877  1.00  0.00     0.061 C 
HETATM   49  C22 UNL     1      -7.293   1.352   1.207  1.00  0.00     0.007 C 
HETATM   50  C23 UNL     1      -7.574   1.469   2.680  1.00  0.00     0.026 C 
HETATM   51  C24 UNL     1      -8.624   0.484   3.061  1.00  0.00     0.171 C 
HETATM   52  O10 UNL     1      -9.034  -0.237   1.946  1.00  0.00    -0.361 OA
ENDBRANCH  46  47
ENDBRANCH  45  46
ENDBRANCH  40  41
ENDBRANCH   5  40
TORSDOF 15
ENDMDL
MODEL 4
REMARK VINA RESULT: -7.167356952      2.293      6.112
REMARK  15 active torsions:
REMARK  status: ('A' for Active; 'I' for Inactive)
REMARK    1  A    between atoms: C3_4  and  C4_5 
REMARK    2  A    between atoms: C4_5  and  O2_6 
REMARK    3  A    between atoms: O2_6  and  C5_7 
REMARK    4  A    between atoms: C6_8  and  O3_9 
REMARK    5  A    between atoms: O3_9  and  C7_10 
REMARK    6  A    between atoms: C10_14  and  N1_15 
REMARK    7  A    between atoms: C12_20  and  N2_21 
REMARK    8  A    between atoms: C13_26  and  C14_27 
REMARK    9  A    between atoms: C14_27  and  O6_28 
REMARK   10  A    between atoms: C15_30  and  O7_31 
REMARK   11  A    between atoms: O7_31  and  C16_32 
REMARK   12  A    between atoms: C19_36  and  O9_37 
REMARK   13  A    between atoms: O9_37  and  C20_38 
REMARK   14  A    between atoms: C25_44  and  O11_45 
REMARK   15  A    between atoms: C27_48  and  N3_49 
ROOT
HETATM    1  C5  UNL     1      -2.709   0.500   8.785  1.00  0.00     0.208 C 
HETATM    2  C6  UNL     1      -3.887  -0.390   9.239  1.00  0.00     0.295 C 
HETATM    3  O5  UNL     1      -3.515  -1.675   8.815  1.00  0.00    -0.348 OA
HETATM    4  C13 UNL     1      -3.908  -1.710   7.453  1.00  0.00     0.180 C 
HETATM    5  C15 UNL     1      -3.123  -0.741   6.643  1.00  0.00     0.187 C 
HETATM    6  C25 UNL     1      -2.158   0.087   7.468  1.00  0.00     0.183 C 
ENDROOT
BRANCH   2   7
HETATM    7  O3  UNL     1      -4.045  -0.272  10.578  1.00  0.00    -0.327 OA
BRANCH   7   8
HETATM    8  C7  UNL     1      -5.322  -0.401  11.074  1.00  0.00     0.293 C 
HETATM    9  O4  UNL     1      -6.305   0.203  10.342  1.00  0.00    -0.352 OA
HETATM   10  C8  UNL     1      -7.526  -0.444  10.480  1.00  0.00     0.151 C 
HETATM   11  C9  UNL     1      -8.641   0.468   9.999  1.00  0.00     0.042 C 
HETATM   12  C10 UNL     1      -7.671  -0.851  11.914  1.00  0.00     0.214 C 
HETATM   13  C11 UNL     1      -6.921   0.086  12.849  1.00  0.00     0.073 C 
HETATM   14  C12 UNL     1      -5.446   0.126  12.498  1.00  0.00     0.240 C 
BRANCH  12  15
HETATM   15  N1  UNL     1      -9.062  -0.838  12.267  1.00  0.00    -0.072 N 
ATOM     16  H13 UNL     1      -9.670  -0.829  11.448  1.00  0.00     0.274 HD
ATOM     17  H12 UNL     1      -9.370  -1.725  12.665  1.00  0.00     0.274 HD
ATOM     18  H11 UNL     1      -9.241  -0.051  12.891  1.00  0.00     0.274 HD
ENDBRANCH  12  15
BRANCH  14  19
HETATM   19  N2  UNL     1      -4.765  -0.745  13.441  1.00  0.00    -0.070 N 
ATOM     20  H23 UNL     1      -4.606  -1.673  13.048  1.00  0.00     0.274 HD
ATOM     21  H22 UNL     1      -3.794  -0.466  13.577  1.00  0.00     0.274 HD
ATOM     22  H21 UNL     1      -5.268  -0.795  14.327  1.00  0.00     0.274 HD
ENDBRANCH  14  19
ENDBRANCH   7   8
ENDBRANCH   2   7
BRANCH   1  23
HETATM   23  O2  UNL     1      -1.740   0.374   9.769  1.00  0.00    -0.376 OA
BRANCH  23  24
HETATM   24  C4  UNL     1      -1.302   1.540  10.315  1.00  0.00     0.200 C 
BRANCH  24  25
HETATM   25  C3  UNL     1      -1.337   1.648  11.814  1.00  0.00     0.147 C 
HETATM   26  O1  UNL     1      -0.510   0.662  12.326  1.00  0.00    -0.377 OA
HETATM   27  C2  UNL     1       0.571   1.203  12.945  1.00  0.00     0.148 C 
HETATM   28  C1  UNL     1       1.834   0.424  12.644  1.00  0.00     0.042 C 
HETATM   29  C27 UNL     1       0.710   2.616  12.416  1.00  0.00     0.214 C 
HETATM   30  C26 UNL     1      -0.752   2.974  12.267  1.00  0.00     0.069 C 
BRANCH  29  31
HETATM   31  N3  UNL     1       1.381   3.475  13.376  1.00  0.00    -0.072 N 
ATOM     32  H33 UNL     1       1.446   3.032  14.292  1.00  0.00     0.274 HD
ATOM     33  H32 UNL     1       2.377   3.558  13.171  1.00  0.00     0.274 HD
ATOM     34  H31 UNL     1       0.932   4.389  13.432  1.00  0.00     0.274 HD
ENDBRANCH  29  31
ENDBRANCH  24  25
ENDBRANCH  23  24
ENDBRANCH   1  23
BRANCH   6  35
HETATM   35  O11 UNL     1      -1.779   1.243   6.737  1.00  0.00    -0.390 OA
ATOM     36  H11 UNL     1      -1.066   1.022   6.150  1.00  0.00     0.210 HD
ENDBRANCH   6  35
BRANCH   4  37
HETATM   37  C14 UNL     1      -3.696  -3.106   6.921  1.00  0.00     0.198 C 
BRANCH  37  38
HETATM   38  O6  UNL     1      -4.843  -3.519   6.248  1.00  0.00    -0.398 OA
ATOM     39  H6  UNL     1      -4.753  -4.434   6.009  1.00  0.00     0.209 HD
ENDBRANCH  37  38
ENDBRANCH   4  37
BRANCH   5  40
HETATM   40  O7  UNL     1      -3.973   0.099   5.928  1.00  0.00    -0.347 OA
BRANCH  40  41
HETATM   41  C16 UNL     1      -3.835   0.087   4.584  1.00  0.00     0.298 C 
HETATM   42  O8  UNL     1      -4.296   1.301   3.934  1.00  0.00    -0.330 OA
HETATM   43  C17 UNL     1      -4.459   0.896   2.586  1.00  0.00     0.137 C 
HETATM   44  C18 UNL     1      -4.798  -0.370   2.551  1.00  0.00     0.034 C 
HETATM   45  C19 UNL     1      -4.868  -0.855   3.971  1.00  0.00     0.204 C 
BRANCH  45  46
HETATM   46  O9  UNL     1      -6.104  -0.435   4.433  1.00  0.00    -0.347 OA
BRANCH  46  47
HETATM   47  C20 UNL     1      -7.014  -1.420   4.688  1.00  0.00     0.260 C 
HETATM   48  C21 UNL     1      -8.356  -0.966   4.144  1.00  0.00     0.061 C 
HETATM   49  C22 UNL     1      -9.264  -0.531   5.283  1.00  0.00     0.007 C 
HETATM   50  C23 UNL     1      -8.505   0.394   6.194  1.00  0.00     0.026 C 
HETATM   51  C24 UNL     1      -7.240  -0.266   6.623  1.00  0.00     0.171 C 
HETATM   52  O10 UNL     1      -7.147  -1.535   6.065  1.00  0.00    -0.361 OA
ENDBRANCH  46  47
ENDBRANCH  45  46
ENDBRANCH  40  41
ENDBRANCH   5  40
TORSDOF 15
ENDMDL
MODEL 5
REMARK VINA RESULT: -7.100094397      4.588      9.016
REMARK  15 active torsions:
REMARK  status: ('A' for Active; 'I' for Inactive)
REMARK    1  A    between atoms: C3_4  and  C4_5 
REMARK    2  A    between atoms: C4_5  and  O2_6 
REMARK    3  A    between atoms: O2_6  and  C5_7 
REMARK    4  A    between atoms: C6_8  and  O3_9 
REMARK    5  A    between atoms: O3_9  and  C7_10 
REMARK    6  A    between atoms: C10_14  and  N1_15 
REMARK    7  A    between atoms: C12_20  and  N2_21 
REMARK    8  A    between atoms: C13_26  and  C14_27 
REMARK    9  A    between atoms: C14_27  and  O6_28 
REMARK   10  A    between atoms: C15_30  and  O7_31 
REMARK   11  A    between atoms: O7_31  and  C16_32 
REMARK   12  A    between atoms: C19_36  and  O9_37 
REMARK   13  A    between atoms: O9_37  and  C20_38 
REMARK   14  A    between atoms: C25_44  and  O11_45 
REMARK   15  A    between atoms: C27_48  and  N3_49 
ROOT
HETATM    1  C5  UNL     1      -6.615  -0.701   2.943  1.00  0.00     0.208 C 
HETATM    2  C6  UNL     1      -7.061   0.471   3.845  1.00  0.00     0.295 C 
HETATM    3  O5  UNL     1      -5.902   1.253   3.970  1.00  0.00    -0.348 OA
HETATM    4  C13 UNL     1      -5.178   0.621   5.013  1.00  0.00     0.180 C 
HETATM    5  C15 UNL     1      -4.741  -0.743   4.612  1.00  0.00     0.187 C 
HETATM    6  C25 UNL     1      -5.229  -1.149   3.236  1.00  0.00     0.183 C 
ENDROOT
BRANCH   2   7
HETATM    7  O3  UNL     1      -8.100   1.112   3.262  1.00  0.00    -0.327 OA
BRANCH   7   8
HETATM    8  C7  UNL     1      -9.288   1.146   3.956  1.00  0.00     0.293 C 
HETATM    9  O4  UNL     1      -9.726  -0.056   4.438  1.00  0.00    -0.352 OA
HETATM   10  C8  UNL     1     -10.490   0.094   5.587  1.00  0.00     0.151 C 
HETATM   11  C9  UNL     1     -11.274  -1.181   5.845  1.00  0.00     0.042 C 
HETATM   12  C10 UNL     1     -11.362   1.298   5.407  1.00  0.00     0.214 C 
HETATM   13  C11 UNL     1     -11.694   1.544   3.943  1.00  0.00     0.073 C 
HETATM   14  C12 UNL     1     -10.426   1.731   3.130  1.00  0.00     0.240 C 
BRANCH  12  15
HETATM   15  N1  UNL     1     -12.586   1.104   6.130  1.00  0.00    -0.072 N 
ATOM     16  H13 UNL     1     -12.780   0.118   6.306  1.00  0.00     0.274 HD
ATOM     17  H12 UNL     1     -12.517   1.413   7.100  1.00  0.00     0.274 HD
ATOM     18  H11 UNL     1     -13.346   1.566   5.630  1.00  0.00     0.274 HD
ENDBRANCH  12  15
BRANCH  14  19
HETATM   19  N2  UNL     1     -10.255   3.161   2.939  1.00  0.00    -0.070 N 
ATOM     20  H23 UNL     1     -10.373   3.426   1.961  1.00  0.00     0.274 HD
ATOM     21  H22 UNL     1     -11.031   3.688   3.338  1.00  0.00     0.274 HD
ATOM     22  H21 UNL     1      -9.358   3.478   3.307  1.00  0.00     0.274 HD
ENDBRANCH  14  19
ENDBRANCH   7   8
ENDBRANCH   2   7
BRANCH   1  23
HETATM   23  O2  UNL     1      -6.701  -0.229   1.642  1.00  0.00    -0.376 OA
BRANCH  23  24
HETATM   24  C4  UNL     1      -5.513   0.004   1.022  1.00  0.00     0.200 C 
BRANCH  24  25
HETATM   25  C3  UNL     1      -5.564   0.687  -0.317  1.00  0.00     0.147 C 
HETATM   26  O1  UNL     1      -6.765   1.374  -0.392  1.00  0.00    -0.377 OA
HETATM   27  C2  UNL     1      -6.560   2.715  -0.423  1.00  0.00     0.148 C 
HETATM   28  C1  UNL     1      -7.572   3.454   0.426  1.00  0.00     0.042 C 
HETATM   29  C27 UNL     1      -5.168   2.954   0.127  1.00  0.00     0.214 C 
HETATM   30  C26 UNL     1      -4.467   1.732  -0.424  1.00  0.00     0.069 C 
BRANCH  29  31
HETATM   31  N3  UNL     1      -4.598   4.183  -0.393  1.00  0.00    -0.072 N 
ATOM     32  H33 UNL     1      -4.378   4.103  -1.385  1.00  0.00     0.274 HD
ATOM     33  H32 UNL     1      -5.296   4.925  -0.447  1.00  0.00     0.274 HD
ATOM     34  H31 UNL     1      -3.784   4.473   0.149  1.00  0.00     0.274 HD
ENDBRANCH  29  31
ENDBRANCH  24  25
ENDBRANCH  23  24
ENDBRANCH   1  23
BRANCH   6  35
HETATM   35  O11 UNL     1      -5.155  -2.559   3.103  1.00  0.00    -0.390 OA
ATOM     36  H11 UNL     1      -4.484  -2.779   2.468  1.00  0.00     0.210 HD
ENDBRANCH   6  35
BRANCH   4  37
HETATM   37  C14 UNL     1      -3.971   1.463   5.348  1.00  0.00     0.198 C 
BRANCH  37  38
HETATM   38  O6  UNL     1      -4.273   2.289   6.427  1.00  0.00    -0.398 OA
ATOM     39  H6  UNL     1      -4.591   1.758   7.148  1.00  0.00     0.209 HD
ENDBRANCH  37  38
ENDBRANCH   4  37
BRANCH   5  40
HETATM   40  O7  UNL     1      -5.152  -1.683   5.554  1.00  0.00    -0.347 OA
BRANCH  40  41
HETATM   41  C16 UNL     1      -4.204  -2.537   6.000  1.00  0.00     0.298 C 
HETATM   42  O8  UNL     1      -4.733  -3.669   6.740  1.00  0.00    -0.330 OA
HETATM   43  C17 UNL     1      -3.600  -4.144   7.445  1.00  0.00     0.137 C 
HETATM   44  C18 UNL     1      -2.805  -3.137   7.718  1.00  0.00     0.034 C 
HETATM   45  C19 UNL     1      -3.443  -1.898   7.158  1.00  0.00     0.204 C 
BRANCH  45  46
HETATM   46  O9  UNL     1      -4.394  -1.529   8.096  1.00  0.00    -0.347 OA
BRANCH  46  47
HETATM   47  C20 UNL     1      -4.147  -0.372   8.775  1.00  0.00     0.260 C 
HETATM   48  C21 UNL     1      -4.189  -0.685  10.260  1.00  0.00     0.061 C 
HETATM   49  C22 UNL     1      -5.484  -0.172  10.868  1.00  0.00     0.007 C 
HETATM   50  C23 UNL     1      -6.639  -0.603  10.007  1.00  0.00     0.026 C 
HETATM   51  C24 UNL     1      -6.396  -0.169   8.603  1.00  0.00     0.171 C 
HETATM   52  O10 UNL     1      -5.186   0.510   8.513  1.00  0.00    -0.361 OA
ENDBRANCH  46  47
ENDBRANCH  45  46
ENDBRANCH  40  41
ENDBRANCH   5  40
TORSDOF 15
ENDMDL
