MODEL 1
REMARK VINA RESULT: -6.896405014      0.000      0.000
REMARK  15 active torsions:
REMARK  status: ('A' for Active; 'I' for Inactive)
REMARK    1  A    between atoms: O1_2  and  C2_3 
REMARK    2  A    between atoms: C5_7  and  O3_8 
REMARK    3  A    between atoms: O3_8  and  C6_9 
REMARK    4  A    between atoms: C7_10  and  C8_11 
REMARK    5  A    between atoms: C8_11  and  O4_12 
REMARK    6  A    between atoms: C9_15  and  O6_16 
REMARK    7  A    between atoms: O6_16  and  C10_17 
REMARK    8  A    between atoms: C11_18  and  O7_19 
REMARK    9  A    between atoms: C13_21  and  N1_22 
REMARK   10  A    between atoms: C15_27  and  N2_28 
REMARK   11  A    between atoms: C16_32  and  O8_33 
REMARK   12  A    between atoms: O8_33  and  C17_34 
REMARK   13  A    between atoms: C22_40  and  S1_41 
REMARK   14  A    between atoms: C23_43  and  O9_44 
REMARK   15  A    between atoms: C24_46  and  O10_47 
ROOT
HETATM    1  C6  UNL     1      -5.807  -0.325   4.422  1.00  0.00     0.183 C 
HETATM    2  C7  UNL     1      -4.338  -0.368   4.437  1.00  0.00     0.179 C 
HETATM    3  O5  UNL     1      -3.688   0.354   5.413  1.00  0.00    -0.350 OA
HETATM    4  C9  UNL     1      -4.372   0.455   6.597  1.00  0.00     0.278 C 
HETATM    5  C22 UNL     1      -5.618   1.259   6.323  1.00  0.00     0.146 C 
HETATM    6  C23 UNL     1      -6.529   0.443   5.453  1.00  0.00     0.169 C 
ENDROOT
BRANCH   4   7
HETATM    7  O6  UNL     1      -3.564   1.253   7.442  1.00  0.00    -0.349 OA
BRANCH   7   8
HETATM    8  C10 UNL     1      -3.170   0.590   8.575  1.00  0.00     0.186 C 
HETATM    9  C11 UNL     1      -4.211  -0.520   8.799  1.00  0.00     0.182 C 
HETATM   10  C13 UNL     1      -5.286   0.083   9.697  1.00  0.00     0.216 C 
HETATM   11  C14 UNL     1      -4.710   0.087  11.093  1.00  0.00     0.071 C 
HETATM   12  C15 UNL     1      -3.415   0.822  11.070  1.00  0.00     0.217 C 
HETATM   13  C16 UNL     1      -3.126   1.520   9.753  1.00  0.00     0.186 C 
BRANCH   9  14
HETATM   14  O7  UNL     1      -3.658  -1.639   9.376  1.00  0.00    -0.386 OA
HETATM   15  C12 UNL     1      -3.811  -2.709   8.497  1.00  0.00     0.202 C 
ENDBRANCH   9  14
BRANCH  10  16
HETATM   16  N1  UNL     1      -6.529  -0.648   9.625  1.00  0.00    -0.072 N 
ATOM     17  H13 UNL     1      -6.841  -0.752   8.660  1.00  0.00     0.274 HD
ATOM     18  H12 UNL     1      -6.392  -1.632   9.857  1.00  0.00     0.274 HD
ATOM     19  H11 UNL     1      -7.256  -0.230  10.206  1.00  0.00     0.274 HD
ENDBRANCH  10  16
BRANCH  12  20
HETATM   20  N2  UNL     1      -2.275   0.035  11.466  1.00  0.00    -0.072 N 
ATOM     21  H23 UNL     1      -2.534  -0.618  12.205  1.00  0.00     0.274 HD
ATOM     22  H22 UNL     1      -2.025  -0.624  10.729  1.00  0.00     0.274 HD
ATOM     23  H21 UNL     1      -1.461   0.582  11.745  1.00  0.00     0.274 HD
ENDBRANCH  12  20
BRANCH  13  24
HETATM   24  O8  UNL     1      -1.867   2.119   9.925  1.00  0.00    -0.347 OA
BRANCH  24  25
HETATM   25  C17 UNL     1      -2.004   3.475  10.123  1.00  0.00     0.358 C 
HETATM   26  C18 UNL     1      -1.813   4.291   8.890  1.00  0.00     0.066 C 
HETATM   27  C19 UNL     1      -1.269   5.607   9.434  1.00  0.00     0.035 C 
HETATM   28  C20 UNL     1      -1.273   5.435  10.949  1.00  0.00     0.275 C 
HETATM   29  N3  UNL     1      -1.028   4.007  11.054  1.00  0.00     0.113 N 
HETATM   30  C21 UNL     1       0.325   3.763  10.652  1.00  0.00     0.313 C 
ENDBRANCH  24  25
ENDBRANCH  13  24
ENDBRANCH   7   8
ENDBRANCH   4   7
BRANCH   5  31
HETATM   31  S1  UNL     1      -5.139   2.771   5.444  1.00  0.00    -0.073 SA
HETATM   32  S2  UNL     1      -6.457   3.184   3.840  1.00  0.00    -0.013 SA
ENDBRANCH   5  31
BRANCH   2  33
HETATM   33  C8  UNL     1      -3.799   0.124   3.107  1.00  0.00     0.198 C 
BRANCH  33  34
HETATM   34  O4  UNL     1      -3.808  -0.837   2.114  1.00  0.00    -0.398 OA
ATOM     35  H4  UNL     1      -4.260  -0.566   1.324  1.00  0.00     0.209 HD
ENDBRANCH  33  34
ENDBRANCH   2  33
BRANCH   6  36
HETATM   36  O9  UNL     1      -7.228  -0.404   6.359  1.00  0.00    -0.392 OA
ATOM     37  H9  UNL     1      -7.977   0.031   6.747  1.00  0.00     0.210 HD
ENDBRANCH   6  36
BRANCH   1  38
HETATM   38  O3  UNL     1      -6.338  -1.649   4.484  1.00  0.00    -0.370 OA
BRANCH  38  39
HETATM   39  C5  UNL     1      -6.670  -2.165   3.268  1.00  0.00     0.184 C 
HETATM   40  C3  UNL     1      -8.138  -1.984   2.923  1.00  0.00     0.152 C 
HETATM   41  O2  UNL     1      -8.609  -3.172   2.426  1.00  0.00    -0.351 OA
HETATM   42  C4  UNL     1      -8.294  -0.943   1.809  1.00  0.00     0.042 C 
HETATM   43  C2  UNL     1      -7.524  -3.978   2.093  1.00  0.00     0.290 C 
HETATM   44  C24 UNL     1      -6.580  -3.676   3.267  1.00  0.00     0.204 C 
BRANCH  43  45
HETATM   45  O1  UNL     1      -7.837  -5.308   2.016  1.00  0.00    -0.363 OA
HETATM   46  C1  UNL     1      -9.246  -5.401   2.048  1.00  0.00     0.204 C 
ENDBRANCH  43  45
BRANCH  44  47
HETATM   47  O10 UNL     1      -7.177  -4.123   4.455  1.00  0.00    -0.388 OA
ATOM     48  H10 UNL     1      -7.193  -3.407   5.078  1.00  0.00     0.210 HD
ENDBRANCH  44  47
ENDBRANCH  38  39
ENDBRANCH   1  38
TORSDOF 15
ENDMDL
MODEL 2
REMARK VINA RESULT: -6.705044956      1.157      1.482
REMARK  15 active torsions:
REMARK  status: ('A' for Active; 'I' for Inactive)
REMARK    1  A    between atoms: O1_2  and  C2_3 
REMARK    2  A    between atoms: C5_7  and  O3_8 
REMARK    3  A    between atoms: O3_8  and  C6_9 
REMARK    4  A    between atoms: C7_10  and  C8_11 
REMARK    5  A    between atoms: C8_11  and  O4_12 
REMARK    6  A    between atoms: C9_15  and  O6_16 
REMARK    7  A    between atoms: O6_16  and  C10_17 
REMARK    8  A    between atoms: C11_18  and  O7_19 
REMARK    9  A    between atoms: C13_21  and  N1_22 
REMARK   10  A    between atoms: C15_27  and  N2_28 
REMARK   11  A    between atoms: C16_32  and  O8_33 
REMARK   12  A    between atoms: O8_33  and  C17_34 
REMARK   13  A    between atoms: C22_40  and  S1_41 
REMARK   14  A    between atoms: C23_43  and  O9_44 
REMARK   15  A    between atoms: C24_46  and  O10_47 
ROOT
HETATM    1  C6  UNL     1      -5.789  -0.305   4.402  1.00  0.00     0.183 C 
HETATM    2  C7  UNL     1      -4.320  -0.368   4.420  1.00  0.00     0.179 C 
HETATM    3  O5  UNL     1      -3.663   0.348   5.396  1.00  0.00    -0.350 OA
HETATM    4  C9  UNL     1      -4.348   0.462   6.578  1.00  0.00     0.278 C 
HETATM    5  C22 UNL     1      -5.582   1.283   6.299  1.00  0.00     0.146 C 
HETATM    6  C23 UNL     1      -6.502   0.476   5.429  1.00  0.00     0.169 C 
ENDROOT
BRANCH   4   7
HETATM    7  O6  UNL     1      -3.530   1.251   7.422  1.00  0.00    -0.349 OA
BRANCH   7   8
HETATM    8  C10 UNL     1      -3.146   0.586   8.557  1.00  0.00     0.186 C 
HETATM    9  C11 UNL     1      -4.209  -0.501   8.790  1.00  0.00     0.182 C 
HETATM   10  C13 UNL     1      -5.269   0.128   9.688  1.00  0.00     0.216 C 
HETATM   11  C14 UNL     1      -4.688   0.127  11.082  1.00  0.00     0.071 C 
HETATM   12  C15 UNL     1      -3.378   0.835  11.052  1.00  0.00     0.217 C 
HETATM   13  C16 UNL     1      -3.079   1.520   9.730  1.00  0.00     0.186 C 
BRANCH   9  14
HETATM   14  O7  UNL     1      -3.677  -1.628   9.370  1.00  0.00    -0.386 OA
HETATM   15  C12 UNL     1      -3.841  -2.697   8.491  1.00  0.00     0.202 C 
ENDBRANCH   9  14
BRANCH  10  16
HETATM   16  N1  UNL     1      -6.526  -0.578   9.624  1.00  0.00    -0.072 N 
ATOM     17  H13 UNL     1      -7.315   0.067   9.680  1.00  0.00     0.274 HD
ATOM     18  H12 UNL     1      -6.692  -0.953   8.690  1.00  0.00     0.274 HD
ATOM     19  H11 UNL     1      -6.595  -1.308  10.332  1.00  0.00     0.274 HD
ENDBRANCH  10  16
BRANCH  12  20
HETATM   20  N2  UNL     1      -2.254   0.027  11.448  1.00  0.00    -0.072 N 
ATOM     21  H23 UNL     1      -1.453   0.211  10.842  1.00  0.00     0.274 HD
ATOM     22  H22 UNL     1      -1.878   0.353  12.338  1.00  0.00     0.274 HD
ATOM     23  H21 UNL     1      -2.446  -0.973  11.488  1.00  0.00     0.274 HD
ENDBRANCH  12  20
BRANCH  13  24
HETATM   24  O8  UNL     1      -1.808   2.095   9.895  1.00  0.00    -0.347 OA
BRANCH  24  25
HETATM   25  C17 UNL     1      -0.988   1.760   8.840  1.00  0.00     0.358 C 
HETATM   26  C18 UNL     1       0.278   1.088   9.246  1.00  0.00     0.066 C 
HETATM   27  C19 UNL     1       1.250   1.501   8.146  1.00  0.00     0.035 C 
HETATM   28  C20 UNL     1       0.411   2.319   7.171  1.00  0.00     0.275 C 
HETATM   29  N3  UNL     1      -0.549   2.916   8.083  1.00  0.00     0.113 N 
HETATM   30  C21 UNL     1       0.147   3.881   8.882  1.00  0.00     0.313 C 
ENDBRANCH  24  25
ENDBRANCH  13  24
ENDBRANCH   7   8
ENDBRANCH   4   7
BRANCH   5  31
HETATM   31  S1  UNL     1      -5.080   2.785   5.416  1.00  0.00    -0.073 SA
HETATM   32  S2  UNL     1      -6.413   3.234   3.833  1.00  0.00    -0.013 SA
ENDBRANCH   5  31
BRANCH   2  33
HETATM   33  C8  UNL     1      -3.772   0.112   3.090  1.00  0.00     0.198 C 
BRANCH  33  34
HETATM   34  O4  UNL     1      -3.855  -0.830   2.082  1.00  0.00    -0.398 OA
ATOM     35  H4  UNL     1      -3.793  -1.726   2.392  1.00  0.00     0.209 HD
ENDBRANCH  33  34
ENDBRANCH   2  33
BRANCH   6  36
HETATM   36  O9  UNL     1      -7.215  -0.359   6.336  1.00  0.00    -0.392 OA
ATOM     37  H9  UNL     1      -6.764  -0.447   7.167  1.00  0.00     0.210 HD
ENDBRANCH   6  36
BRANCH   1  38
HETATM   38  O3  UNL     1      -6.338  -1.621   4.467  1.00  0.00    -0.370 OA
BRANCH  38  39
HETATM   39  C5  UNL     1      -6.706  -2.124   3.256  1.00  0.00     0.184 C 
HETATM   40  C3  UNL     1      -8.179  -1.921   2.948  1.00  0.00     0.152 C 
HETATM   41  O2  UNL     1      -8.678  -3.099   2.453  1.00  0.00    -0.351 OA
HETATM   42  C4  UNL     1      -8.349  -0.869   1.846  1.00  0.00     0.042 C 
HETATM   43  C2  UNL     1      -7.612  -3.916   2.088  1.00  0.00     0.290 C 
HETATM   44  C24 UNL     1      -6.636  -3.635   3.241  1.00  0.00     0.204 C 
BRANCH  43  45
HETATM   45  O1  UNL     1      -7.944  -5.241   2.008  1.00  0.00    -0.363 OA
HETATM   46  C1  UNL     1      -9.354  -5.309   1.960  1.00  0.00     0.204 C 
ENDBRANCH  43  45
BRANCH  44  47
HETATM   47  O10 UNL     1      -7.210  -4.084   4.439  1.00  0.00    -0.388 OA
ATOM     48  H10 UNL     1      -6.526  -4.169   5.094  1.00  0.00     0.210 HD
ENDBRANCH  44  47
ENDBRANCH  38  39
ENDBRANCH   1  38
TORSDOF 15
ENDMDL
MODEL 3
REMARK VINA RESULT: -6.559292976      1.310      1.446
REMARK  15 active torsions:
REMARK  status: ('A' for Active; 'I' for Inactive)
REMARK    1  A    between atoms: O1_2  and  C2_3 
REMARK    2  A    between atoms: C5_7  and  O3_8 
REMARK    3  A    between atoms: O3_8  and  C6_9 
REMARK    4  A    between atoms: C7_10  and  C8_11 
REMARK    5  A    between atoms: C8_11  and  O4_12 
REMARK    6  A    between atoms: C9_15  and  O6_16 
REMARK    7  A    between atoms: O6_16  and  C10_17 
REMARK    8  A    between atoms: C11_18  and  O7_19 
REMARK    9  A    between atoms: C13_21  and  N1_22 
REMARK   10  A    between atoms: C15_27  and  N2_28 
REMARK   11  A    between atoms: C16_32  and  O8_33 
REMARK   12  A    between atoms: O8_33  and  C17_34 
REMARK   13  A    between atoms: C22_40  and  S1_41 
REMARK   14  A    between atoms: C23_43  and  O9_44 
REMARK   15  A    between atoms: C24_46  and  O10_47 
ROOT
HETATM    1  C6  UNL     1      -6.005   0.815   4.049  1.00  0.00     0.183 C 
HETATM    2  C7  UNL     1      -4.758   0.036   4.086  1.00  0.00     0.179 C 
HETATM    3  O5  UNL     1      -3.896   0.260   5.137  1.00  0.00    -0.350 OA
HETATM    4  C9  UNL     1      -4.510   0.606   6.313  1.00  0.00     0.278 C 
HETATM    5  C22 UNL     1      -5.167   1.946   6.094  1.00  0.00     0.146 C 
HETATM    6  C23 UNL     1      -6.307   1.765   5.136  1.00  0.00     0.169 C 
ENDROOT
BRANCH   4   7
HETATM    7  O6  UNL     1      -3.465   0.824   7.243  1.00  0.00    -0.349 OA
BRANCH   7   8
HETATM    8  C10 UNL     1      -3.522  -0.033   8.311  1.00  0.00     0.186 C 
HETATM    9  C11 UNL     1      -4.926  -0.659   8.277  1.00  0.00     0.182 C 
HETATM   10  C13 UNL     1      -5.812   0.241   9.134  1.00  0.00     0.216 C 
HETATM   11  C14 UNL     1      -5.487  -0.099  10.569  1.00  0.00     0.071 C 
HETATM   12  C15 UNL     1      -4.021   0.066  10.777  1.00  0.00     0.217 C 
HETATM   13  C16 UNL     1      -3.300   0.702   9.601  1.00  0.00     0.186 C 
BRANCH   9  14
HETATM   14  O7  UNL     1      -4.929  -1.949   8.751  1.00  0.00    -0.386 OA
HETATM   15  C12 UNL     1      -4.009  -2.692   8.014  1.00  0.00     0.202 C 
ENDBRANCH   9  14
BRANCH  10  16
HETATM   16  N1  UNL     1      -7.213   0.067   8.839  1.00  0.00    -0.072 N 
ATOM     17  H13 UNL     1      -7.428   0.354   7.884  1.00  0.00     0.274 HD
ATOM     18  H12 UNL     1      -7.456  -0.922   8.768  1.00  0.00     0.274 HD
ATOM     19  H11 UNL     1      -7.811   0.545   9.512  1.00  0.00     0.274 HD
ENDBRANCH  10  16
BRANCH  12  20
HETATM   20  N2  UNL     1      -3.336  -1.136  11.177  1.00  0.00    -0.072 N 
ATOM     21  H23 UNL     1      -2.941  -1.608  10.363  1.00  0.00     0.274 HD
ATOM     22  H22 UNL     1      -2.479  -0.906  11.679  1.00  0.00     0.274 HD
ATOM     23  H21 UNL     1      -3.904  -1.784  11.722  1.00  0.00     0.274 HD
ENDBRANCH  12  20
BRANCH  13  24
HETATM   24  O8  UNL     1      -1.948   0.741   9.979  1.00  0.00    -0.347 OA
BRANCH  24  25
HETATM   25  C17 UNL     1      -1.647   1.952  10.561  1.00  0.00     0.358 C 
HETATM   26  C18 UNL     1      -0.547   2.694   9.882  1.00  0.00     0.066 C 
HETATM   27  C19 UNL     1       0.078   3.493  11.021  1.00  0.00     0.035 C 
HETATM   28  C20 UNL     1      -0.785   3.178  12.237  1.00  0.00     0.275 C 
HETATM   29  N3  UNL     1      -1.190   1.818  11.931  1.00  0.00     0.113 N 
HETATM   30  C21 UNL     1      -0.037   0.977  12.059  1.00  0.00     0.313 C 
ENDBRANCH  24  25
ENDBRANCH  13  24
ENDBRANCH   7   8
ENDBRANCH   4   7
BRANCH   5  31
HETATM   31  S1  UNL     1      -3.941   3.069   5.369  1.00  0.00    -0.073 SA
HETATM   32  S2  UNL     1      -4.854   4.487   4.088  1.00  0.00    -0.013 SA
ENDBRANCH   5  31
BRANCH   2  33
HETATM   33  C8  UNL     1      -3.964   0.285   2.817  1.00  0.00     0.198 C 
BRANCH  33  34
HETATM   34  O4  UNL     1      -3.772  -0.850   2.052  1.00  0.00    -0.398 OA
ATOM     35  H4  UNL     1      -2.886  -1.191   2.090  1.00  0.00     0.209 HD
ENDBRANCH  33  34
ENDBRANCH   2  33
BRANCH   6  36
HETATM   36  O9  UNL     1      -7.391   1.323   5.946  1.00  0.00    -0.392 OA
ATOM     37  H9  UNL     1      -7.430   1.788   6.773  1.00  0.00     0.210 HD
ENDBRANCH   6  36
BRANCH   1  38
HETATM   38  O3  UNL     1      -7.129  -0.061   3.978  1.00  0.00    -0.370 OA
BRANCH  38  39
HETATM   39  C5  UNL     1      -7.008  -1.033   3.031  1.00  0.00     0.184 C 
HETATM   40  C3  UNL     1      -8.268  -1.222   2.205  1.00  0.00     0.152 C 
HETATM   41  O2  UNL     1      -8.514  -2.567   2.103  1.00  0.00    -0.351 OA
HETATM   42  C4  UNL     1      -8.049  -0.701   0.780  1.00  0.00     0.042 C 
HETATM   43  C2  UNL     1      -7.366  -3.260   2.475  1.00  0.00     0.290 C 
HETATM   44  C24 UNL     1      -6.894  -2.405   3.661  1.00  0.00     0.204 C 
BRANCH  43  45
HETATM   45  O1  UNL     1      -7.606  -4.557   2.841  1.00  0.00    -0.363 OA
HETATM   46  C1  UNL     1      -8.679  -5.016   2.045  1.00  0.00     0.204 C 
ENDBRANCH  43  45
BRANCH  44  47
HETATM   47  O10 UNL     1      -7.857  -2.471   4.678  1.00  0.00    -0.388 OA
ATOM     48  H10 UNL     1      -8.081  -3.382   4.829  1.00  0.00     0.210 HD
ENDBRANCH  44  47
ENDBRANCH  38  39
ENDBRANCH   1  38
TORSDOF 15
ENDMDL
MODEL 4
REMARK VINA RESULT: -6.399645129      1.766      4.159
REMARK  15 active torsions:
REMARK  status: ('A' for Active; 'I' for Inactive)
REMARK    1  A    between atoms: O1_2  and  C2_3 
REMARK    2  A    between atoms: C5_7  and  O3_8 
REMARK    3  A    between atoms: O3_8  and  C6_9 
REMARK    4  A    between atoms: C7_10  and  C8_11 
REMARK    5  A    between atoms: C8_11  and  O4_12 
REMARK    6  A    between atoms: C9_15  and  O6_16 
REMARK    7  A    between atoms: O6_16  and  C10_17 
REMARK    8  A    between atoms: C11_18  and  O7_19 
REMARK    9  A    between atoms: C13_21  and  N1_22 
REMARK   10  A    between atoms: C15_27  and  N2_28 
REMARK   11  A    between atoms: C16_32  and  O8_33 
REMARK   12  A    between atoms: O8_33  and  C17_34 
REMARK   13  A    between atoms: C22_40  and  S1_41 
REMARK   14  A    between atoms: C23_43  and  O9_44 
REMARK   15  A    between atoms: C24_46  and  O10_47 
ROOT
HETATM    1  C6  UNL     1      -5.761   0.752   3.626  1.00  0.00     0.183 C 
HETATM    2  C7  UNL     1      -4.396   0.264   3.380  1.00  0.00     0.179 C 
HETATM    3  O5  UNL     1      -3.372   0.845   4.095  1.00  0.00    -0.350 OA
HETATM    4  C9  UNL     1      -3.722   1.265   5.353  1.00  0.00     0.278 C 
HETATM    5  C22 UNL     1      -4.723   2.380   5.186  1.00  0.00     0.146 C 
HETATM    6  C23 UNL     1      -5.994   1.801   4.636  1.00  0.00     0.169 C 
ENDROOT
BRANCH   4   7
HETATM    7  O6  UNL     1      -2.558   1.856   5.899  1.00  0.00    -0.349 OA
BRANCH   7   8
HETATM    8  C10 UNL     1      -2.759   2.349   7.162  1.00  0.00     0.186 C 
HETATM    9  C11 UNL     1      -1.749   3.496   7.334  1.00  0.00     0.182 C 
HETATM   10  C13 UNL     1      -0.494   2.870   7.932  1.00  0.00     0.216 C 
HETATM   11  C14 UNL     1      -0.792   2.658   9.398  1.00  0.00     0.071 C 
HETATM   12  C15 UNL     1      -2.031   1.840   9.518  1.00  0.00     0.217 C 
HETATM   13  C16 UNL     1      -2.533   1.285   8.196  1.00  0.00     0.186 C 
BRANCH   9  14
HETATM   14  O7  UNL     1      -2.235   4.496   8.142  1.00  0.00    -0.386 OA
HETATM   15  C12 UNL     1      -2.827   5.467   7.337  1.00  0.00     0.202 C 
ENDBRANCH   9  14
BRANCH  10  16
HETATM   16  N1  UNL     1       0.675   3.691   7.729  1.00  0.00    -0.072 N 
ATOM     17  H13 UNL     1       0.444   4.683   7.786  1.00  0.00     0.274 HD
ATOM     18  H12 UNL     1       1.312   3.629   8.524  1.00  0.00     0.274 HD
ATOM     19  H11 UNL     1       1.153   3.472   6.855  1.00  0.00     0.274 HD
ENDBRANCH  10  16
BRANCH  12  20
HETATM   20  N2  UNL     1      -3.110   2.491  10.215  1.00  0.00    -0.072 N 
ATOM     21  H23 UNL     1      -3.379   1.950  11.037  1.00  0.00     0.274 HD
ATOM     22  H22 UNL     1      -2.779   3.343  10.666  1.00  0.00     0.274 HD
ATOM     23  H21 UNL     1      -3.927   2.689   9.638  1.00  0.00     0.274 HD
ENDBRANCH  12  20
BRANCH  13  24
HETATM   24  O8  UNL     1      -3.705   0.581   8.517  1.00  0.00    -0.347 OA
BRANCH  24  25
HETATM   25  C17 UNL     1      -3.440  -0.765   8.637  1.00  0.00     0.358 C 
HETATM   26  C18 UNL     1      -2.471  -1.283   7.630  1.00  0.00     0.066 C 
HETATM   27  C19 UNL     1      -2.904  -2.735   7.458  1.00  0.00     0.035 C 
HETATM   28  C20 UNL     1      -4.045  -2.922   8.450  1.00  0.00     0.275 C 
HETATM   29  N3  UNL     1      -4.619  -1.588   8.450  1.00  0.00     0.113 N 
HETATM   30  C21 UNL     1      -5.252  -1.383   7.182  1.00  0.00     0.313 C 
ENDBRANCH  24  25
ENDBRANCH  13  24
ENDBRANCH   7   8
ENDBRANCH   4   7
BRANCH   5  31
HETATM   31  S1  UNL     1      -4.048   3.580   4.006  1.00  0.00    -0.073 SA
HETATM   32  S2  UNL     1      -5.581   4.489   2.863  1.00  0.00    -0.013 SA
ENDBRANCH   5  31
BRANCH   2  33
HETATM   33  C8  UNL     1      -4.049   0.436   1.914  1.00  0.00     0.198 C 
BRANCH  33  34
HETATM   34  O4  UNL     1      -2.996  -0.356   1.496  1.00  0.00    -0.398 OA
ATOM     35  H4  UNL     1      -2.824  -0.301   0.564  1.00  0.00     0.209 HD
ENDBRANCH  33  34
ENDBRANCH   2  33
BRANCH   6  36
HETATM   36  O9  UNL     1      -6.683   1.300   5.777  1.00  0.00    -0.392 OA
ATOM     37  H9  UNL     1      -7.300   1.932   6.126  1.00  0.00     0.210 HD
ENDBRANCH   6  36
BRANCH   1  38
HETATM   38  O3  UNL     1      -6.612  -0.334   3.993  1.00  0.00    -0.370 OA
BRANCH  38  39
HETATM   39  C5  UNL     1      -6.761  -1.270   3.014  1.00  0.00     0.184 C 
HETATM   40  C3  UNL     1      -8.147  -1.270   2.394  1.00  0.00     0.152 C 
HETATM   41  O2  UNL     1      -8.571  -2.571   2.298  1.00  0.00    -0.351 OA
HETATM   42  C4  UNL     1      -8.087  -0.716   0.966  1.00  0.00     0.042 C 
HETATM   43  C2  UNL     1      -7.474  -3.411   2.465  1.00  0.00     0.290 C 
HETATM   44  C24 UNL     1      -6.722  -2.672   3.582  1.00  0.00     0.204 C 
BRANCH  43  45
HETATM   45  O1  UNL     1      -7.814  -4.685   2.831  1.00  0.00    -0.363 OA
HETATM   46  C1  UNL     1      -8.910  -5.065   2.025  1.00  0.00     0.204 C 
ENDBRANCH  43  45
BRANCH  44  47
HETATM   47  O10 UNL     1      -7.517  -2.669   4.738  1.00  0.00    -0.388 OA
ATOM     48  H10 UNL     1      -7.049  -2.219   5.431  1.00  0.00     0.210 HD
ENDBRANCH  44  47
ENDBRANCH  38  39
ENDBRANCH   1  38
TORSDOF 15
ENDMDL
MODEL 5
REMARK VINA RESULT: -6.258074577      2.297      2.938
REMARK  15 active torsions:
REMARK  status: ('A' for Active; 'I' for Inactive)
REMARK    1  A    between atoms: O1_2  and  C2_3 
REMARK    2  A    between atoms: C5_7  and  O3_8 
REMARK    3  A    between atoms: O3_8  and  C6_9 
REMARK    4  A    between atoms: C7_10  and  C8_11 
REMARK    5  A    between atoms: C8_11  and  O4_12 
REMARK    6  A    between atoms: C9_15  and  O6_16 
REMARK    7  A    between atoms: O6_16  and  C10_17 
REMARK    8  A    between atoms: C11_18  and  O7_19 
REMARK    9  A    between atoms: C13_21  and  N1_22 
REMARK   10  A    between atoms: C15_27  and  N2_28 
REMARK   11  A    between atoms: C16_32  and  O8_33 
REMARK   12  A    between atoms: O8_33  and  C17_34 
REMARK   13  A    between atoms: C22_40  and  S1_41 
REMARK   14  A    between atoms: C23_43  and  O9_44 
REMARK   15  A    between atoms: C24_46  and  O10_47 
ROOT
HETATM    1  C6  UNL     1      -6.447   2.529   3.168  1.00  0.00     0.183 C 
HETATM    2  C7  UNL     1      -5.189   1.805   2.930  1.00  0.00     0.179 C 
HETATM    3  O5  UNL     1      -4.363   1.589   4.010  1.00  0.00    -0.350 OA
HETATM    4  C9  UNL     1      -5.017   1.430   5.205  1.00  0.00     0.278 C 
HETATM    5  C22 UNL     1      -5.688   2.743   5.522  1.00  0.00     0.146 C 
HETATM    6  C23 UNL     1      -6.796   2.961   4.535  1.00  0.00     0.169 C 
ENDROOT
BRANCH   4   7
HETATM    7  O6  UNL     1      -4.003   1.258   6.178  1.00  0.00    -0.349 OA
BRANCH   7   8
HETATM    8  C10 UNL     1      -4.066   0.036   6.795  1.00  0.00     0.186 C 
HETATM    9  C11 UNL     1      -5.556  -0.342   6.834  1.00  0.00     0.182 C 
HETATM   10  C13 UNL     1      -6.095   0.194   8.156  1.00  0.00     0.216 C 
HETATM   11  C14 UNL     1      -5.627  -0.771   9.219  1.00  0.00     0.071 C 
HETATM   12  C15 UNL     1      -4.144  -0.887   9.136  1.00  0.00     0.217 C 
HETATM   13  C16 UNL     1      -3.501   0.106   8.184  1.00  0.00     0.186 C 
BRANCH   9  14
HETATM   14  O7  UNL     1      -5.748  -1.700   6.737  1.00  0.00    -0.386 OA
HETATM   15  C12 UNL     1      -5.176  -2.144   5.547  1.00  0.00     0.202 C 
ENDBRANCH   9  14
BRANCH  10  16
HETATM   16  N1  UNL     1      -7.532   0.332   8.143  1.00  0.00    -0.072 N 
ATOM     17  H13 UNL     1      -7.844   0.866   7.332  1.00  0.00     0.274 HD
ATOM     18  H12 UNL     1      -7.986  -0.558   7.936  1.00  0.00     0.274 HD
ATOM     19  H11 UNL     1      -7.887   0.735   9.010  1.00  0.00     0.274 HD
ENDBRANCH  10  16
BRANCH  12  20
HETATM   20  N2  UNL     1      -3.665  -2.215   8.853  1.00  0.00    -0.072 N 
ATOM     21  H23 UNL     1      -4.418  -2.793   8.480  1.00  0.00     0.274 HD
ATOM     22  H22 UNL     1      -3.038  -2.203   8.049  1.00  0.00     0.274 HD
ATOM     23  H21 UNL     1      -3.219  -2.680   9.644  1.00  0.00     0.274 HD
ENDBRANCH  12  20
BRANCH  13  24
HETATM   24  O8  UNL     1      -2.127  -0.183   8.227  1.00  0.00    -0.347 OA
BRANCH  24  25
HETATM   25  C17 UNL     1      -1.475   0.706   9.051  1.00  0.00     0.358 C 
HETATM   26  C18 UNL     1      -1.873   2.128   8.844  1.00  0.00     0.066 C 
HETATM   27  C19 UNL     1      -0.611   2.893   9.224  1.00  0.00     0.035 C 
HETATM   28  C20 UNL     1       0.371   1.822   9.686  1.00  0.00     0.275 C 
HETATM   29  N3  UNL     1      -0.039   0.708   8.849  1.00  0.00     0.113 N 
HETATM   30  C21 UNL     1       0.339   1.010   7.501  1.00  0.00     0.313 C 
ENDBRANCH  24  25
ENDBRANCH  13  24
ENDBRANCH   7   8
ENDBRANCH   4   7
BRANCH   5  31
HETATM   31  S1  UNL     1      -4.460   4.066   5.352  1.00  0.00    -0.073 SA
HETATM   32  S2  UNL     1      -5.282   5.953   5.850  1.00  0.00    -0.013 SA
ENDBRANCH   5  31
BRANCH   2  33
HETATM   33  C8  UNL     1      -4.362   2.546   1.896  1.00  0.00     0.198 C 
BRANCH  33  34
HETATM   34  O4  UNL     1      -5.121   3.205   0.947  1.00  0.00    -0.398 OA
ATOM     35  H4  UNL     1      -5.084   4.151   1.019  1.00  0.00     0.209 HD
ENDBRANCH  33  34
ENDBRANCH   2  33
BRANCH   6  36
HETATM   36  O9  UNL     1      -7.897   2.226   5.061  1.00  0.00    -0.392 OA
ATOM     37  H9  UNL     1      -8.410   2.743   5.670  1.00  0.00     0.210 HD
ENDBRANCH   6  36
BRANCH   1  38
HETATM   38  O3  UNL     1      -7.554   1.753   2.713  1.00  0.00    -0.370 OA
BRANCH  38  39
HETATM   39  C5  UNL     1      -7.211   0.507   2.280  1.00  0.00     0.184 C 
HETATM   40  C3  UNL     1      -7.757   0.182   0.901  1.00  0.00     0.152 C 
HETATM   41  O2  UNL     1      -8.288  -1.081   0.939  1.00  0.00    -0.351 OA
HETATM   42  C4  UNL     1      -6.618   0.155  -0.125  1.00  0.00     0.042 C 
HETATM   43  C2  UNL     1      -7.831  -1.723   2.086  1.00  0.00     0.290 C 
HETATM   44  C24 UNL     1      -7.893  -0.568   3.098  1.00  0.00     0.204 C 
BRANCH  43  45
HETATM   45  O1  UNL     1      -8.611  -2.781   2.466  1.00  0.00    -0.363 OA
HETATM   46  C1  UNL     1      -7.916  -3.956   2.103  1.00  0.00     0.204 C 
ENDBRANCH  43  45
BRANCH  44  47
HETATM   47  O10 UNL     1      -9.231  -0.177   3.255  1.00  0.00    -0.388 OA
ATOM     48  H10 UNL     1      -9.273   0.772   3.272  1.00  0.00     0.210 HD
ENDBRANCH  44  47
ENDBRANCH  38  39
ENDBRANCH   1  38
TORSDOF 15
ENDMDL
