MODEL 1
REMARK VINA RESULT: -7.573086073      0.000      0.000
REMARK  14 active torsions:
REMARK  status: ('A' for Active; 'I' for Inactive)
REMARK       I    between atoms: C2_2  and  N1_4 
REMARK    1  A    between atoms: N1_4  and  N2_6 
REMARK    2  A    between atoms: N2_6  and  S1_8 
REMARK    3  A    between atoms: S1_8  and  C3_11 
REMARK    4  A    between atoms: C5_13  and  S2_14 
REMARK    5  A    between atoms: S2_14  and  N3_15 
REMARK    6  A    between atoms: C6_20  and  N4_21 
REMARK    7  A    between atoms: N4_21  and  N5_23 
REMARK    8  A    between atoms: N5_23  and  N6_25 
REMARK    9  A    between atoms: C7_28  and  N7_29 
REMARK   10  A    between atoms: C8_32  and  N8_33 
REMARK   11  A    between atoms: N8_33  and  C9_35 
REMARK   12  A    between atoms: C9_35  and  C10_36 
REMARK   13  A    between atoms: C14_40  and  S3_41 
REMARK   14  A    between atoms: C16_45  and  O10_46 
ROOT
HETATM    1  C3  UNL     1      -5.112  -1.970   5.730  1.00  0.00     0.111 A 
HETATM    2  C4  UNL     1      -5.792  -2.488   4.664  1.00  0.00     0.055 A 
HETATM    3  C5  UNL     1      -6.603  -1.632   3.916  1.00  0.00     0.111 A 
HETATM    4  C6  UNL     1      -6.706  -0.292   4.246  1.00  0.00     0.108 A 
HETATM    5  C7  UNL     1      -6.013   0.234   5.306  1.00  0.00     0.160 A 
HETATM    6  C8  UNL     1      -5.213  -0.589   6.048  1.00  0.00     0.091 A 
ENDROOT
BRANCH   6   7
HETATM    7  N8  UNL     1      -4.460  -0.127   7.116  1.00  0.00    -0.362 N 
ATOM      8  H8  UNL     1      -3.484  -0.392   6.988  1.00  0.00     0.165 HD
BRANCH   7   9
HETATM    9  C9  UNL     1      -4.601   0.572   8.292  1.00  0.00     0.102 C 
BRANCH   9  10
HETATM   10  C10 UNL     1      -4.105   0.263   9.623  1.00  0.00     0.014 A 
HETATM   11  C11 UNL     1      -4.807  -0.174  10.702  1.00  0.00     0.016 A 
HETATM   12  C12 UNL     1      -4.324  -0.183  12.012  1.00  0.00     0.003 A 
HETATM   13  C13 UNL     1      -3.043   0.296  12.222  1.00  0.00     0.026 A 
HETATM   14  C14 UNL     1      -2.278   0.768  11.194  1.00  0.00     0.092 A 
HETATM   15  C16 UNL     1      -2.808   0.741   9.937  1.00  0.00     0.098 A 
BRANCH  14  16
HETATM   16  S3  UNL     1      -0.603   1.221  11.367  1.00  0.00     0.174 S 
HETATM   17  C15 UNL     1      -0.511   2.886  11.998  1.00  0.00     0.167 C 
HETATM   18  O8  UNL     1      -0.076   0.363  12.551  1.00  0.00    -0.223 OA
HETATM   19  O9  UNL     1       0.266   0.944  10.238  1.00  0.00    -0.223 OA
ENDBRANCH  14  16
BRANCH  15  20
HETATM   20  O10 UNL     1      -2.039   1.179   8.832  1.00  0.00    -0.358 OA
ATOM     21  H10 UNL     1      -1.431   1.885   9.014  1.00  0.00     0.217 HD
ENDBRANCH  15  20
ENDBRANCH   9  10
ENDBRANCH   7   9
ENDBRANCH   6   7
BRANCH   1  22
HETATM   22  S1  UNL     1      -4.253  -3.041   6.814  1.00  0.00     0.278 S 
HETATM   23  O2  UNL     1      -4.894  -2.873   8.155  1.00  0.00    -0.199 OA
HETATM   24  O3  UNL     1      -2.824  -2.489   7.019  1.00  0.00    -0.199 OA
BRANCH  22  25
HETATM   25  N2  UNL     1      -4.188  -4.624   6.241  1.00  0.00    -0.220 N 
ATOM     26  H2  UNL     1      -4.443  -4.901   5.293  1.00  0.00     0.200 HD
BRANCH  25  27
HETATM   27  N1  UNL     1      -3.739  -5.524   7.236  1.00  0.00    -0.261 N 
HETATM   28  C2  UNL     1      -4.612  -6.402   7.894  1.00  0.00     0.232 C 
HETATM   29  C1  UNL     1      -4.116  -7.335   8.937  1.00  0.00     0.119 C 
HETATM   30  O1  UNL     1      -5.863  -6.468   7.630  1.00  0.00    -0.272 OA
ATOM     31  H1  UNL     1      -2.749  -5.534   7.483  1.00  0.00     0.190 HD
ENDBRANCH  25  27
ENDBRANCH  22  25
ENDBRANCH   1  22
BRANCH   5  32
HETATM   32  N7  UNL     1      -6.251   1.603   5.649  1.00  0.00    -0.111 N 
HETATM   33  O6  UNL     1      -7.427   1.853   6.124  1.00  0.00    -0.532 OA
HETATM   34  O7  UNL     1      -5.451   2.665   5.558  1.00  0.00    -0.532 OA
ENDBRANCH   5  32
BRANCH   4  35
HETATM   35  N4  UNL     1      -7.589   0.547   3.434  1.00  0.00    -0.283 N 
ATOM     36  H4  UNL     1      -7.275   1.015   2.584  1.00  0.00     0.188 HD
BRANCH  35  37
HETATM   37  N5  UNL     1      -8.791   0.647   3.877  1.00  0.00    -0.249 N 
ATOM     38  H5  UNL     1      -9.249  -0.209   4.190  1.00  0.00     0.207 HD
BRANCH  37  39
HETATM   39  N6  UNL     1      -9.511   1.823   3.961  1.00  0.00    -0.331 N 
ATOM     40  H62 UNL     1      -9.035   2.669   3.647  1.00  0.00     0.178 HD
ATOM     41  H61 UNL     1     -10.466   1.902   4.310  1.00  0.00     0.178 HD
ENDBRANCH  37  39
ENDBRANCH  35  37
ENDBRANCH   4  35
BRANCH   3  42
HETATM   42  S2  UNL     1      -7.451  -2.284   2.539  1.00  0.00     0.259 S 
HETATM   43  O4  UNL     1      -8.947  -2.177   2.885  1.00  0.00    -0.201 OA
HETATM   44  O5  UNL     1      -7.092  -1.543   1.326  1.00  0.00    -0.201 OA
BRANCH  42  45
HETATM   45  N3  UNL     1      -7.070  -3.966   2.360  1.00  0.00    -0.324 N 
ATOM     46  H32 UNL     1      -6.962  -4.438   1.462  1.00  0.00     0.169 HD
ATOM     47  H31 UNL     1      -6.973  -4.396   3.279  1.00  0.00     0.169 HD
ENDBRANCH  42  45
ENDBRANCH   3  42
TORSDOF 14
ENDMDL
MODEL 2
REMARK VINA RESULT: -7.538332508      2.268      2.942
REMARK  14 active torsions:
REMARK  status: ('A' for Active; 'I' for Inactive)
REMARK       I    between atoms: C2_2  and  N1_4 
REMARK    1  A    between atoms: N1_4  and  N2_6 
REMARK    2  A    between atoms: N2_6  and  S1_8 
REMARK    3  A    between atoms: S1_8  and  C3_11 
REMARK    4  A    between atoms: C5_13  and  S2_14 
REMARK    5  A    between atoms: S2_14  and  N3_15 
REMARK    6  A    between atoms: C6_20  and  N4_21 
REMARK    7  A    between atoms: N4_21  and  N5_23 
REMARK    8  A    between atoms: N5_23  and  N6_25 
REMARK    9  A    between atoms: C7_28  and  N7_29 
REMARK   10  A    between atoms: C8_32  and  N8_33 
REMARK   11  A    between atoms: N8_33  and  C9_35 
REMARK   12  A    between atoms: C9_35  and  C10_36 
REMARK   13  A    between atoms: C14_40  and  S3_41 
REMARK   14  A    between atoms: C16_45  and  O10_46 
ROOT
HETATM    1  C3  UNL     1      -4.920  -2.525   5.863  1.00  0.00     0.111 A 
HETATM    2  C4  UNL     1      -5.559  -2.950   4.733  1.00  0.00     0.055 A 
HETATM    3  C5  UNL     1      -6.510  -2.108   4.152  1.00  0.00     0.111 A 
HETATM    4  C6  UNL     1      -6.789  -0.872   4.707  1.00  0.00     0.108 A 
HETATM    5  C7  UNL     1      -6.140  -0.436   5.833  1.00  0.00     0.160 A 
HETATM    6  C8  UNL     1      -5.204  -1.246   6.413  1.00  0.00     0.091 A 
ENDROOT
BRANCH   6   7
HETATM    7  N8  UNL     1      -4.486  -0.865   7.536  1.00  0.00    -0.362 N 
ATOM      8  H8  UNL     1      -3.974  -1.666   7.904  1.00  0.00     0.165 HD
BRANCH   7   9
HETATM    9  C9  UNL     1      -4.240   0.241   8.316  1.00  0.00     0.102 C 
BRANCH   9  10
HETATM   10  C10 UNL     1      -4.144   0.357   9.761  1.00  0.00     0.014 A 
HETATM   11  C11 UNL     1      -3.024   0.426  10.529  1.00  0.00     0.016 A 
HETATM   12  C12 UNL     1      -3.000   0.256  11.914  1.00  0.00     0.003 A 
HETATM   13  C13 UNL     1      -4.202  -0.011  12.545  1.00  0.00     0.026 A 
HETATM   14  C14 UNL     1      -5.370  -0.111  11.845  1.00  0.00     0.092 A 
HETATM   15  C16 UNL     1      -5.325   0.073  10.493  1.00  0.00     0.098 A 
BRANCH  14  16
HETATM   16  S3  UNL     1      -6.935  -0.272  12.597  1.00  0.00     0.174 S 
HETATM   17  C15 UNL     1      -6.723  -0.861  14.266  1.00  0.00     0.167 C 
HETATM   18  O8  UNL     1      -7.435   1.186  12.796  1.00  0.00    -0.223 OA
HETATM   19  O9  UNL     1      -7.959  -0.958  11.830  1.00  0.00    -0.223 OA
ENDBRANCH  14  16
BRANCH  15  20
HETATM   20  O10 UNL     1      -6.515   0.022   9.729  1.00  0.00    -0.358 OA
ATOM     21  H10 UNL     1      -7.274   0.427  10.130  1.00  0.00     0.217 HD
ENDBRANCH  15  20
ENDBRANCH   9  10
ENDBRANCH   7   9
ENDBRANCH   6   7
BRANCH   1  22
HETATM   22  S1  UNL     1      -3.880  -3.625   6.738  1.00  0.00     0.278 S 
HETATM   23  O2  UNL     1      -2.602  -2.885   6.976  1.00  0.00    -0.199 OA
HETATM   24  O3  UNL     1      -3.467  -4.771   5.786  1.00  0.00    -0.199 OA
BRANCH  22  25
HETATM   25  N2  UNL     1      -4.616  -4.252   8.117  1.00  0.00    -0.220 N 
ATOM     26  H2  UNL     1      -5.436  -3.843   8.564  1.00  0.00     0.200 HD
BRANCH  25  27
HETATM   27  N1  UNL     1      -3.957  -5.415   8.581  1.00  0.00    -0.261 N 
HETATM   28  C2  UNL     1      -4.586  -6.668   8.602  1.00  0.00     0.232 C 
HETATM   29  C1  UNL     1      -3.874  -7.873   9.097  1.00  0.00     0.119 C 
HETATM   30  O1  UNL     1      -5.784  -6.853   8.187  1.00  0.00    -0.272 OA
ATOM     31  H1  UNL     1      -2.994  -5.339   8.911  1.00  0.00     0.190 HD
ENDBRANCH  25  27
ENDBRANCH  22  25
ENDBRANCH   1  22
BRANCH   5  32
HETATM   32  N7  UNL     1      -6.556   0.808   6.408  1.00  0.00    -0.111 N 
HETATM   33  O6  UNL     1      -7.486   0.714   7.301  1.00  0.00    -0.532 OA
HETATM   34  O7  UNL     1      -6.136   2.050   6.170  1.00  0.00    -0.532 OA
ENDBRANCH   5  32
BRANCH   4  35
HETATM   35  N4  UNL     1      -7.811  -0.047   4.061  1.00  0.00    -0.283 N 
ATOM     36  H4  UNL     1      -7.653   0.429   3.172  1.00  0.00     0.188 HD
BRANCH  35  37
HETATM   37  N5  UNL     1      -8.921   0.032   4.702  1.00  0.00    -0.249 N 
ATOM     38  H5  UNL     1      -9.375   0.945   4.747  1.00  0.00     0.207 HD
BRANCH  37  39
HETATM   39  N6  UNL     1      -9.550  -1.023   5.335  1.00  0.00    -0.331 N 
ATOM     40  H62 UNL     1      -8.948  -1.779   5.661  1.00  0.00     0.178 HD
ATOM     41  H61 UNL     1     -10.555  -1.096   5.495  1.00  0.00     0.178 HD
ENDBRANCH  37  39
ENDBRANCH  35  37
ENDBRANCH   4  35
BRANCH   3  42
HETATM   42  S2  UNL     1      -7.307  -2.637   2.694  1.00  0.00     0.259 S 
HETATM   43  O4  UNL     1      -8.814  -2.581   3.002  1.00  0.00    -0.201 OA
HETATM   44  O5  UNL     1      -6.923  -1.780   1.568  1.00  0.00    -0.201 OA
BRANCH  42  45
HETATM   45  N3  UNL     1      -6.895  -4.289   2.368  1.00  0.00    -0.324 N 
ATOM     46  H32 UNL     1      -6.422  -4.905   3.030  1.00  0.00     0.169 HD
ATOM     47  H31 UNL     1      -7.196  -4.540   1.427  1.00  0.00     0.169 HD
ENDBRANCH  42  45
ENDBRANCH   3  42
TORSDOF 14
ENDMDL
MODEL 3
REMARK VINA RESULT: -7.295550624      3.428      7.690
REMARK  14 active torsions:
REMARK  status: ('A' for Active; 'I' for Inactive)
REMARK       I    between atoms: C2_2  and  N1_4 
REMARK    1  A    between atoms: N1_4  and  N2_6 
REMARK    2  A    between atoms: N2_6  and  S1_8 
REMARK    3  A    between atoms: S1_8  and  C3_11 
REMARK    4  A    between atoms: C5_13  and  S2_14 
REMARK    5  A    between atoms: S2_14  and  N3_15 
REMARK    6  A    between atoms: C6_20  and  N4_21 
REMARK    7  A    between atoms: N4_21  and  N5_23 
REMARK    8  A    between atoms: N5_23  and  N6_25 
REMARK    9  A    between atoms: C7_28  and  N7_29 
REMARK   10  A    between atoms: C8_32  and  N8_33 
REMARK   11  A    between atoms: N8_33  and  C9_35 
REMARK   12  A    between atoms: C9_35  and  C10_36 
REMARK   13  A    between atoms: C14_40  and  S3_41 
REMARK   14  A    between atoms: C16_45  and  O10_46 
ROOT
HETATM    1  C3  UNL     1      -5.604  -1.676   4.738  1.00  0.00     0.111 A 
HETATM    2  C4  UNL     1      -5.114  -2.842   5.254  1.00  0.00     0.055 A 
HETATM    3  C5  UNL     1      -4.279  -2.774   6.372  1.00  0.00     0.111 A 
HETATM    4  C6  UNL     1      -3.965  -1.555   6.943  1.00  0.00     0.108 A 
HETATM    5  C7  UNL     1      -4.467  -0.383   6.437  1.00  0.00     0.160 A 
HETATM    6  C8  UNL     1      -5.288  -0.431   5.345  1.00  0.00     0.091 A 
ENDROOT
BRANCH   6   7
HETATM    7  N8  UNL     1      -5.856   0.707   4.793  1.00  0.00    -0.362 N 
ATOM      8  H8  UNL     1      -5.358   0.960   3.940  1.00  0.00     0.165 HD
BRANCH   7   9
HETATM    9  C9  UNL     1      -6.871   1.606   5.021  1.00  0.00     0.102 C 
BRANCH   9  10
HETATM   10  C10 UNL     1      -8.272   1.370   5.329  1.00  0.00     0.014 A 
HETATM   11  C11 UNL     1      -8.799   0.671   6.370  1.00  0.00     0.016 A 
HETATM   12  C12 UNL     1     -10.127   0.252   6.451  1.00  0.00     0.003 A 
HETATM   13  C13 UNL     1     -10.960   0.561   5.391  1.00  0.00     0.026 A 
HETATM   14  C14 UNL     1     -10.505   1.246   4.301  1.00  0.00     0.092 A 
HETATM   15  C16 UNL     1      -9.197   1.634   4.288  1.00  0.00     0.098 A 
BRANCH  14  16
HETATM   16  S3  UNL     1     -11.540   1.815   3.017  1.00  0.00     0.174 S 
HETATM   17  C15 UNL     1     -13.242   1.632   3.515  1.00  0.00     0.167 C 
HETATM   18  O8  UNL     1     -11.340   3.356   2.996  1.00  0.00    -0.223 OA
HETATM   19  O9  UNL     1     -11.238   1.342   1.679  1.00  0.00    -0.223 OA
ENDBRANCH  14  16
BRANCH  15  20
HETATM   20  O10 UNL     1      -8.689   2.384   3.201  1.00  0.00    -0.358 OA
ATOM     21  H10 UNL     1      -7.919   2.020   2.779  1.00  0.00     0.217 HD
ENDBRANCH  15  20
ENDBRANCH   9  10
ENDBRANCH   7   9
ENDBRANCH   6   7
BRANCH   1  22
HETATM   22  S1  UNL     1      -6.479  -1.696   3.224  1.00  0.00     0.278 S 
HETATM   23  O2  UNL     1      -5.830  -0.664   2.357  1.00  0.00    -0.199 OA
HETATM   24  O3  UNL     1      -7.896  -1.130   3.468  1.00  0.00    -0.199 OA
BRANCH  22  25
HETATM   25  N2  UNL     1      -6.576  -3.239   2.555  1.00  0.00    -0.220 N 
ATOM     26  H2  UNL     1      -5.771  -3.770   2.222  1.00  0.00     0.200 HD
BRANCH  25  27
HETATM   27  N1  UNL     1      -7.910  -3.709   2.509  1.00  0.00    -0.261 N 
HETATM   28  C2  UNL     1      -8.230  -4.998   2.061  1.00  0.00     0.232 C 
HETATM   29  C1  UNL     1      -9.637  -5.467   2.020  1.00  0.00     0.119 C 
HETATM   30  O1  UNL     1      -7.344  -5.844   1.683  1.00  0.00    -0.272 OA
ATOM     31  H1  UNL     1      -8.662  -3.090   2.813  1.00  0.00     0.190 HD
ENDBRANCH  25  27
ENDBRANCH  22  25
ENDBRANCH   1  22
BRANCH   5  32
HETATM   32  N7  UNL     1      -4.016   0.846   7.017  1.00  0.00    -0.111 N 
HETATM   33  O6  UNL     1      -3.564   1.715   6.174  1.00  0.00    -0.532 OA
HETATM   34  O7  UNL     1      -3.987   1.238   8.290  1.00  0.00    -0.532 OA
ENDBRANCH   5  32
BRANCH   4  35
HETATM   35  N4  UNL     1      -3.070  -1.551   8.100  1.00  0.00    -0.283 N 
ATOM     36  H4  UNL     1      -2.054  -1.510   8.010  1.00  0.00     0.188 HD
BRANCH  35  37
HETATM   37  N5  UNL     1      -3.663  -1.603   9.239  1.00  0.00    -0.249 N 
ATOM     38  H5  UNL     1      -4.419  -2.279   9.344  1.00  0.00     0.207 HD
BRANCH  37  39
HETATM   39  N6  UNL     1      -3.356  -0.816  10.332  1.00  0.00    -0.331 N 
ATOM     40  H62 UNL     1      -3.139   0.162  10.138  1.00  0.00     0.178 HD
ATOM     41  H61 UNL     1      -3.331  -1.139  11.299  1.00  0.00     0.178 HD
ENDBRANCH  37  39
ENDBRANCH  35  37
ENDBRANCH   4  35
BRANCH   3  42
HETATM   42  S2  UNL     1      -3.674  -4.264   7.047  1.00  0.00     0.259 S 
HETATM   43  O4  UNL     1      -2.141  -4.165   6.962  1.00  0.00    -0.201 OA
HETATM   44  O5  UNL     1      -4.160  -4.430   8.421  1.00  0.00    -0.201 OA
BRANCH  42  45
HETATM   45  N3  UNL     1      -4.174  -5.599   6.061  1.00  0.00    -0.324 N 
ATOM     46  H32 UNL     1      -4.096  -5.624   5.044  1.00  0.00     0.169 HD
ATOM     47  H31 UNL     1      -4.550  -6.341   6.652  1.00  0.00     0.169 HD
ENDBRANCH  42  45
ENDBRANCH   3  42
TORSDOF 14
ENDMDL
MODEL 4
REMARK VINA RESULT: -7.294000321      3.108      7.129
REMARK  14 active torsions:
REMARK  status: ('A' for Active; 'I' for Inactive)
REMARK       I    between atoms: C2_2  and  N1_4 
REMARK    1  A    between atoms: N1_4  and  N2_6 
REMARK    2  A    between atoms: N2_6  and  S1_8 
REMARK    3  A    between atoms: S1_8  and  C3_11 
REMARK    4  A    between atoms: C5_13  and  S2_14 
REMARK    5  A    between atoms: S2_14  and  N3_15 
REMARK    6  A    between atoms: C6_20  and  N4_21 
REMARK    7  A    between atoms: N4_21  and  N5_23 
REMARK    8  A    between atoms: N5_23  and  N6_25 
REMARK    9  A    between atoms: C7_28  and  N7_29 
REMARK   10  A    between atoms: C8_32  and  N8_33 
REMARK   11  A    between atoms: N8_33  and  C9_35 
REMARK   12  A    between atoms: C9_35  and  C10_36 
REMARK   13  A    between atoms: C14_40  and  S3_41 
REMARK   14  A    between atoms: C16_45  and  O10_46 
ROOT
HETATM    1  C3  UNL     1      -4.634  -1.143   7.640  1.00  0.00     0.111 A 
HETATM    2  C4  UNL     1      -4.274  -2.460   7.701  1.00  0.00     0.055 A 
HETATM    3  C5  UNL     1      -4.452  -3.250   6.563  1.00  0.00     0.111 A 
HETATM    4  C6  UNL     1      -4.973  -2.706   5.403  1.00  0.00     0.108 A 
HETATM    5  C7  UNL     1      -5.321  -1.381   5.333  1.00  0.00     0.160 A 
HETATM    6  C8  UNL     1      -5.151  -0.593   6.437  1.00  0.00     0.091 A 
ENDROOT
BRANCH   6   7
HETATM    7  N8  UNL     1      -5.454   0.760   6.436  1.00  0.00    -0.362 N 
ATOM      8  H8  UNL     1      -4.592   1.304   6.407  1.00  0.00     0.165 HD
BRANCH   7   9
HETATM    9  C9  UNL     1      -6.536   1.607   6.462  1.00  0.00     0.102 C 
BRANCH   9  10
HETATM   10  C10 UNL     1      -7.936   1.338   6.178  1.00  0.00     0.014 A 
HETATM   11  C11 UNL     1      -8.836   0.664   6.942  1.00  0.00     0.016 A 
HETATM   12  C12 UNL     1     -10.074   0.205   6.489  1.00  0.00     0.003 A 
HETATM   13  C13 UNL     1     -10.399   0.446   5.166  1.00  0.00     0.026 A 
HETATM   14  C14 UNL     1      -9.544   1.103   4.328  1.00  0.00     0.092 A 
HETATM   15  C16 UNL     1      -8.352   1.532   4.836  1.00  0.00     0.098 A 
BRANCH  14  16
HETATM   16  S3  UNL     1      -9.964   1.588   2.706  1.00  0.00     0.174 S 
HETATM   17  C15 UNL     1      -9.237   0.446   1.547  1.00  0.00     0.167 C 
HETATM   18  O8  UNL     1     -11.486   1.298   2.584  1.00  0.00    -0.223 OA
HETATM   19  O9  UNL     1      -9.785   2.991   2.380  1.00  0.00    -0.223 OA
ENDBRANCH  14  16
BRANCH  15  20
HETATM   20  O10 UNL     1      -7.451   2.255   4.020  1.00  0.00    -0.358 OA
ATOM     21  H10 UNL     1      -7.746   3.117   3.751  1.00  0.00     0.217 HD
ENDBRANCH  15  20
ENDBRANCH   9  10
ENDBRANCH   7   9
ENDBRANCH   6   7
BRANCH   1  22
HETATM   22  S1  UNL     1      -4.624  -0.173   9.095  1.00  0.00     0.278 S 
HETATM   23  O2  UNL     1      -3.903   1.090   8.745  1.00  0.00    -0.199 OA
HETATM   24  O3  UNL     1      -3.695  -0.849  10.130  1.00  0.00    -0.199 OA
BRANCH  22  25
HETATM   25  N2  UNL     1      -6.164   0.035   9.744  1.00  0.00    -0.220 N 
ATOM     26  H2  UNL     1      -7.004   0.187   9.186  1.00  0.00     0.200 HD
BRANCH  25  27
HETATM   27  N1  UNL     1      -6.151  -0.026  11.157  1.00  0.00    -0.261 N 
HETATM   28  C2  UNL     1      -7.294  -0.359  11.899  1.00  0.00     0.232 C 
HETATM   29  C1  UNL     1      -7.255  -0.413  13.381  1.00  0.00     0.119 C 
HETATM   30  O1  UNL     1      -8.416  -0.649  11.354  1.00  0.00    -0.272 OA
ATOM     31  H1  UNL     1      -5.283   0.178  11.653  1.00  0.00     0.190 HD
ENDBRANCH  25  27
ENDBRANCH  22  25
ENDBRANCH   1  22
BRANCH   5  32
HETATM   32  N7  UNL     1      -5.949  -0.915   4.134  1.00  0.00    -0.111 N 
HETATM   33  O6  UNL     1      -5.330   0.045   3.530  1.00  0.00    -0.532 OA
HETATM   34  O7  UNL     1      -7.072  -1.315   3.538  1.00  0.00    -0.532 OA
ENDBRANCH   5  32
BRANCH   4  35
HETATM   35  N4  UNL     1      -5.152  -3.592   4.252  1.00  0.00    -0.283 N 
ATOM     36  H4  UNL     1      -4.379  -3.879   3.652  1.00  0.00     0.188 HD
BRANCH  35  37
HETATM   37  N5  UNL     1      -6.362  -3.979   4.057  1.00  0.00    -0.249 N 
ATOM     38  H5  UNL     1      -6.921  -4.208   4.878  1.00  0.00     0.207 HD
BRANCH  37  39
HETATM   39  N6  UNL     1      -6.964  -4.110   2.820  1.00  0.00    -0.331 N 
ATOM     40  H62 UNL     1      -6.697  -3.426   2.112  1.00  0.00     0.178 HD
ATOM     41  H61 UNL     1      -7.643  -4.829   2.571  1.00  0.00     0.178 HD
ENDBRANCH  37  39
ENDBRANCH  35  37
ENDBRANCH   4  35
BRANCH   3  42
HETATM   42  S2  UNL     1      -3.969  -4.924   6.631  1.00  0.00     0.259 S 
HETATM   43  O4  UNL     1      -5.223  -5.733   6.252  1.00  0.00    -0.201 OA
HETATM   44  O5  UNL     1      -2.841  -5.162   5.724  1.00  0.00    -0.201 OA
BRANCH  42  45
HETATM   45  N3  UNL     1      -3.540  -5.344   8.257  1.00  0.00    -0.324 N 
ATOM     46  H32 UNL     1      -4.113  -5.135   9.075  1.00  0.00     0.169 HD
ATOM     47  H31 UNL     1      -2.641  -5.825   8.262  1.00  0.00     0.169 HD
ENDBRANCH  42  45
ENDBRANCH   3  42
TORSDOF 14
ENDMDL
MODEL 5
REMARK VINA RESULT: -7.184080004      0.989      1.162
REMARK  14 active torsions:
REMARK  status: ('A' for Active; 'I' for Inactive)
REMARK       I    between atoms: C2_2  and  N1_4 
REMARK    1  A    between atoms: N1_4  and  N2_6 
REMARK    2  A    between atoms: N2_6  and  S1_8 
REMARK    3  A    between atoms: S1_8  and  C3_11 
REMARK    4  A    between atoms: C5_13  and  S2_14 
REMARK    5  A    between atoms: S2_14  and  N3_15 
REMARK    6  A    between atoms: C6_20  and  N4_21 
REMARK    7  A    between atoms: N4_21  and  N5_23 
REMARK    8  A    between atoms: N5_23  and  N6_25 
REMARK    9  A    between atoms: C7_28  and  N7_29 
REMARK   10  A    between atoms: C8_32  and  N8_33 
REMARK   11  A    between atoms: N8_33  and  C9_35 
REMARK   12  A    between atoms: C9_35  and  C10_36 
REMARK   13  A    between atoms: C14_40  and  S3_41 
REMARK   14  A    between atoms: C16_45  and  O10_46 
ROOT
HETATM    1  C3  UNL     1      -4.913  -2.008   5.846  1.00  0.00     0.111 A 
HETATM    2  C4  UNL     1      -5.671  -2.475   4.810  1.00  0.00     0.055 A 
HETATM    3  C5  UNL     1      -6.400  -1.555   4.054  1.00  0.00     0.111 A 
HETATM    4  C6  UNL     1      -6.347  -0.204   4.346  1.00  0.00     0.108 A 
HETATM    5  C7  UNL     1      -5.576   0.271   5.376  1.00  0.00     0.160 A 
HETATM    6  C8  UNL     1      -4.854  -0.616   6.125  1.00  0.00     0.091 A 
ENDROOT
BRANCH   6   7
HETATM    7  N8  UNL     1      -4.031  -0.211   7.164  1.00  0.00    -0.362 N 
ATOM      8  H8  UNL     1      -3.072  -0.505   6.977  1.00  0.00     0.165 HD
BRANCH   7   9
HETATM    9  C9  UNL     1      -4.084   0.456   8.365  1.00  0.00     0.102 C 
BRANCH   9  10
HETATM   10  C10 UNL     1      -3.137   0.464   9.468  1.00  0.00     0.014 A 
HETATM   11  C11 UNL     1      -3.398   0.451  10.802  1.00  0.00     0.016 A 
HETATM   12  C12 UNL     1      -2.462   0.739  11.796  1.00  0.00     0.003 A 
HETATM   13  C13 UNL     1      -1.182   1.072  11.390  1.00  0.00     0.026 A 
HETATM   14  C14 UNL     1      -0.843   1.125  10.069  1.00  0.00     0.092 A 
HETATM   15  C16 UNL     1      -1.803   0.823   9.148  1.00  0.00     0.098 A 
BRANCH  14  16
HETATM   16  S3  UNL     1       0.789   1.367   9.500  1.00  0.00     0.174 S 
HETATM   17  C15 UNL     1       1.047   3.103   9.188  1.00  0.00     0.167 C 
HETATM   18  O8  UNL     1       1.688   1.091  10.737  1.00  0.00    -0.223 OA
HETATM   19  O9  UNL     1       1.250   0.480   8.448  1.00  0.00    -0.223 OA
ENDBRANCH  14  16
BRANCH  15  20
HETATM   20  O10 UNL     1      -1.489   0.821   7.768  1.00  0.00    -0.358 OA
ATOM     21  H10 UNL     1      -2.233   0.750   7.181  1.00  0.00     0.217 HD
ENDBRANCH  15  20
ENDBRANCH   9  10
ENDBRANCH   7   9
ENDBRANCH   6   7
BRANCH   1  22
HETATM   22  S1  UNL     1      -4.153  -3.137   6.943  1.00  0.00     0.278 S 
HETATM   23  O2  UNL     1      -4.767  -2.889   8.284  1.00  0.00    -0.199 OA
HETATM   24  O3  UNL     1      -2.677  -2.720   7.133  1.00  0.00    -0.199 OA
BRANCH  22  25
HETATM   25  N2  UNL     1      -4.241  -4.728   6.396  1.00  0.00    -0.220 N 
ATOM     26  H2  UNL     1      -4.590  -4.999   5.477  1.00  0.00     0.200 HD
BRANCH  25  27
HETATM   27  N1  UNL     1      -3.774  -5.644   7.368  1.00  0.00    -0.261 N 
HETATM   28  C2  UNL     1      -4.644  -6.482   8.080  1.00  0.00     0.232 C 
HETATM   29  C1  UNL     1      -4.129  -7.432   9.097  1.00  0.00     0.119 C 
HETATM   30  O1  UNL     1      -5.910  -6.494   7.889  1.00  0.00    -0.272 OA
ATOM     31  H1  UNL     1      -2.773  -5.696   7.557  1.00  0.00     0.190 HD
ENDBRANCH  25  27
ENDBRANCH  22  25
ENDBRANCH   1  22
BRANCH   5  32
HETATM   32  N7  UNL     1      -5.653   1.667   5.684  1.00  0.00    -0.111 N 
HETATM   33  O6  UNL     1      -6.816   2.079   6.068  1.00  0.00    -0.532 OA
HETATM   34  O7  UNL     1      -4.715   2.612   5.639  1.00  0.00    -0.532 OA
ENDBRANCH   5  32
BRANCH   4  35
HETATM   35  N4  UNL     1      -7.151   0.706   3.528  1.00  0.00    -0.283 N 
ATOM     36  H4  UNL     1      -6.758   1.244   2.755  1.00  0.00     0.188 HD
BRANCH  35  37
HETATM   37  N5  UNL     1      -8.390   0.774   3.861  1.00  0.00    -0.249 N 
ATOM     38  H5  UNL     1      -8.895  -0.104   3.976  1.00  0.00     0.207 HD
BRANCH  37  39
HETATM   39  N6  UNL     1      -9.092   1.945   4.075  1.00  0.00    -0.331 N 
ATOM     40  H62 UNL     1      -9.260   2.200   5.048  1.00  0.00     0.178 HD
ATOM     41  H61 UNL     1      -9.445   2.559   3.342  1.00  0.00     0.178 HD
ENDBRANCH  37  39
ENDBRANCH  35  37
ENDBRANCH   4  35
BRANCH   3  42
HETATM   42  S2  UNL     1      -7.347  -2.146   2.714  1.00  0.00     0.259 S 
HETATM   43  O4  UNL     1      -8.816  -2.011   3.153  1.00  0.00    -0.201 OA
HETATM   44  O5  UNL     1      -7.042  -1.379   1.502  1.00  0.00    -0.201 OA
BRANCH  42  45
HETATM   45  N3  UNL     1      -7.022  -3.830   2.466  1.00  0.00    -0.324 N 
ATOM     46  H32 UNL     1      -7.568  -4.588   2.877  1.00  0.00     0.169 HD
ATOM     47  H31 UNL     1      -6.213  -3.938   1.855  1.00  0.00     0.169 HD
ENDBRANCH  42  45
ENDBRANCH   3  42
TORSDOF 14
ENDMDL
