MODEL 1
REMARK VINA RESULT: -7.419199635      0.000      0.000
REMARK  18 active torsions:
REMARK  status: ('A' for Active; 'I' for Inactive)
REMARK    1  A    between atoms: C2_2  and  C3_3 
REMARK    2  A    between atoms: C3_3  and  C5_5 
REMARK    3  A    between atoms: C5_5  and  O1_6 
REMARK    4  A    between atoms: C5_5  and  C26_46 
REMARK    5  A    between atoms: O1_6  and  C6_7 
REMARK    6  A    between atoms: C7_8  and  O2_9 
REMARK    7  A    between atoms: C8_11  and  O3_12 
REMARK    8  A    between atoms: O3_12  and  C9_13 
REMARK    9  A    between atoms: C11_16  and  O5_17 
REMARK   10  A    between atoms: C12_19  and  O6_20 
REMARK   11  A    between atoms: C13_22  and  O7_23 
REMARK   12  A    between atoms: C14_25  and  O8_26 
REMARK   13  A    between atoms: C15_28  and  O9_29 
REMARK   14  A    between atoms: C16_31  and  O10_32 
REMARK   15  A    between atoms: O10_32  and  N1_33 
REMARK   16  A    between atoms: C17_35  and  C18_36 
REMARK   17  A    between atoms: C21_39  and  C22_40 
REMARK   18  A    between atoms: C22_40  and  O12_42 
ROOT
HETATM    1  C6  UNL     1      -5.485  -1.055   4.975  1.00  0.00     0.187 C 
HETATM    2  C7  UNL     1      -6.152  -0.151   3.964  1.00  0.00     0.181 C 
HETATM    3  C8  UNL     1      -7.571  -0.512   3.660  1.00  0.00     0.187 C 
HETATM    4  C14 UNL     1      -7.838  -1.979   3.527  1.00  0.00     0.181 C 
HETATM    5  C15 UNL     1      -7.059  -2.833   4.529  1.00  0.00     0.183 C 
HETATM    6  C16 UNL     1      -5.629  -2.450   4.376  1.00  0.00     0.215 C 
ENDROOT
BRANCH   6   7
HETATM    7  O10 UNL     1      -4.679  -3.371   4.745  1.00  0.00    -0.270 OA
BRANCH   7   8
HETATM    8  N1  UNL     1      -4.690  -4.239   5.777  1.00  0.00    -0.277 N 
HETATM    9  C17 UNL     1      -3.824  -4.107   6.721  1.00  0.00     0.125 C 
ATOM     10  H1  UNL     1      -5.377  -4.993   5.810  1.00  0.00     0.193 HD
BRANCH   9  11
HETATM   11  C18 UNL     1      -3.847  -5.055   7.834  1.00  0.00    -0.019 A 
HETATM   12  C19 UNL     1      -3.147  -4.786   9.001  1.00  0.00     0.014 A 
HETATM   13  C20 UNL     1      -3.183  -5.696  10.037  1.00  0.00     0.018 A 
HETATM   14  C21 UNL     1      -3.905  -6.868   9.928  1.00  0.00     0.039 A 
HETATM   15  C24 UNL     1      -4.603  -7.151   8.781  1.00  0.00     0.018 A 
HETATM   16  C25 UNL     1      -4.551  -6.231   7.767  1.00  0.00     0.014 A 
BRANCH  14  17
HETATM   17  C22 UNL     1      -3.928  -7.808  11.035  1.00  0.00     0.292 C 
HETATM   18  O11 UNL     1      -4.249  -8.992  10.822  1.00  0.00    -0.259 OA
BRANCH  17  19
HETATM   19  O12 UNL     1      -3.603  -7.422  12.324  1.00  0.00    -0.323 OA
HETATM   20  C23 UNL     1      -3.853  -8.195  13.470  1.00  0.00     0.213 C 
ENDBRANCH  17  19
ENDBRANCH  14  17
ENDBRANCH   9  11
ENDBRANCH   7   8
ENDBRANCH   6   7
BRANCH   1  21
HETATM   21  O1  UNL     1      -6.042  -0.862   6.179  1.00  0.00    -0.374 OA
BRANCH  21  22
HETATM   22  C5  UNL     1      -5.210  -0.674   7.293  1.00  0.00     0.129 C 
BRANCH  22  23
HETATM   23  C3  UNL     1      -3.895  -0.138   6.979  1.00  0.00     0.011 C 
HETATM   24  C4  UNL     1      -3.699   1.356   6.944  1.00  0.00     0.012 C 
BRANCH  23  25
HETATM   25  C2  UNL     1      -2.660  -0.864   7.438  1.00  0.00     0.002 C 
HETATM   26  C1  UNL     1      -1.449  -0.054   7.713  1.00  0.00     0.005 C 
ENDBRANCH  23  25
ENDBRANCH  22  23
BRANCH  22  27
HETATM   27  C26 UNL     1      -6.105  -0.009   8.286  1.00  0.00     0.007 C 
HETATM   28  C27 UNL     1      -6.049  -0.623   9.680  1.00  0.00     0.012 C 
HETATM   29  C28 UNL     1      -7.468   0.374   7.851  1.00  0.00     0.012 C 
ENDBRANCH  22  27
ENDBRANCH  21  22
ENDBRANCH   1  21
BRANCH   5  30
HETATM   30  O9  UNL     1      -7.205  -4.157   4.117  1.00  0.00    -0.390 OA
ATOM     31  H9  UNL     1      -7.267  -4.679   4.908  1.00  0.00     0.210 HD
ENDBRANCH   5  30
BRANCH   2  32
HETATM   32  O2  UNL     1      -6.035   1.173   4.326  1.00  0.00    -0.390 OA
ATOM     33  H2  UNL     1      -6.725   1.697   3.937  1.00  0.00     0.210 HD
ENDBRANCH   2  32
BRANCH   4  34
HETATM   34  O8  UNL     1      -7.401  -2.374   2.241  1.00  0.00    -0.390 OA
ATOM     35  H8  UNL     1      -7.735  -3.249   2.084  1.00  0.00     0.210 HD
ENDBRANCH   4  34
BRANCH   3  36
HETATM   36  O3  UNL     1      -8.514   0.081   4.489  1.00  0.00    -0.348 OA
BRANCH  36  37
HETATM   37  C9  UNL     1      -9.608   0.553   3.790  1.00  0.00     0.291 C 
HETATM   38  O4  UNL     1     -10.285   1.509   4.573  1.00  0.00    -0.356 OA
HETATM   39  C10 UNL     1     -11.552   1.639   4.005  1.00  0.00     0.205 C 
HETATM   40  C11 UNL     1     -11.474   2.085   2.557  1.00  0.00     0.173 C 
HETATM   41  C12 UNL     1     -10.015   2.423   2.270  1.00  0.00     0.182 C 
HETATM   42  C13 UNL     1      -9.238   1.127   2.440  1.00  0.00     0.204 C 
BRANCH  40  43
HETATM   43  O5  UNL     1     -11.961   1.119   1.687  1.00  0.00    -0.391 OA
ATOM     44  H5  UNL     1     -11.276   0.755   1.138  1.00  0.00     0.210 HD
ENDBRANCH  40  43
BRANCH  41  45
HETATM   45  O6  UNL     1      -9.848   2.861   0.962  1.00  0.00    -0.390 OA
ATOM     46  H6  UNL     1      -9.510   3.749   0.936  1.00  0.00     0.210 HD
ENDBRANCH  41  45
BRANCH  42  47
HETATM   47  O7  UNL     1      -9.679   0.289   1.392  1.00  0.00    -0.388 OA
ATOM     48  H7  UNL     1      -8.986   0.136   0.761  1.00  0.00     0.210 HD
ENDBRANCH  42  47
ENDBRANCH  36  37
ENDBRANCH   3  36
TORSDOF 18
ENDMDL
MODEL 2
REMARK VINA RESULT: -7.281758034      0.956      1.476
REMARK  18 active torsions:
REMARK  status: ('A' for Active; 'I' for Inactive)
REMARK    1  A    between atoms: C2_2  and  C3_3 
REMARK    2  A    between atoms: C3_3  and  C5_5 
REMARK    3  A    between atoms: C5_5  and  O1_6 
REMARK    4  A    between atoms: C5_5  and  C26_46 
REMARK    5  A    between atoms: O1_6  and  C6_7 
REMARK    6  A    between atoms: C7_8  and  O2_9 
REMARK    7  A    between atoms: C8_11  and  O3_12 
REMARK    8  A    between atoms: O3_12  and  C9_13 
REMARK    9  A    between atoms: C11_16  and  O5_17 
REMARK   10  A    between atoms: C12_19  and  O6_20 
REMARK   11  A    between atoms: C13_22  and  O7_23 
REMARK   12  A    between atoms: C14_25  and  O8_26 
REMARK   13  A    between atoms: C15_28  and  O9_29 
REMARK   14  A    between atoms: C16_31  and  O10_32 
REMARK   15  A    between atoms: O10_32  and  N1_33 
REMARK   16  A    between atoms: C17_35  and  C18_36 
REMARK   17  A    between atoms: C21_39  and  C22_40 
REMARK   18  A    between atoms: C22_40  and  O12_42 
ROOT
HETATM    1  C6  UNL     1      -4.927  -1.033   5.148  1.00  0.00     0.187 C 
HETATM    2  C7  UNL     1      -5.454  -0.117   4.068  1.00  0.00     0.181 C 
HETATM    3  C8  UNL     1      -6.901  -0.313   3.750  1.00  0.00     0.187 C 
HETATM    4  C14 UNL     1      -7.352  -1.739   3.699  1.00  0.00     0.181 C 
HETATM    5  C15 UNL     1      -6.708  -2.621   4.770  1.00  0.00     0.183 C 
HETATM    6  C16 UNL     1      -5.238  -2.433   4.631  1.00  0.00     0.215 C 
ENDROOT
BRANCH   6   7
HETATM    7  O10 UNL     1      -4.421  -3.443   5.079  1.00  0.00    -0.270 OA
BRANCH   7   8
HETATM    8  N1  UNL     1      -4.389  -4.039   6.289  1.00  0.00    -0.277 N 
HETATM    9  C17 UNL     1      -4.091  -5.289   6.367  1.00  0.00     0.125 C 
ATOM     10  H1  UNL     1      -4.599  -3.505   7.133  1.00  0.00     0.193 HD
BRANCH   9  11
HETATM   11  C18 UNL     1      -4.060  -5.924   7.683  1.00  0.00    -0.019 A 
HETATM   12  C19 UNL     1      -3.709  -5.194   8.809  1.00  0.00     0.014 A 
HETATM   13  C20 UNL     1      -3.687  -5.815  10.040  1.00  0.00     0.018 A 
HETATM   14  C21 UNL     1      -4.011  -7.151  10.168  1.00  0.00     0.039 A 
HETATM   15  C24 UNL     1      -4.361  -7.890   9.065  1.00  0.00     0.018 A 
HETATM   16  C25 UNL     1      -4.374  -7.249   7.854  1.00  0.00     0.014 A 
BRANCH  14  17
HETATM   17  C22 UNL     1      -3.983  -7.780  11.476  1.00  0.00     0.292 C 
HETATM   18  O11 UNL     1      -4.677  -7.307  12.395  1.00  0.00    -0.259 OA
BRANCH  17  19
HETATM   19  O12 UNL     1      -3.201  -8.893  11.731  1.00  0.00    -0.323 OA
HETATM   20  C23 UNL     1      -3.171  -9.578  12.958  1.00  0.00     0.213 C 
ENDBRANCH  17  19
ENDBRANCH  14  17
ENDBRANCH   9  11
ENDBRANCH   7   8
ENDBRANCH   6   7
BRANCH   1  21
HETATM   21  O1  UNL     1      -5.475  -0.695   6.325  1.00  0.00    -0.374 OA
BRANCH  21  22
HETATM   22  C5  UNL     1      -4.648  -0.557   7.448  1.00  0.00     0.129 C 
BRANCH  22  23
HETATM   23  C3  UNL     1      -3.347   0.033   7.170  1.00  0.00     0.011 C 
HETATM   24  C4  UNL     1      -3.198   1.532   7.200  1.00  0.00     0.012 C 
BRANCH  23  25
HETATM   25  C2  UNL     1      -2.094  -0.674   7.611  1.00  0.00     0.002 C 
HETATM   26  C1  UNL     1      -0.885   0.153   7.842  1.00  0.00     0.005 C 
ENDBRANCH  23  25
ENDBRANCH  22  23
BRANCH  22  27
HETATM   27  C26 UNL     1      -5.559   0.020   8.481  1.00  0.00     0.007 C 
HETATM   28  C27 UNL     1      -5.230  -0.407   9.907  1.00  0.00     0.012 C 
HETATM   29  C28 UNL     1      -7.009   0.064   8.185  1.00  0.00     0.012 C 
ENDBRANCH  22  27
ENDBRANCH  21  22
ENDBRANCH   1  21
BRANCH   5  30
HETATM   30  O9  UNL     1      -7.016  -3.938   4.435  1.00  0.00    -0.390 OA
ATOM     31  H9  UNL     1      -7.657  -4.235   5.070  1.00  0.00     0.210 HD
ENDBRANCH   5  30
BRANCH   2  32
HETATM   32  O2  UNL     1      -5.174   1.201   4.353  1.00  0.00    -0.390 OA
ATOM     33  H2  UNL     1      -4.655   1.599   3.664  1.00  0.00     0.210 HD
ENDBRANCH   2  32
BRANCH   4  34
HETATM   34  O8  UNL     1      -6.947  -2.267   2.451  1.00  0.00    -0.390 OA
ATOM     35  H8  UNL     1      -7.312  -3.140   2.379  1.00  0.00     0.210 HD
ENDBRANCH   4  34
BRANCH   3  36
HETATM   36  O3  UNL     1      -7.775   0.447   4.518  1.00  0.00    -0.348 OA
BRANCH  36  37
HETATM   37  C9  UNL     1      -8.406   1.430   3.781  1.00  0.00     0.291 C 
HETATM   38  O4  UNL     1      -7.680   1.662   2.596  1.00  0.00    -0.356 OA
HETATM   39  C10 UNL     1      -8.120   2.895   2.115  1.00  0.00     0.205 C 
HETATM   40  C11 UNL     1      -9.612   2.889   1.840  1.00  0.00     0.173 C 
HETATM   41  C12 UNL     1     -10.094   1.453   2.014  1.00  0.00     0.182 C 
HETATM   42  C13 UNL     1      -9.849   1.096   3.471  1.00  0.00     0.204 C 
BRANCH  40  43
HETATM   43  O5  UNL     1     -10.298   3.767   2.669  1.00  0.00    -0.391 OA
ATOM     44  H5  UNL     1     -11.124   4.044   2.291  1.00  0.00     0.210 HD
ENDBRANCH  40  43
BRANCH  41  45
HETATM   45  O6  UNL     1     -11.458   1.346   1.765  1.00  0.00    -0.390 OA
ATOM     46  H6  UNL     1     -11.734   0.437   1.747  1.00  0.00     0.210 HD
ENDBRANCH  41  45
BRANCH  42  47
HETATM   47  O7  UNL     1     -10.730   1.917   4.209  1.00  0.00    -0.388 OA
ATOM     48  H7  UNL     1     -11.634   1.660   4.070  1.00  0.00     0.210 HD
ENDBRANCH  42  47
ENDBRANCH  36  37
ENDBRANCH   3  36
TORSDOF 18
ENDMDL
MODEL 3
REMARK VINA RESULT: -7.152700861      1.063      2.270
REMARK  18 active torsions:
REMARK  status: ('A' for Active; 'I' for Inactive)
REMARK    1  A    between atoms: C2_2  and  C3_3 
REMARK    2  A    between atoms: C3_3  and  C5_5 
REMARK    3  A    between atoms: C5_5  and  O1_6 
REMARK    4  A    between atoms: C5_5  and  C26_46 
REMARK    5  A    between atoms: O1_6  and  C6_7 
REMARK    6  A    between atoms: C7_8  and  O2_9 
REMARK    7  A    between atoms: C8_11  and  O3_12 
REMARK    8  A    between atoms: O3_12  and  C9_13 
REMARK    9  A    between atoms: C11_16  and  O5_17 
REMARK   10  A    between atoms: C12_19  and  O6_20 
REMARK   11  A    between atoms: C13_22  and  O7_23 
REMARK   12  A    between atoms: C14_25  and  O8_26 
REMARK   13  A    between atoms: C15_28  and  O9_29 
REMARK   14  A    between atoms: C16_31  and  O10_32 
REMARK   15  A    between atoms: O10_32  and  N1_33 
REMARK   16  A    between atoms: C17_35  and  C18_36 
REMARK   17  A    between atoms: C21_39  and  C22_40 
REMARK   18  A    between atoms: C22_40  and  O12_42 
ROOT
HETATM    1  C6  UNL     1      -4.943  -1.061   5.187  1.00  0.00     0.187 C 
HETATM    2  C7  UNL     1      -5.443  -0.102   4.132  1.00  0.00     0.181 C 
HETATM    3  C8  UNL     1      -6.897  -0.243   3.813  1.00  0.00     0.187 C 
HETATM    4  C14 UNL     1      -7.394  -1.653   3.728  1.00  0.00     0.181 C 
HETATM    5  C15 UNL     1      -6.776  -2.581   4.775  1.00  0.00     0.183 C 
HETATM    6  C16 UNL     1      -5.301  -2.437   4.636  1.00  0.00     0.215 C 
ENDROOT
BRANCH   6   7
HETATM    7  O10 UNL     1      -4.515  -3.484   5.056  1.00  0.00    -0.270 OA
BRANCH   7   8
HETATM    8  N1  UNL     1      -4.471  -4.084   6.263  1.00  0.00    -0.277 N 
HETATM    9  C17 UNL     1      -4.126  -5.322   6.339  1.00  0.00     0.125 C 
ATOM     10  H1  UNL     1      -4.709  -3.563   7.107  1.00  0.00     0.193 HD
BRANCH   9  11
HETATM   11  C18 UNL     1      -4.082  -5.961   7.652  1.00  0.00    -0.019 A 
HETATM   12  C19 UNL     1      -3.840  -5.210   8.793  1.00  0.00     0.014 A 
HETATM   13  C20 UNL     1      -3.804  -5.837  10.021  1.00  0.00     0.018 A 
HETATM   14  C21 UNL     1      -4.005  -7.198  10.131  1.00  0.00     0.039 A 
HETATM   15  C24 UNL     1      -4.246  -7.957   9.014  1.00  0.00     0.018 A 
HETATM   16  C25 UNL     1      -4.277  -7.311   7.806  1.00  0.00     0.014 A 
BRANCH  14  17
HETATM   17  C22 UNL     1      -3.964  -7.831  11.437  1.00  0.00     0.292 C 
HETATM   18  O11 UNL     1      -4.659  -7.368  12.361  1.00  0.00    -0.259 OA
BRANCH  17  19
HETATM   19  O12 UNL     1      -3.171  -8.939  11.683  1.00  0.00    -0.323 OA
HETATM   20  C23 UNL     1      -3.094  -9.599  12.921  1.00  0.00     0.213 C 
ENDBRANCH  17  19
ENDBRANCH  14  17
ENDBRANCH   9  11
ENDBRANCH   7   8
ENDBRANCH   6   7
BRANCH   1  21
HETATM   21  O1  UNL     1      -5.477  -0.736   6.373  1.00  0.00    -0.374 OA
BRANCH  21  22
HETATM   22  C5  UNL     1      -4.675  -0.101   7.331  1.00  0.00     0.129 C 
BRANCH  22  23
HETATM   23  C3  UNL     1      -5.137  -0.255   8.702  1.00  0.00     0.011 C 
HETATM   24  C4  UNL     1      -4.381   0.427   9.813  1.00  0.00     0.012 C 
BRANCH  23  25
HETATM   25  C2  UNL     1      -6.610  -0.353   8.990  1.00  0.00     0.002 C 
HETATM   26  C1  UNL     1      -7.035  -0.318  10.411  1.00  0.00     0.005 C 
ENDBRANCH  23  25
ENDBRANCH  22  23
BRANCH  22  27
HETATM   27  C26 UNL     1      -3.287  -0.481   6.930  1.00  0.00     0.007 C 
HETATM   28  C27 UNL     1      -2.723  -1.670   7.699  1.00  0.00     0.012 C 
HETATM   29  C28 UNL     1      -2.308   0.605   6.696  1.00  0.00     0.012 C 
ENDBRANCH  22  27
ENDBRANCH  21  22
ENDBRANCH   1  21
BRANCH   5  30
HETATM   30  O9  UNL     1      -7.127  -3.879   4.408  1.00  0.00    -0.390 OA
ATOM     31  H9  UNL     1      -6.403  -4.219   3.895  1.00  0.00     0.210 HD
ENDBRANCH   5  30
BRANCH   2  32
HETATM   32  O2  UNL     1      -5.120   1.199   4.448  1.00  0.00    -0.390 OA
ATOM     33  H2  UNL     1      -5.416   1.799   3.774  1.00  0.00     0.210 HD
ENDBRANCH   2  32
BRANCH   4  34
HETATM   34  O8  UNL     1      -7.009  -2.162   2.466  1.00  0.00    -0.390 OA
ATOM     35  H8  UNL     1      -7.583  -2.892   2.267  1.00  0.00     0.210 HD
ENDBRANCH   4  34
BRANCH   3  36
HETATM   36  O3  UNL     1      -7.743   0.525   4.603  1.00  0.00    -0.348 OA
BRANCH  36  37
HETATM   37  C9  UNL     1      -8.424   1.479   3.872  1.00  0.00     0.291 C 
HETATM   38  O4  UNL     1      -7.703   1.767   2.696  1.00  0.00    -0.356 OA
HETATM   39  C10 UNL     1      -8.210   2.978   2.225  1.00  0.00     0.205 C 
HETATM   40  C11 UNL     1      -9.696   2.891   1.939  1.00  0.00     0.173 C 
HETATM   41  C12 UNL     1     -10.097   1.428   2.092  1.00  0.00     0.182 C 
HETATM   42  C13 UNL     1      -9.843   1.068   3.547  1.00  0.00     0.204 C 
BRANCH  40  43
HETATM   43  O5  UNL     1     -10.437   3.718   2.772  1.00  0.00    -0.391 OA
ATOM     44  H5  UNL     1     -11.182   4.102   2.324  1.00  0.00     0.210 HD
ENDBRANCH  40  43
BRANCH  41  45
HETATM   45  O6  UNL     1     -11.450   1.246   1.830  1.00  0.00    -0.390 OA
ATOM     46  H6  UNL     1     -11.773   0.444   2.224  1.00  0.00     0.210 HD
ENDBRANCH  41  45
BRANCH  42  47
HETATM   47  O7  UNL     1     -10.776   1.828   4.287  1.00  0.00    -0.388 OA
ATOM     48  H7  UNL     1     -11.150   2.521   3.757  1.00  0.00     0.210 HD
ENDBRANCH  42  47
ENDBRANCH  36  37
ENDBRANCH   3  36
TORSDOF 18
ENDMDL
MODEL 4
REMARK VINA RESULT: -6.982632848      1.221      1.563
REMARK  18 active torsions:
REMARK  status: ('A' for Active; 'I' for Inactive)
REMARK    1  A    between atoms: C2_2  and  C3_3 
REMARK    2  A    between atoms: C3_3  and  C5_5 
REMARK    3  A    between atoms: C5_5  and  O1_6 
REMARK    4  A    between atoms: C5_5  and  C26_46 
REMARK    5  A    between atoms: O1_6  and  C6_7 
REMARK    6  A    between atoms: C7_8  and  O2_9 
REMARK    7  A    between atoms: C8_11  and  O3_12 
REMARK    8  A    between atoms: O3_12  and  C9_13 
REMARK    9  A    between atoms: C11_16  and  O5_17 
REMARK   10  A    between atoms: C12_19  and  O6_20 
REMARK   11  A    between atoms: C13_22  and  O7_23 
REMARK   12  A    between atoms: C14_25  and  O8_26 
REMARK   13  A    between atoms: C15_28  and  O9_29 
REMARK   14  A    between atoms: C16_31  and  O10_32 
REMARK   15  A    between atoms: O10_32  and  N1_33 
REMARK   16  A    between atoms: C17_35  and  C18_36 
REMARK   17  A    between atoms: C21_39  and  C22_40 
REMARK   18  A    between atoms: C22_40  and  O12_42 
ROOT
HETATM    1  C6  UNL     1      -5.635  -0.051   4.388  1.00  0.00     0.187 C 
HETATM    2  C7  UNL     1      -6.522   0.690   3.414  1.00  0.00     0.181 C 
HETATM    3  C8  UNL     1      -7.977   0.374   3.547  1.00  0.00     0.187 C 
HETATM    4  C14 UNL     1      -8.294  -1.071   3.779  1.00  0.00     0.181 C 
HETATM    5  C15 UNL     1      -7.301  -1.772   4.707  1.00  0.00     0.183 C 
HETATM    6  C16 UNL     1      -5.951  -1.521   4.133  1.00  0.00     0.215 C 
ENDROOT
BRANCH   6   7
HETATM    7  O10 UNL     1      -4.954  -2.418   4.433  1.00  0.00    -0.270 OA
BRANCH   7   8
HETATM    8  N1  UNL     1      -4.923  -3.369   5.389  1.00  0.00    -0.277 N 
HETATM    9  C17 UNL     1      -3.955  -3.379   6.236  1.00  0.00     0.125 C 
ATOM     10  H1  UNL     1      -5.660  -4.074   5.439  1.00  0.00     0.193 HD
BRANCH   9  11
HETATM   11  C18 UNL     1      -3.932  -4.415   7.267  1.00  0.00    -0.019 A 
HETATM   12  C19 UNL     1      -3.327  -4.177   8.492  1.00  0.00     0.014 A 
HETATM   13  C20 UNL     1      -3.319  -5.171   9.448  1.00  0.00     0.018 A 
HETATM   14  C21 UNL     1      -3.904  -6.397   9.204  1.00  0.00     0.039 A 
HETATM   15  C24 UNL     1      -4.507  -6.652   7.998  1.00  0.00     0.018 A 
HETATM   16  C25 UNL     1      -4.501  -5.648   7.065  1.00  0.00     0.014 A 
BRANCH  14  17
HETATM   17  C22 UNL     1      -3.883  -7.425  10.229  1.00  0.00     0.292 C 
HETATM   18  O11 UNL     1      -4.197  -8.592   9.928  1.00  0.00    -0.259 OA
BRANCH  17  19
HETATM   19  O12 UNL     1      -3.524  -7.143  11.535  1.00  0.00    -0.323 OA
HETATM   20  C23 UNL     1      -3.986  -7.853  12.656  1.00  0.00     0.213 C 
ENDBRANCH  17  19
ENDBRANCH  14  17
ENDBRANCH   9  11
ENDBRANCH   7   8
ENDBRANCH   6   7
BRANCH   1  21
HETATM   21  O1  UNL     1      -5.863   0.402   5.629  1.00  0.00    -0.374 OA
BRANCH  21  22
HETATM   22  C5  UNL     1      -4.933   0.119   6.640  1.00  0.00     0.129 C 
BRANCH  22  23
HETATM   23  C3  UNL     1      -3.739   0.950   6.611  1.00  0.00     0.011 C 
HETATM   24  C4  UNL     1      -3.846   2.374   6.131  1.00  0.00     0.012 C 
BRANCH  23  25
HETATM   25  C2  UNL     1      -2.683   0.783   7.670  1.00  0.00     0.002 C 
HETATM   26  C1  UNL     1      -1.942  -0.501   7.702  1.00  0.00     0.005 C 
ENDBRANCH  23  25
ENDBRANCH  22  23
BRANCH  22  27
HETATM   27  C26 UNL     1      -5.776   0.012   7.868  1.00  0.00     0.007 C 
HETATM   28  C27 UNL     1      -5.468  -1.208   8.728  1.00  0.00     0.012 C 
HETATM   29  C28 UNL     1      -7.221   0.316   7.750  1.00  0.00     0.012 C 
ENDBRANCH  22  27
ENDBRANCH  21  22
ENDBRANCH   1  21
BRANCH   5  30
HETATM   30  O9  UNL     1      -7.571  -3.136   4.616  1.00  0.00    -0.390 OA
ATOM     31  H9  UNL     1      -7.336  -3.513   5.455  1.00  0.00     0.210 HD
ENDBRANCH   5  30
BRANCH   2  32
HETATM   32  O2  UNL     1      -6.293   2.046   3.465  1.00  0.00    -0.390 OA
ATOM     33  H2  UNL     1      -6.286   2.426   2.594  1.00  0.00     0.210 HD
ENDBRANCH   2  32
BRANCH   4  34
HETATM   34  O8  UNL     1      -8.207  -1.729   2.530  1.00  0.00    -0.390 OA
ATOM     35  H8  UNL     1      -8.747  -1.246   1.916  1.00  0.00     0.210 HD
ENDBRANCH   4  34
BRANCH   3  36
HETATM   36  O3  UNL     1      -8.667   1.175   4.448  1.00  0.00    -0.348 OA
BRANCH  36  37
HETATM   37  C9  UNL     1     -10.007   0.850   4.522  1.00  0.00     0.291 C 
HETATM   38  O4  UNL     1     -10.387   0.738   5.874  1.00  0.00    -0.356 OA
HETATM   39  C10 UNL     1     -11.592   0.037   5.876  1.00  0.00     0.205 C 
HETATM   40  C11 UNL     1     -12.660   0.757   5.074  1.00  0.00     0.173 C 
HETATM   41  C12 UNL     1     -12.090   2.117   4.688  1.00  0.00     0.182 C 
HETATM   42  C13 UNL     1     -10.892   1.838   3.795  1.00  0.00     0.204 C 
BRANCH  40  43
HETATM   43  O5  UNL     1     -13.055   0.029   3.960  1.00  0.00    -0.391 OA
ATOM     44  H5  UNL     1     -13.710   0.488   3.447  1.00  0.00     0.210 HD
ENDBRANCH  40  43
BRANCH  41  45
HETATM   45  O6  UNL     1     -13.011   2.862   3.960  1.00  0.00    -0.390 OA
ATOM     46  H6  UNL     1     -13.034   2.587   3.051  1.00  0.00     0.210 HD
ENDBRANCH  41  45
BRANCH  42  47
HETATM   47  O7  UNL     1     -11.431   1.270   2.618  1.00  0.00    -0.388 OA
ATOM     48  H7  UNL     1     -12.274   0.869   2.787  1.00  0.00     0.210 HD
ENDBRANCH  42  47
ENDBRANCH  36  37
ENDBRANCH   3  36
TORSDOF 18
ENDMDL
MODEL 5
REMARK VINA RESULT: -6.856791274      1.441      2.156
REMARK  18 active torsions:
REMARK  status: ('A' for Active; 'I' for Inactive)
REMARK    1  A    between atoms: C2_2  and  C3_3 
REMARK    2  A    between atoms: C3_3  and  C5_5 
REMARK    3  A    between atoms: C5_5  and  O1_6 
REMARK    4  A    between atoms: C5_5  and  C26_46 
REMARK    5  A    between atoms: O1_6  and  C6_7 
REMARK    6  A    between atoms: C7_8  and  O2_9 
REMARK    7  A    between atoms: C8_11  and  O3_12 
REMARK    8  A    between atoms: O3_12  and  C9_13 
REMARK    9  A    between atoms: C11_16  and  O5_17 
REMARK   10  A    between atoms: C12_19  and  O6_20 
REMARK   11  A    between atoms: C13_22  and  O7_23 
REMARK   12  A    between atoms: C14_25  and  O8_26 
REMARK   13  A    between atoms: C15_28  and  O9_29 
REMARK   14  A    between atoms: C16_31  and  O10_32 
REMARK   15  A    between atoms: O10_32  and  N1_33 
REMARK   16  A    between atoms: C17_35  and  C18_36 
REMARK   17  A    between atoms: C21_39  and  C22_40 
REMARK   18  A    between atoms: C22_40  and  O12_42 
ROOT
HETATM    1  C6  UNL     1      -6.305   0.618   3.884  1.00  0.00     0.187 C 
HETATM    2  C7  UNL     1      -7.239   1.383   2.975  1.00  0.00     0.181 C 
HETATM    3  C8  UNL     1      -8.652   0.895   2.995  1.00  0.00     0.187 C 
HETATM    4  C14 UNL     1      -8.809  -0.594   3.021  1.00  0.00     0.181 C 
HETATM    5  C15 UNL     1      -7.773  -1.302   3.896  1.00  0.00     0.183 C 
HETATM    6  C16 UNL     1      -6.443  -0.830   3.424  1.00  0.00     0.215 C 
ENDROOT
BRANCH   6   7
HETATM    7  O10 UNL     1      -5.360  -1.645   3.651  1.00  0.00    -0.270 OA
BRANCH   7   8
HETATM    8  N1  UNL     1      -5.238  -2.682   4.505  1.00  0.00    -0.277 N 
HETATM    9  C17 UNL     1      -4.429  -2.585   5.501  1.00  0.00     0.125 C 
ATOM     10  H1  UNL     1      -5.782  -3.533   4.363  1.00  0.00     0.193 HD
BRANCH   9  11
HETATM   11  C18 UNL     1      -4.306  -3.716   6.419  1.00  0.00    -0.019 A 
HETATM   12  C19 UNL     1      -4.593  -5.004   5.992  1.00  0.00     0.014 A 
HETATM   13  C20 UNL     1      -4.469  -6.054   6.878  1.00  0.00     0.018 A 
HETATM   14  C21 UNL     1      -4.064  -5.842   8.180  1.00  0.00     0.039 A 
HETATM   15  C24 UNL     1      -3.775  -4.575   8.621  1.00  0.00     0.018 A 
HETATM   16  C25 UNL     1      -3.907  -3.549   7.722  1.00  0.00     0.014 A 
BRANCH  14  17
HETATM   17  C22 UNL     1      -3.940  -6.966   9.090  1.00  0.00     0.292 C 
HETATM   18  O11 UNL     1      -3.394  -8.013   8.695  1.00  0.00    -0.259 OA
BRANCH  17  19
HETATM   19  O12 UNL     1      -4.414  -6.906  10.389  1.00  0.00    -0.323 OA
HETATM   20  C23 UNL     1      -4.027  -7.783  11.417  1.00  0.00     0.213 C 
ENDBRANCH  17  19
ENDBRANCH  14  17
ENDBRANCH   9  11
ENDBRANCH   7   8
ENDBRANCH   6   7
BRANCH   1  21
HETATM   21  O1  UNL     1      -6.624   0.871   5.162  1.00  0.00    -0.374 OA
BRANCH  21  22
HETATM   22  C5  UNL     1      -5.669   0.638   6.162  1.00  0.00     0.129 C 
BRANCH  22  23
HETATM   23  C3  UNL     1      -4.526   1.537   6.125  1.00  0.00     0.011 C 
HETATM   24  C4  UNL     1      -4.735   2.976   5.734  1.00  0.00     0.012 C 
BRANCH  23  25
HETATM   25  C2  UNL     1      -3.411   1.373   7.122  1.00  0.00     0.002 C 
HETATM   26  C1  UNL     1      -2.553   0.169   7.000  1.00  0.00     0.005 C 
ENDBRANCH  23  25
ENDBRANCH  22  23
BRANCH  22  27
HETATM   27  C26 UNL     1      -6.492   0.476   7.398  1.00  0.00     0.007 C 
HETATM   28  C27 UNL     1      -6.035  -0.661   8.303  1.00  0.00     0.012 C 
HETATM   29  C28 UNL     1      -7.963   0.595   7.276  1.00  0.00     0.012 C 
ENDBRANCH  22  27
ENDBRANCH  21  22
ENDBRANCH   1  21
BRANCH   5  30
HETATM   30  O9  UNL     1      -7.882  -2.662   3.613  1.00  0.00    -0.390 OA
ATOM     31  H9  UNL     1      -8.702  -2.951   3.995  1.00  0.00     0.210 HD
ENDBRANCH   5  30
BRANCH   2  32
HETATM   32  O2  UNL     1      -7.169   2.737   3.214  1.00  0.00    -0.390 OA
ATOM     33  H2  UNL     1      -8.032   3.104   3.363  1.00  0.00     0.210 HD
ENDBRANCH   2  32
BRANCH   4  34
HETATM   34  O8  UNL     1      -8.607  -1.063   1.702  1.00  0.00    -0.390 OA
ATOM     35  H8  UNL     1      -7.734  -1.437   1.664  1.00  0.00     0.210 HD
ENDBRANCH   4  34
BRANCH   3  36
HETATM   36  O3  UNL     1      -9.458   1.486   3.960  1.00  0.00    -0.348 OA
BRANCH  36  37
HETATM   37  C9  UNL     1     -10.803   1.280   3.721  1.00  0.00     0.291 C 
HETATM   38  O4  UNL     1     -11.531   1.536   4.899  1.00  0.00    -0.356 OA
HETATM   39  C10 UNL     1     -12.778   0.940   4.714  1.00  0.00     0.205 C 
HETATM   40  C11 UNL     1     -13.495   1.507   3.503  1.00  0.00     0.173 C 
HETATM   41  C12 UNL     1     -12.668   2.685   3.003  1.00  0.00     0.182 C 
HETATM   42  C13 UNL     1     -11.329   2.112   2.572  1.00  0.00     0.204 C 
BRANCH  40  43
HETATM   43  O5  UNL     1     -13.682   0.550   2.513  1.00  0.00    -0.391 OA
ATOM     44  H5  UNL     1     -13.360   0.843   1.669  1.00  0.00     0.210 HD
ENDBRANCH  40  43
BRANCH  41  45
HETATM   45  O6  UNL     1     -13.261   3.283   1.897  1.00  0.00    -0.390 OA
ATOM     46  H6  UNL     1     -12.626   3.774   1.389  1.00  0.00     0.210 HD
ENDBRANCH  41  45
BRANCH  42  47
HETATM   47  O7  UNL     1     -11.614   1.305   1.448  1.00  0.00    -0.388 OA
ATOM     48  H7  UNL     1     -11.057   1.531   0.713  1.00  0.00     0.210 HD
ENDBRANCH  42  47
ENDBRANCH  36  37
ENDBRANCH   3  36
TORSDOF 18
ENDMDL
