MODEL 1
REMARK VINA RESULT: -7.201324467      0.000      0.000
REMARK  14 active torsions:
REMARK  status: ('A' for Active; 'I' for Inactive)
REMARK    1  A    between atoms: O1_2  and  C2_3 
REMARK    2  A    between atoms: C11_14  and  O4_15 
REMARK    3  A    between atoms: O4_15  and  C12_16 
REMARK    4  A    between atoms: C12_16  and  C13_17 
REMARK    5  A    between atoms: C13_17  and  C14_18 
REMARK    6  A    between atoms: C15_22  and  O5_23 
REMARK    7  A    between atoms: C17_25  and  O6_26 
REMARK    8  A    between atoms: O6_26  and  C18_27 
REMARK    9  A    between atoms: C19_29  and  C20_30 
REMARK   10  A    between atoms: C20_30  and  O8_31 
REMARK   11  A    between atoms: C21_33  and  O9_34 
REMARK   12  A    between atoms: C22_36  and  O10_37 
REMARK   13  A    between atoms: C23_39  and  O11_40 
REMARK   14  A    between atoms: C25_43  and  O12_44 
ROOT
HETATM    1  C2  UNL     1      -9.475  -1.120   5.593  1.00  0.00     0.158 C 
HETATM    2  C3  UNL     1      -9.203   0.028   4.640  1.00  0.00     0.042 C 
HETATM    3  C4  UNL     1      -8.482   1.165   5.275  1.00  0.00     0.015 C 
HETATM    4  C5  UNL     1      -8.516  -0.542   3.418  1.00  0.00     0.128 C 
HETATM    5  C6  UNL     1      -7.041  -0.459   3.409  1.00  0.00     0.037 C 
HETATM    6  C7  UNL     1      -6.207  -1.648   3.633  1.00  0.00     0.002 C 
HETATM    7  C8  UNL     1      -7.052  -2.839   3.343  1.00  0.00     0.040 C 
HETATM    8  C9  UNL     1      -8.365  -2.713   4.032  1.00  0.00     0.154 C 
HETATM    9  O2  UNL     1      -9.090  -1.795   3.254  1.00  0.00    -0.377 OA
HETATM   10  C10 UNL     1      -8.385  -2.216   5.421  1.00  0.00     0.183 C 
HETATM   11  O3  UNL     1      -7.324  -1.724   6.006  1.00  0.00    -0.342 OA
HETATM   12  C11 UNL     1      -6.098  -2.297   6.091  1.00  0.00     0.200 C 
HETATM   13  C15 UNL     1      -5.525  -1.887   7.414  1.00  0.00     0.212 C 
HETATM   14  C17 UNL     1      -4.436  -0.872   7.433  1.00  0.00     0.161 C 
HETATM   15  C24 UNL     1      -3.503  -1.177   6.279  1.00  0.00     0.067 C 
HETATM   16  C25 UNL     1      -4.367  -0.715   5.078  1.00  0.00     0.130 C 
HETATM   17  C26 UNL     1      -5.370  -1.762   4.860  1.00  0.00     0.084 C 
ENDROOT
BRANCH  14  18
HETATM   18  O6  UNL     1      -3.662  -0.856   8.555  1.00  0.00    -0.350 OA
BRANCH  18  19
HETATM   19  C18 UNL     1      -3.187   0.344   8.986  1.00  0.00     0.292 C 
HETATM   20  O7  UNL     1      -3.875   0.850  10.042  1.00  0.00    -0.348 OA
HETATM   21  C19 UNL     1      -3.581   0.272  11.242  1.00  0.00     0.179 C 
HETATM   22  C21 UNL     1      -2.169   0.555  11.627  1.00  0.00     0.180 C 
HETATM   23  C22 UNL     1      -1.460   1.218  10.475  1.00  0.00     0.183 C 
HETATM   24  C23 UNL     1      -1.719   0.465   9.168  1.00  0.00     0.204 C 
BRANCH  21  25
HETATM   25  C20 UNL     1      -3.901  -1.197  11.367  1.00  0.00     0.198 C 
BRANCH  25  26
HETATM   26  O8  UNL     1      -4.240  -1.427  12.728  1.00  0.00    -0.398 OA
ATOM     27  H8  UNL     1      -3.885  -2.277  12.958  1.00  0.00     0.209 HD
ENDBRANCH  25  26
ENDBRANCH  21  25
BRANCH  22  28
HETATM   28  O9  UNL     1      -1.502  -0.603  12.015  1.00  0.00    -0.390 OA
ATOM     29  H9  UNL     1      -1.412  -0.655  12.960  1.00  0.00     0.210 HD
ENDBRANCH  22  28
BRANCH  23  30
HETATM   30  O10 UNL     1      -1.794   2.547  10.312  1.00  0.00    -0.390 OA
ATOM     31  H10 UNL     1      -2.373   2.708   9.577  1.00  0.00     0.210 HD
ENDBRANCH  23  30
BRANCH  24  32
HETATM   32  O11 UNL     1      -1.033  -0.739   9.264  1.00  0.00    -0.388 OA
ATOM     33  H11 UNL     1      -0.252  -0.803   8.728  1.00  0.00     0.210 HD
ENDBRANCH  24  32
ENDBRANCH  18  19
ENDBRANCH  14  18
BRANCH  13  34
HETATM   34  O5  UNL     1      -6.569  -1.300   8.165  1.00  0.00    -0.383 OA
HETATM   35  C16 UNL     1      -6.785  -1.821   9.400  1.00  0.00     0.202 C 
ENDBRANCH  13  34
BRANCH  12  36
HETATM   36  O4  UNL     1      -6.018  -3.628   6.021  1.00  0.00    -0.352 OA
BRANCH  36  37
HETATM   37  C12 UNL     1      -5.125  -4.461   5.635  1.00  0.00     0.176 C 
BRANCH  37  38
HETATM   38  C13 UNL     1      -4.731  -5.302   6.884  1.00  0.00     0.070 C 
BRANCH  38  39
HETATM   39  C14 UNL     1      -3.420  -4.797   7.385  1.00  0.00     0.054 C 
HETATM   40  N1  UNL     1      -3.308  -4.115   8.448  1.00  0.00    -0.411 N 
ATOM     41  H12 UNL     1      -4.160  -3.913   8.971  1.00  0.00     0.155 HD
ATOM     42  H11 UNL     1      -2.411  -3.769   8.791  1.00  0.00     0.155 HD
ENDBRANCH  38  39
ENDBRANCH  37  38
ENDBRANCH  36  37
ENDBRANCH  12  36
BRANCH  16  43
HETATM   43  O12 UNL     1      -4.756   0.534   5.382  1.00  0.00    -0.395 OA
ATOM     44  H12 UNL     1      -5.339   0.793   4.679  1.00  0.00     0.210 HD
ENDBRANCH  16  43
BRANCH   1  45
HETATM   45  O1  UNL     1     -10.732  -1.663   5.433  1.00  0.00    -0.388 OA
HETATM   46  C1  UNL     1     -11.703  -0.980   6.175  1.00  0.00     0.202 C 
ENDBRANCH   1  45
TORSDOF 14
ENDMDL
MODEL 2
REMARK VINA RESULT: -6.775508821      1.215      2.171
REMARK  14 active torsions:
REMARK  status: ('A' for Active; 'I' for Inactive)
REMARK    1  A    between atoms: O1_2  and  C2_3 
REMARK    2  A    between atoms: C11_14  and  O4_15 
REMARK    3  A    between atoms: O4_15  and  C12_16 
REMARK    4  A    between atoms: C12_16  and  C13_17 
REMARK    5  A    between atoms: C13_17  and  C14_18 
REMARK    6  A    between atoms: C15_22  and  O5_23 
REMARK    7  A    between atoms: C17_25  and  O6_26 
REMARK    8  A    between atoms: O6_26  and  C18_27 
REMARK    9  A    between atoms: C19_29  and  C20_30 
REMARK   10  A    between atoms: C20_30  and  O8_31 
REMARK   11  A    between atoms: C21_33  and  O9_34 
REMARK   12  A    between atoms: C22_36  and  O10_37 
REMARK   13  A    between atoms: C23_39  and  O11_40 
REMARK   14  A    between atoms: C25_43  and  O12_44 
ROOT
HETATM    1  C2  UNL     1      -8.912  -1.198   5.135  1.00  0.00     0.158 C 
HETATM    2  C3  UNL     1      -8.588  -0.531   3.812  1.00  0.00     0.042 C 
HETATM    3  C4  UNL     1      -7.980   0.819   3.963  1.00  0.00     0.015 C 
HETATM    4  C5  UNL     1      -7.757  -1.501   3.000  1.00  0.00     0.128 C 
HETATM    5  C6  UNL     1      -6.294  -1.315   3.070  1.00  0.00     0.037 C 
HETATM    6  C7  UNL     1      -5.442  -2.234   3.837  1.00  0.00     0.002 C 
HETATM    7  C8  UNL     1      -6.206  -3.500   4.010  1.00  0.00     0.040 C 
HETATM    8  C9  UNL     1      -7.586  -3.203   4.479  1.00  0.00     0.154 C 
HETATM    9  O2  UNL     1      -8.263  -2.750   3.334  1.00  0.00    -0.377 OA
HETATM   10  C10 UNL     1      -7.768  -2.177   5.525  1.00  0.00     0.183 C 
HETATM   11  O3  UNL     1      -6.793  -1.405   5.928  1.00  0.00    -0.342 OA
HETATM   12  C11 UNL     1      -5.561  -1.794   6.340  1.00  0.00     0.200 C 
HETATM   13  C15 UNL     1      -5.143  -0.829   7.408  1.00  0.00     0.212 C 
HETATM   14  C17 UNL     1      -4.102   0.185   7.082  1.00  0.00     0.161 C 
HETATM   15  C24 UNL     1      -3.044  -0.498   6.239  1.00  0.00     0.067 C 
HETATM   16  C25 UNL     1      -3.797  -0.645   4.892  1.00  0.00     0.130 C 
HETATM   17  C26 UNL     1      -4.731  -1.763   5.058  1.00  0.00     0.084 C 
ENDROOT
BRANCH  14  18
HETATM   18  O6  UNL     1      -3.448   0.726   8.149  1.00  0.00    -0.350 OA
BRANCH  18  19
HETATM   19  C18 UNL     1      -3.311  -0.036   9.267  1.00  0.00     0.292 C 
HETATM   20  O7  UNL     1      -2.154  -0.747   9.300  1.00  0.00    -0.348 OA
HETATM   21  C19 UNL     1      -1.049  -0.018   9.629  1.00  0.00     0.179 C 
HETATM   22  C21 UNL     1      -1.147   0.479  11.030  1.00  0.00     0.180 C 
HETATM   23  C22 UNL     1      -2.524   0.187  11.568  1.00  0.00     0.183 C 
HETATM   24  C23 UNL     1      -3.602   0.613  10.569  1.00  0.00     0.204 C 
BRANCH  21  25
HETATM   25  C20 UNL     1      -0.679   1.092   8.677  1.00  0.00     0.198 C 
BRANCH  25  26
HETATM   26  O8  UNL     1       0.732   1.243   8.753  1.00  0.00    -0.398 OA
ATOM     27  H8  UNL     1       0.901   2.167   8.893  1.00  0.00     0.209 HD
ENDBRANCH  25  26
ENDBRANCH  21  25
BRANCH  22  28
HETATM   28  O9  UNL     1      -0.864   1.839  11.113  1.00  0.00    -0.390 OA
ATOM     29  H9  UNL     1      -0.516   2.072  11.966  1.00  0.00     0.210 HD
ENDBRANCH  22  28
BRANCH  23  30
HETATM   30  O10 UNL     1      -2.715  -1.136  11.911  1.00  0.00    -0.390 OA
ATOM     31  H10 UNL     1      -3.460  -1.278  12.483  1.00  0.00     0.210 HD
ENDBRANCH  23  30
BRANCH  24  32
HETATM   32  O11 UNL     1      -3.597   2.003  10.552  1.00  0.00    -0.388 OA
ATOM     33  H11 UNL     1      -3.316   2.396   9.734  1.00  0.00     0.210 HD
ENDBRANCH  24  32
ENDBRANCH  18  19
ENDBRANCH  14  18
BRANCH  13  34
HETATM   34  O5  UNL     1      -6.281  -0.066   7.759  1.00  0.00    -0.383 OA
HETATM   35  C16 UNL     1      -6.966  -0.482   8.855  1.00  0.00     0.202 C 
ENDBRANCH  13  34
BRANCH  12  36
HETATM   36  O4  UNL     1      -5.422  -3.023   6.843  1.00  0.00    -0.352 OA
BRANCH  36  37
HETATM   37  C12 UNL     1      -4.928  -3.509   7.920  1.00  0.00     0.176 C 
BRANCH  37  38
HETATM   38  C13 UNL     1      -3.598  -4.212   7.523  1.00  0.00     0.070 C 
BRANCH  38  39
HETATM   39  C14 UNL     1      -3.906  -5.217   6.464  1.00  0.00     0.054 C 
HETATM   40  N1  UNL     1      -4.871  -6.034   6.553  1.00  0.00    -0.411 N 
ATOM     41  H12 UNL     1      -5.451  -5.989   7.390  1.00  0.00     0.155 HD
ATOM     42  H11 UNL     1      -5.082  -6.721   5.829  1.00  0.00     0.155 HD
ENDBRANCH  38  39
ENDBRANCH  37  38
ENDBRANCH  36  37
ENDBRANCH  12  36
BRANCH  16  43
HETATM   43  O12 UNL     1      -4.263   0.583   4.612  1.00  0.00    -0.395 OA
ATOM     44  H12 UNL     1      -3.620   1.183   4.970  1.00  0.00     0.210 HD
ENDBRANCH  16  43
BRANCH   1  45
HETATM   45  O1  UNL     1     -10.124  -1.854   5.122  1.00  0.00    -0.388 OA
HETATM   46  C1  UNL     1     -11.044  -1.286   6.010  1.00  0.00     0.202 C 
ENDBRANCH   1  45
TORSDOF 14
ENDMDL
MODEL 3
REMARK VINA RESULT: -6.566008146      3.228      5.372
REMARK  14 active torsions:
REMARK  status: ('A' for Active; 'I' for Inactive)
REMARK    1  A    between atoms: O1_2  and  C2_3 
REMARK    2  A    between atoms: C11_14  and  O4_15 
REMARK    3  A    between atoms: O4_15  and  C12_16 
REMARK    4  A    between atoms: C12_16  and  C13_17 
REMARK    5  A    between atoms: C13_17  and  C14_18 
REMARK    6  A    between atoms: C15_22  and  O5_23 
REMARK    7  A    between atoms: C17_25  and  O6_26 
REMARK    8  A    between atoms: O6_26  and  C18_27 
REMARK    9  A    between atoms: C19_29  and  C20_30 
REMARK   10  A    between atoms: C20_30  and  O8_31 
REMARK   11  A    between atoms: C21_33  and  O9_34 
REMARK   12  A    between atoms: C22_36  and  O10_37 
REMARK   13  A    between atoms: C23_39  and  O11_40 
REMARK   14  A    between atoms: C25_43  and  O12_44 
ROOT
HETATM    1  C2  UNL     1      -7.635   2.377   3.477  1.00  0.00     0.158 C 
HETATM    2  C3  UNL     1      -6.757   2.112   2.269  1.00  0.00     0.042 C 
HETATM    3  C4  UNL     1      -5.477   1.431   2.608  1.00  0.00     0.015 C 
HETATM    4  C5  UNL     1      -7.596   1.385   1.241  1.00  0.00     0.128 C 
HETATM    5  C6  UNL     1      -7.478  -0.087   1.233  1.00  0.00     0.037 C 
HETATM    6  C7  UNL     1      -8.548  -0.944   1.763  1.00  0.00     0.002 C 
HETATM    7  C8  UNL     1      -9.796  -0.133   1.770  1.00  0.00     0.040 C 
HETATM    8  C9  UNL     1      -9.538   1.197   2.385  1.00  0.00     0.154 C 
HETATM    9  O2  UNL     1      -8.867   1.926   1.390  1.00  0.00    -0.377 OA
HETATM   10  C10 UNL     1      -8.708   1.258   3.604  1.00  0.00     0.183 C 
HETATM   11  O3  UNL     1      -8.055   0.222   4.061  1.00  0.00    -0.342 OA
HETATM   12  C11 UNL     1      -8.554  -1.014   4.306  1.00  0.00     0.200 C 
HETATM   13  C15 UNL     1      -7.808  -1.549   5.492  1.00  0.00     0.212 C 
HETATM   14  C17 UNL     1      -6.790  -2.613   5.271  1.00  0.00     0.161 C 
HETATM   15  C24 UNL     1      -7.350  -3.579   4.245  1.00  0.00     0.067 C 
HETATM   16  C25 UNL     1      -7.230  -2.730   2.953  1.00  0.00     0.130 C 
HETATM   17  C26 UNL     1      -8.326  -1.757   2.992  1.00  0.00     0.084 C 
ENDROOT
BRANCH  14  18
HETATM   18  O6  UNL     1      -6.470  -3.363   6.364  1.00  0.00    -0.350 OA
BRANCH  18  19
HETATM   19  C18 UNL     1      -5.508  -2.892   7.201  1.00  0.00     0.292 C 
HETATM   20  O7  UNL     1      -5.315  -3.670   8.298  1.00  0.00    -0.348 OA
HETATM   21  C19 UNL     1      -4.599  -4.808   8.068  1.00  0.00     0.179 C 
HETATM   22  C21 UNL     1      -3.200  -4.475   7.676  1.00  0.00     0.180 C 
HETATM   23  C22 UNL     1      -3.082  -2.988   7.463  1.00  0.00     0.183 C 
HETATM   24  C23 UNL     1      -4.224  -2.469   6.587  1.00  0.00     0.204 C 
BRANCH  21  25
HETATM   25  C20 UNL     1      -5.216  -5.800   7.115  1.00  0.00     0.198 C 
BRANCH  25  26
HETATM   26  O8  UNL     1      -4.680  -7.074   7.447  1.00  0.00    -0.398 OA
ATOM     27  H8  UNL     1      -5.106  -7.706   6.880  1.00  0.00     0.209 HD
ENDBRANCH  25  26
ENDBRANCH  21  25
BRANCH  22  28
HETATM   28  O9  UNL     1      -2.809  -5.169   6.535  1.00  0.00    -0.390 OA
ATOM     29  H9  UNL     1      -2.102  -4.725   6.081  1.00  0.00     0.210 HD
ENDBRANCH  22  28
BRANCH  23  30
HETATM   30  O10 UNL     1      -3.038  -2.263   8.636  1.00  0.00    -0.390 OA
ATOM     31  H10 UNL     1      -3.844  -1.799   8.828  1.00  0.00     0.210 HD
ENDBRANCH  23  30
BRANCH  24  32
HETATM   32  O11 UNL     1      -3.992  -2.956   5.306  1.00  0.00    -0.388 OA
ATOM     33  H11 UNL     1      -4.352  -3.817   5.130  1.00  0.00     0.210 HD
ENDBRANCH  24  32
ENDBRANCH  18  19
ENDBRANCH  14  18
BRANCH  13  34
HETATM   34  O5  UNL     1      -7.080  -0.475   6.054  1.00  0.00    -0.383 OA
HETATM   35  C16 UNL     1      -7.483  -0.056   7.281  1.00  0.00     0.202 C 
ENDBRANCH  13  34
BRANCH  12  36
HETATM   36  O4  UNL     1      -9.856  -1.127   4.576  1.00  0.00    -0.352 OA
BRANCH  36  37
HETATM   37  C12 UNL     1     -10.541  -1.498   5.594  1.00  0.00     0.176 C 
BRANCH  37  38
HETATM   38  C13 UNL     1     -11.132  -0.206   6.228  1.00  0.00     0.070 C 
BRANCH  38  39
HETATM   39  C14 UNL     1     -12.602  -0.402   6.386  1.00  0.00     0.054 C 
HETATM   40  N1  UNL     1     -13.343   0.421   7.002  1.00  0.00    -0.411 N 
ATOM     41  H12 UNL     1     -12.899   1.249   7.401  1.00  0.00     0.155 HD
ATOM     42  H11 UNL     1     -14.349   0.287   7.110  1.00  0.00     0.155 HD
ENDBRANCH  38  39
ENDBRANCH  37  38
ENDBRANCH  36  37
ENDBRANCH  12  36
BRANCH  16  43
HETATM   43  O12 UNL     1      -5.956  -2.306   2.927  1.00  0.00    -0.395 OA
ATOM     44  H12 UNL     1      -5.631  -2.542   2.066  1.00  0.00     0.210 HD
ENDBRANCH  16  43
BRANCH   1  45
HETATM   45  O1  UNL     1      -8.236   3.618   3.440  1.00  0.00    -0.388 OA
HETATM   46  C1  UNL     1      -7.320   4.656   3.642  1.00  0.00     0.202 C 
ENDBRANCH   1  45
TORSDOF 14
ENDMDL
MODEL 4
REMARK VINA RESULT: -6.564419415      3.300      5.661
REMARK  14 active torsions:
REMARK  status: ('A' for Active; 'I' for Inactive)
REMARK    1  A    between atoms: O1_2  and  C2_3 
REMARK    2  A    between atoms: C11_14  and  O4_15 
REMARK    3  A    between atoms: O4_15  and  C12_16 
REMARK    4  A    between atoms: C12_16  and  C13_17 
REMARK    5  A    between atoms: C13_17  and  C14_18 
REMARK    6  A    between atoms: C15_22  and  O5_23 
REMARK    7  A    between atoms: C17_25  and  O6_26 
REMARK    8  A    between atoms: O6_26  and  C18_27 
REMARK    9  A    between atoms: C19_29  and  C20_30 
REMARK   10  A    between atoms: C20_30  and  O8_31 
REMARK   11  A    between atoms: C21_33  and  O9_34 
REMARK   12  A    between atoms: C22_36  and  O10_37 
REMARK   13  A    between atoms: C23_39  and  O11_40 
REMARK   14  A    between atoms: C25_43  and  O12_44 
ROOT
HETATM    1  C2  UNL     1      -7.758   2.756   3.423  1.00  0.00     0.158 C 
HETATM    2  C3  UNL     1      -7.080   2.522   2.087  1.00  0.00     0.042 C 
HETATM    3  C4  UNL     1      -5.783   1.799   2.201  1.00  0.00     0.015 C 
HETATM    4  C5  UNL     1      -8.085   1.857   1.171  1.00  0.00     0.128 C 
HETATM    5  C6  UNL     1      -8.011   0.385   1.089  1.00  0.00     0.037 C 
HETATM    6  C7  UNL     1      -9.013  -0.469   1.742  1.00  0.00     0.002 C 
HETATM    7  C8  UNL     1     -10.223   0.369   1.969  1.00  0.00     0.040 C 
HETATM    8  C9  UNL     1      -9.837   1.665   2.588  1.00  0.00     0.154 C 
HETATM    9  O2  UNL     1      -9.302   2.421   1.531  1.00  0.00    -0.377 OA
HETATM   10  C10 UNL     1      -8.831   1.657   3.668  1.00  0.00     0.183 C 
HETATM   11  O3  UNL     1      -8.147   0.588   3.981  1.00  0.00    -0.342 OA
HETATM   12  C11 UNL     1      -8.638  -0.646   4.252  1.00  0.00     0.200 C 
HETATM   13  C15 UNL     1      -7.738  -1.246   5.289  1.00  0.00     0.212 C 
HETATM   14  C17 UNL     1      -6.796  -2.323   4.876  1.00  0.00     0.161 C 
HETATM   15  C24 UNL     1      -7.531  -3.232   3.911  1.00  0.00     0.067 C 
HETATM   16  C25 UNL     1      -7.582  -2.333   2.650  1.00  0.00     0.130 C 
HETATM   17  C26 UNL     1      -8.632  -1.338   2.891  1.00  0.00     0.084 C 
ENDROOT
BRANCH  14  18
HETATM   18  O6  UNL     1      -6.337  -3.125   5.879  1.00  0.00    -0.350 OA
BRANCH  18  19
HETATM   19  C18 UNL     1      -5.132  -3.732   5.709  1.00  0.00     0.292 C 
HETATM   20  O7  UNL     1      -4.119  -3.123   6.381  1.00  0.00    -0.348 OA
HETATM   21  C19 UNL     1      -4.092  -3.380   7.720  1.00  0.00     0.179 C 
HETATM   22  C21 UNL     1      -3.807  -4.821   7.972  1.00  0.00     0.180 C 
HETATM   23  C22 UNL     1      -3.841  -5.571   6.665  1.00  0.00     0.183 C 
HETATM   24  C23 UNL     1      -5.089  -5.208   5.859  1.00  0.00     0.204 C 
BRANCH  21  25
HETATM   25  C20 UNL     1      -5.287  -2.909   8.512  1.00  0.00     0.198 C 
BRANCH  25  26
HETATM   26  O8  UNL     1      -4.780  -2.226   9.650  1.00  0.00    -0.398 OA
ATOM     27  H8  UNL     1      -4.882  -2.815  10.389  1.00  0.00     0.209 HD
ENDBRANCH  25  26
ENDBRANCH  21  25
BRANCH  22  28
HETATM   28  O9  UNL     1      -4.707  -5.370   8.879  1.00  0.00    -0.390 OA
ATOM     29  H9  UNL     1      -4.347  -5.394   9.759  1.00  0.00     0.210 HD
ENDBRANCH  22  28
BRANCH  23  30
HETATM   30  O10 UNL     1      -2.719  -5.377   5.886  1.00  0.00    -0.390 OA
ATOM     31  H10 UNL     1      -2.867  -5.527   4.960  1.00  0.00     0.210 HD
ENDBRANCH  23  30
BRANCH  24  32
HETATM   32  O11 UNL     1      -6.170  -5.765   6.531  1.00  0.00    -0.388 OA
ATOM     33  H11 UNL     1      -6.443  -6.620   6.219  1.00  0.00     0.210 HD
ENDBRANCH  24  32
ENDBRANCH  18  19
ENDBRANCH  14  18
BRANCH  13  34
HETATM   34  O5  UNL     1      -6.903  -0.214   5.776  1.00  0.00    -0.383 OA
HETATM   35  C16 UNL     1      -7.029   0.087   7.094  1.00  0.00     0.202 C 
ENDBRANCH  13  34
BRANCH  12  36
HETATM   36  O4  UNL     1      -9.887  -0.741   4.711  1.00  0.00    -0.352 OA
BRANCH  36  37
HETATM   37  C12 UNL     1     -10.465  -1.425   5.627  1.00  0.00     0.176 C 
BRANCH  37  38
HETATM   38  C13 UNL     1     -11.088  -0.403   6.622  1.00  0.00     0.070 C 
BRANCH  38  39
HETATM   39  C14 UNL     1     -12.557  -0.353   6.372  1.00  0.00     0.054 C 
HETATM   40  N1  UNL     1     -13.330   0.449   6.976  1.00  0.00    -0.411 N 
ATOM     41  H12 UNL     1     -12.913   1.081   7.660  1.00  0.00     0.155 HD
ATOM     42  H11 UNL     1     -14.335   0.484   6.805  1.00  0.00     0.155 HD
ENDBRANCH  38  39
ENDBRANCH  37  38
ENDBRANCH  36  37
ENDBRANCH  12  36
BRANCH  16  43
HETATM   43  O12 UNL     1      -6.315  -1.936   2.446  1.00  0.00    -0.395 OA
ATOM     44  H12 UNL     1      -5.953  -2.561   1.829  1.00  0.00     0.210 HD
ENDBRANCH  16  43
BRANCH   1  45
HETATM   45  O1  UNL     1      -8.322   4.010   3.525  1.00  0.00    -0.388 OA
HETATM   46  C1  UNL     1      -7.360   5.009   3.713  1.00  0.00     0.202 C 
ENDBRANCH   1  45
TORSDOF 14
ENDMDL
MODEL 5
REMARK VINA RESULT: -6.467025448      3.940      8.689
REMARK  14 active torsions:
REMARK  status: ('A' for Active; 'I' for Inactive)
REMARK    1  A    between atoms: O1_2  and  C2_3 
REMARK    2  A    between atoms: C11_14  and  O4_15 
REMARK    3  A    between atoms: O4_15  and  C12_16 
REMARK    4  A    between atoms: C12_16  and  C13_17 
REMARK    5  A    between atoms: C13_17  and  C14_18 
REMARK    6  A    between atoms: C15_22  and  O5_23 
REMARK    7  A    between atoms: C17_25  and  O6_26 
REMARK    8  A    between atoms: O6_26  and  C18_27 
REMARK    9  A    between atoms: C19_29  and  C20_30 
REMARK   10  A    between atoms: C20_30  and  O8_31 
REMARK   11  A    between atoms: C21_33  and  O9_34 
REMARK   12  A    between atoms: C22_36  and  O10_37 
REMARK   13  A    between atoms: C23_39  and  O11_40 
REMARK   14  A    between atoms: C25_43  and  O12_44 
ROOT
HETATM    1  C2  UNL     1      -4.745  -0.253   3.401  1.00  0.00     0.158 C 
HETATM    2  C3  UNL     1      -4.306   0.293   4.746  1.00  0.00     0.042 C 
HETATM    3  C4  UNL     1      -4.881   1.630   5.058  1.00  0.00     0.015 C 
HETATM    4  C5  UNL     1      -4.592  -0.767   5.788  1.00  0.00     0.128 C 
HETATM    5  C6  UNL     1      -5.866  -0.625   6.521  1.00  0.00     0.037 C 
HETATM    6  C7  UNL     1      -7.009  -1.507   6.247  1.00  0.00     0.002 C 
HETATM    7  C8  UNL     1      -6.473  -2.728   5.586  1.00  0.00     0.040 C 
HETATM    8  C9  UNL     1      -5.549  -2.348   4.484  1.00  0.00     0.154 C 
HETATM    9  O2  UNL     1      -4.360  -1.967   5.129  1.00  0.00    -0.377 OA
HETATM   10  C10 UNL     1      -5.935  -1.235   3.595  1.00  0.00     0.183 C 
HETATM   11  O3  UNL     1      -6.964  -0.467   3.839  1.00  0.00    -0.342 OA
HETATM   12  C11 UNL     1      -8.232  -0.861   4.112  1.00  0.00     0.200 C 
HETATM   13  C15 UNL     1      -9.139   0.173   3.516  1.00  0.00     0.212 C 
HETATM   14  C17 UNL     1      -9.833   1.121   4.431  1.00  0.00     0.161 C 
HETATM   15  C24 UNL     1     -10.291   0.337   5.645  1.00  0.00     0.067 C 
HETATM   16  C25 UNL     1      -8.939   0.107   6.367  1.00  0.00     0.130 C 
HETATM   17  C26 UNL     1      -8.253  -0.962   5.635  1.00  0.00     0.084 C 
ENDROOT
BRANCH  14  18
HETATM   18  O6  UNL     1     -10.946   1.725   3.925  1.00  0.00    -0.350 OA
BRANCH  18  19
HETATM   19  C18 UNL     1     -11.786   0.976   3.162  1.00  0.00     0.292 C 
HETATM   20  O7  UNL     1     -12.894   0.557   3.828  1.00  0.00    -0.348 OA
HETATM   21  C19 UNL     1     -13.852   1.513   3.995  1.00  0.00     0.179 C 
HETATM   22  C21 UNL     1     -14.419   1.921   2.679  1.00  0.00     0.180 C 
HETATM   23  C22 UNL     1     -13.612   1.295   1.571  1.00  0.00     0.183 C 
HETATM   24  C23 UNL     1     -12.113   1.492   1.809  1.00  0.00     0.204 C 
BRANCH  21  25
HETATM   25  C20 UNL     1     -13.457   2.712   4.820  1.00  0.00     0.198 C 
BRANCH  25  26
HETATM   26  O8  UNL     1     -14.582   3.047   5.620  1.00  0.00    -0.398 OA
ATOM     27  H8  UNL     1     -14.896   2.236   6.003  1.00  0.00     0.209 HD
ENDBRANCH  25  26
ENDBRANCH  21  25
BRANCH  22  28
HETATM   28  O9  UNL     1     -14.451   3.306   2.542  1.00  0.00    -0.390 OA
ATOM     29  H9  UNL     1     -15.342   3.630   2.471  1.00  0.00     0.210 HD
ENDBRANCH  22  28
BRANCH  23  30
HETATM   30  O10 UNL     1     -13.874  -0.047   1.387  1.00  0.00    -0.390 OA
ATOM     31  H10 UNL     1     -13.121  -0.607   1.536  1.00  0.00     0.210 HD
ENDBRANCH  23  30
BRANCH  24  32
HETATM   32  O11 UNL     1     -11.856   2.843   1.613  1.00  0.00    -0.388 OA
ATOM     33  H11 UNL     1     -12.221   3.424   2.271  1.00  0.00     0.210 HD
ENDBRANCH  24  32
ENDBRANCH  18  19
ENDBRANCH  14  18
BRANCH  13  34
HETATM   34  O5  UNL     1      -8.351   0.999   2.682  1.00  0.00    -0.383 OA
HETATM   35  C16 UNL     1      -8.576   0.892   1.348  1.00  0.00     0.202 C 
ENDBRANCH  13  34
BRANCH  12  36
HETATM   36  O4  UNL     1      -8.635  -2.049   3.655  1.00  0.00    -0.352 OA
BRANCH  36  37
HETATM   37  C12 UNL     1      -8.818  -2.557   2.493  1.00  0.00     0.176 C 
BRANCH  37  38
HETATM   38  C13 UNL     1      -8.401  -4.054   2.590  1.00  0.00     0.070 C 
BRANCH  38  39
HETATM   39  C14 UNL     1      -9.524  -4.880   2.060  1.00  0.00     0.054 C 
HETATM   40  N1  UNL     1      -9.795  -6.036   2.502  1.00  0.00    -0.411 N 
ATOM     41  H12 UNL     1      -9.209  -6.403   3.253  1.00  0.00     0.155 HD
ATOM     42  H11 UNL     1     -10.563  -6.601   2.140  1.00  0.00     0.155 HD
ENDBRANCH  38  39
ENDBRANCH  37  38
ENDBRANCH  36  37
ENDBRANCH  12  36
BRANCH  16  43
HETATM   43  O12 UNL     1      -8.377   1.323   6.463  1.00  0.00    -0.395 OA
ATOM     44  H12 UNL     1      -8.524   1.597   7.360  1.00  0.00     0.210 HD
ENDBRANCH  16  43
BRANCH   1  45
HETATM   45  O1  UNL     1      -3.721  -0.867   2.712  1.00  0.00    -0.388 OA
HETATM   46  C1  UNL     1      -2.610  -0.030   2.555  1.00  0.00     0.202 C 
ENDBRANCH   1  45
TORSDOF 14
ENDMDL
