MODEL 1
REMARK VINA RESULT: -6.440710928      0.000      0.000
REMARK  16 active torsions:
REMARK  status: ('A' for Active; 'I' for Inactive)
REMARK    1  A    between atoms: O1_2  and  C2_3 
REMARK    2  A    between atoms: C2_3  and  C3_5 
REMARK    3  A    between atoms: C3_5  and  C4_6 
REMARK    4  A    between atoms: C4_6  and  N1_7 
REMARK    5  A    between atoms: C4_6  and  C10_16 
REMARK       I    between atoms: N1_7  and  C5_9 
REMARK    6  A    between atoms: C5_9  and  O4_11 
REMARK    7  A    between atoms: O4_11  and  C6_12 
REMARK    8  A    between atoms: C10_16  and  N2_17 
REMARK    9  A    between atoms: C10_16  and  C19_35 
REMARK   10  A    between atoms: C12_20  and  C13_21 
REMARK   11  A    between atoms: C14_24  and  O7_25 
REMARK   12  A    between atoms: C15_27  and  O8_28 
REMARK       I    between atoms: N3_31  and  C17_32 
REMARK   13  A    between atoms: C19_35  and  C20_36 
REMARK   14  A    between atoms: C19_35  and  C22_40 
REMARK   15  A    between atoms: C20_36  and  C21_37 
REMARK   16  A    between atoms: C22_40  and  O13_42 
ROOT
HETATM    1  C10 UNL     1      -7.064  -1.812   4.605  1.00  0.00     0.025 C 
ENDROOT
BRANCH   1   2
HETATM    2  C4  UNL     1      -6.257  -2.554   5.615  1.00  0.00     0.142 C 
BRANCH   2   3
HETATM    3  C3  UNL     1      -5.234  -3.493   5.035  1.00  0.00     0.142 C 
BRANCH   3   4
HETATM    4  C2  UNL     1      -5.066  -4.718   5.827  1.00  0.00     0.260 C 
HETATM    5  O2  UNL     1      -4.892  -5.818   5.242  1.00  0.00    -0.265 OA
BRANCH   4   6
HETATM    6  O1  UNL     1      -5.091  -4.724   7.211  1.00  0.00    -0.326 OA
HETATM    7  C1  UNL     1      -4.694  -5.848   7.970  1.00  0.00     0.213 C 
ENDBRANCH   4   6
ENDBRANCH   3   4
ENDBRANCH   2   3
BRANCH   2   8
HETATM    8  N1  UNL     1      -5.682  -1.685   6.628  1.00  0.00    -0.327 N 
HETATM    9  C5  UNL     1      -6.397  -1.160   7.733  1.00  0.00     0.361 C 
HETATM   10  O3  UNL     1      -7.611  -1.449   7.870  1.00  0.00    -0.238 OA
ATOM     11  H1  UNL     1      -4.697  -1.436   6.538  1.00  0.00     0.165 HD
BRANCH   9  12
HETATM   12  O4  UNL     1      -5.805  -0.336   8.670  1.00  0.00    -0.294 OA
BRANCH  12  13
HETATM   13  C6  UNL     1      -5.174  -0.828   9.838  1.00  0.00     0.061 C 
HETATM   14  C7  UNL     1      -4.154   0.134  10.352  1.00  0.00     0.046 C 
HETATM   15  C8  UNL     1      -6.190  -1.059  10.943  1.00  0.00     0.046 C 
HETATM   16  C9  UNL     1      -4.484  -2.157   9.582  1.00  0.00     0.046 C 
ENDBRANCH  12  13
ENDBRANCH   9  12
ENDBRANCH   2   8
ENDBRANCH   1   2
BRANCH   1  17
HETATM   17  N2  UNL     1      -6.297  -1.084   3.624  1.00  0.00    -0.349 N 
HETATM   18  C11 UNL     1      -6.252   0.163   3.433  1.00  0.00     0.103 C 
HETATM   19  C12 UNL     1      -6.992   1.203   4.188  1.00  0.00     0.185 C 
HETATM   20  N3  UNL     1      -5.397   0.615   2.358  1.00  0.00    -0.304 N 
HETATM   21  C14 UNL     1      -7.393   2.359   3.294  1.00  0.00     0.170 C 
HETATM   22  C15 UNL     1      -6.260   2.845   2.438  1.00  0.00     0.166 C 
HETATM   23  C16 UNL     1      -5.808   1.755   1.526  1.00  0.00     0.167 C 
HETATM   24  C17 UNL     1      -4.157   0.005   2.055  1.00  0.00     0.221 C 
HETATM   25  C18 UNL     1      -3.311   0.495   0.948  1.00  0.00     0.117 C 
HETATM   26  O9  UNL     1      -3.771  -0.965   2.735  1.00  0.00    -0.273 OA
ATOM     27  H2  UNL     1      -5.715  -1.650   3.005  1.00  0.00     0.166 HD
BRANCH  19  28
HETATM   28  C13 UNL     1      -6.242   1.710   5.358  1.00  0.00     0.187 C 
HETATM   29  O5  UNL     1      -5.049   1.362   5.517  1.00  0.00    -0.647 OA
HETATM   30  O6  UNL     1      -6.820   2.568   6.299  1.00  0.00    -0.647 OA
ENDBRANCH  19  28
BRANCH  21  31
HETATM   31  O7  UNL     1      -7.786   3.430   4.107  1.00  0.00    -0.392 OA
ATOM     32  H7  UNL     1      -8.538   3.849   3.706  1.00  0.00     0.210 HD
ENDBRANCH  21  31
BRANCH  22  33
HETATM   33  O8  UNL     1      -6.796   3.872   1.626  1.00  0.00    -0.391 OA
ATOM     34  H8  UNL     1      -6.514   4.690   2.017  1.00  0.00     0.210 HD
ENDBRANCH  22  33
ENDBRANCH   1  17
BRANCH   1  35
HETATM   35  C19 UNL     1      -8.320  -2.386   4.095  1.00  0.00     0.143 C 
BRANCH  35  36
HETATM   36  C20 UNL     1      -8.120  -2.794   2.615  1.00  0.00     0.133 C 
BRANCH  36  37
HETATM   37  C21 UNL     1      -8.509  -4.226   2.534  1.00  0.00     0.173 C 
HETATM   38  O10 UNL     1      -7.844  -5.115   3.169  1.00  0.00    -0.648 OA
HETATM   39  O11 UNL     1      -9.574  -4.718   1.801  1.00  0.00    -0.648 OA
ENDBRANCH  36  37
ENDBRANCH  35  36
BRANCH  35  40
HETATM   40  C22 UNL     1      -9.549  -1.622   4.234  1.00  0.00     0.268 C 
HETATM   41  O12 UNL     1      -9.875  -0.776   3.372  1.00  0.00    -0.264 OA
BRANCH  40  42
HETATM   42  O13 UNL     1     -10.387  -1.809   5.316  1.00  0.00    -0.326 OA
HETATM   43  C23 UNL     1     -10.878  -0.802   6.150  1.00  0.00     0.213 C 
ENDBRANCH  40  42
ENDBRANCH  35  40
ENDBRANCH   1  35
TORSDOF 16
ENDMDL
MODEL 2
REMARK VINA RESULT: -6.328632430      1.912      4.054
REMARK  16 active torsions:
REMARK  status: ('A' for Active; 'I' for Inactive)
REMARK    1  A    between atoms: O1_2  and  C2_3 
REMARK    2  A    between atoms: C2_3  and  C3_5 
REMARK    3  A    between atoms: C3_5  and  C4_6 
REMARK    4  A    between atoms: C4_6  and  N1_7 
REMARK    5  A    between atoms: C4_6  and  C10_16 
REMARK       I    between atoms: N1_7  and  C5_9 
REMARK    6  A    between atoms: C5_9  and  O4_11 
REMARK    7  A    between atoms: O4_11  and  C6_12 
REMARK    8  A    between atoms: C10_16  and  N2_17 
REMARK    9  A    between atoms: C10_16  and  C19_35 
REMARK   10  A    between atoms: C12_20  and  C13_21 
REMARK   11  A    between atoms: C14_24  and  O7_25 
REMARK   12  A    between atoms: C15_27  and  O8_28 
REMARK       I    between atoms: N3_31  and  C17_32 
REMARK   13  A    between atoms: C19_35  and  C20_36 
REMARK   14  A    between atoms: C19_35  and  C22_40 
REMARK   15  A    between atoms: C20_36  and  C21_37 
REMARK   16  A    between atoms: C22_40  and  O13_42 
ROOT
HETATM    1  C10 UNL     1      -6.665  -2.395   4.791  1.00  0.00     0.025 C 
ENDROOT
BRANCH   1   2
HETATM    2  C4  UNL     1      -5.426  -2.000   5.519  1.00  0.00     0.142 C 
BRANCH   2   3
HETATM    3  C3  UNL     1      -4.841  -0.681   5.092  1.00  0.00     0.142 C 
BRANCH   3   4
HETATM    4  C2  UNL     1      -3.816  -0.820   4.049  1.00  0.00     0.260 C 
HETATM    5  O2  UNL     1      -4.133  -1.285   2.925  1.00  0.00    -0.265 OA
BRANCH   4   6
HETATM    6  O1  UNL     1      -2.494  -0.458   4.245  1.00  0.00    -0.326 OA
HETATM    7  C1  UNL     1      -2.041   0.133   5.445  1.00  0.00     0.213 C 
ENDBRANCH   4   6
ENDBRANCH   3   4
ENDBRANCH   2   3
BRANCH   2   8
HETATM    8  N1  UNL     1      -5.566  -2.090   6.962  1.00  0.00    -0.327 N 
HETATM    9  C5  UNL     1      -4.501  -2.364   7.856  1.00  0.00     0.361 C 
HETATM   10  O3  UNL     1      -3.348  -2.545   7.395  1.00  0.00    -0.238 OA
ATOM     11  H1  UNL     1      -6.495  -1.946   7.360  1.00  0.00     0.165 HD
BRANCH   9  12
HETATM   12  O4  UNL     1      -4.686  -2.439   9.223  1.00  0.00    -0.294 OA
BRANCH  12  13
HETATM   13  C6  UNL     1      -4.845  -1.296  10.042  1.00  0.00     0.061 C 
HETATM   14  C7  UNL     1      -4.073  -1.427  11.314  1.00  0.00     0.046 C 
HETATM   15  C8  UNL     1      -4.354  -0.049   9.329  1.00  0.00     0.046 C 
HETATM   16  C9  UNL     1      -6.303  -1.062  10.396  1.00  0.00     0.046 C 
ENDBRANCH  12  13
ENDBRANCH   9  12
ENDBRANCH   2   8
ENDBRANCH   1   2
BRANCH   1  17
HETATM   17  N2  UNL     1      -7.329  -1.326   4.086  1.00  0.00    -0.349 N 
HETATM   18  C11 UNL     1      -8.337  -0.658   4.446  1.00  0.00     0.103 C 
HETATM   19  C12 UNL     1      -9.100  -0.814   5.710  1.00  0.00     0.185 C 
HETATM   20  N3  UNL     1      -8.797   0.355   3.522  1.00  0.00    -0.304 N 
HETATM   21  C14 UNL     1     -10.578  -0.546   5.503  1.00  0.00     0.170 C 
HETATM   22  C15 UNL     1     -10.831   0.715   4.729  1.00  0.00     0.166 C 
HETATM   23  C16 UNL     1     -10.237   0.603   3.366  1.00  0.00     0.167 C 
HETATM   24  C17 UNL     1      -7.916   1.138   2.741  1.00  0.00     0.221 C 
HETATM   25  C18 UNL     1      -8.424   2.164   1.806  1.00  0.00     0.117 C 
HETATM   26  O9  UNL     1      -6.687   0.960   2.842  1.00  0.00    -0.273 OA
ATOM     27  H2  UNL     1      -6.932  -1.077   3.180  1.00  0.00     0.166 HD
BRANCH  19  28
HETATM   28  C13 UNL     1      -8.583   0.038   6.803  1.00  0.00     0.187 C 
HETATM   29  O5  UNL     1      -7.862   1.023   6.523  1.00  0.00    -0.647 OA
HETATM   30  O6  UNL     1      -8.872  -0.220   8.147  1.00  0.00    -0.647 OA
ENDBRANCH  19  28
BRANCH  21  31
HETATM   31  O7  UNL     1     -11.177  -0.389   6.759  1.00  0.00    -0.392 OA
ATOM     32  H7  UNL     1     -10.500  -0.454   7.422  1.00  0.00     0.210 HD
ENDBRANCH  21  31
BRANCH  22  33
HETATM   33  O8  UNL     1     -12.235   0.797   4.567  1.00  0.00    -0.391 OA
ATOM     34  H8  UNL     1     -12.412   1.682   4.271  1.00  0.00     0.210 HD
ENDBRANCH  22  33
ENDBRANCH   1  17
BRANCH   1  35
HETATM   35  C19 UNL     1      -6.747  -3.707   4.127  1.00  0.00     0.143 C 
BRANCH  35  36
HETATM   36  C20 UNL     1      -8.238  -4.098   3.974  1.00  0.00     0.133 C 
BRANCH  36  37
HETATM   37  C21 UNL     1      -8.506  -4.107   2.512  1.00  0.00     0.173 C 
HETATM   38  O10 UNL     1      -8.487  -5.205   1.856  1.00  0.00    -0.648 OA
HETATM   39  O11 UNL     1      -8.789  -2.987   1.752  1.00  0.00    -0.648 OA
ENDBRANCH  36  37
ENDBRANCH  35  36
BRANCH  35  40
HETATM   40  C22 UNL     1      -5.999  -4.824   4.682  1.00  0.00     0.268 C 
HETATM   41  O12 UNL     1      -5.452  -5.661   3.929  1.00  0.00    -0.264 OA
BRANCH  40  42
HETATM   42  O13 UNL     1      -5.871  -4.989   6.047  1.00  0.00    -0.326 OA
HETATM   43  C23 UNL     1      -4.909  -5.774   6.686  1.00  0.00     0.213 C 
ENDBRANCH  40  42
ENDBRANCH  35  40
ENDBRANCH   1  35
TORSDOF 16
ENDMDL
MODEL 3
REMARK VINA RESULT: -6.309727549      2.333      4.780
REMARK  16 active torsions:
REMARK  status: ('A' for Active; 'I' for Inactive)
REMARK    1  A    between atoms: O1_2  and  C2_3 
REMARK    2  A    between atoms: C2_3  and  C3_5 
REMARK    3  A    between atoms: C3_5  and  C4_6 
REMARK    4  A    between atoms: C4_6  and  N1_7 
REMARK    5  A    between atoms: C4_6  and  C10_16 
REMARK       I    between atoms: N1_7  and  C5_9 
REMARK    6  A    between atoms: C5_9  and  O4_11 
REMARK    7  A    between atoms: O4_11  and  C6_12 
REMARK    8  A    between atoms: C10_16  and  N2_17 
REMARK    9  A    between atoms: C10_16  and  C19_35 
REMARK   10  A    between atoms: C12_20  and  C13_21 
REMARK   11  A    between atoms: C14_24  and  O7_25 
REMARK   12  A    between atoms: C15_27  and  O8_28 
REMARK       I    between atoms: N3_31  and  C17_32 
REMARK   13  A    between atoms: C19_35  and  C20_36 
REMARK   14  A    between atoms: C19_35  and  C22_40 
REMARK   15  A    between atoms: C20_36  and  C21_37 
REMARK   16  A    between atoms: C22_40  and  O13_42 
ROOT
HETATM    1  C10 UNL     1      -6.109  -2.011   6.331  1.00  0.00     0.025 C 
ENDROOT
BRANCH   1   2
HETATM    2  C4  UNL     1      -4.795  -2.659   6.600  1.00  0.00     0.142 C 
BRANCH   2   3
HETATM    3  C3  UNL     1      -4.690  -4.085   6.134  1.00  0.00     0.142 C 
BRANCH   3   4
HETATM    4  C2  UNL     1      -3.928  -4.936   7.057  1.00  0.00     0.260 C 
HETATM    5  O2  UNL     1      -2.993  -4.436   7.735  1.00  0.00    -0.265 OA
BRANCH   4   6
HETATM    6  O1  UNL     1      -4.190  -6.285   7.222  1.00  0.00    -0.326 OA
HETATM    7  C1  UNL     1      -4.926  -6.784   8.320  1.00  0.00     0.213 C 
ENDBRANCH   4   6
ENDBRANCH   3   4
ENDBRANCH   2   3
BRANCH   2   8
HETATM    8  N1  UNL     1      -3.668  -1.857   6.152  1.00  0.00    -0.327 N 
HETATM    9  C5  UNL     1      -2.929  -0.978   6.982  1.00  0.00     0.361 C 
HETATM   10  O3  UNL     1      -3.247  -0.866   8.191  1.00  0.00    -0.238 OA
ATOM     11  H1  UNL     1      -3.391  -1.932   5.173  1.00  0.00     0.165 HD
BRANCH   9  12
HETATM   12  O4  UNL     1      -1.864  -0.237   6.508  1.00  0.00    -0.294 OA
BRANCH  12  13
HETATM   13  C6  UNL     1      -2.016   0.824   5.584  1.00  0.00     0.061 C 
HETATM   14  C7  UNL     1      -1.050   1.929   5.859  1.00  0.00     0.046 C 
HETATM   15  C8  UNL     1      -1.774   0.341   4.164  1.00  0.00     0.046 C 
HETATM   16  C9  UNL     1      -3.420   1.403   5.624  1.00  0.00     0.046 C 
ENDBRANCH  12  13
ENDBRANCH   9  12
ENDBRANCH   2   8
ENDBRANCH   1   2
BRANCH   1  17
HETATM   17  N2  UNL     1      -6.869  -2.593   5.252  1.00  0.00    -0.349 N 
HETATM   18  C11 UNL     1      -7.090  -2.117   4.104  1.00  0.00     0.103 C 
HETATM   19  C12 UNL     1      -6.609  -0.816   3.575  1.00  0.00     0.185 C 
HETATM   20  N3  UNL     1      -7.903  -2.924   3.223  1.00  0.00    -0.304 N 
HETATM   21  C14 UNL     1      -7.625  -0.187   2.642  1.00  0.00     0.170 C 
HETATM   22  C15 UNL     1      -8.153  -1.159   1.627  1.00  0.00     0.166 C 
HETATM   23  C16 UNL     1      -8.861  -2.277   2.314  1.00  0.00     0.167 C 
HETATM   24  C17 UNL     1      -7.828  -4.336   3.186  1.00  0.00     0.221 C 
HETATM   25  C18 UNL     1      -8.678  -5.127   2.272  1.00  0.00     0.117 C 
HETATM   26  O9  UNL     1      -7.031  -4.925   3.941  1.00  0.00    -0.273 OA
ATOM     27  H2  UNL     1      -7.281  -3.507   5.441  1.00  0.00     0.166 HD
BRANCH  19  28
HETATM   28  C13 UNL     1      -5.299  -0.919   2.896  1.00  0.00     0.187 C 
HETATM   29  O5  UNL     1      -4.559  -1.900   3.139  1.00  0.00    -0.647 OA
HETATM   30  O6  UNL     1      -4.853   0.047   1.989  1.00  0.00    -0.647 OA
ENDBRANCH  19  28
BRANCH  21  31
HETATM   31  O7  UNL     1      -6.994   0.846   1.938  1.00  0.00    -0.392 OA
ATOM     32  H7  UNL     1      -7.024   0.637   1.012  1.00  0.00     0.210 HD
ENDBRANCH  21  31
BRANCH  22  33
HETATM   33  O8  UNL     1      -9.122  -0.451   0.876  1.00  0.00    -0.391 OA
ATOM     34  H8  UNL     1      -9.712  -1.107   0.527  1.00  0.00     0.210 HD
ENDBRANCH  22  33
ENDBRANCH   1  17
BRANCH   1  35
HETATM   35  C19 UNL     1      -6.925  -1.501   7.446  1.00  0.00     0.143 C 
BRANCH  35  36
HETATM   36  C20 UNL     1      -7.065   0.035   7.302  1.00  0.00     0.133 C 
BRANCH  36  37
HETATM   37  C21 UNL     1      -8.500   0.286   7.010  1.00  0.00     0.173 C 
HETATM   38  O10 UNL     1      -8.857   0.768   5.881  1.00  0.00    -0.648 OA
HETATM   39  O11 UNL     1      -9.542   0.035   7.884  1.00  0.00    -0.648 OA
ENDBRANCH  36  37
ENDBRANCH  35  36
BRANCH  35  40
HETATM   40  C22 UNL     1      -6.543  -1.835   8.808  1.00  0.00     0.268 C 
HETATM   41  O12 UNL     1      -6.039  -2.950   9.073  1.00  0.00    -0.264 OA
BRANCH  40  42
HETATM   42  O13 UNL     1      -6.723  -0.936   9.841  1.00  0.00    -0.326 OA
HETATM   43  C23 UNL     1      -7.667  -1.049  10.863  1.00  0.00     0.213 C 
ENDBRANCH  40  42
ENDBRANCH  35  40
ENDBRANCH   1  35
TORSDOF 16
ENDMDL
MODEL 4
REMARK VINA RESULT: -6.274660007      2.002      6.547
REMARK  16 active torsions:
REMARK  status: ('A' for Active; 'I' for Inactive)
REMARK    1  A    between atoms: O1_2  and  C2_3 
REMARK    2  A    between atoms: C2_3  and  C3_5 
REMARK    3  A    between atoms: C3_5  and  C4_6 
REMARK    4  A    between atoms: C4_6  and  N1_7 
REMARK    5  A    between atoms: C4_6  and  C10_16 
REMARK       I    between atoms: N1_7  and  C5_9 
REMARK    6  A    between atoms: C5_9  and  O4_11 
REMARK    7  A    between atoms: O4_11  and  C6_12 
REMARK    8  A    between atoms: C10_16  and  N2_17 
REMARK    9  A    between atoms: C10_16  and  C19_35 
REMARK   10  A    between atoms: C12_20  and  C13_21 
REMARK   11  A    between atoms: C14_24  and  O7_25 
REMARK   12  A    between atoms: C15_27  and  O8_28 
REMARK       I    between atoms: N3_31  and  C17_32 
REMARK   13  A    between atoms: C19_35  and  C20_36 
REMARK   14  A    between atoms: C19_35  and  C22_40 
REMARK   15  A    between atoms: C20_36  and  C21_37 
REMARK   16  A    between atoms: C22_40  and  O13_42 
ROOT
HETATM    1  C10 UNL     1      -5.846  -2.137   5.033  1.00  0.00     0.025 C 
ENDROOT
BRANCH   1   2
HETATM    2  C4  UNL     1      -5.980  -0.974   4.111  1.00  0.00     0.142 C 
BRANCH   2   3
HETATM    3  C3  UNL     1      -5.245  -1.120   2.806  1.00  0.00     0.142 C 
BRANCH   3   4
HETATM    4  C2  UNL     1      -5.669  -0.140   1.798  1.00  0.00     0.260 C 
HETATM    5  O2  UNL     1      -4.996   0.910   1.630  1.00  0.00    -0.265 OA
BRANCH   4   6
HETATM    6  O1  UNL     1      -6.792  -0.314   1.008  1.00  0.00    -0.326 OA
HETATM    7  C1  UNL     1      -6.982   0.388  -0.203  1.00  0.00     0.213 C 
ENDBRANCH   4   6
ENDBRANCH   3   4
ENDBRANCH   2   3
BRANCH   2   8
HETATM    8  N1  UNL     1      -7.361  -0.566   3.913  1.00  0.00    -0.327 N 
HETATM    9  C5  UNL     1      -7.930   0.620   4.441  1.00  0.00     0.361 C 
HETATM   10  O3  UNL     1      -7.214   1.388   5.130  1.00  0.00    -0.238 OA
ATOM     11  H1  UNL     1      -7.962  -1.175   3.357  1.00  0.00     0.165 HD
BRANCH   9  12
HETATM   12  O4  UNL     1      -9.250   0.964   4.225  1.00  0.00    -0.294 OA
BRANCH  12  13
HETATM   13  C6  UNL     1      -9.713   1.511   3.005  1.00  0.00     0.061 C 
HETATM   14  C7  UNL     1      -8.686   2.396   2.380  1.00  0.00     0.046 C 
HETATM   15  C8  UNL     1     -10.042   0.411   2.011  1.00  0.00     0.046 C 
HETATM   16  C9  UNL     1     -10.981   2.324   3.204  1.00  0.00     0.046 C 
ENDBRANCH  12  13
ENDBRANCH   9  12
ENDBRANCH   2   8
ENDBRANCH   1   2
BRANCH   1  17
HETATM   17  N2  UNL     1      -6.241  -1.884   6.398  1.00  0.00    -0.349 N 
HETATM   18  C11 UNL     1      -5.523  -1.503   7.364  1.00  0.00     0.103 C 
HETATM   19  C12 UNL     1      -4.068  -1.215   7.327  1.00  0.00     0.185 C 
HETATM   20  N3  UNL     1      -6.193  -1.343   8.634  1.00  0.00    -0.304 N 
HETATM   21  C14 UNL     1      -3.393  -1.600   8.629  1.00  0.00     0.170 C 
HETATM   22  C15 UNL     1      -4.136  -1.098   9.832  1.00  0.00     0.166 C 
HETATM   23  C16 UNL     1      -5.498  -1.704   9.879  1.00  0.00     0.167 C 
HETATM   24  C17 UNL     1      -7.512  -0.847   8.750  1.00  0.00     0.221 C 
HETATM   25  C18 UNL     1      -8.164  -0.698  10.068  1.00  0.00     0.117 C 
HETATM   26  O9  UNL     1      -8.138  -0.529   7.721  1.00  0.00    -0.273 OA
ATOM     27  H2  UNL     1      -7.228  -2.033   6.610  1.00  0.00     0.166 HD
BRANCH  19  28
HETATM   28  C13 UNL     1      -3.768   0.197   7.004  1.00  0.00     0.187 C 
HETATM   29  O5  UNL     1      -4.661   1.062   7.154  1.00  0.00    -0.647 OA
HETATM   30  O6  UNL     1      -2.516   0.603   6.533  1.00  0.00    -0.647 OA
ENDBRANCH  19  28
BRANCH  21  31
HETATM   31  O7  UNL     1      -2.120  -1.016   8.654  1.00  0.00    -0.392 OA
ATOM     32  H7  UNL     1      -2.199  -0.116   8.360  1.00  0.00     0.210 HD
ENDBRANCH  21  31
BRANCH  22  33
HETATM   33  O8  UNL     1      -3.427  -1.581  10.958  1.00  0.00    -0.391 OA
ATOM     34  H8  UNL     1      -3.580  -2.517  10.983  1.00  0.00     0.210 HD
ENDBRANCH  22  33
ENDBRANCH   1  17
BRANCH   1  35
HETATM   35  C19 UNL     1      -6.138  -3.499   4.556  1.00  0.00     0.143 C 
BRANCH  35  36
HETATM   36  C20 UNL     1      -7.673  -3.700   4.523  1.00  0.00     0.133 C 
BRANCH  36  37
HETATM   37  C21 UNL     1      -8.016  -3.970   3.102  1.00  0.00     0.173 C 
HETATM   38  O10 UNL     1      -7.950  -5.159   2.634  1.00  0.00    -0.648 OA
HETATM   39  O11 UNL     1      -8.421  -3.014   2.188  1.00  0.00    -0.648 OA
ENDBRANCH  36  37
ENDBRANCH  35  36
BRANCH  35  40
HETATM   40  C22 UNL     1      -5.507  -4.627   5.220  1.00  0.00     0.268 C 
HETATM   41  O12 UNL     1      -5.154  -5.635   4.568  1.00  0.00    -0.264 OA
BRANCH  40  42
HETATM   42  O13 UNL     1      -5.281  -4.617   6.583  1.00  0.00    -0.326 OA
HETATM   43  C23 UNL     1      -4.111  -5.040   7.217  1.00  0.00     0.213 C 
ENDBRANCH  40  42
ENDBRANCH  35  40
ENDBRANCH   1  35
TORSDOF 16
ENDMDL
MODEL 5
REMARK VINA RESULT: -6.265295339      1.785      6.660
REMARK  16 active torsions:
REMARK  status: ('A' for Active; 'I' for Inactive)
REMARK    1  A    between atoms: O1_2  and  C2_3 
REMARK    2  A    between atoms: C2_3  and  C3_5 
REMARK    3  A    between atoms: C3_5  and  C4_6 
REMARK    4  A    between atoms: C4_6  and  N1_7 
REMARK    5  A    between atoms: C4_6  and  C10_16 
REMARK       I    between atoms: N1_7  and  C5_9 
REMARK    6  A    between atoms: C5_9  and  O4_11 
REMARK    7  A    between atoms: O4_11  and  C6_12 
REMARK    8  A    between atoms: C10_16  and  N2_17 
REMARK    9  A    between atoms: C10_16  and  C19_35 
REMARK   10  A    between atoms: C12_20  and  C13_21 
REMARK   11  A    between atoms: C14_24  and  O7_25 
REMARK   12  A    between atoms: C15_27  and  O8_28 
REMARK       I    between atoms: N3_31  and  C17_32 
REMARK   13  A    between atoms: C19_35  and  C20_36 
REMARK   14  A    between atoms: C19_35  and  C22_40 
REMARK   15  A    between atoms: C20_36  and  C21_37 
REMARK   16  A    between atoms: C22_40  and  O13_42 
ROOT
HETATM    1  C10 UNL     1      -6.678  -2.108   6.002  1.00  0.00     0.025 C 
ENDROOT
BRANCH   1   2
HETATM    2  C4  UNL     1      -7.773  -1.377   5.304  1.00  0.00     0.142 C 
BRANCH   2   3
HETATM    3  C3  UNL     1      -8.936  -1.001   6.180  1.00  0.00     0.142 C 
BRANCH   3   4
HETATM    4  C2  UNL     1     -10.226  -1.072   5.482  1.00  0.00     0.260 C 
HETATM    5  O2  UNL     1     -11.116  -1.857   5.899  1.00  0.00    -0.265 OA
BRANCH   4   6
HETATM    6  O1  UNL     1     -10.518  -0.307   4.366  1.00  0.00    -0.326 OA
HETATM    7  C1  UNL     1     -10.781   1.079   4.448  1.00  0.00     0.213 C 
ENDBRANCH   4   6
ENDBRANCH   3   4
ENDBRANCH   2   3
BRANCH   2   8
HETATM    8  N1  UNL     1      -7.291  -0.247   4.527  1.00  0.00    -0.327 N 
HETATM    9  C5  UNL     1      -7.393  -0.142   3.117  1.00  0.00     0.361 C 
HETATM   10  O3  UNL     1      -7.931  -1.073   2.471  1.00  0.00    -0.238 OA
ATOM     11  H1  UNL     1      -6.850   0.522   5.030  1.00  0.00     0.165 HD
BRANCH   9  12
HETATM   12  O4  UNL     1      -6.919   0.955   2.424  1.00  0.00    -0.294 OA
BRANCH  12  13
HETATM   13  C6  UNL     1      -5.773   0.906   1.595  1.00  0.00     0.061 C 
HETATM   14  C7  UNL     1      -6.123   0.483   0.206  1.00  0.00     0.046 C 
HETATM   15  C8  UNL     1      -5.109   2.269   1.510  1.00  0.00     0.046 C 
HETATM   16  C9  UNL     1      -4.734  -0.062   2.137  1.00  0.00     0.046 C 
ENDBRANCH  12  13
ENDBRANCH   9  12
ENDBRANCH   2   8
ENDBRANCH   1   2
BRANCH   1  17
HETATM   17  N2  UNL     1      -6.592  -1.871   7.423  1.00  0.00    -0.349 N 
HETATM   18  C11 UNL     1      -5.688  -1.266   8.063  1.00  0.00     0.103 C 
HETATM   19  C12 UNL     1      -4.468  -0.639   7.496  1.00  0.00     0.185 C 
HETATM   20  N3  UNL     1      -5.861  -1.191   9.496  1.00  0.00    -0.304 N 
HETATM   21  C14 UNL     1      -3.289  -0.765   8.441  1.00  0.00     0.170 C 
HETATM   22  C15 UNL     1      -3.637  -0.380   9.849  1.00  0.00     0.166 C 
HETATM   23  C16 UNL     1      -4.691  -1.293  10.380  1.00  0.00     0.167 C 
HETATM   24  C17 UNL     1      -7.123  -1.020  10.109  1.00  0.00     0.221 C 
HETATM   25  C18 UNL     1      -7.260  -0.948  11.579  1.00  0.00     0.117 C 
HETATM   26  O9  UNL     1      -8.142  -0.930   9.397  1.00  0.00    -0.273 OA
ATOM     27  H2  UNL     1      -7.362  -2.239   7.982  1.00  0.00     0.166 HD
BRANCH  19  28
HETATM   28  C13 UNL     1      -4.668   0.780   7.128  1.00  0.00     0.187 C 
HETATM   29  O5  UNL     1      -5.830   1.202   6.924  1.00  0.00    -0.647 OA
HETATM   30  O6  UNL     1      -3.600   1.672   6.998  1.00  0.00    -0.647 OA
ENDBRANCH  19  28
BRANCH  21  31
HETATM   31  O7  UNL     1      -2.284   0.110   8.009  1.00  0.00    -0.392 OA
ATOM     32  H7  UNL     1      -2.541   0.995   8.236  1.00  0.00     0.210 HD
ENDBRANCH  21  31
BRANCH  22  33
HETATM   33  O8  UNL     1      -2.468  -0.604  10.615  1.00  0.00    -0.391 OA
ATOM     34  H8  UNL     1      -2.551  -0.056  11.386  1.00  0.00     0.210 HD
ENDBRANCH  22  33
ENDBRANCH   1  17
BRANCH   1  35
HETATM   35  C19 UNL     1      -6.319  -3.475   5.589  1.00  0.00     0.143 C 
BRANCH  35  36
HETATM   36  C20 UNL     1      -4.891  -3.793   6.096  1.00  0.00     0.133 C 
BRANCH  36  37
HETATM   37  C21 UNL     1      -4.805  -5.276   6.159  1.00  0.00     0.173 C 
HETATM   38  O10 UNL     1      -3.812  -5.890   5.635  1.00  0.00    -0.648 OA
HETATM   39  O11 UNL     1      -5.739  -6.100   6.759  1.00  0.00    -0.648 OA
ENDBRANCH  36  37
ENDBRANCH  35  36
BRANCH  35  40
HETATM   40  C22 UNL     1      -6.436  -3.839   4.186  1.00  0.00     0.268 C 
HETATM   41  O12 UNL     1      -5.686  -3.323   3.329  1.00  0.00    -0.264 OA
BRANCH  40  42
HETATM   42  O13 UNL     1      -7.374  -4.762   3.765  1.00  0.00    -0.326 OA
HETATM   43  C23 UNL     1      -8.188  -4.639   2.637  1.00  0.00     0.213 C 
ENDBRANCH  40  42
ENDBRANCH  35  40
ENDBRANCH   1  35
TORSDOF 16
ENDMDL
