MODEL 1
REMARK VINA RESULT: -7.553214172      0.000      0.000
REMARK  13 active torsions:
REMARK  status: ('A' for Active; 'I' for Inactive)
REMARK    1  A    between atoms: C4_4  and  C5_5 
REMARK    2  A    between atoms: C5_5  and  C6_6 
REMARK    3  A    between atoms: C6_6  and  N1_7 
REMARK    4  A    between atoms: C6_6  and  C24_43 
REMARK       I    between atoms: N1_7  and  C7_9 
REMARK    5  A    between atoms: C7_9  and  C8_11 
REMARK    6  A    between atoms: C9_13  and  O3_14 
REMARK    7  A    between atoms: O3_14  and  C10_15 
REMARK       I    between atoms: N2_18  and  C12_20 
REMARK    8  A    between atoms: C12_20  and  C13_22 
REMARK    9  A    between atoms: C13_22  and  N3_24 
REMARK   10  A    between atoms: C18_29  and  O7_30 
REMARK   11  A    between atoms: C19_32  and  O8_33 
REMARK   12  A    between atoms: C21_36  and  O9_37 
REMARK   13  A    between atoms: C23_40  and  O10_41 
ROOT
HETATM    1  C10 UNL     1      -5.525  -4.524   5.991  1.00  0.00     0.300 C 
HETATM    2  O4  UNL     1      -5.403  -3.719   7.146  1.00  0.00    -0.303 OA
HETATM    3  C11 UNL     1      -4.506  -3.902   8.171  1.00  0.00     0.153 C 
HETATM    4  N2  UNL     1      -4.067  -2.900   8.838  1.00  0.00    -0.307 N 
ATOM      5  H2  UNL     1      -3.404  -3.073   9.593  1.00  0.00     0.170 HD
HETATM    6  C12 UNL     1      -4.461  -1.557   8.579  1.00  0.00     0.256 C 
HETATM    7  O5  UNL     1      -4.763  -1.258   7.396  1.00  0.00    -0.271 OA
HETATM    8  C17 UNL     1      -4.064  -5.249   8.483  1.00  0.00     0.208 C 
HETATM    9  O6  UNL     1      -4.296  -5.721   9.747  1.00  0.00    -0.345 OA
HETATM   10  C18 UNL     1      -4.188  -7.116   9.666  1.00  0.00     0.287 C 
HETATM   11  C19 UNL     1      -4.436  -7.479   8.187  1.00  0.00     0.182 C 
HETATM   12  C20 UNL     1      -5.013  -6.197   7.708  1.00  0.00     0.090 C 
HETATM   13  C21 UNL     1      -4.912  -5.913   6.241  1.00  0.00     0.183 C 
ENDROOT
BRANCH   1  14
HETATM   14  O3  UNL     1      -5.069  -3.934   4.843  1.00  0.00    -0.328 OA
BRANCH  14  15
HETATM   15  C9  UNL     1      -5.747  -2.775   4.540  1.00  0.00     0.266 C 
HETATM   16  O2  UNL     1      -6.962  -2.978   3.957  1.00  0.00    -0.344 OA
HETATM   17  C8  UNL     1      -7.222  -2.058   2.991  1.00  0.00     0.245 C 
HETATM   18  C23 UNL     1      -6.113  -1.047   3.039  1.00  0.00     0.161 C 
HETATM   19  C22 UNL     1      -4.969  -1.856   3.616  1.00  0.00     0.095 C 
BRANCH  17  20
HETATM   20  C7  UNL     1      -8.550  -1.414   3.130  1.00  0.00     0.250 C 
HETATM   21  N1  UNL     1      -8.807  -0.066   2.835  1.00  0.00    -0.344 N 
ATOM     22  H1  UNL     1      -8.027   0.504   2.507  1.00  0.00     0.163 HD
HETATM   23  O1  UNL     1      -9.506  -2.138   3.541  1.00  0.00    -0.271 OA
BRANCH  21  24
HETATM   24  C6  UNL     1     -10.082   0.566   2.962  1.00  0.00     0.189 C 
BRANCH  24  25
HETATM   25  C5  UNL     1     -10.278   1.190   4.332  1.00  0.00     0.063 C 
BRANCH  25  26
HETATM   26  C4  UNL     1     -11.563   0.813   4.935  1.00  0.00    -0.022 C 
HETATM   27  C2  UNL     1     -11.578  -0.003   5.981  1.00  0.00    -0.091 C 
HETATM   28  C1  UNL     1     -12.922  -0.354   6.558  1.00  0.00     0.042 C 
HETATM   29  C3  UNL     1     -10.344  -0.562   6.582  1.00  0.00     0.042 C 
ENDBRANCH  25  26
ENDBRANCH  24  25
BRANCH  24  30
HETATM   30  C24 UNL     1     -10.214   1.631   1.947  1.00  0.00     0.197 C 
HETATM   31  O11 UNL     1      -9.205   2.237   1.456  1.00  0.00    -0.646 OA
HETATM   32  O12 UNL     1     -11.452   2.036   1.468  1.00  0.00    -0.646 OA
ENDBRANCH  24  30
ENDBRANCH  21  24
ENDBRANCH  17  20
BRANCH  18  33
HETATM   33  O10 UNL     1      -5.805  -0.612   1.753  1.00  0.00    -0.392 OA
ATOM     34  H10 UNL     1      -5.071  -0.008   1.779  1.00  0.00     0.210 HD
ENDBRANCH  18  33
ENDBRANCH  14  15
ENDBRANCH   1  14
BRANCH  13  35
HETATM   35  O9  UNL     1      -3.620  -5.981   5.792  1.00  0.00    -0.390 OA
ATOM     36  H9  UNL     1      -3.395  -6.860   5.507  1.00  0.00     0.210 HD
ENDBRANCH  13  35
BRANCH  11  37
HETATM   37  O8  UNL     1      -5.268  -8.577   8.076  1.00  0.00    -0.390 OA
ATOM     38  H8  UNL     1      -5.681  -8.610   7.222  1.00  0.00     0.210 HD
ENDBRANCH  11  37
BRANCH   6  39
HETATM   39  C13 UNL     1      -4.514  -0.550   9.647  1.00  0.00     0.309 C 
HETATM   40  C14 UNL     1      -3.146  -0.113  10.110  1.00  0.00     0.053 C 
BRANCH  39  41
HETATM   41  N3  UNL     1      -5.214  -1.101  10.804  1.00  0.00     0.093 N 
HETATM   42  C15 UNL     1      -4.709  -0.519  12.027  1.00  0.00     0.310 C 
HETATM   43  C16 UNL     1      -6.644  -0.954  10.664  1.00  0.00     0.310 C 
ENDBRANCH  39  41
ENDBRANCH   6  39
BRANCH  10  44
HETATM   44  O7  UNL     1      -5.191  -7.714  10.396  1.00  0.00    -0.369 OA
ATOM     45  H7  UNL     1      -5.958  -7.849   9.851  1.00  0.00     0.212 HD
ENDBRANCH  10  44
TORSDOF 13
ENDMDL
MODEL 2
REMARK VINA RESULT: -7.515442200      2.258      3.740
REMARK  13 active torsions:
REMARK  status: ('A' for Active; 'I' for Inactive)
REMARK    1  A    between atoms: C4_4  and  C5_5 
REMARK    2  A    between atoms: C5_5  and  C6_6 
REMARK    3  A    between atoms: C6_6  and  N1_7 
REMARK    4  A    between atoms: C6_6  and  C24_43 
REMARK       I    between atoms: N1_7  and  C7_9 
REMARK    5  A    between atoms: C7_9  and  C8_11 
REMARK    6  A    between atoms: C9_13  and  O3_14 
REMARK    7  A    between atoms: O3_14  and  C10_15 
REMARK       I    between atoms: N2_18  and  C12_20 
REMARK    8  A    between atoms: C12_20  and  C13_22 
REMARK    9  A    between atoms: C13_22  and  N3_24 
REMARK   10  A    between atoms: C18_29  and  O7_30 
REMARK   11  A    between atoms: C19_32  and  O8_33 
REMARK   12  A    between atoms: C21_36  and  O9_37 
REMARK   13  A    between atoms: C23_40  and  O10_41 
ROOT
HETATM    1  C10 UNL     1      -6.478  -1.987   5.728  1.00  0.00     0.300 C 
HETATM    2  O4  UNL     1      -6.703  -2.168   7.111  1.00  0.00    -0.303 OA
HETATM    3  C11 UNL     1      -5.812  -2.693   8.016  1.00  0.00     0.153 C 
HETATM    4  N2  UNL     1      -5.833  -2.318   9.242  1.00  0.00    -0.307 N 
ATOM      5  H2  UNL     1      -5.158  -2.729   9.886  1.00  0.00     0.170 HD
HETATM    6  C12 UNL     1      -6.751  -1.355   9.749  1.00  0.00     0.256 C 
HETATM    7  O5  UNL     1      -7.149  -0.461   8.960  1.00  0.00    -0.271 OA
HETATM    8  C17 UNL     1      -4.848  -3.678   7.559  1.00  0.00     0.208 C 
HETATM    9  O6  UNL     1      -4.863  -4.910   8.156  1.00  0.00    -0.345 OA
HETATM   10  C18 UNL     1      -4.182  -5.770   7.284  1.00  0.00     0.287 C 
HETATM   11  C19 UNL     1      -4.256  -5.113   5.890  1.00  0.00     0.182 C 
HETATM   12  C20 UNL     1      -5.315  -4.104   6.145  1.00  0.00     0.090 C 
HETATM   13  C21 UNL     1      -5.341  -2.905   5.247  1.00  0.00     0.183 C 
ENDROOT
BRANCH   1  14
HETATM   14  O3  UNL     1      -6.310  -0.681   5.352  1.00  0.00    -0.328 OA
BRANCH  14  15
HETATM   15  C9  UNL     1      -7.459  -0.128   4.834  1.00  0.00     0.266 C 
HETATM   16  O2  UNL     1      -8.583  -0.412   5.551  1.00  0.00    -0.344 OA
HETATM   17  C8  UNL     1      -9.659  -0.622   4.746  1.00  0.00     0.245 C 
HETATM   18  C23 UNL     1      -9.226  -0.301   3.344  1.00  0.00     0.161 C 
HETATM   19  C22 UNL     1      -7.733  -0.556   3.404  1.00  0.00     0.095 C 
BRANCH  17  20
HETATM   20  C7  UNL     1     -10.853   0.163   5.138  1.00  0.00     0.250 C 
HETATM   21  N1  UNL     1     -11.598   0.960   4.254  1.00  0.00    -0.344 N 
ATOM     22  H1  UNL     1     -11.293   1.000   3.282  1.00  0.00     0.163 HD
HETATM   23  O1  UNL     1     -11.215   0.102   6.351  1.00  0.00    -0.271 OA
BRANCH  21  24
HETATM   24  C6  UNL     1     -12.752   1.718   4.619  1.00  0.00     0.189 C 
BRANCH  24  25
HETATM   25  C5  UNL     1     -12.779   3.079   3.947  1.00  0.00     0.063 C 
BRANCH  25  26
HETATM   26  C4  UNL     1     -11.702   3.232   2.960  1.00  0.00    -0.022 C 
HETATM   27  C2  UNL     1     -12.005   3.542   1.707  1.00  0.00    -0.091 C 
HETATM   28  C1  UNL     1     -10.863   3.686   0.739  1.00  0.00     0.042 C 
HETATM   29  C3  UNL     1     -13.398   3.746   1.244  1.00  0.00     0.042 C 
ENDBRANCH  25  26
ENDBRANCH  24  25
BRANCH  24  30
HETATM   30  C24 UNL     1     -13.974   0.986   4.227  1.00  0.00     0.197 C 
HETATM   31  O11 UNL     1     -14.892   1.517   3.518  1.00  0.00    -0.646 OA
HETATM   32  O12 UNL     1     -14.194  -0.330   4.612  1.00  0.00    -0.646 OA
ENDBRANCH  24  30
ENDBRANCH  21  24
ENDBRANCH  17  20
BRANCH  18  33
HETATM   33  O10 UNL     1      -9.835  -1.170   2.443  1.00  0.00    -0.392 OA
ATOM     34  H10 UNL     1     -10.389  -0.684   1.843  1.00  0.00     0.210 HD
ENDBRANCH  18  33
ENDBRANCH  14  15
ENDBRANCH   1  14
BRANCH  13  35
HETATM   35  O9  UNL     1      -4.139  -2.251   5.229  1.00  0.00    -0.390 OA
ATOM     36  H9  UNL     1      -4.146  -1.523   4.617  1.00  0.00     0.210 HD
ENDBRANCH  13  35
BRANCH  11  37
HETATM   37  O8  UNL     1      -4.553  -6.046   4.914  1.00  0.00    -0.390 OA
ATOM     38  H8  UNL     1      -3.865  -6.089   4.261  1.00  0.00     0.210 HD
ENDBRANCH  11  37
BRANCH   6  39
HETATM   39  C13 UNL     1      -7.220  -1.397  11.140  1.00  0.00     0.309 C 
HETATM   40  C14 UNL     1      -8.595  -0.801  11.313  1.00  0.00     0.053 C 
BRANCH  39  41
HETATM   41  N3  UNL     1      -6.303  -0.641  11.988  1.00  0.00     0.093 N 
HETATM   42  C15 UNL     1      -6.420  -1.066  13.365  1.00  0.00     0.310 C 
HETATM   43  C16 UNL     1      -4.950  -0.724  11.492  1.00  0.00     0.310 C 
ENDBRANCH  39  41
ENDBRANCH   6  39
BRANCH  10  44
HETATM   44  O7  UNL     1      -4.844  -6.974   7.191  1.00  0.00    -0.369 OA
ATOM     45  H7  UNL     1      -4.343  -7.659   7.619  1.00  0.00     0.212 HD
ENDBRANCH  10  44
TORSDOF 13
ENDMDL
MODEL 3
REMARK VINA RESULT: -7.425351295      2.399      8.838
REMARK  13 active torsions:
REMARK  status: ('A' for Active; 'I' for Inactive)
REMARK    1  A    between atoms: C4_4  and  C5_5 
REMARK    2  A    between atoms: C5_5  and  C6_6 
REMARK    3  A    between atoms: C6_6  and  N1_7 
REMARK    4  A    between atoms: C6_6  and  C24_43 
REMARK       I    between atoms: N1_7  and  C7_9 
REMARK    5  A    between atoms: C7_9  and  C8_11 
REMARK    6  A    between atoms: C9_13  and  O3_14 
REMARK    7  A    between atoms: O3_14  and  C10_15 
REMARK       I    between atoms: N2_18  and  C12_20 
REMARK    8  A    between atoms: C12_20  and  C13_22 
REMARK    9  A    between atoms: C13_22  and  N3_24 
REMARK   10  A    between atoms: C18_29  and  O7_30 
REMARK   11  A    between atoms: C19_32  and  O8_33 
REMARK   12  A    between atoms: C21_36  and  O9_37 
REMARK   13  A    between atoms: C23_40  and  O10_41 
ROOT
HETATM    1  C10 UNL     1      -6.571  -1.324   4.843  1.00  0.00     0.300 C 
HETATM    2  O4  UNL     1      -7.765  -0.567   4.871  1.00  0.00    -0.303 OA
HETATM    3  C11 UNL     1      -8.650  -0.411   3.831  1.00  0.00     0.153 C 
HETATM    4  N2  UNL     1      -9.898  -0.230   4.061  1.00  0.00    -0.307 N 
ATOM      5  H2  UNL     1     -10.526  -0.117   3.265  1.00  0.00     0.170 HD
HETATM    6  C12 UNL     1     -10.451  -0.179   5.371  1.00  0.00     0.256 C 
HETATM    7  O5  UNL     1      -9.885  -0.855   6.267  1.00  0.00    -0.271 OA
HETATM    8  C17 UNL     1      -8.147  -0.456   2.470  1.00  0.00     0.208 C 
HETATM    9  O6  UNL     1      -8.350   0.642   1.677  1.00  0.00    -0.345 OA
HETATM   10  C18 UNL     1      -7.434   0.533   0.622  1.00  0.00     0.287 C 
HETATM   11  C19 UNL     1      -6.304  -0.386   1.130  1.00  0.00     0.182 C 
HETATM   12  C20 UNL     1      -6.605  -0.372   2.584  1.00  0.00     0.090 C 
HETATM   13  C21 UNL     1      -6.102  -1.529   3.393  1.00  0.00     0.183 C 
ENDROOT
BRANCH   1  14
HETATM   14  O3  UNL     1      -6.629  -2.489   5.560  1.00  0.00    -0.328 OA
BRANCH  14  15
HETATM   15  C9  UNL     1      -5.964  -2.403   6.763  1.00  0.00     0.266 C 
HETATM   16  O2  UNL     1      -5.218  -1.271   6.905  1.00  0.00    -0.344 OA
HETATM   17  C8  UNL     1      -4.048  -1.513   7.553  1.00  0.00     0.245 C 
HETATM   18  C23 UNL     1      -4.090  -2.941   8.016  1.00  0.00     0.161 C 
HETATM   19  C22 UNL     1      -5.032  -3.574   7.012  1.00  0.00     0.095 C 
BRANCH  17  20
HETATM   20  C7  UNL     1      -3.793  -0.585   8.679  1.00  0.00     0.250 C 
HETATM   21  N1  UNL     1      -3.429  -0.994   9.972  1.00  0.00    -0.344 N 
ATOM     22  H1  UNL     1      -3.337  -1.996  10.143  1.00  0.00     0.163 HD
HETATM   23  O1  UNL     1      -3.914   0.656   8.448  1.00  0.00    -0.271 OA
BRANCH  21  24
HETATM   24  C6  UNL     1      -3.178  -0.110  11.065  1.00  0.00     0.189 C 
BRANCH  24  25
HETATM   25  C5  UNL     1      -4.008  -0.460  12.287  1.00  0.00     0.063 C 
BRANCH  25  26
HETATM   26  C4  UNL     1      -5.440  -0.563  11.975  1.00  0.00    -0.022 C 
HETATM   27  C2  UNL     1      -6.272  -1.054  12.884  1.00  0.00    -0.091 C 
HETATM   28  C1  UNL     1      -7.726  -1.136  12.510  1.00  0.00     0.042 C 
HETATM   29  C3  UNL     1      -5.823  -1.511  14.220  1.00  0.00     0.042 C 
ENDBRANCH  25  26
ENDBRANCH  24  25
BRANCH  24  30
HETATM   30  C24 UNL     1      -1.751  -0.176  11.442  1.00  0.00     0.197 C 
HETATM   31  O11 UNL     1      -1.369  -0.386  12.641  1.00  0.00    -0.646 OA
HETATM   32  O12 UNL     1      -0.739  -0.011  10.507  1.00  0.00    -0.646 OA
ENDBRANCH  24  30
ENDBRANCH  21  24
ENDBRANCH  17  20
BRANCH  18  33
HETATM   33  O10 UNL     1      -2.824  -3.512   7.927  1.00  0.00    -0.392 OA
ATOM     34  H10 UNL     1      -2.896  -4.454   7.827  1.00  0.00     0.210 HD
ENDBRANCH  18  33
ENDBRANCH  14  15
ENDBRANCH   1  14
BRANCH  13  35
HETATM   35  O9  UNL     1      -6.527  -2.730   2.891  1.00  0.00    -0.390 OA
ATOM     36  H9  UNL     1      -7.028  -2.617   2.091  1.00  0.00     0.210 HD
ENDBRANCH  13  35
BRANCH  11  37
HETATM   37  O8  UNL     1      -5.062   0.111   0.781  1.00  0.00    -0.390 OA
ATOM     38  H8  UNL     1      -4.555   0.339   1.551  1.00  0.00     0.210 HD
ENDBRANCH  11  37
BRANCH   6  39
HETATM   39  C13 UNL     1     -11.639   0.629   5.674  1.00  0.00     0.309 C 
HETATM   40  C14 UNL     1     -12.579  -0.050   6.641  1.00  0.00     0.053 C 
BRANCH  39  41
HETATM   41  N3  UNL     1     -12.384   0.884   4.445  1.00  0.00     0.093 N 
HETATM   42  C15 UNL     1     -13.771   0.508   4.604  1.00  0.00     0.310 C 
HETATM   43  C16 UNL     1     -12.223   2.254   4.016  1.00  0.00     0.310 C 
ENDBRANCH  39  41
ENDBRANCH   6  39
BRANCH  10  44
HETATM   44  O7  UNL     1      -6.863   1.758   0.359  1.00  0.00    -0.369 OA
ATOM     45  H7  UNL     1      -6.637   1.824  -0.561  1.00  0.00     0.212 HD
ENDBRANCH  10  44
TORSDOF 13
ENDMDL
MODEL 4
REMARK VINA RESULT: -7.416292746      3.595      5.302
REMARK  13 active torsions:
REMARK  status: ('A' for Active; 'I' for Inactive)
REMARK    1  A    between atoms: C4_4  and  C5_5 
REMARK    2  A    between atoms: C5_5  and  C6_6 
REMARK    3  A    between atoms: C6_6  and  N1_7 
REMARK    4  A    between atoms: C6_6  and  C24_43 
REMARK       I    between atoms: N1_7  and  C7_9 
REMARK    5  A    between atoms: C7_9  and  C8_11 
REMARK    6  A    between atoms: C9_13  and  O3_14 
REMARK    7  A    between atoms: O3_14  and  C10_15 
REMARK       I    between atoms: N2_18  and  C12_20 
REMARK    8  A    between atoms: C12_20  and  C13_22 
REMARK    9  A    between atoms: C13_22  and  N3_24 
REMARK   10  A    between atoms: C18_29  and  O7_30 
REMARK   11  A    between atoms: C19_32  and  O8_33 
REMARK   12  A    between atoms: C21_36  and  O9_37 
REMARK   13  A    between atoms: C23_40  and  O10_41 
ROOT
HETATM    1  C10 UNL     1      -4.604  -0.274   8.681  1.00  0.00     0.300 C 
HETATM    2  O4  UNL     1      -3.725   0.123   9.714  1.00  0.00    -0.303 OA
HETATM    3  C11 UNL     1      -3.591  -0.482  10.941  1.00  0.00     0.153 C 
HETATM    4  N2  UNL     1      -2.467  -0.462  11.556  1.00  0.00    -0.307 N 
ATOM      5  H2  UNL     1      -2.403  -0.920  12.465  1.00  0.00     0.170 HD
HETATM    6  C12 UNL     1      -1.302   0.168  11.035  1.00  0.00     0.256 C 
HETATM    7  O5  UNL     1      -1.173   0.205   9.785  1.00  0.00    -0.271 OA
HETATM    8  C17 UNL     1      -4.743  -1.145  11.526  1.00  0.00     0.208 C 
HETATM    9  O6  UNL     1      -5.180  -0.706  12.747  1.00  0.00    -0.345 OA
HETATM   10  C18 UNL     1      -6.494  -1.175  12.879  1.00  0.00     0.287 C 
HETATM   11  C19 UNL     1      -7.003  -1.431  11.446  1.00  0.00     0.182 C 
HETATM   12  C20 UNL     1      -5.961  -0.704  10.677  1.00  0.00     0.090 C 
HETATM   13  C21 UNL     1      -5.753  -1.122   9.253  1.00  0.00     0.183 C 
ENDROOT
BRANCH   1  14
HETATM   14  O3  UNL     1      -3.984  -0.860   7.610  1.00  0.00    -0.328 OA
BRANCH  14  15
HETATM   15  C9  UNL     1      -4.774  -0.869   6.482  1.00  0.00     0.266 C 
HETATM   16  O2  UNL     1      -5.520  -2.001   6.336  1.00  0.00    -0.344 OA
HETATM   17  C8  UNL     1      -5.604  -2.389   5.036  1.00  0.00     0.245 C 
HETATM   18  C23 UNL     1      -4.957  -1.311   4.214  1.00  0.00     0.161 C 
HETATM   19  C22 UNL     1      -3.980  -0.702   5.200  1.00  0.00     0.095 C 
BRANCH  17  20
HETATM   20  C7  UNL     1      -6.991  -2.654   4.587  1.00  0.00     0.250 C 
HETATM   21  N1  UNL     1      -7.352  -2.916   3.256  1.00  0.00    -0.344 N 
ATOM     22  H1  UNL     1      -6.610  -2.921   2.556  1.00  0.00     0.163 HD
HETATM   23  O1  UNL     1      -7.900  -2.642   5.471  1.00  0.00    -0.271 OA
BRANCH  21  24
HETATM   24  C6  UNL     1      -8.685  -3.177   2.811  1.00  0.00     0.189 C 
BRANCH  24  25
HETATM   25  C5  UNL     1      -9.102  -2.252   1.683  1.00  0.00     0.063 C 
BRANCH  25  26
HETATM   26  C4  UNL     1      -8.177  -1.123   1.518  1.00  0.00    -0.022 C 
HETATM   27  C2  UNL     1      -8.627   0.116   1.662  1.00  0.00    -0.091 C 
HETATM   28  C1  UNL     1      -7.635   1.232   1.483  1.00  0.00     0.042 C 
HETATM   29  C3  UNL     1     -10.040   0.425   1.986  1.00  0.00     0.042 C 
ENDBRANCH  25  26
ENDBRANCH  24  25
BRANCH  24  30
HETATM   30  C24 UNL     1      -8.785  -4.569   2.328  1.00  0.00     0.197 C 
HETATM   31  O11 UNL     1      -7.850  -5.420   2.492  1.00  0.00    -0.646 OA
HETATM   32  O12 UNL     1      -9.911  -5.032   1.661  1.00  0.00    -0.646 OA
ENDBRANCH  24  30
ENDBRANCH  21  24
ENDBRANCH  17  20
BRANCH  18  33
HETATM   33  O10 UNL     1      -4.279  -1.873   3.136  1.00  0.00    -0.392 OA
ATOM     34  H10 UNL     1      -4.719  -1.654   2.323  1.00  0.00     0.210 HD
ENDBRANCH  18  33
ENDBRANCH  14  15
ENDBRANCH   1  14
BRANCH  13  35
HETATM   35  O9  UNL     1      -5.492  -2.462   9.144  1.00  0.00    -0.390 OA
ATOM     36  H9  UNL     1      -5.772  -2.805   8.303  1.00  0.00     0.210 HD
ENDBRANCH  13  35
BRANCH  11  37
HETATM   37  O8  UNL     1      -8.292  -0.959  11.283  1.00  0.00    -0.390 OA
ATOM     38  H8  UNL     1      -8.343  -0.343  10.562  1.00  0.00     0.210 HD
ENDBRANCH  11  37
BRANCH   6  39
HETATM   39  C13 UNL     1      -0.284   0.755  11.915  1.00  0.00     0.309 C 
HETATM   40  C14 UNL     1       0.256  -0.229  12.925  1.00  0.00     0.053 C 
BRANCH  39  41
HETATM   41  N3  UNL     1      -0.863   1.871  12.656  1.00  0.00     0.093 N 
HETATM   42  C15 UNL     1       0.034   2.304  13.704  1.00  0.00     0.310 C 
HETATM   43  C16 UNL     1      -1.241   2.944  11.767  1.00  0.00     0.310 C 
ENDBRANCH  39  41
ENDBRANCH   6  39
BRANCH  10  44
HETATM   44  O7  UNL     1      -7.297  -0.194  13.417  1.00  0.00    -0.369 OA
ATOM     45  H7  UNL     1      -7.414  -0.339  14.349  1.00  0.00     0.212 HD
ENDBRANCH  10  44
TORSDOF 13
ENDMDL
MODEL 5
REMARK VINA RESULT: -7.320280098      1.018      1.552
REMARK  13 active torsions:
REMARK  status: ('A' for Active; 'I' for Inactive)
REMARK    1  A    between atoms: C4_4  and  C5_5 
REMARK    2  A    between atoms: C5_5  and  C6_6 
REMARK    3  A    between atoms: C6_6  and  N1_7 
REMARK    4  A    between atoms: C6_6  and  C24_43 
REMARK       I    between atoms: N1_7  and  C7_9 
REMARK    5  A    between atoms: C7_9  and  C8_11 
REMARK    6  A    between atoms: C9_13  and  O3_14 
REMARK    7  A    between atoms: O3_14  and  C10_15 
REMARK       I    between atoms: N2_18  and  C12_20 
REMARK    8  A    between atoms: C12_20  and  C13_22 
REMARK    9  A    between atoms: C13_22  and  N3_24 
REMARK   10  A    between atoms: C18_29  and  O7_30 
REMARK   11  A    between atoms: C19_32  and  O8_33 
REMARK   12  A    between atoms: C21_36  and  O9_37 
REMARK   13  A    between atoms: C23_40  and  O10_41 
ROOT
HETATM    1  C10 UNL     1      -5.405  -4.292   6.148  1.00  0.00     0.300 C 
HETATM    2  O4  UNL     1      -5.307  -3.569   7.359  1.00  0.00    -0.303 OA
HETATM    3  C11 UNL     1      -4.440  -3.832   8.392  1.00  0.00     0.153 C 
HETATM    4  N2  UNL     1      -4.012  -2.883   9.139  1.00  0.00    -0.307 N 
ATOM      5  H2  UNL     1      -3.371  -3.115   9.898  1.00  0.00     0.170 HD
HETATM    6  C12 UNL     1      -4.385  -1.521   8.963  1.00  0.00     0.256 C 
HETATM    7  O5  UNL     1      -4.652  -1.139   7.795  1.00  0.00    -0.271 OA
HETATM    8  C17 UNL     1      -4.019  -5.203   8.622  1.00  0.00     0.208 C 
HETATM    9  O6  UNL     1      -4.291  -5.758   9.844  1.00  0.00    -0.345 OA
HETATM   10  C18 UNL     1      -4.193  -7.145   9.670  1.00  0.00     0.287 C 
HETATM   11  C19 UNL     1      -4.404  -7.402   8.164  1.00  0.00     0.182 C 
HETATM   12  C20 UNL     1      -4.956  -6.085   7.759  1.00  0.00     0.090 C 
HETATM   13  C21 UNL     1      -4.812  -5.701   6.318  1.00  0.00     0.183 C 
ENDROOT
BRANCH   1  14
HETATM   14  O3  UNL     1      -4.912  -3.629   5.056  1.00  0.00    -0.328 OA
BRANCH  14  15
HETATM   15  C9  UNL     1      -5.871  -3.408   4.094  1.00  0.00     0.266 C 
HETATM   16  O2  UNL     1      -6.876  -2.578   4.493  1.00  0.00    -0.344 OA
HETATM   17  C8  UNL     1      -8.084  -2.973   4.010  1.00  0.00     0.245 C 
HETATM   18  C23 UNL     1      -7.826  -4.115   3.069  1.00  0.00     0.161 C 
HETATM   19  C22 UNL     1      -6.529  -4.686   3.607  1.00  0.00     0.095 C 
BRANCH  17  20
HETATM   20  C7  UNL     1      -8.841  -1.885   3.348  1.00  0.00     0.250 C 
HETATM   21  N1  UNL     1      -8.876  -0.558   3.806  1.00  0.00    -0.344 N 
ATOM     22  H1  UNL     1      -8.347  -0.334   4.648  1.00  0.00     0.163 HD
HETATM   23  O1  UNL     1      -9.493  -2.183   2.303  1.00  0.00    -0.271 OA
BRANCH  21  24
HETATM   24  C6  UNL     1      -9.599   0.501   3.176  1.00  0.00     0.189 C 
BRANCH  24  25
HETATM   25  C5  UNL     1     -10.417   1.305   4.169  1.00  0.00     0.063 C 
BRANCH  25  26
HETATM   26  C4  UNL     1     -10.974   0.466   5.239  1.00  0.00    -0.022 C 
HETATM   27  C2  UNL     1     -12.266   0.545   5.524  1.00  0.00    -0.091 C 
HETATM   28  C1  UNL     1     -12.781  -0.337   6.628  1.00  0.00     0.042 C 
HETATM   29  C3  UNL     1     -13.194   1.452   4.807  1.00  0.00     0.042 C 
ENDBRANCH  25  26
ENDBRANCH  24  25
BRANCH  24  30
HETATM   30  C24 UNL     1      -8.655   1.419   2.505  1.00  0.00     0.197 C 
HETATM   31  O11 UNL     1      -7.405   1.417   2.755  1.00  0.00    -0.646 OA
HETATM   32  O12 UNL     1      -9.080   2.343   1.561  1.00  0.00    -0.646 OA
ENDBRANCH  24  30
ENDBRANCH  21  24
ENDBRANCH  17  20
BRANCH  18  33
HETATM   33  O10 UNL     1      -8.850  -5.053   3.162  1.00  0.00    -0.392 OA
ATOM     34  H10 UNL     1      -8.694  -5.637   3.896  1.00  0.00     0.210 HD
ENDBRANCH  18  33
ENDBRANCH  14  15
ENDBRANCH   1  14
BRANCH  13  35
HETATM   35  O9  UNL     1      -3.508  -5.753   5.901  1.00  0.00    -0.390 OA
ATOM     36  H9  UNL     1      -3.447  -5.845   4.957  1.00  0.00     0.210 HD
ENDBRANCH  13  35
BRANCH  11  37
HETATM   37  O8  UNL     1      -5.242  -8.481   7.955  1.00  0.00    -0.390 OA
ATOM     38  H8  UNL     1      -6.026  -8.414   8.487  1.00  0.00     0.210 HD
ENDBRANCH  11  37
BRANCH   6  39
HETATM   39  C13 UNL     1      -4.459  -0.590  10.096  1.00  0.00     0.309 C 
HETATM   40  C14 UNL     1      -3.107  -0.278  10.687  1.00  0.00     0.053 C 
BRANCH  39  41
HETATM   41  N3  UNL     1      -5.278  -1.172  11.155  1.00  0.00     0.093 N 
HETATM   42  C15 UNL     1      -4.899  -0.635  12.442  1.00  0.00     0.310 C 
HETATM   43  C16 UNL     1      -6.684  -1.008  10.874  1.00  0.00     0.310 C 
ENDBRANCH  39  41
ENDBRANCH   6  39
BRANCH  10  44
HETATM   44  O7  UNL     1      -5.222  -7.781  10.330  1.00  0.00    -0.369 OA
ATOM     45  H7  UNL     1      -5.819  -8.173   9.705  1.00  0.00     0.212 HD
ENDBRANCH  10  44
TORSDOF 13
ENDMDL
