MODEL 1
REMARK VINA RESULT: -6.792138227      0.000      0.000
REMARK  18 active torsions:
REMARK  status: ('A' for Active; 'I' for Inactive)
REMARK    1  A    between atoms: C2_2  and  O1_3 
REMARK    2  A    between atoms: O1_3  and  C3_4 
REMARK    3  A    between atoms: C3_4  and  C4_5 
REMARK    4  A    between atoms: C5_7  and  O3_8 
REMARK    5  A    between atoms: O3_8  and  C6_9 
REMARK    6  A    between atoms: C6_9  and  C7_10 
REMARK    7  A    between atoms: C10_14  and  C11_15 
REMARK    8  A    between atoms: C11_15  and  O5_17 
REMARK    9  A    between atoms: C13_19  and  C14_20 
REMARK   10  A    between atoms: C15_21  and  C16_22 
REMARK   11  A    between atoms: C16_22  and  C17_23 
REMARK   12  A    between atoms: C17_23  and  C18_24 
REMARK   13  A    between atoms: C18_24  and  O6_25 
REMARK   14  A    between atoms: C18_24  and  N1_27 
REMARK   15  A    between atoms: C23_34  and  O9_35 
REMARK   16  A    between atoms: C24_37  and  O10_38 
REMARK   17  A    between atoms: C25_40  and  O11_41 
REMARK   18  A    between atoms: C26_43  and  O12_44 
ROOT
HETATM    1  C7  UNL     1      -5.304  -0.266   4.127  1.00  0.00     0.177 C 
HETATM    2  O4  UNL     1      -6.303  -0.239   5.092  1.00  0.00    -0.375 OA
HETATM    3  C8  UNL     1      -7.157  -1.366   5.032  1.00  0.00     0.133 C 
HETATM    4  C9  UNL     1      -7.867  -1.584   6.319  1.00  0.00     0.040 C 
HETATM    5  C10 UNL     1      -7.929  -1.380   3.797  1.00  0.00     0.056 C 
HETATM    6  C13 UNL     1      -9.329  -0.756   3.822  1.00  0.00     0.124 C 
HETATM    7  C21 UNL     1      -9.413  -0.382   2.359  1.00  0.00     0.268 C 
HETATM    8  O7  UNL     1     -10.446  -0.020   1.753  1.00  0.00    -0.264 OA
HETATM    9  O8  UNL     1      -8.160  -0.498   1.762  1.00  0.00    -0.312 OA
HETATM   10  C22 UNL     1      -7.298  -0.383   2.847  1.00  0.00     0.178 C 
HETATM   11  C23 UNL     1      -5.856  -0.535   2.713  1.00  0.00     0.179 C 
ENDROOT
BRANCH   1  12
HETATM   12  C6  UNL     1      -4.149  -1.143   4.473  1.00  0.00     0.205 C 
BRANCH  12  13
HETATM   13  O3  UNL     1      -3.622  -0.716   5.664  1.00  0.00    -0.356 OA
BRANCH  13  14
HETATM   14  C5  UNL     1      -3.521  -1.749   6.606  1.00  0.00     0.291 C 
HETATM   15  O2  UNL     1      -4.133  -2.836   6.082  1.00  0.00    -0.348 OA
HETATM   16  C4  UNL     1      -4.805  -3.686   6.967  1.00  0.00     0.179 C 
HETATM   17  C26 UNL     1      -4.112  -3.606   8.302  1.00  0.00     0.180 C 
HETATM   18  C25 UNL     1      -4.349  -2.270   8.909  1.00  0.00     0.183 C 
HETATM   19  C24 UNL     1      -4.031  -1.218   7.899  1.00  0.00     0.204 C 
BRANCH  16  20
HETATM   20  C3  UNL     1      -4.635  -5.097   6.478  1.00  0.00     0.202 C 
BRANCH  20  21
HETATM   21  O1  UNL     1      -4.295  -5.975   7.397  1.00  0.00    -0.389 OA
BRANCH  21  22
HETATM   22  C2  UNL     1      -5.011  -6.974   7.893  1.00  0.00     0.163 C 
HETATM   23  C1  UNL     1      -4.996  -7.314   9.335  1.00  0.00     0.033 C 
ENDBRANCH  21  22
ENDBRANCH  20  21
ENDBRANCH  16  20
BRANCH  17  24
HETATM   24  O12 UNL     1      -2.757  -3.886   8.146  1.00  0.00    -0.390 OA
ATOM     25  H12 UNL     1      -2.287  -3.648   8.937  1.00  0.00     0.210 HD
ENDBRANCH  17  24
BRANCH  18  26
HETATM   26  O11 UNL     1      -5.668  -2.202   9.357  1.00  0.00    -0.390 OA
ATOM     27  H11 UNL     1      -5.959  -3.013   9.759  1.00  0.00     0.210 HD
ENDBRANCH  18  26
BRANCH  19  28
HETATM   28  O10 UNL     1      -5.121  -0.361   7.747  1.00  0.00    -0.388 OA
ATOM     29  H10 UNL     1      -5.913  -0.691   8.154  1.00  0.00     0.210 HD
ENDBRANCH  19  28
ENDBRANCH  13  14
ENDBRANCH  12  13
ENDBRANCH   1  12
BRANCH  11  30
HETATM   30  O9  UNL     1      -5.402   0.469   1.821  1.00  0.00    -0.390 OA
ATOM     31  H9  UNL     1      -4.655   0.149   1.328  1.00  0.00     0.210 HD
ENDBRANCH  11  30
BRANCH   5  32
HETATM   32  C11 UNL     1      -8.170  -2.722   3.183  1.00  0.00     0.129 C 
HETATM   33  C12 UNL     1      -7.209  -3.795   3.408  1.00  0.00     0.040 C 
BRANCH  32  34
HETATM   34  O5  UNL     1      -9.455  -3.131   3.591  1.00  0.00    -0.395 OA
ATOM     35  H5  UNL     1      -9.973  -3.235   2.802  1.00  0.00     0.210 HD
ENDBRANCH  32  34
ENDBRANCH   5  32
BRANCH   6  36
HETATM   36  C14 UNL     1      -9.444   0.426   4.660  1.00  0.00    -0.011 C 
HETATM   37  C15 UNL     1     -10.332   0.565   5.592  1.00  0.00    -0.003 C 
BRANCH  37  38
HETATM   38  C16 UNL     1     -11.359  -0.408   5.970  1.00  0.00     0.004 C 
BRANCH  38  39
HETATM   39  C17 UNL     1     -12.613  -0.035   6.084  1.00  0.00     0.055 C 
BRANCH  39  40
HETATM   40  C18 UNL     1     -13.483   0.507   5.100  1.00  0.00     0.137 C 
BRANCH  40  41
HETATM   41  O6  UNL     1     -14.420  -0.312   4.682  1.00  0.00    -0.346 OA
ATOM     42  H6  UNL     1     -14.215  -0.774   3.877  1.00  0.00     0.219 HD
ENDBRANCH  40  41
BRANCH  40  43
HETATM   43  N1  UNL     1     -13.504   1.773   4.505  1.00  0.00    -0.371 N 
HETATM   44  C19 UNL     1     -13.166   1.868   3.073  1.00  0.00     0.151 C 
HETATM   45  C20 UNL     1     -13.823   3.029   5.131  1.00  0.00     0.151 C 
ENDBRANCH  40  43
ENDBRANCH  39  40
ENDBRANCH  38  39
ENDBRANCH  37  38
ENDBRANCH   6  36
TORSDOF 18
ENDMDL
MODEL 2
REMARK VINA RESULT: -6.685204738      2.543      3.679
REMARK  18 active torsions:
REMARK  status: ('A' for Active; 'I' for Inactive)
REMARK    1  A    between atoms: C2_2  and  O1_3 
REMARK    2  A    between atoms: O1_3  and  C3_4 
REMARK    3  A    between atoms: C3_4  and  C4_5 
REMARK    4  A    between atoms: C5_7  and  O3_8 
REMARK    5  A    between atoms: O3_8  and  C6_9 
REMARK    6  A    between atoms: C6_9  and  C7_10 
REMARK    7  A    between atoms: C10_14  and  C11_15 
REMARK    8  A    between atoms: C11_15  and  O5_17 
REMARK    9  A    between atoms: C13_19  and  C14_20 
REMARK   10  A    between atoms: C15_21  and  C16_22 
REMARK   11  A    between atoms: C16_22  and  C17_23 
REMARK   12  A    between atoms: C17_23  and  C18_24 
REMARK   13  A    between atoms: C18_24  and  O6_25 
REMARK   14  A    between atoms: C18_24  and  N1_27 
REMARK   15  A    between atoms: C23_34  and  O9_35 
REMARK   16  A    between atoms: C24_37  and  O10_38 
REMARK   17  A    between atoms: C25_40  and  O11_41 
REMARK   18  A    between atoms: C26_43  and  O12_44 
ROOT
HETATM    1  C7  UNL     1      -4.051  -0.418   6.078  1.00  0.00     0.177 C 
HETATM    2  O4  UNL     1      -5.345  -0.262   6.557  1.00  0.00    -0.375 OA
HETATM    3  C8  UNL     1      -6.090  -1.465   6.531  1.00  0.00     0.133 C 
HETATM    4  C9  UNL     1      -7.239  -1.418   7.475  1.00  0.00     0.040 C 
HETATM    5  C10 UNL     1      -6.326  -1.913   5.166  1.00  0.00     0.056 C 
HETATM    6  C13 UNL     1      -7.638  -1.494   4.492  1.00  0.00     0.124 C 
HETATM    7  C21 UNL     1      -7.157  -1.543   3.059  1.00  0.00     0.268 C 
HETATM    8  O7  UNL     1      -7.881  -1.496   2.040  1.00  0.00    -0.264 OA
HETATM    9  O8  UNL     1      -5.769  -1.651   3.023  1.00  0.00    -0.312 OA
HETATM   10  C22 UNL     1      -5.394  -1.136   4.259  1.00  0.00     0.178 C 
HETATM   11  C23 UNL     1      -4.010  -1.129   4.710  1.00  0.00     0.179 C 
ENDROOT
BRANCH   1  12
HETATM   12  C6  UNL     1      -3.104  -1.010   7.066  1.00  0.00     0.205 C 
BRANCH  12  13
HETATM   13  O3  UNL     1      -2.282  -0.017   7.527  1.00  0.00    -0.356 OA
BRANCH  13  14
HETATM   14  C5  UNL     1      -2.228   0.029   8.927  1.00  0.00     0.291 C 
HETATM   15  O2  UNL     1      -3.274  -0.692   9.394  1.00  0.00    -0.348 OA
HETATM   16  C4  UNL     1      -3.880  -0.255  10.578  1.00  0.00     0.179 C 
HETATM   17  C26 UNL     1      -2.831   0.441  11.405  1.00  0.00     0.180 C 
HETATM   18  C25 UNL     1      -2.450   1.723  10.754  1.00  0.00     0.183 C 
HETATM   19  C24 UNL     1      -2.139   1.461   9.319  1.00  0.00     0.204 C 
BRANCH  16  20
HETATM   20  C3  UNL     1      -4.308  -1.466  11.357  1.00  0.00     0.202 C 
BRANCH  20  21
HETATM   21  O1  UNL     1      -4.325  -1.318  12.664  1.00  0.00    -0.389 OA
BRANCH  21  22
HETATM   22  C2  UNL     1      -5.369  -1.160  13.466  1.00  0.00     0.163 C 
HETATM   23  C1  UNL     1      -6.749  -1.023  12.945  1.00  0.00     0.033 C 
ENDBRANCH  21  22
ENDBRANCH  20  21
ENDBRANCH  16  20
BRANCH  17  24
HETATM   24  O12 UNL     1      -1.741  -0.405  11.591  1.00  0.00    -0.390 OA
ATOM     25  H12 UNL     1      -1.660  -0.628  12.511  1.00  0.00     0.210 HD
ENDBRANCH  17  24
BRANCH  18  26
HETATM   26  O11 UNL     1      -3.487   2.641  10.920  1.00  0.00    -0.390 OA
ATOM     27  H11 UNL     1      -3.495   3.031  11.787  1.00  0.00     0.210 HD
ENDBRANCH  18  26
BRANCH  19  28
HETATM   28  O10 UNL     1      -2.904   2.299   8.507  1.00  0.00    -0.388 OA
ATOM     29  H10 UNL     1      -2.587   3.194   8.493  1.00  0.00     0.210 HD
ENDBRANCH  19  28
ENDBRANCH  13  14
ENDBRANCH  12  13
ENDBRANCH   1  12
BRANCH  11  30
HETATM   30  O9  UNL     1      -3.264  -0.352   3.787  1.00  0.00    -0.390 OA
ATOM     31  H9  UNL     1      -3.728  -0.303   2.959  1.00  0.00     0.210 HD
ENDBRANCH  11  30
BRANCH   5  32
HETATM   32  C11 UNL     1      -6.288  -3.390   4.938  1.00  0.00     0.129 C 
HETATM   33  C12 UNL     1      -5.330  -4.204   5.678  1.00  0.00     0.040 C 
BRANCH  32  34
HETATM   34  O5  UNL     1      -7.596  -3.868   5.154  1.00  0.00    -0.395 OA
ATOM     35  H5  UNL     1      -7.637  -4.157   6.058  1.00  0.00     0.210 HD
ENDBRANCH  32  34
ENDBRANCH   5  32
BRANCH   6  36
HETATM   36  C14 UNL     1      -8.087  -0.155   4.836  1.00  0.00    -0.011 C 
HETATM   37  C15 UNL     1      -9.293   0.125   5.215  1.00  0.00    -0.003 C 
BRANCH  37  38
HETATM   38  C16 UNL     1     -10.401  -0.820   5.366  1.00  0.00     0.004 C 
BRANCH  38  39
HETATM   39  C17 UNL     1     -11.321  -0.620   6.282  1.00  0.00     0.055 C 
BRANCH  39  40
HETATM   40  C18 UNL     1     -12.538   0.106   6.189  1.00  0.00     0.137 C 
BRANCH  40  41
HETATM   41  O6  UNL     1     -13.180   0.252   7.326  1.00  0.00    -0.346 OA
ATOM     42  H6  UNL     1     -14.102   0.465   7.239  1.00  0.00     0.219 HD
ENDBRANCH  40  41
BRANCH  40  43
HETATM   43  N1  UNL     1     -13.165   0.692   5.084  1.00  0.00    -0.371 N 
HETATM   44  C19 UNL     1     -12.607   1.953   4.564  1.00  0.00     0.151 C 
HETATM   45  C20 UNL     1     -14.317   0.205   4.372  1.00  0.00     0.151 C 
ENDBRANCH  40  43
ENDBRANCH  39  40
ENDBRANCH  38  39
ENDBRANCH  37  38
ENDBRANCH   6  36
TORSDOF 18
ENDMDL
MODEL 3
REMARK VINA RESULT: -6.657514294      2.964      8.147
REMARK  18 active torsions:
REMARK  status: ('A' for Active; 'I' for Inactive)
REMARK    1  A    between atoms: C2_2  and  O1_3 
REMARK    2  A    between atoms: O1_3  and  C3_4 
REMARK    3  A    between atoms: C3_4  and  C4_5 
REMARK    4  A    between atoms: C5_7  and  O3_8 
REMARK    5  A    between atoms: O3_8  and  C6_9 
REMARK    6  A    between atoms: C6_9  and  C7_10 
REMARK    7  A    between atoms: C10_14  and  C11_15 
REMARK    8  A    between atoms: C11_15  and  O5_17 
REMARK    9  A    between atoms: C13_19  and  C14_20 
REMARK   10  A    between atoms: C15_21  and  C16_22 
REMARK   11  A    between atoms: C16_22  and  C17_23 
REMARK   12  A    between atoms: C17_23  and  C18_24 
REMARK   13  A    between atoms: C18_24  and  O6_25 
REMARK   14  A    between atoms: C18_24  and  N1_27 
REMARK   15  A    between atoms: C23_34  and  O9_35 
REMARK   16  A    between atoms: C24_37  and  O10_38 
REMARK   17  A    between atoms: C25_40  and  O11_41 
REMARK   18  A    between atoms: C26_43  and  O12_44 
ROOT
HETATM    1  C7  UNL     1      -7.599  -2.392   5.002  1.00  0.00     0.177 C 
HETATM    2  O4  UNL     1      -7.617  -2.254   6.384  1.00  0.00    -0.375 OA
HETATM    3  C8  UNL     1      -7.268  -0.951   6.811  1.00  0.00     0.133 C 
HETATM    4  C9  UNL     1      -7.765  -0.674   8.185  1.00  0.00     0.040 C 
HETATM    5  C10 UNL     1      -5.880  -0.645   6.496  1.00  0.00     0.056 C 
HETATM    6  C13 UNL     1      -4.826  -0.905   7.578  1.00  0.00     0.124 C 
HETATM    7  C21 UNL     1      -3.642  -1.124   6.663  1.00  0.00     0.268 C 
HETATM    8  O7  UNL     1      -2.442  -1.169   7.014  1.00  0.00    -0.264 OA
HETATM    9  O8  UNL     1      -4.074  -1.269   5.347  1.00  0.00    -0.312 OA
HETATM   10  C22 UNL     1      -5.392  -1.683   5.506  1.00  0.00     0.178 C 
HETATM   11  C23 UNL     1      -6.288  -1.878   4.375  1.00  0.00     0.179 C 
ENDROOT
BRANCH   1  12
HETATM   12  C6  UNL     1      -8.813  -1.858   4.322  1.00  0.00     0.205 C 
BRANCH  12  13
HETATM   13  O3  UNL     1      -8.422  -1.223   3.172  1.00  0.00    -0.356 OA
BRANCH  13  14
HETATM   14  C5  UNL     1      -8.855   0.109   3.121  1.00  0.00     0.291 C 
HETATM   15  O2  UNL     1     -10.157   0.096   2.750  1.00  0.00    -0.348 OA
HETATM   16  C4  UNL     1     -10.609   1.152   1.952  1.00  0.00     0.179 C 
HETATM   17  C26 UNL     1      -9.784   2.368   2.281  1.00  0.00     0.180 C 
HETATM   18  C25 UNL     1      -8.393   2.177   1.791  1.00  0.00     0.183 C 
HETATM   19  C24 UNL     1      -7.894   0.853   2.263  1.00  0.00     0.204 C 
BRANCH  16  20
HETATM   20  C3  UNL     1     -12.022   1.470   2.353  1.00  0.00     0.202 C 
BRANCH  20  21
HETATM   21  O1  UNL     1     -12.479   0.798   3.388  1.00  0.00    -0.389 OA
BRANCH  21  22
HETATM   22  C2  UNL     1     -12.934   1.263   4.542  1.00  0.00     0.163 C 
HETATM   23  C1  UNL     1     -12.908   0.455   5.783  1.00  0.00     0.033 C 
ENDBRANCH  21  22
ENDBRANCH  20  21
ENDBRANCH  16  20
BRANCH  17  24
HETATM   24  O12 UNL     1      -9.835   2.615   3.651  1.00  0.00    -0.390 OA
ATOM     25  H12 UNL     1     -10.341   3.402   3.817  1.00  0.00     0.210 HD
ENDBRANCH  17  24
BRANCH  18  26
HETATM   26  O11 UNL     1      -8.382   2.291   0.401  1.00  0.00    -0.390 OA
ATOM     27  H11 UNL     1      -8.689   3.139   0.102  1.00  0.00     0.210 HD
ENDBRANCH  18  26
BRANCH  19  28
HETATM   28  O10 UNL     1      -7.436   0.104   1.178  1.00  0.00    -0.388 OA
ATOM     29  H10 UNL     1      -6.502   0.192   1.033  1.00  0.00     0.210 HD
ENDBRANCH  19  28
ENDBRANCH  13  14
ENDBRANCH  12  13
ENDBRANCH   1  12
BRANCH  11  30
HETATM   30  O9  UNL     1      -5.721  -2.885   3.552  1.00  0.00    -0.390 OA
ATOM     31  H9  UNL     1      -5.020  -2.516   3.028  1.00  0.00     0.210 HD
ENDBRANCH  11  30
BRANCH   5  32
HETATM   32  C11 UNL     1      -5.591   0.762   6.078  1.00  0.00     0.129 C 
HETATM   33  C12 UNL     1      -6.682   1.604   5.599  1.00  0.00     0.040 C 
BRANCH  32  34
HETATM   34  O5  UNL     1      -4.943   1.383   7.163  1.00  0.00    -0.395 OA
ATOM     35  H5  UNL     1      -4.011   1.245   7.042  1.00  0.00     0.210 HD
ENDBRANCH  32  34
ENDBRANCH   5  32
BRANCH   6  36
HETATM   36  C14 UNL     1      -5.075  -2.089   8.384  1.00  0.00    -0.011 C 
HETATM   37  C15 UNL     1      -4.790  -2.176   9.644  1.00  0.00    -0.003 C 
BRANCH  37  38
HETATM   38  C16 UNL     1      -4.181  -1.134  10.474  1.00  0.00     0.004 C 
BRANCH  38  39
HETATM   39  C17 UNL     1      -4.895  -0.513  11.384  1.00  0.00     0.055 C 
BRANCH  39  40
HETATM   40  C18 UNL     1      -5.574  -1.046  12.513  1.00  0.00     0.137 C 
BRANCH  40  41
HETATM   41  O6  UNL     1      -4.789  -1.482  13.472  1.00  0.00    -0.346 OA
ATOM     42  H6  UNL     1      -4.949  -1.094  14.324  1.00  0.00     0.219 HD
ENDBRANCH  40  41
BRANCH  40  43
HETATM   43  N1  UNL     1      -6.942  -1.180  12.769  1.00  0.00    -0.371 N 
HETATM   44  C19 UNL     1      -7.360  -1.454  14.157  1.00  0.00     0.151 C 
HETATM   45  C20 UNL     1      -8.023  -1.082  11.825  1.00  0.00     0.151 C 
ENDBRANCH  40  43
ENDBRANCH  39  40
ENDBRANCH  38  39
ENDBRANCH  37  38
ENDBRANCH   6  36
TORSDOF 18
ENDMDL
MODEL 4
REMARK VINA RESULT: -6.607954029      2.674      4.468
REMARK  18 active torsions:
REMARK  status: ('A' for Active; 'I' for Inactive)
REMARK    1  A    between atoms: C2_2  and  O1_3 
REMARK    2  A    between atoms: O1_3  and  C3_4 
REMARK    3  A    between atoms: C3_4  and  C4_5 
REMARK    4  A    between atoms: C5_7  and  O3_8 
REMARK    5  A    between atoms: O3_8  and  C6_9 
REMARK    6  A    between atoms: C6_9  and  C7_10 
REMARK    7  A    between atoms: C10_14  and  C11_15 
REMARK    8  A    between atoms: C11_15  and  O5_17 
REMARK    9  A    between atoms: C13_19  and  C14_20 
REMARK   10  A    between atoms: C15_21  and  C16_22 
REMARK   11  A    between atoms: C16_22  and  C17_23 
REMARK   12  A    between atoms: C17_23  and  C18_24 
REMARK   13  A    between atoms: C18_24  and  O6_25 
REMARK   14  A    between atoms: C18_24  and  N1_27 
REMARK   15  A    between atoms: C23_34  and  O9_35 
REMARK   16  A    between atoms: C24_37  and  O10_38 
REMARK   17  A    between atoms: C25_40  and  O11_41 
REMARK   18  A    between atoms: C26_43  and  O12_44 
ROOT
HETATM    1  C7  UNL     1      -4.395  -2.001   6.247  1.00  0.00     0.177 C 
HETATM    2  O4  UNL     1      -4.624  -0.774   5.637  1.00  0.00    -0.375 OA
HETATM    3  C8  UNL     1      -5.638  -0.023   6.276  1.00  0.00     0.133 C 
HETATM    4  C9  UNL     1      -5.529   1.425   5.959  1.00  0.00     0.040 C 
HETATM    5  C10 UNL     1      -6.936  -0.671   6.149  1.00  0.00     0.056 C 
HETATM    6  C13 UNL     1      -7.837  -0.243   4.984  1.00  0.00     0.124 C 
HETATM    7  C21 UNL     1      -8.619  -1.530   4.847  1.00  0.00     0.268 C 
HETATM    8  O7  UNL     1      -9.662  -1.687   4.174  1.00  0.00    -0.264 OA
HETATM    9  O8  UNL     1      -8.011  -2.542   5.587  1.00  0.00    -0.312 OA
HETATM   10  C22 UNL     1      -6.699  -2.094   5.688  1.00  0.00     0.178 C 
HETATM   11  C23 UNL     1      -5.694  -2.801   6.469  1.00  0.00     0.179 C 
ENDROOT
BRANCH   1  12
HETATM   12  C6  UNL     1      -3.547  -1.923   7.470  1.00  0.00     0.205 C 
BRANCH  12  13
HETATM   13  O3  UNL     1      -3.157  -0.622   7.645  1.00  0.00    -0.356 OA
BRANCH  13  14
HETATM   14  C5  UNL     1      -2.749  -0.356   8.960  1.00  0.00     0.291 C 
HETATM   15  O2  UNL     1      -3.653  -0.930   9.787  1.00  0.00    -0.348 OA
HETATM   16  C4  UNL     1      -3.932  -0.276  10.992  1.00  0.00     0.179 C 
HETATM   17  C26 UNL     1      -2.697   0.482  11.403  1.00  0.00     0.180 C 
HETATM   18  C25 UNL     1      -2.473   1.619  10.471  1.00  0.00     0.183 C 
HETATM   19  C24 UNL     1      -2.541   1.113   9.069  1.00  0.00     0.204 C 
BRANCH  16  20
HETATM   20  C3  UNL     1      -4.168  -1.319  12.047  1.00  0.00     0.202 C 
BRANCH  20  21
HETATM   21  O1  UNL     1      -4.728  -0.884  13.155  1.00  0.00    -0.389 OA
BRANCH  21  22
HETATM   22  C2  UNL     1      -5.795  -1.356  13.783  1.00  0.00     0.163 C 
HETATM   23  C1  UNL     1      -7.172  -1.106  13.296  1.00  0.00     0.033 C 
ENDBRANCH  21  22
ENDBRANCH  20  21
ENDBRANCH  16  20
BRANCH  17  24
HETATM   24  O12 UNL     1      -1.608  -0.385  11.454  1.00  0.00    -0.390 OA
ATOM     25  H12 UNL     1      -1.410  -0.702  10.580  1.00  0.00     0.210 HD
ENDBRANCH  17  24
BRANCH  18  26
HETATM   26  O11 UNL     1      -3.419   2.611  10.730  1.00  0.00    -0.390 OA
ATOM     27  H11 UNL     1      -3.308   3.007  11.587  1.00  0.00     0.210 HD
ENDBRANCH  18  26
BRANCH  19  28
HETATM   28  O10 UNL     1      -3.473   1.853   8.342  1.00  0.00    -0.388 OA
ATOM     29  H10 UNL     1      -3.123   2.673   8.014  1.00  0.00     0.210 HD
ENDBRANCH  19  28
ENDBRANCH  13  14
ENDBRANCH  12  13
ENDBRANCH   1  12
BRANCH  11  30
HETATM   30  O9  UNL     1      -5.560  -4.100   5.915  1.00  0.00    -0.390 OA
ATOM     31  H9  UNL     1      -6.221  -4.676   6.281  1.00  0.00     0.210 HD
ENDBRANCH  11  30
BRANCH   5  32
HETATM   32  C11 UNL     1      -7.846  -0.569   7.332  1.00  0.00     0.129 C 
HETATM   33  C12 UNL     1      -7.295  -0.724   8.673  1.00  0.00     0.040 C 
BRANCH  32  34
HETATM   34  O5  UNL     1      -8.515   0.666   7.225  1.00  0.00    -0.395 OA
ATOM     35  H5  UNL     1      -9.407   0.520   7.516  1.00  0.00     0.210 HD
ENDBRANCH  32  34
ENDBRANCH   5  32
BRANCH   6  36
HETATM   36  C14 UNL     1      -7.125   0.057   3.754  1.00  0.00    -0.011 C 
HETATM   37  C15 UNL     1      -7.438   1.029   2.959  1.00  0.00    -0.003 C 
BRANCH  37  38
HETATM   38  C16 UNL     1      -8.535   1.983   3.137  1.00  0.00     0.004 C 
BRANCH  38  39
HETATM   39  C17 UNL     1      -9.611   1.901   2.389  1.00  0.00     0.055 C 
BRANCH  39  40
HETATM   40  C18 UNL     1     -10.752   1.069   2.543  1.00  0.00     0.137 C 
BRANCH  40  41
HETATM   41  O6  UNL     1     -10.727  -0.037   1.835  1.00  0.00    -0.346 OA
ATOM     42  H6  UNL     1     -11.141  -0.785   2.250  1.00  0.00     0.219 HD
ENDBRANCH  40  41
BRANCH  40  43
HETATM   43  N1  UNL     1     -11.899   1.236   3.327  1.00  0.00    -0.371 N 
HETATM   44  C19 UNL     1     -11.753   1.138   4.791  1.00  0.00     0.151 C 
HETATM   45  C20 UNL     1     -13.239   1.498   2.873  1.00  0.00     0.151 C 
ENDBRANCH  40  43
ENDBRANCH  39  40
ENDBRANCH  38  39
ENDBRANCH  37  38
ENDBRANCH   6  36
TORSDOF 18
ENDMDL
MODEL 5
REMARK VINA RESULT: -6.524083648      2.874      8.384
REMARK  18 active torsions:
REMARK  status: ('A' for Active; 'I' for Inactive)
REMARK    1  A    between atoms: C2_2  and  O1_3 
REMARK    2  A    between atoms: O1_3  and  C3_4 
REMARK    3  A    between atoms: C3_4  and  C4_5 
REMARK    4  A    between atoms: C5_7  and  O3_8 
REMARK    5  A    between atoms: O3_8  and  C6_9 
REMARK    6  A    between atoms: C6_9  and  C7_10 
REMARK    7  A    between atoms: C10_14  and  C11_15 
REMARK    8  A    between atoms: C11_15  and  O5_17 
REMARK    9  A    between atoms: C13_19  and  C14_20 
REMARK   10  A    between atoms: C15_21  and  C16_22 
REMARK   11  A    between atoms: C16_22  and  C17_23 
REMARK   12  A    between atoms: C17_23  and  C18_24 
REMARK   13  A    between atoms: C18_24  and  O6_25 
REMARK   14  A    between atoms: C18_24  and  N1_27 
REMARK   15  A    between atoms: C23_34  and  O9_35 
REMARK   16  A    between atoms: C24_37  and  O10_38 
REMARK   17  A    between atoms: C25_40  and  O11_41 
REMARK   18  A    between atoms: C26_43  and  O12_44 
ROOT
HETATM    1  C7  UNL     1      -4.947   0.739   5.512  1.00  0.00     0.177 C 
HETATM    2  O4  UNL     1      -4.943  -0.646   5.407  1.00  0.00    -0.375 OA
HETATM    3  C8  UNL     1      -5.953  -1.260   6.184  1.00  0.00     0.133 C 
HETATM    4  C9  UNL     1      -6.265  -2.629   5.694  1.00  0.00     0.040 C 
HETATM    5  C10 UNL     1      -5.718  -1.065   7.608  1.00  0.00     0.056 C 
HETATM    6  C13 UNL     1      -4.957  -2.160   8.364  1.00  0.00     0.124 C 
HETATM    7  C21 UNL     1      -4.382  -1.291   9.460  1.00  0.00     0.268 C 
HETATM    8  O7  UNL     1      -3.834  -1.698  10.508  1.00  0.00    -0.264 OA
HETATM    9  O8  UNL     1      -4.550   0.055   9.142  1.00  0.00    -0.312 OA
HETATM   10  C22 UNL     1      -4.676   0.024   7.758  1.00  0.00     0.178 C 
HETATM   11  C23 UNL     1      -4.963   1.219   6.977  1.00  0.00     0.179 C 
ENDROOT
BRANCH   1  12
HETATM   12  C6  UNL     1      -5.981   1.409   4.673  1.00  0.00     0.205 C 
BRANCH  12  13
HETATM   13  O3  UNL     1      -6.139   0.686   3.520  1.00  0.00    -0.356 OA
BRANCH  13  14
HETATM   14  C5  UNL     1      -7.460   0.704   3.052  1.00  0.00     0.291 C 
HETATM   15  O2  UNL     1      -8.272   0.725   4.135  1.00  0.00    -0.348 OA
HETATM   16  C4  UNL     1      -9.492   0.046   4.039  1.00  0.00     0.179 C 
HETATM   17  C26 UNL     1      -9.923   0.071   2.596  1.00  0.00     0.180 C 
HETATM   18  C25 UNL     1      -9.020  -0.790   1.788  1.00  0.00     0.183 C 
HETATM   19  C24 UNL     1      -7.605  -0.425   2.095  1.00  0.00     0.204 C 
BRANCH  16  20
HETATM   20  C3  UNL     1     -10.521   0.823   4.810  1.00  0.00     0.202 C 
BRANCH  20  21
HETATM   21  O1  UNL     1     -11.772   0.572   4.491  1.00  0.00    -0.389 OA
BRANCH  21  22
HETATM   22  C2  UNL     1     -12.839   0.558   5.277  1.00  0.00     0.163 C 
HETATM   23  C1  UNL     1     -12.893  -0.248   6.520  1.00  0.00     0.033 C 
ENDBRANCH  21  22
ENDBRANCH  20  21
ENDBRANCH  16  20
BRANCH  17  24
HETATM   24  O12 UNL     1      -9.955   1.386   2.138  1.00  0.00    -0.390 OA
ATOM     25  H12 UNL     1      -9.251   1.883   2.539  1.00  0.00     0.210 HD
ENDBRANCH  17  24
BRANCH  18  26
HETATM   26  O11 UNL     1      -9.301  -2.128   2.064  1.00  0.00    -0.390 OA
ATOM     27  H11 UNL     1     -10.123  -2.240   2.527  1.00  0.00     0.210 HD
ENDBRANCH  18  26
BRANCH  19  28
HETATM   28  O10 UNL     1      -6.895  -1.562   2.479  1.00  0.00    -0.388 OA
ATOM     29  H10 UNL     1      -6.993  -2.286   1.871  1.00  0.00     0.210 HD
ENDBRANCH  19  28
ENDBRANCH  13  14
ENDBRANCH  12  13
ENDBRANCH   1  12
BRANCH  11  30
HETATM   30  O9  UNL     1      -3.902   2.135   7.194  1.00  0.00    -0.390 OA
ATOM     31  H9  UNL     1      -4.075   2.651   7.973  1.00  0.00     0.210 HD
ENDBRANCH  11  30
BRANCH   5  32
HETATM   32  C11 UNL     1      -6.932  -0.853   8.456  1.00  0.00     0.129 C 
HETATM   33  C12 UNL     1      -8.171  -0.404   7.832  1.00  0.00     0.040 C 
BRANCH  32  34
HETATM   34  O5  UNL     1      -7.152  -2.054   9.158  1.00  0.00    -0.395 OA
ATOM     35  H5  UNL     1      -8.077  -2.080   9.372  1.00  0.00     0.210 HD
ENDBRANCH  32  34
ENDBRANCH   5  32
BRANCH   6  36
HETATM   36  C14 UNL     1      -3.893  -2.788   7.598  1.00  0.00    -0.011 C 
HETATM   37  C15 UNL     1      -3.555  -4.031   7.721  1.00  0.00    -0.003 C 
BRANCH  37  38
HETATM   38  C16 UNL     1      -4.156  -5.013   8.626  1.00  0.00     0.004 C 
BRANCH  38  39
HETATM   39  C17 UNL     1      -5.001  -5.907   8.165  1.00  0.00     0.055 C 
BRANCH  39  40
HETATM   40  C18 UNL     1      -5.435  -7.123   8.757  1.00  0.00     0.137 C 
BRANCH  40  41
HETATM   41  O6  UNL     1      -6.638  -7.511   8.399  1.00  0.00    -0.346 OA
ATOM     42  H6  UNL     1      -6.662  -8.307   7.881  1.00  0.00     0.219 HD
ENDBRANCH  40  41
BRANCH  40  43
HETATM   43  N1  UNL     1      -4.789  -7.976   9.659  1.00  0.00    -0.371 N 
HETATM   44  C19 UNL     1      -3.915  -9.028   9.108  1.00  0.00     0.151 C 
HETATM   45  C20 UNL     1      -4.873  -7.955  11.095  1.00  0.00     0.151 C 
ENDBRANCH  40  43
ENDBRANCH  39  40
ENDBRANCH  38  39
ENDBRANCH  37  38
ENDBRANCH   6  36
TORSDOF 18
ENDMDL
