MODEL 1
REMARK VINA RESULT: -8.256255452      0.000      0.000
REMARK  17 active torsions:
REMARK  status: ('A' for Active; 'I' for Inactive)
REMARK    1  A    between atoms: C2_2  and  C3_4 
REMARK    2  A    between atoms: C4_5  and  O1_6 
REMARK    3  A    between atoms: O1_6  and  C5_7 
REMARK    4  A    between atoms: C5_7  and  C6_8 
REMARK    5  A    between atoms: C6_8  and  O2_10 
REMARK    6  A    between atoms: O2_10  and  C8_11 
REMARK    7  A    between atoms: C9_12  and  O3_13 
REMARK    8  A    between atoms: C10_15  and  O4_16 
REMARK    9  A    between atoms: C11_18  and  O5_19 
REMARK   10  A    between atoms: O5_19  and  C12_20 
REMARK   11  A    between atoms: C12_20  and  C13_22 
REMARK   12  A    between atoms: C19_28  and  O7_29 
REMARK   13  A    between atoms: O7_29  and  C20_30 
REMARK   14  A    between atoms: C22_33  and  O9_34 
REMARK   15  A    between atoms: C23_36  and  O10_37 
REMARK   16  A    between atoms: C24_39  and  O11_40 
REMARK   17  A    between atoms: C25_42  and  C26_43 
ROOT
HETATM    1  C8  UNL     1      -5.013   0.607   6.609  1.00  0.00     0.184 C 
HETATM    2  C9  UNL     1      -5.567  -0.717   7.026  1.00  0.00     0.181 C 
HETATM    3  C10 UNL     1      -5.392  -0.786   8.550  1.00  0.00     0.181 C 
HETATM    4  C11 UNL     1      -3.937  -0.829   8.821  1.00  0.00     0.195 C 
HETATM    5  C19 UNL     1      -3.148   0.297   8.186  1.00  0.00     0.195 C 
HETATM    6  C22 UNL     1      -3.492   0.548   6.763  1.00  0.00     0.181 C 
ENDROOT
BRANCH   1   7
HETATM    7  O2  UNL     1      -5.254   0.965   5.303  1.00  0.00    -0.373 OA
BRANCH   7   8
HETATM    8  C6  UNL     1      -6.065   2.083   5.164  1.00  0.00     0.142 C 
HETATM    9  C7  UNL     1      -5.397   3.175   4.361  1.00  0.00     0.042 C 
BRANCH   8  10
HETATM   10  C5  UNL     1      -7.286   1.643   4.377  1.00  0.00     0.199 C 
BRANCH  10  11
HETATM   11  O1  UNL     1      -7.228   0.318   4.034  1.00  0.00    -0.380 OA
BRANCH  11  12
HETATM   12  C4  UNL     1      -7.086   0.010   2.710  1.00  0.00     0.163 C 
HETATM   13  C3  UNL     1      -6.328  -1.330   2.588  1.00  0.00     0.077 C 
HETATM   14  C25 UNL     1      -7.131  -2.098   3.617  1.00  0.00     0.098 C 
HETATM   15  C24 UNL     1      -8.578  -1.752   3.164  1.00  0.00     0.161 C 
HETATM   16  C23 UNL     1      -8.464  -0.587   2.223  1.00  0.00     0.177 C 
BRANCH  13  17
HETATM   17  C2  UNL     1      -4.912  -1.198   2.826  1.00  0.00     0.022 C 
HETATM   18  C1  UNL     1      -4.086  -0.449   2.148  1.00  0.00     0.035 C 
HETATM   19  N1  UNL     1      -4.317  -1.912   3.933  1.00  0.00    -0.107 NA
ENDBRANCH  13  17
BRANCH  14  20
HETATM   20  C26 UNL     1      -7.012  -3.568   3.506  1.00  0.00     0.130 C 
HETATM   21  C27 UNL     1      -7.391  -4.224   2.232  1.00  0.00     0.091 C 
HETATM   22  O12 UNL     1      -6.615  -4.234   4.419  1.00  0.00    -0.298 OA
ENDBRANCH  14  20
BRANCH  15  23
HETATM   23  O11 UNL     1      -9.409  -1.540   4.240  1.00  0.00    -0.392 OA
ATOM     24  H11 UNL     1      -9.027  -1.754   5.083  1.00  0.00     0.210 HD
ENDBRANCH  15  23
BRANCH  16  25
HETATM   25  O10 UNL     1      -9.458   0.348   2.320  1.00  0.00    -0.390 OA
ATOM     26  H10 UNL     1      -9.115   1.220   2.168  1.00  0.00     0.210 HD
ENDBRANCH  16  25
ENDBRANCH  11  12
ENDBRANCH  10  11
ENDBRANCH   8  10
ENDBRANCH   7   8
ENDBRANCH   1   7
BRANCH   2  27
HETATM   27  O3  UNL     1      -6.889  -0.910   6.705  1.00  0.00    -0.390 OA
ATOM     28  H3  UNL     1      -7.143  -1.819   6.609  1.00  0.00     0.210 HD
ENDBRANCH   2  27
BRANCH   6  29
HETATM   29  O9  UNL     1      -2.932  -0.443   5.974  1.00  0.00    -0.390 OA
ATOM     30  H9  UNL     1      -2.520  -1.121   6.496  1.00  0.00     0.210 HD
ENDBRANCH   6  29
BRANCH   3  31
HETATM   31  O4  UNL     1      -5.932  -2.033   8.921  1.00  0.00    -0.390 OA
ATOM     32  H4  UNL     1      -6.872  -1.896   8.939  1.00  0.00     0.210 HD
ENDBRANCH   3  31
BRANCH   5  33
HETATM   33  O7  UNL     1      -1.802  -0.071   8.394  1.00  0.00    -0.311 OA
BRANCH  33  34
HETATM   34  C20 UNL     1      -0.767   0.794   8.622  1.00  0.00     0.255 C 
HETATM   35  C21 UNL     1      -1.017   2.244   8.871  1.00  0.00     0.126 C 
HETATM   36  O8  UNL     1       0.382   0.289   8.607  1.00  0.00    -0.266 OA
ENDBRANCH  33  34
ENDBRANCH   5  33
BRANCH   4  37
HETATM   37  O5  UNL     1      -3.612  -0.896  10.192  1.00  0.00    -0.307 OA
BRANCH  37  38
HETATM   38  C12 UNL     1      -4.000   0.003  11.145  1.00  0.00     0.293 C 
HETATM   39  O6  UNL     1      -3.374   1.098  11.210  1.00  0.00    -0.259 OA
BRANCH  38  40
HETATM   40  C13 UNL     1      -5.089  -0.265  12.062  1.00  0.00     0.039 A 
HETATM   41  C14 UNL     1      -4.787  -0.644  13.358  1.00  0.00     0.017 A 
HETATM   42  C15 UNL     1      -5.832  -0.896  14.222  1.00  0.00     0.001 A 
HETATM   43  C16 UNL     1      -7.153  -0.783  13.837  1.00  0.00     0.000 A 
HETATM   44  C17 UNL     1      -7.399  -0.402  12.533  1.00  0.00     0.001 A 
HETATM   45  C18 UNL     1      -6.397  -0.142  11.643  1.00  0.00     0.017 A 
ENDBRANCH  38  40
ENDBRANCH  37  38
ENDBRANCH   4  37
TORSDOF 17
ENDMDL
MODEL 2
REMARK VINA RESULT: -8.007044613      1.559      2.808
REMARK  17 active torsions:
REMARK  status: ('A' for Active; 'I' for Inactive)
REMARK    1  A    between atoms: C2_2  and  C3_4 
REMARK    2  A    between atoms: C4_5  and  O1_6 
REMARK    3  A    between atoms: O1_6  and  C5_7 
REMARK    4  A    between atoms: C5_7  and  C6_8 
REMARK    5  A    between atoms: C6_8  and  O2_10 
REMARK    6  A    between atoms: O2_10  and  C8_11 
REMARK    7  A    between atoms: C9_12  and  O3_13 
REMARK    8  A    between atoms: C10_15  and  O4_16 
REMARK    9  A    between atoms: C11_18  and  O5_19 
REMARK   10  A    between atoms: O5_19  and  C12_20 
REMARK   11  A    between atoms: C12_20  and  C13_22 
REMARK   12  A    between atoms: C19_28  and  O7_29 
REMARK   13  A    between atoms: O7_29  and  C20_30 
REMARK   14  A    between atoms: C22_33  and  O9_34 
REMARK   15  A    between atoms: C23_36  and  O10_37 
REMARK   16  A    between atoms: C24_39  and  O11_40 
REMARK   17  A    between atoms: C25_42  and  C26_43 
ROOT
HETATM    1  C8  UNL     1      -4.025  -0.659   6.073  1.00  0.00     0.184 C 
HETATM    2  C9  UNL     1      -4.851  -1.546   6.947  1.00  0.00     0.181 C 
HETATM    3  C10 UNL     1      -5.245  -0.692   8.161  1.00  0.00     0.181 C 
HETATM    4  C11 UNL     1      -4.002  -0.397   8.909  1.00  0.00     0.195 C 
HETATM    5  C19 UNL     1      -2.904   0.231   8.076  1.00  0.00     0.195 C 
HETATM    6  C22 UNL     1      -2.681  -0.437   6.769  1.00  0.00     0.181 C 
ENDROOT
BRANCH   1   7
HETATM    7  O2  UNL     1      -3.735  -1.161   4.826  1.00  0.00    -0.373 OA
BRANCH   7   8
HETATM    8  C6  UNL     1      -4.329  -0.464   3.783  1.00  0.00     0.142 C 
HETATM    9  C7  UNL     1      -3.310   0.176   2.870  1.00  0.00     0.042 C 
BRANCH   8  10
HETATM   10  C5  UNL     1      -5.088  -1.482   2.952  1.00  0.00     0.199 C 
BRANCH  10  11
HETATM   11  O1  UNL     1      -6.339  -1.041   2.612  1.00  0.00    -0.380 OA
BRANCH  11  12
HETATM   12  C4  UNL     1      -7.395  -1.497   3.350  1.00  0.00     0.163 C 
HETATM   13  C3  UNL     1      -8.320  -0.307   3.686  1.00  0.00     0.077 C 
HETATM   14  C25 UNL     1      -8.375   0.290   2.296  1.00  0.00     0.098 C 
HETATM   15  C24 UNL     1      -8.688  -0.979   1.453  1.00  0.00     0.161 C 
HETATM   16  C23 UNL     1      -8.413  -2.159   2.340  1.00  0.00     0.177 C 
BRANCH  13  17
HETATM   17  C2  UNL     1      -7.799   0.528   4.739  1.00  0.00     0.022 C 
HETATM   18  C1  UNL     1      -7.130   1.637   4.580  1.00  0.00     0.035 C 
HETATM   19  N1  UNL     1      -8.052   0.163   6.114  1.00  0.00    -0.107 NA
ENDBRANCH  13  17
BRANCH  14  20
HETATM   20  C26 UNL     1      -9.511   1.213   2.076  1.00  0.00     0.130 C 
HETATM   21  C27 UNL     1      -9.271   2.484   1.354  1.00  0.00     0.091 C 
HETATM   22  O12 UNL     1     -10.614   0.952   2.465  1.00  0.00    -0.298 OA
ENDBRANCH  14  20
BRANCH  15  23
HETATM   23  O11 UNL     1      -7.994  -0.981   0.264  1.00  0.00    -0.392 OA
ATOM     24  H11 UNL     1      -8.322  -0.373  -0.386  1.00  0.00     0.210 HD
ENDBRANCH  15  23
BRANCH  16  25
HETATM   25  O10 UNL     1      -7.849  -3.241   1.723  1.00  0.00    -0.390 OA
ATOM     26  H10 UNL     1      -8.402  -4.008   1.816  1.00  0.00     0.210 HD
ENDBRANCH  16  25
ENDBRANCH  11  12
ENDBRANCH  10  11
ENDBRANCH   8  10
ENDBRANCH   7   8
ENDBRANCH   1   7
BRANCH   2  27
HETATM   27  O3  UNL     1      -5.983  -2.044   6.348  1.00  0.00    -0.390 OA
ATOM     28  H3  UNL     1      -5.828  -2.761   5.745  1.00  0.00     0.210 HD
ENDBRANCH   2  27
BRANCH   6  29
HETATM   29  O9  UNL     1      -2.002  -1.627   6.972  1.00  0.00    -0.390 OA
ATOM     30  H9  UNL     1      -1.089  -1.481   7.188  1.00  0.00     0.210 HD
ENDBRANCH   6  29
BRANCH   3  31
HETATM   31  O4  UNL     1      -6.033  -1.542   8.962  1.00  0.00    -0.390 OA
ATOM     32  H4  UNL     1      -6.339  -0.992   9.674  1.00  0.00     0.210 HD
ENDBRANCH   3  31
BRANCH   5  33
HETATM   33  O7  UNL     1      -1.780   0.216   8.927  1.00  0.00    -0.311 OA
BRANCH  33  34
HETATM   34  C20 UNL     1      -0.574   0.807   8.663  1.00  0.00     0.255 C 
HETATM   35  C21 UNL     1      -0.402   2.286   8.772  1.00  0.00     0.126 C 
HETATM   36  O8  UNL     1       0.354   0.031   8.331  1.00  0.00    -0.266 OA
ENDBRANCH  33  34
ENDBRANCH   5  33
BRANCH   4  37
HETATM   37  O5  UNL     1      -4.202   0.387  10.065  1.00  0.00    -0.307 OA
BRANCH  37  38
HETATM   38  C12 UNL     1      -4.066  -0.048  11.353  1.00  0.00     0.293 C 
HETATM   39  O6  UNL     1      -2.895  -0.214  11.797  1.00  0.00    -0.259 OA
BRANCH  38  40
HETATM   40  C13 UNL     1      -5.209  -0.317  12.202  1.00  0.00     0.039 A 
HETATM   41  C14 UNL     1      -4.986  -0.678  13.519  1.00  0.00     0.017 A 
HETATM   42  C15 UNL     1      -6.081  -0.931  14.318  1.00  0.00     0.001 A 
HETATM   43  C16 UNL     1      -7.377  -0.835  13.849  1.00  0.00     0.000 A 
HETATM   44  C17 UNL     1      -7.543  -0.471  12.528  1.00  0.00     0.001 A 
HETATM   45  C18 UNL     1      -6.488  -0.211  11.701  1.00  0.00     0.017 A 
ENDBRANCH  38  40
ENDBRANCH  37  38
ENDBRANCH   4  37
TORSDOF 17
ENDMDL
MODEL 3
REMARK VINA RESULT: -7.994703333      1.925      3.693
REMARK  17 active torsions:
REMARK  status: ('A' for Active; 'I' for Inactive)
REMARK    1  A    between atoms: C2_2  and  C3_4 
REMARK    2  A    between atoms: C4_5  and  O1_6 
REMARK    3  A    between atoms: O1_6  and  C5_7 
REMARK    4  A    between atoms: C5_7  and  C6_8 
REMARK    5  A    between atoms: C6_8  and  O2_10 
REMARK    6  A    between atoms: O2_10  and  C8_11 
REMARK    7  A    between atoms: C9_12  and  O3_13 
REMARK    8  A    between atoms: C10_15  and  O4_16 
REMARK    9  A    between atoms: C11_18  and  O5_19 
REMARK   10  A    between atoms: O5_19  and  C12_20 
REMARK   11  A    between atoms: C12_20  and  C13_22 
REMARK   12  A    between atoms: C19_28  and  O7_29 
REMARK   13  A    between atoms: O7_29  and  C20_30 
REMARK   14  A    between atoms: C22_33  and  O9_34 
REMARK   15  A    between atoms: C23_36  and  O10_37 
REMARK   16  A    between atoms: C24_39  and  O11_40 
REMARK   17  A    between atoms: C25_42  and  C26_43 
ROOT
HETATM    1  C8  UNL     1      -4.270   0.661   5.314  1.00  0.00     0.184 C 
HETATM    2  C9  UNL     1      -3.146   1.025   6.229  1.00  0.00     0.181 C 
HETATM    3  C10 UNL     1      -3.180  -0.004   7.368  1.00  0.00     0.181 C 
HETATM    4  C11 UNL     1      -4.434   0.220   8.123  1.00  0.00     0.195 C 
HETATM    5  C19 UNL     1      -5.687   0.203   7.274  1.00  0.00     0.195 C 
HETATM    6  C22 UNL     1      -5.581   0.999   6.024  1.00  0.00     0.181 C 
ENDROOT
BRANCH   1   7
HETATM    7  O2  UNL     1      -4.298   1.333   4.114  1.00  0.00    -0.373 OA
BRANCH   7   8
HETATM    8  C6  UNL     1      -5.089   0.730   3.146  1.00  0.00     0.142 C 
HETATM    9  C7  UNL     1      -5.057   1.479   1.835  1.00  0.00     0.042 C 
BRANCH   8  10
HETATM   10  C5  UNL     1      -4.493  -0.641   2.884  1.00  0.00     0.199 C 
BRANCH  10  11
HETATM   11  O1  UNL     1      -5.451  -1.619   2.842  1.00  0.00    -0.380 OA
BRANCH  11  12
HETATM   12  C4  UNL     1      -6.570  -1.447   3.608  1.00  0.00     0.163 C 
HETATM   13  C3  UNL     1      -7.804  -1.897   2.796  1.00  0.00     0.077 C 
HETATM   14  C25 UNL     1      -7.238  -3.211   2.301  1.00  0.00     0.098 C 
HETATM   15  C24 UNL     1      -6.677  -3.798   3.628  1.00  0.00     0.161 C 
HETATM   16  C23 UNL     1      -6.635  -2.665   4.612  1.00  0.00     0.177 C 
BRANCH  13  17
HETATM   17  C2  UNL     1      -8.200  -0.936   1.798  1.00  0.00     0.022 C 
HETATM   18  C1  UNL     1      -7.728  -0.848   0.584  1.00  0.00     0.035 C 
HETATM   19  N1  UNL     1      -9.242   0.015   2.114  1.00  0.00    -0.107 NA
ENDBRANCH  13  17
BRANCH  14  20
HETATM   20  C26 UNL     1      -8.259  -4.174   1.831  1.00  0.00     0.130 C 
HETATM   21  C27 UNL     1      -7.846  -5.564   1.529  1.00  0.00     0.091 C 
HETATM   22  O12 UNL     1      -9.405  -3.853   1.694  1.00  0.00    -0.298 OA
ENDBRANCH  14  20
BRANCH  15  23
HETATM   23  O11 UNL     1      -5.471  -4.431   3.432  1.00  0.00    -0.392 OA
ATOM     24  H11 UNL     1      -5.112  -4.336   2.558  1.00  0.00     0.210 HD
ENDBRANCH  15  23
BRANCH  16  25
HETATM   25  O10 UNL     1      -5.559  -2.656   5.455  1.00  0.00    -0.390 OA
ATOM     26  H10 UNL     1      -5.055  -3.456   5.366  1.00  0.00     0.210 HD
ENDBRANCH  16  25
ENDBRANCH  11  12
ENDBRANCH  10  11
ENDBRANCH   8  10
ENDBRANCH   7   8
ENDBRANCH   1   7
BRANCH   2  27
HETATM   27  O3  UNL     1      -1.905   1.020   5.640  1.00  0.00    -0.390 OA
ATOM     28  H3  UNL     1      -1.346   1.745   5.891  1.00  0.00     0.210 HD
ENDBRANCH   2  27
BRANCH   6  29
HETATM   29  O9  UNL     1      -5.670   2.347   6.331  1.00  0.00    -0.390 OA
ATOM     30  H9  UNL     1      -6.378   2.527   6.938  1.00  0.00     0.210 HD
ENDBRANCH   6  29
BRANCH   3  31
HETATM   31  O4  UNL     1      -2.107   0.349   8.209  1.00  0.00    -0.390 OA
ATOM     32  H4  UNL     1      -2.057  -0.351   8.849  1.00  0.00     0.210 HD
ENDBRANCH   3  31
BRANCH   5  33
HETATM   33  O7  UNL     1      -6.699   0.646   8.151  1.00  0.00    -0.311 OA
BRANCH  33  34
HETATM   34  C20 UNL     1      -8.045   0.510   7.947  1.00  0.00     0.255 C 
HETATM   35  C21 UNL     1      -8.588   0.173   6.599  1.00  0.00     0.126 C 
HETATM   36  O8  UNL     1      -8.772   0.685   8.956  1.00  0.00    -0.266 OA
ENDBRANCH  33  34
ENDBRANCH   5  33
BRANCH   4  37
HETATM   37  O5  UNL     1      -4.609  -0.658   9.214  1.00  0.00    -0.307 OA
BRANCH  37  38
HETATM   38  C12 UNL     1      -4.302  -0.378  10.515  1.00  0.00     0.293 C 
HETATM   39  O6  UNL     1      -3.119  -0.020  10.776  1.00  0.00    -0.259 OA
BRANCH  38  40
HETATM   40  C13 UNL     1      -5.280  -0.482  11.579  1.00  0.00     0.039 A 
HETATM   41  C14 UNL     1      -4.833  -0.607  12.882  1.00  0.00     0.017 A 
HETATM   42  C15 UNL     1      -5.773  -0.705  13.886  1.00  0.00     0.001 A 
HETATM   43  C16 UNL     1      -7.130  -0.680  13.633  1.00  0.00     0.000 A 
HETATM   44  C17 UNL     1      -7.523  -0.554  12.315  1.00  0.00     0.001 A 
HETATM   45  C18 UNL     1      -6.628  -0.454  11.289  1.00  0.00     0.017 A 
ENDBRANCH  38  40
ENDBRANCH  37  38
ENDBRANCH   4  37
TORSDOF 17
ENDMDL
MODEL 4
REMARK VINA RESULT: -7.889451862      2.263      3.781
REMARK  17 active torsions:
REMARK  status: ('A' for Active; 'I' for Inactive)
REMARK    1  A    between atoms: C2_2  and  C3_4 
REMARK    2  A    between atoms: C4_5  and  O1_6 
REMARK    3  A    between atoms: O1_6  and  C5_7 
REMARK    4  A    between atoms: C5_7  and  C6_8 
REMARK    5  A    between atoms: C6_8  and  O2_10 
REMARK    6  A    between atoms: O2_10  and  C8_11 
REMARK    7  A    between atoms: C9_12  and  O3_13 
REMARK    8  A    between atoms: C10_15  and  O4_16 
REMARK    9  A    between atoms: C11_18  and  O5_19 
REMARK   10  A    between atoms: O5_19  and  C12_20 
REMARK   11  A    between atoms: C12_20  and  C13_22 
REMARK   12  A    between atoms: C19_28  and  O7_29 
REMARK   13  A    between atoms: O7_29  and  C20_30 
REMARK   14  A    between atoms: C22_33  and  O9_34 
REMARK   15  A    between atoms: C23_36  and  O10_37 
REMARK   16  A    between atoms: C24_39  and  O11_40 
REMARK   17  A    between atoms: C25_42  and  C26_43 
ROOT
HETATM    1  C8  UNL     1      -4.707  -0.547   4.877  1.00  0.00     0.184 C 
HETATM    2  C9  UNL     1      -5.725   0.113   5.749  1.00  0.00     0.181 C 
HETATM    3  C10 UNL     1      -5.106   0.167   7.153  1.00  0.00     0.181 C 
HETATM    4  C11 UNL     1      -4.980  -1.230   7.629  1.00  0.00     0.195 C 
HETATM    5  C19 UNL     1      -4.228  -2.147   6.686  1.00  0.00     0.195 C 
HETATM    6  C22 UNL     1      -4.645  -2.025   5.266  1.00  0.00     0.181 C 
ENDROOT
BRANCH   1   7
HETATM    7  O2  UNL     1      -4.973  -0.515   3.528  1.00  0.00    -0.373 OA
BRANCH   7   8
HETATM    8  C6  UNL     1      -4.327   0.509   2.848  1.00  0.00     0.142 C 
HETATM    9  C7  UNL     1      -3.066   0.034   2.166  1.00  0.00     0.042 C 
BRANCH   8  10
HETATM   10  C5  UNL     1      -5.271   0.972   1.754  1.00  0.00     0.199 C 
BRANCH  10  11
HETATM   11  O1  UNL     1      -6.559   1.094   2.203  1.00  0.00    -0.380 OA
BRANCH  11  12
HETATM   12  C4  UNL     1      -7.567   0.770   1.339  1.00  0.00     0.163 C 
HETATM   13  C3  UNL     1      -8.680   0.039   2.121  1.00  0.00     0.077 C 
HETATM   14  C25 UNL     1      -8.759   1.003   3.286  1.00  0.00     0.098 C 
HETATM   15  C24 UNL     1      -8.831   2.359   2.529  1.00  0.00     0.161 C 
HETATM   16  C23 UNL     1      -8.420   2.079   1.112  1.00  0.00     0.177 C 
BRANCH  13  17
HETATM   17  C2  UNL     1      -8.346  -1.331   2.424  1.00  0.00     0.022 C 
HETATM   18  C1  UNL     1      -8.145  -2.283   1.555  1.00  0.00     0.035 C 
HETATM   19  N1  UNL     1      -8.168  -1.721   3.804  1.00  0.00    -0.107 NA
ENDBRANCH  13  17
BRANCH  14  20
HETATM   20  C26 UNL     1     -10.012   0.908   4.068  1.00  0.00     0.130 C 
HETATM   21  C27 UNL     1      -9.929   0.651   5.525  1.00  0.00     0.091 C 
HETATM   22  O12 UNL     1     -11.084   1.038   3.550  1.00  0.00    -0.298 OA
ENDBRANCH  14  20
BRANCH  15  23
HETATM   23  O11 UNL     1      -8.088   3.331   3.159  1.00  0.00    -0.392 OA
ATOM     24  H11 UNL     1      -8.475   3.669   3.958  1.00  0.00     0.210 HD
ENDBRANCH  15  23
BRANCH  16  25
HETATM   25  O10 UNL     1      -7.667   3.051   0.513  1.00  0.00    -0.390 OA
ATOM     26  H10 UNL     1      -8.214   3.632  -0.002  1.00  0.00     0.210 HD
ENDBRANCH  16  25
ENDBRANCH  11  12
ENDBRANCH  10  11
ENDBRANCH   8  10
ENDBRANCH   7   8
ENDBRANCH   1   7
BRANCH   2  27
HETATM   27  O3  UNL     1      -6.080   1.380   5.353  1.00  0.00    -0.390 OA
ATOM     28  H3  UNL     1      -5.373   2.014   5.378  1.00  0.00     0.210 HD
ENDBRANCH   2  27
BRANCH   6  29
HETATM   29  O9  UNL     1      -5.866  -2.657   5.091  1.00  0.00    -0.390 OA
ATOM     30  H9  UNL     1      -5.778  -3.467   4.603  1.00  0.00     0.210 HD
ENDBRANCH   6  29
BRANCH   3  31
HETATM   31  O4  UNL     1      -6.074   0.804   7.953  1.00  0.00    -0.390 OA
ATOM     32  H4  UNL     1      -5.939   0.454   8.826  1.00  0.00     0.210 HD
ENDBRANCH   3  31
BRANCH   5  33
HETATM   33  O7  UNL     1      -4.425  -3.431   7.234  1.00  0.00    -0.311 OA
BRANCH  33  34
HETATM   34  C20 UNL     1      -3.604  -4.510   7.046  1.00  0.00     0.255 C 
HETATM   35  C21 UNL     1      -4.032  -5.882   7.447  1.00  0.00     0.126 C 
HETATM   36  O8  UNL     1      -2.490  -4.265   6.521  1.00  0.00    -0.266 OA
ENDBRANCH  33  34
ENDBRANCH   5  33
BRANCH   4  37
HETATM   37  O5  UNL     1      -4.422  -1.346   8.919  1.00  0.00    -0.307 OA
BRANCH  37  38
HETATM   38  C12 UNL     1      -4.379  -0.354   9.858  1.00  0.00     0.293 C 
HETATM   39  O6  UNL     1      -3.644   0.646   9.624  1.00  0.00    -0.259 OA
BRANCH  38  40
HETATM   40  C13 UNL     1      -5.140  -0.422  11.089  1.00  0.00     0.039 A 
HETATM   41  C14 UNL     1      -6.522  -0.400  11.015  1.00  0.00     0.017 A 
HETATM   42  C15 UNL     1      -7.237  -0.466  12.192  1.00  0.00     0.001 A 
HETATM   43  C16 UNL     1      -6.623  -0.552  13.427  1.00  0.00     0.000 A 
HETATM   44  C17 UNL     1      -5.242  -0.571  13.443  1.00  0.00     0.001 A 
HETATM   45  C18 UNL     1      -4.494  -0.508  12.303  1.00  0.00     0.017 A 
ENDBRANCH  38  40
ENDBRANCH  37  38
ENDBRANCH   4  37
TORSDOF 17
ENDMDL
MODEL 5
REMARK VINA RESULT: -7.834395494      1.672      2.824
REMARK  17 active torsions:
REMARK  status: ('A' for Active; 'I' for Inactive)
REMARK    1  A    between atoms: C2_2  and  C3_4 
REMARK    2  A    between atoms: C4_5  and  O1_6 
REMARK    3  A    between atoms: O1_6  and  C5_7 
REMARK    4  A    between atoms: C5_7  and  C6_8 
REMARK    5  A    between atoms: C6_8  and  O2_10 
REMARK    6  A    between atoms: O2_10  and  C8_11 
REMARK    7  A    between atoms: C9_12  and  O3_13 
REMARK    8  A    between atoms: C10_15  and  O4_16 
REMARK    9  A    between atoms: C11_18  and  O5_19 
REMARK   10  A    between atoms: O5_19  and  C12_20 
REMARK   11  A    between atoms: C12_20  and  C13_22 
REMARK   12  A    between atoms: C19_28  and  O7_29 
REMARK   13  A    between atoms: O7_29  and  C20_30 
REMARK   14  A    between atoms: C22_33  and  O9_34 
REMARK   15  A    between atoms: C23_36  and  O10_37 
REMARK   16  A    between atoms: C24_39  and  O11_40 
REMARK   17  A    between atoms: C25_42  and  C26_43 
ROOT
HETATM    1  C8  UNL     1      -4.281  -0.668   5.991  1.00  0.00     0.184 C 
HETATM    2  C9  UNL     1      -5.190  -1.430   6.900  1.00  0.00     0.181 C 
HETATM    3  C10 UNL     1      -5.415  -0.531   8.123  1.00  0.00     0.181 C 
HETATM    4  C11 UNL     1      -4.116  -0.413   8.824  1.00  0.00     0.195 C 
HETATM    5  C19 UNL     1      -2.973   0.056   7.948  1.00  0.00     0.195 C 
HETATM    6  C22 UNL     1      -2.894  -0.636   6.637  1.00  0.00     0.181 C 
ENDROOT
BRANCH   1   7
HETATM    7  O2  UNL     1      -4.110  -1.204   4.737  1.00  0.00    -0.373 OA
BRANCH   7   8
HETATM    8  C6  UNL     1      -4.643  -0.432   3.714  1.00  0.00     0.142 C 
HETATM    9  C7  UNL     1      -3.690  -0.291   2.550  1.00  0.00     0.042 C 
BRANCH   8  10
HETATM   10  C5  UNL     1      -5.863  -1.172   3.197  1.00  0.00     0.199 C 
BRANCH  10  11
HETATM   11  O1  UNL     1      -7.026  -0.503   3.471  1.00  0.00    -0.380 OA
BRANCH  11  12
HETATM   12  C4  UNL     1      -6.954   0.850   3.650  1.00  0.00     0.163 C 
HETATM   13  C3  UNL     1      -7.648   1.548   2.460  1.00  0.00     0.077 C 
HETATM   14  C25 UNL     1      -8.902   0.701   2.447  1.00  0.00     0.098 C 
HETATM   15  C24 UNL     1      -9.285   0.734   3.954  1.00  0.00     0.161 C 
HETATM   16  C23 UNL     1      -8.077   1.239   4.690  1.00  0.00     0.177 C 
BRANCH  13  17
HETATM   17  C2  UNL     1      -6.843   1.549   1.264  1.00  0.00     0.022 C 
HETATM   18  C1  UNL     1      -5.920   2.420   0.959  1.00  0.00     0.035 C 
HETATM   19  N1  UNL     1      -7.013   0.482   0.304  1.00  0.00    -0.107 NA
ENDBRANCH  13  17
BRANCH  14  20
HETATM   20  C26 UNL     1     -10.040   1.313   1.726  1.00  0.00     0.130 C 
HETATM   21  C27 UNL     1     -10.163   2.789   1.703  1.00  0.00     0.091 C 
HETATM   22  O12 UNL     1     -10.857   0.642   1.161  1.00  0.00    -0.298 OA
ENDBRANCH  14  20
BRANCH  15  23
HETATM   23  O11 UNL     1      -9.750  -0.487   4.386  1.00  0.00    -0.392 OA
ATOM     24  H11 UNL     1      -9.680  -1.185   3.746  1.00  0.00     0.210 HD
ENDBRANCH  15  23
BRANCH  16  25
HETATM   25  O10 UNL     1      -7.839   0.654   5.902  1.00  0.00    -0.390 OA
ATOM     26  H10 UNL     1      -7.833   1.305   6.594  1.00  0.00     0.210 HD
ENDBRANCH  16  25
ENDBRANCH  11  12
ENDBRANCH  10  11
ENDBRANCH   8  10
ENDBRANCH   7   8
ENDBRANCH   1   7
BRANCH   2  27
HETATM   27  O3  UNL     1      -6.402  -1.764   6.345  1.00  0.00    -0.390 OA
ATOM     28  H3  UNL     1      -6.770  -2.579   6.663  1.00  0.00     0.210 HD
ENDBRANCH   2  27
BRANCH   6  29
HETATM   29  O9  UNL     1      -2.382  -1.910   6.820  1.00  0.00    -0.390 OA
ATOM     30  H9  UNL     1      -1.514  -1.890   7.206  1.00  0.00     0.210 HD
ENDBRANCH   6  29
BRANCH   3  31
HETATM   31  O4  UNL     1      -6.284  -1.262   8.957  1.00  0.00    -0.390 OA
ATOM     32  H4  UNL     1      -7.108  -1.291   8.485  1.00  0.00     0.210 HD
ENDBRANCH   3  31
BRANCH   5  33
HETATM   33  O7  UNL     1      -1.831  -0.117   8.757  1.00  0.00    -0.311 OA
BRANCH  33  34
HETATM   34  C20 UNL     1      -0.716   0.675   8.739  1.00  0.00     0.255 C 
HETATM   35  C21 UNL     1      -0.777   2.102   9.172  1.00  0.00     0.126 C 
HETATM   36  O8  UNL     1       0.340   0.124   8.340  1.00  0.00    -0.266 OA
ENDBRANCH  33  34
ENDBRANCH   5  33
BRANCH   4  37
HETATM   37  O5  UNL     1      -4.162   0.391   9.983  1.00  0.00    -0.307 OA
BRANCH  37  38
HETATM   38  C12 UNL     1      -4.006  -0.055  11.265  1.00  0.00     0.293 C 
HETATM   39  O6  UNL     1      -2.829  -0.251  11.679  1.00  0.00    -0.259 OA
BRANCH  38  40
HETATM   40  C13 UNL     1      -5.134  -0.301  12.140  1.00  0.00     0.039 A 
HETATM   41  C14 UNL     1      -4.888  -0.671  13.450  1.00  0.00     0.017 A 
HETATM   42  C15 UNL     1      -5.970  -0.903  14.274  1.00  0.00     0.001 A 
HETATM   43  C16 UNL     1      -7.274  -0.778  13.835  1.00  0.00     0.000 A 
HETATM   44  C17 UNL     1      -7.462  -0.407  12.519  1.00  0.00     0.001 A 
HETATM   45  C18 UNL     1      -6.422  -0.167  11.668  1.00  0.00     0.017 A 
ENDBRANCH  38  40
ENDBRANCH  37  38
ENDBRANCH   4  37
TORSDOF 17
ENDMDL
