MODEL 1
REMARK VINA RESULT: -7.700189496      0.000      0.000
REMARK  16 active torsions:
REMARK  status: ('A' for Active; 'I' for Inactive)
REMARK    1  A    between atoms: O1_2  and  C2_3 
REMARK    2  A    between atoms: C2_3  and  C3_5 
REMARK    3  A    between atoms: C3_5  and  C5_7 
REMARK    4  A    between atoms: C6_8  and  C7_9 
REMARK    5  A    between atoms: C11_14  and  C12_15 
REMARK    6  A    between atoms: C12_15  and  O4_16 
REMARK    7  A    between atoms: O4_16  and  C13_17 
REMARK    8  A    between atoms: C13_17  and  C14_19 
REMARK    9  A    between atoms: C14_19  and  C15_20 
REMARK   10  A    between atoms: C14_19  and  C17_24 
REMARK   11  A    between atoms: C15_20  and  C16_21 
REMARK   12  A    between atoms: C17_24  and  C18_26 
REMARK   13  A    between atoms: C20_30  and  O11_31 
REMARK   14  A    between atoms: C21_33  and  O12_34 
REMARK   15  A    between atoms: C24_38  and  O13_39 
REMARK   16  A    between atoms: C25_41  and  O14_42 
ROOT
HETATM    1  C7  UNL     1      -7.422   0.717   1.799  1.00  0.00     0.032 C 
HETATM    2  C8  UNL     1      -6.728   0.518   2.902  1.00  0.00     0.054 C 
HETATM    3  O3  UNL     1      -5.571  -0.218   3.091  1.00  0.00    -0.343 OA
HETATM    4  C9  UNL     1      -5.053  -0.018   4.388  1.00  0.00     0.077 C 
HETATM    5  C10 UNL     1      -3.592   0.293   4.259  1.00  0.00     0.047 C 
HETATM    6  C11 UNL     1      -5.314  -1.241   5.245  1.00  0.00     0.054 C 
HETATM    7  C19 UNL     1      -6.384  -1.003   6.239  1.00  0.00     0.057 C 
HETATM    8  C20 UNL     1      -7.766  -0.817   5.781  1.00  0.00     0.154 C 
HETATM    9  C21 UNL     1      -8.131   0.224   4.837  1.00  0.00     0.158 C 
HETATM   10  C22 UNL     1      -7.096   1.092   4.227  1.00  0.00     0.083 C 
HETATM   11  C23 UNL     1      -5.779   1.180   4.882  1.00  0.00     0.065 C 
HETATM   12  C24 UNL     1      -5.794   1.357   6.358  1.00  0.00     0.155 C 
HETATM   13  C25 UNL     1      -5.984   0.119   7.160  1.00  0.00     0.154 C 
ENDROOT
BRANCH   6  14
HETATM   14  C12 UNL     1      -5.505  -2.475   4.413  1.00  0.00     0.187 C 
BRANCH  14  15
HETATM   15  O4  UNL     1      -5.709  -3.653   5.139  1.00  0.00    -0.317 OA
BRANCH  15  16
HETATM   16  C13 UNL     1      -4.804  -4.649   5.396  1.00  0.00     0.294 C 
HETATM   17  O5  UNL     1      -4.531  -5.432   4.455  1.00  0.00    -0.259 OA
BRANCH  16  18
HETATM   18  C14 UNL     1      -4.187  -4.776   6.744  1.00  0.00     0.084 C 
BRANCH  18  19
HETATM   19  C15 UNL     1      -4.041  -6.154   7.258  1.00  0.00     0.162 C 
BRANCH  19  20
HETATM   20  C16 UNL     1      -4.982  -6.646   8.244  1.00  0.00     0.177 C 
HETATM   21  O6  UNL     1      -4.645  -6.792   9.467  1.00  0.00    -0.648 OA
HETATM   22  O7  UNL     1      -6.277  -6.977   7.904  1.00  0.00    -0.648 OA
ENDBRANCH  19  20
ENDBRANCH  18  19
BRANCH  18  23
HETATM   23  C17 UNL     1      -3.025  -3.879   6.904  1.00  0.00     0.260 C 
HETATM   24  O8  UNL     1      -1.876  -4.226   6.448  1.00  0.00    -0.280 OA
BRANCH  23  25
HETATM   25  C18 UNL     1      -3.082  -2.581   7.561  1.00  0.00     0.252 C 
HETATM   26  O9  UNL     1      -2.399  -1.591   7.175  1.00  0.00    -0.642 OA
HETATM   27  O10 UNL     1      -3.902  -2.390   8.646  1.00  0.00    -0.642 OA
ENDBRANCH  23  25
ENDBRANCH  18  23
ENDBRANCH  16  18
ENDBRANCH  15  16
ENDBRANCH  14  15
ENDBRANCH   6  14
BRANCH   8  28
HETATM   28  O11 UNL     1      -8.202  -2.071   5.266  1.00  0.00    -0.392 OA
ATOM     29  H11 UNL     1      -8.715  -1.885   4.489  1.00  0.00     0.210 HD
ENDBRANCH   8  28
BRANCH  13  30
HETATM   30  O14 UNL     1      -7.090   0.339   8.015  1.00  0.00    -0.393 OA
ATOM     31  H14 UNL     1      -6.943   1.183   8.426  1.00  0.00     0.210 HD
ENDBRANCH  13  30
BRANCH  12  32
HETATM   32  O13 UNL     1      -4.547   1.912   6.729  1.00  0.00    -0.392 OA
ATOM     33  H13 UNL     1      -4.589   2.845   6.558  1.00  0.00     0.210 HD
ENDBRANCH  12  32
BRANCH   9  34
HETATM   34  O12 UNL     1      -9.021   1.120   5.497  1.00  0.00    -0.392 OA
ATOM     35  H12 UNL     1      -9.022   1.938   5.015  1.00  0.00     0.210 HD
ENDBRANCH   9  34
BRANCH   1  36
HETATM   36  C6  UNL     1      -8.629   1.526   1.768  1.00  0.00    -0.001 C 
HETATM   37  C5  UNL     1      -9.839   1.012   1.724  1.00  0.00    -0.012 C 
BRANCH  37  38
HETATM   38  C3  UNL     1     -11.038   1.867   1.694  1.00  0.00     0.104 C 
HETATM   39  C4  UNL     1     -12.120   1.070   0.953  1.00  0.00     0.025 C 
BRANCH  38  40
HETATM   40  C2  UNL     1     -11.575   2.136   3.047  1.00  0.00     0.265 C 
HETATM   41  O2  UNL     1     -11.663   1.215   3.900  1.00  0.00    -0.265 OA
BRANCH  40  42
HETATM   42  O1  UNL     1     -11.999   3.401   3.424  1.00  0.00    -0.326 OA
HETATM   43  C1  UNL     1     -13.092   3.609   4.316  1.00  0.00     0.213 C 
ENDBRANCH  40  42
ENDBRANCH  38  40
ENDBRANCH  37  38
ENDBRANCH   1  36
TORSDOF 16
ENDMDL
MODEL 2
REMARK VINA RESULT: -7.543601801      3.158      7.329
REMARK  16 active torsions:
REMARK  status: ('A' for Active; 'I' for Inactive)
REMARK    1  A    between atoms: O1_2  and  C2_3 
REMARK    2  A    between atoms: C2_3  and  C3_5 
REMARK    3  A    between atoms: C3_5  and  C5_7 
REMARK    4  A    between atoms: C6_8  and  C7_9 
REMARK    5  A    between atoms: C11_14  and  C12_15 
REMARK    6  A    between atoms: C12_15  and  O4_16 
REMARK    7  A    between atoms: O4_16  and  C13_17 
REMARK    8  A    between atoms: C13_17  and  C14_19 
REMARK    9  A    between atoms: C14_19  and  C15_20 
REMARK   10  A    between atoms: C14_19  and  C17_24 
REMARK   11  A    between atoms: C15_20  and  C16_21 
REMARK   12  A    between atoms: C17_24  and  C18_26 
REMARK   13  A    between atoms: C20_30  and  O11_31 
REMARK   14  A    between atoms: C21_33  and  O12_34 
REMARK   15  A    between atoms: C24_38  and  O13_39 
REMARK   16  A    between atoms: C25_41  and  O14_42 
ROOT
HETATM    1  C7  UNL     1      -7.134  -0.531   9.236  1.00  0.00     0.032 C 
HETATM    2  C8  UNL     1      -6.118  -0.343   8.417  1.00  0.00     0.054 C 
HETATM    3  O3  UNL     1      -6.115  -0.199   7.041  1.00  0.00    -0.343 OA
HETATM    4  C9  UNL     1      -4.836   0.168   6.576  1.00  0.00     0.077 C 
HETATM    5  C10 UNL     1      -4.998   1.339   5.654  1.00  0.00     0.047 C 
HETATM    6  C11 UNL     1      -4.168  -1.015   5.902  1.00  0.00     0.054 C 
HETATM    7  C19 UNL     1      -3.089  -1.591   6.735  1.00  0.00     0.057 C 
HETATM    8  C20 UNL     1      -3.431  -2.277   7.986  1.00  0.00     0.154 C 
HETATM    9  C21 UNL     1      -4.176  -1.621   9.046  1.00  0.00     0.158 C 
HETATM   10  C22 UNL     1      -4.701  -0.246   8.865  1.00  0.00     0.083 C 
HETATM   11  C23 UNL     1      -4.118   0.594   7.805  1.00  0.00     0.065 C 
HETATM   12  C24 UNL     1      -2.633   0.593   7.713  1.00  0.00     0.155 C 
HETATM   13  C25 UNL     1      -2.027  -0.552   6.983  1.00  0.00     0.154 C 
ENDROOT
BRANCH   6  14
HETATM   14  C12 UNL     1      -5.172  -2.016   5.411  1.00  0.00     0.187 C 
BRANCH  14  15
HETATM   15  O4  UNL     1      -5.019  -2.401   4.075  1.00  0.00    -0.317 OA
BRANCH  15  16
HETATM   16  C13 UNL     1      -5.631  -1.870   2.971  1.00  0.00     0.294 C 
HETATM   17  O5  UNL     1      -5.015  -0.968   2.353  1.00  0.00    -0.259 OA
BRANCH  16  18
HETATM   18  C14 UNL     1      -6.970  -2.358   2.543  1.00  0.00     0.084 C 
BRANCH  18  19
HETATM   19  C15 UNL     1      -7.311  -3.737   2.949  1.00  0.00     0.162 C 
BRANCH  19  20
HETATM   20  C16 UNL     1      -7.845  -4.655   1.963  1.00  0.00     0.177 C 
HETATM   21  O6  UNL     1      -8.962  -4.432   1.385  1.00  0.00    -0.648 OA
HETATM   22  O7  UNL     1      -7.172  -5.805   1.608  1.00  0.00    -0.648 OA
ENDBRANCH  19  20
ENDBRANCH  18  19
BRANCH  18  23
HETATM   23  C17 UNL     1      -8.015  -1.332   2.727  1.00  0.00     0.260 C 
HETATM   24  O8  UNL     1      -8.834  -1.068   1.773  1.00  0.00    -0.280 OA
BRANCH  23  25
HETATM   25  C18 UNL     1      -8.201  -0.568   3.953  1.00  0.00     0.252 C 
HETATM   26  O9  UNL     1      -7.959   0.668   4.030  1.00  0.00    -0.642 OA
HETATM   27  O10 UNL     1      -8.658  -1.188   5.091  1.00  0.00    -0.642 OA
ENDBRANCH  23  25
ENDBRANCH  18  23
ENDBRANCH  16  18
ENDBRANCH  15  16
ENDBRANCH  14  15
ENDBRANCH   6  14
BRANCH   8  28
HETATM   28  O11 UNL     1      -4.112  -3.475   7.627  1.00  0.00    -0.392 OA
ATOM     29  H11 UNL     1      -5.023  -3.355   7.865  1.00  0.00     0.210 HD
ENDBRANCH   8  28
BRANCH  13  30
HETATM   30  O14 UNL     1      -1.085  -1.153   7.853  1.00  0.00    -0.393 OA
ATOM     31  H14 UNL     1      -0.333  -0.573   7.867  1.00  0.00     0.210 HD
ENDBRANCH  13  30
BRANCH  12  32
HETATM   32  O13 UNL     1      -2.252   1.774   7.034  1.00  0.00    -0.392 OA
ATOM     33  H13 UNL     1      -1.349   1.665   6.760  1.00  0.00     0.210 HD
ENDBRANCH  12  32
BRANCH   9  34
HETATM   34  O12 UNL     1      -3.333  -1.546  10.192  1.00  0.00    -0.392 OA
ATOM     35  H12 UNL     1      -3.760  -0.990  10.833  1.00  0.00     0.210 HD
ENDBRANCH   9  34
BRANCH   1  36
HETATM   36  C6  UNL     1      -6.968  -0.663  10.675  1.00  0.00    -0.001 C 
HETATM   37  C5  UNL     1      -6.544   0.316  11.443  1.00  0.00    -0.012 C 
BRANCH  37  38
HETATM   38  C3  UNL     1      -6.389   0.140  12.898  1.00  0.00     0.104 C 
HETATM   39  C4  UNL     1      -7.487  -0.840  13.334  1.00  0.00     0.025 C 
BRANCH  38  40
HETATM   40  C2  UNL     1      -5.100  -0.494  13.257  1.00  0.00     0.265 C 
HETATM   41  O2  UNL     1      -5.002  -1.214  14.284  1.00  0.00    -0.265 OA
BRANCH  40  42
HETATM   42  O1  UNL     1      -3.963  -0.320  12.485  1.00  0.00    -0.326 OA
HETATM   43  C1  UNL     1      -3.354   0.955  12.293  1.00  0.00     0.213 C 
ENDBRANCH  40  42
ENDBRANCH  38  40
ENDBRANCH  37  38
ENDBRANCH   1  36
TORSDOF 16
ENDMDL
MODEL 3
REMARK VINA RESULT: -7.343305014      3.020      7.271
REMARK  16 active torsions:
REMARK  status: ('A' for Active; 'I' for Inactive)
REMARK    1  A    between atoms: O1_2  and  C2_3 
REMARK    2  A    between atoms: C2_3  and  C3_5 
REMARK    3  A    between atoms: C3_5  and  C5_7 
REMARK    4  A    between atoms: C6_8  and  C7_9 
REMARK    5  A    between atoms: C11_14  and  C12_15 
REMARK    6  A    between atoms: C12_15  and  O4_16 
REMARK    7  A    between atoms: O4_16  and  C13_17 
REMARK    8  A    between atoms: C13_17  and  C14_19 
REMARK    9  A    between atoms: C14_19  and  C15_20 
REMARK   10  A    between atoms: C14_19  and  C17_24 
REMARK   11  A    between atoms: C15_20  and  C16_21 
REMARK   12  A    between atoms: C17_24  and  C18_26 
REMARK   13  A    between atoms: C20_30  and  O11_31 
REMARK   14  A    between atoms: C21_33  and  O12_34 
REMARK   15  A    between atoms: C24_38  and  O13_39 
REMARK   16  A    between atoms: C25_41  and  O14_42 
ROOT
HETATM    1  C7  UNL     1      -7.049  -0.534   8.738  1.00  0.00     0.032 C 
HETATM    2  C8  UNL     1      -5.944  -0.224   8.089  1.00  0.00     0.054 C 
HETATM    3  O3  UNL     1      -5.758   0.017   6.739  1.00  0.00    -0.343 OA
HETATM    4  C9  UNL     1      -4.456   0.498   6.489  1.00  0.00     0.077 C 
HETATM    5  C10 UNL     1      -4.572   1.719   5.627  1.00  0.00     0.047 C 
HETATM    6  C11 UNL     1      -3.614  -0.589   5.849  1.00  0.00     0.054 C 
HETATM    7  C19 UNL     1      -2.624  -1.152   6.794  1.00  0.00     0.057 C 
HETATM    8  C20 UNL     1      -3.088  -1.946   7.937  1.00  0.00     0.154 C 
HETATM    9  C21 UNL     1      -4.021  -1.416   8.915  1.00  0.00     0.158 C 
HETATM   10  C22 UNL     1      -4.616  -0.069   8.744  1.00  0.00     0.083 C 
HETATM   11  C23 UNL     1      -3.952   0.880   7.833  1.00  0.00     0.065 C 
HETATM   12  C24 UNL     1      -2.473   0.981   7.959  1.00  0.00     0.155 C 
HETATM   13  C25 UNL     1      -1.687  -0.067   7.257  1.00  0.00     0.154 C 
ENDROOT
BRANCH   6  14
HETATM   14  C12 UNL     1      -4.462  -1.615   5.156  1.00  0.00     0.187 C 
BRANCH  14  15
HETATM   15  O4  UNL     1      -4.401  -1.589   3.759  1.00  0.00    -0.317 OA
BRANCH  15  16
HETATM   16  C13 UNL     1      -5.377  -1.196   2.882  1.00  0.00     0.294 C 
HETATM   17  O5  UNL     1      -5.002  -0.670   1.806  1.00  0.00    -0.259 OA
BRANCH  16  18
HETATM   18  C14 UNL     1      -6.814  -1.395   3.214  1.00  0.00     0.084 C 
BRANCH  18  19
HETATM   19  C15 UNL     1      -7.655  -0.181   3.182  1.00  0.00     0.162 C 
BRANCH  19  20
HETATM   20  C16 UNL     1      -8.622   0.040   4.239  1.00  0.00     0.177 C 
HETATM   21  O6  UNL     1      -9.634  -0.725   4.384  1.00  0.00    -0.648 OA
HETATM   22  O7  UNL     1      -8.489   1.084   5.131  1.00  0.00    -0.648 OA
ENDBRANCH  19  20
ENDBRANCH  18  19
BRANCH  18  23
HETATM   23  C17 UNL     1      -7.364  -2.605   2.573  1.00  0.00     0.260 C 
HETATM   24  O8  UNL     1      -8.144  -2.498   1.557  1.00  0.00    -0.280 OA
BRANCH  23  25
HETATM   25  C18 UNL     1      -7.080  -3.963   3.014  1.00  0.00     0.252 C 
HETATM   26  O9  UNL     1      -7.131  -4.958   2.238  1.00  0.00    -0.642 OA
HETATM   27  O10 UNL     1      -6.739  -4.207   4.323  1.00  0.00    -0.642 OA
ENDBRANCH  23  25
ENDBRANCH  18  23
ENDBRANCH  16  18
ENDBRANCH  15  16
ENDBRANCH  14  15
ENDBRANCH   6  14
BRANCH   8  28
HETATM   28  O11 UNL     1      -3.621  -3.157   7.410  1.00  0.00    -0.392 OA
ATOM     29  H11 UNL     1      -3.644  -3.781   8.125  1.00  0.00     0.210 HD
ENDBRANCH   8  28
BRANCH  13  30
HETATM   30  O14 UNL     1      -0.836  -0.667   8.216  1.00  0.00    -0.393 OA
ATOM     31  H14 UNL     1      -1.330  -1.384   8.595  1.00  0.00     0.210 HD
ENDBRANCH  13  30
BRANCH  12  32
HETATM   32  O13 UNL     1      -2.088   2.230   7.417  1.00  0.00    -0.392 OA
ATOM     33  H13 UNL     1      -2.119   2.867   8.121  1.00  0.00     0.210 HD
ENDBRANCH  12  32
BRANCH   9  34
HETATM   34  O12 UNL     1      -3.356  -1.370  10.174  1.00  0.00    -0.392 OA
ATOM     35  H12 UNL     1      -3.920  -1.784  10.817  1.00  0.00     0.210 HD
ENDBRANCH   9  34
BRANCH   1  36
HETATM   36  C6  UNL     1      -7.078  -0.758  10.175  1.00  0.00    -0.001 C 
HETATM   37  C5  UNL     1      -7.395   0.178  11.043  1.00  0.00    -0.012 C 
BRANCH  37  38
HETATM   38  C3  UNL     1      -7.413  -0.090  12.491  1.00  0.00     0.104 C 
HETATM   39  C4  UNL     1      -8.334  -1.300  12.696  1.00  0.00     0.025 C 
BRANCH  38  40
HETATM   40  C2  UNL     1      -6.084  -0.488  13.009  1.00  0.00     0.265 C 
HETATM   41  O2  UNL     1      -5.966  -0.999  14.152  1.00  0.00    -0.265 OA
BRANCH  40  42
HETATM   42  O1  UNL     1      -4.929  -0.314  12.262  1.00  0.00    -0.326 OA
HETATM   43  C1  UNL     1      -3.911   0.614  12.630  1.00  0.00     0.213 C 
ENDBRANCH  40  42
ENDBRANCH  38  40
ENDBRANCH  37  38
ENDBRANCH   1  36
TORSDOF 16
ENDMDL
MODEL 4
REMARK VINA RESULT: -7.238498784      3.120      7.582
REMARK  16 active torsions:
REMARK  status: ('A' for Active; 'I' for Inactive)
REMARK    1  A    between atoms: O1_2  and  C2_3 
REMARK    2  A    between atoms: C2_3  and  C3_5 
REMARK    3  A    between atoms: C3_5  and  C5_7 
REMARK    4  A    between atoms: C6_8  and  C7_9 
REMARK    5  A    between atoms: C11_14  and  C12_15 
REMARK    6  A    between atoms: C12_15  and  O4_16 
REMARK    7  A    between atoms: O4_16  and  C13_17 
REMARK    8  A    between atoms: C13_17  and  C14_19 
REMARK    9  A    between atoms: C14_19  and  C15_20 
REMARK   10  A    between atoms: C14_19  and  C17_24 
REMARK   11  A    between atoms: C15_20  and  C16_21 
REMARK   12  A    between atoms: C17_24  and  C18_26 
REMARK   13  A    between atoms: C20_30  and  O11_31 
REMARK   14  A    between atoms: C21_33  and  O12_34 
REMARK   15  A    between atoms: C24_38  and  O13_39 
REMARK   16  A    between atoms: C25_41  and  O14_42 
ROOT
HETATM    1  C7  UNL     1      -6.463  -1.038   9.100  1.00  0.00     0.032 C 
HETATM    2  C8  UNL     1      -6.116  -0.466   7.964  1.00  0.00     0.054 C 
HETATM    3  O3  UNL     1      -6.458  -0.808   6.668  1.00  0.00    -0.343 OA
HETATM    4  C9  UNL     1      -6.024   0.176   5.756  1.00  0.00     0.077 C 
HETATM    5  C10 UNL     1      -7.177   0.520   4.862  1.00  0.00     0.047 C 
HETATM    6  C11 UNL     1      -4.819  -0.327   4.984  1.00  0.00     0.054 C 
HETATM    7  C19 UNL     1      -3.566   0.324   5.427  1.00  0.00     0.057 C 
HETATM    8  C20 UNL     1      -3.040   0.042   6.767  1.00  0.00     0.154 C 
HETATM    9  C21 UNL     1      -3.824   0.276   7.967  1.00  0.00     0.158 C 
HETATM   10  C22 UNL     1      -5.233   0.730   7.877  1.00  0.00     0.083 C 
HETATM   11  C23 UNL     1      -5.693   1.340   6.617  1.00  0.00     0.065 C 
HETATM   12  C24 UNL     1      -4.786   2.350   6.010  1.00  0.00     0.155 C 
HETATM   13  C25 UNL     1      -3.658   1.811   5.205  1.00  0.00     0.154 C 
ENDROOT
BRANCH   6  14
HETATM   14  C12 UNL     1      -4.761  -1.826   4.956  1.00  0.00     0.187 C 
BRANCH  14  15
HETATM   15  O4  UNL     1      -4.987  -2.404   3.702  1.00  0.00    -0.317 OA
BRANCH  15  16
HETATM   16  C13 UNL     1      -5.787  -1.937   2.693  1.00  0.00     0.294 C 
HETATM   17  O5  UNL     1      -5.264  -1.155   1.863  1.00  0.00    -0.259 OA
BRANCH  16  18
HETATM   18  C14 UNL     1      -7.212  -2.356   2.606  1.00  0.00     0.084 C 
BRANCH  18  19
HETATM   19  C15 UNL     1      -7.974  -1.811   1.464  1.00  0.00     0.162 C 
BRANCH  19  20
HETATM   20  C16 UNL     1      -8.459  -0.446   1.520  1.00  0.00     0.177 C 
HETATM   21  O6  UNL     1      -9.558  -0.157   2.103  1.00  0.00    -0.648 OA
HETATM   22  O7  UNL     1      -7.755   0.594   0.950  1.00  0.00    -0.648 OA
ENDBRANCH  19  20
ENDBRANCH  18  19
BRANCH  18  23
HETATM   23  C17 UNL     1      -7.382  -3.793   2.896  1.00  0.00     0.260 C 
HETATM   24  O8  UNL     1      -7.084  -4.256   4.057  1.00  0.00    -0.280 OA
BRANCH  23  25
HETATM   25  C18 UNL     1      -7.884  -4.765   1.935  1.00  0.00     0.252 C 
HETATM   26  O9  UNL     1      -9.037  -4.689   1.426  1.00  0.00    -0.642 OA
HETATM   27  O10 UNL     1      -7.096  -5.820   1.544  1.00  0.00    -0.642 OA
ENDBRANCH  23  25
ENDBRANCH  18  23
ENDBRANCH  16  18
ENDBRANCH  15  16
ENDBRANCH  14  15
ENDBRANCH   6  14
BRANCH   8  28
HETATM   28  O11 UNL     1      -2.609  -1.315   6.763  1.00  0.00    -0.392 OA
ATOM     29  H11 UNL     1      -1.921  -1.387   7.415  1.00  0.00     0.210 HD
ENDBRANCH   8  28
BRANCH  13  30
HETATM   30  O14 UNL     1      -2.465   2.361   5.731  1.00  0.00    -0.393 OA
ATOM     31  H14 UNL     1      -1.927   1.623   5.991  1.00  0.00     0.210 HD
ENDBRANCH  13  30
BRANCH  12  32
HETATM   32  O13 UNL     1      -5.568   3.158   5.152  1.00  0.00    -0.392 OA
ATOM     33  H13 UNL     1      -5.623   4.021   5.546  1.00  0.00     0.210 HD
ENDBRANCH  12  32
BRANCH   9  34
HETATM   34  O12 UNL     1      -3.161   1.276   8.734  1.00  0.00    -0.392 OA
ATOM     35  H12 UNL     1      -3.762   2.004   8.846  1.00  0.00     0.210 HD
ENDBRANCH   9  34
BRANCH   1  36
HETATM   36  C6  UNL     1      -6.013  -0.551  10.394  1.00  0.00    -0.001 C 
HETATM   37  C5  UNL     1      -6.816  -0.397  11.424  1.00  0.00    -0.012 C 
BRANCH  37  38
HETATM   38  C3  UNL     1      -6.319   0.099  12.719  1.00  0.00     0.104 C 
HETATM   39  C4  UNL     1      -6.955  -0.790  13.796  1.00  0.00     0.025 C 
BRANCH  38  40
HETATM   40  C2  UNL     1      -4.854  -0.061  12.862  1.00  0.00     0.265 C 
HETATM   41  O2  UNL     1      -4.373  -1.014  13.527  1.00  0.00    -0.265 OA
BRANCH  40  42
HETATM   42  O1  UNL     1      -3.964   0.825  12.274  1.00  0.00    -0.326 OA
HETATM   43  C1  UNL     1      -2.652   0.439  11.872  1.00  0.00     0.213 C 
ENDBRANCH  40  42
ENDBRANCH  38  40
ENDBRANCH  37  38
ENDBRANCH   1  36
TORSDOF 16
ENDMDL
MODEL 5
REMARK VINA RESULT: -7.163271760      2.496      6.331
REMARK  16 active torsions:
REMARK  status: ('A' for Active; 'I' for Inactive)
REMARK    1  A    between atoms: O1_2  and  C2_3 
REMARK    2  A    between atoms: C2_3  and  C3_5 
REMARK    3  A    between atoms: C3_5  and  C5_7 
REMARK    4  A    between atoms: C6_8  and  C7_9 
REMARK    5  A    between atoms: C11_14  and  C12_15 
REMARK    6  A    between atoms: C12_15  and  O4_16 
REMARK    7  A    between atoms: O4_16  and  C13_17 
REMARK    8  A    between atoms: C13_17  and  C14_19 
REMARK    9  A    between atoms: C14_19  and  C15_20 
REMARK   10  A    between atoms: C14_19  and  C17_24 
REMARK   11  A    between atoms: C15_20  and  C16_21 
REMARK   12  A    between atoms: C17_24  and  C18_26 
REMARK   13  A    between atoms: C20_30  and  O11_31 
REMARK   14  A    between atoms: C21_33  and  O12_34 
REMARK   15  A    between atoms: C24_38  and  O13_39 
REMARK   16  A    between atoms: C25_41  and  O14_42 
ROOT
HETATM    1  C7  UNL     1      -5.690  -1.118   8.664  1.00  0.00     0.032 C 
HETATM    2  C8  UNL     1      -6.051  -0.802   7.437  1.00  0.00     0.054 C 
HETATM    3  O3  UNL     1      -6.447  -1.627   6.398  1.00  0.00    -0.343 OA
HETATM    4  C9  UNL     1      -6.926  -0.869   5.309  1.00  0.00     0.077 C 
HETATM    5  C10 UNL     1      -8.243  -1.449   4.887  1.00  0.00     0.047 C 
HETATM    6  C11 UNL     1      -5.905  -0.868   4.188  1.00  0.00     0.054 C 
HETATM    7  C19 UNL     1      -5.212   0.434   4.070  1.00  0.00     0.057 C 
HETATM    8  C20 UNL     1      -4.298   0.863   5.135  1.00  0.00     0.154 C 
HETATM    9  C21 UNL     1      -4.728   0.987   6.516  1.00  0.00     0.158 C 
HETATM   10  C22 UNL     1      -6.099   0.595   6.922  1.00  0.00     0.083 C 
HETATM   11  C23 UNL     1      -7.134   0.486   5.880  1.00  0.00     0.065 C 
HETATM   12  C24 UNL     1      -7.188   1.597   4.892  1.00  0.00     0.155 C 
HETATM   13  C25 UNL     1      -6.213   1.519   3.772  1.00  0.00     0.154 C 
ENDROOT
BRANCH   6  14
HETATM   14  C12 UNL     1      -4.987  -2.053   4.269  1.00  0.00     0.187 C 
BRANCH  14  15
HETATM   15  O4  UNL     1      -5.623  -3.282   4.470  1.00  0.00    -0.317 OA
BRANCH  15  16
HETATM   16  C13 UNL     1      -5.049  -4.484   4.789  1.00  0.00     0.294 C 
HETATM   17  O5  UNL     1      -4.921  -5.321   3.862  1.00  0.00    -0.259 OA
BRANCH  16  18
HETATM   18  C14 UNL     1      -4.605  -4.761   6.182  1.00  0.00     0.084 C 
BRANCH  18  19
HETATM   19  C15 UNL     1      -4.849  -6.132   6.674  1.00  0.00     0.162 C 
BRANCH  19  20
HETATM   20  C16 UNL     1      -4.537  -6.458   8.051  1.00  0.00     0.177 C 
HETATM   21  O6  UNL     1      -5.292  -6.080   9.009  1.00  0.00    -0.648 OA
HETATM   22  O7  UNL     1      -3.416  -7.188   8.384  1.00  0.00    -0.648 OA
ENDBRANCH  19  20
ENDBRANCH  18  19
BRANCH  18  23
HETATM   23  C17 UNL     1      -3.277  -4.180   6.462  1.00  0.00     0.260 C 
HETATM   24  O8  UNL     1      -2.234  -4.642   5.872  1.00  0.00    -0.280 OA
BRANCH  23  25
HETATM   25  C18 UNL     1      -3.048  -3.079   7.386  1.00  0.00     0.252 C 
HETATM   26  O9  UNL     1      -2.638  -1.946   7.010  1.00  0.00    -0.642 OA
HETATM   27  O10 UNL     1      -3.277  -3.246   8.731  1.00  0.00    -0.642 OA
ENDBRANCH  23  25
ENDBRANCH  18  23
ENDBRANCH  16  18
ENDBRANCH  15  16
ENDBRANCH  14  15
ENDBRANCH   6  14
BRANCH   8  28
HETATM   28  O11 UNL     1      -3.171  -0.005   5.086  1.00  0.00    -0.392 OA
ATOM     29  H11 UNL     1      -2.398   0.544   5.148  1.00  0.00     0.210 HD
ENDBRANCH   8  28
BRANCH  13  30
HETATM   30  O14 UNL     1      -5.485   2.733   3.764  1.00  0.00    -0.393 OA
ATOM     31  H14 UNL     1      -5.935   3.314   4.366  1.00  0.00     0.210 HD
ENDBRANCH  13  30
BRANCH  12  32
HETATM   32  O13 UNL     1      -8.483   1.594   4.325  1.00  0.00    -0.392 OA
ATOM     33  H13 UNL     1      -8.391   1.817   3.405  1.00  0.00     0.210 HD
ENDBRANCH  12  32
BRANCH   9  34
HETATM   34  O12 UNL     1      -4.610   2.357   6.890  1.00  0.00    -0.392 OA
ATOM     35  H12 UNL     1      -3.717   2.504   7.180  1.00  0.00     0.210 HD
ENDBRANCH   9  34
BRANCH   1  36
HETATM   36  C6  UNL     1      -5.298  -0.122   9.648  1.00  0.00    -0.001 C 
HETATM   37  C5  UNL     1      -4.154  -0.162  10.297  1.00  0.00    -0.012 C 
BRANCH  37  38
HETATM   38  C3  UNL     1      -3.794   0.868  11.286  1.00  0.00     0.104 C 
HETATM   39  C4  UNL     1      -4.077   0.261  12.666  1.00  0.00     0.025 C 
BRANCH  38  40
HETATM   40  C2  UNL     1      -2.350   1.193  11.264  1.00  0.00     0.265 C 
HETATM   41  O2  UNL     1      -1.922   2.183  10.617  1.00  0.00    -0.265 OA
BRANCH  40  42
HETATM   42  O1  UNL     1      -1.421   0.425  11.949  1.00  0.00    -0.326 OA
HETATM   43  C1  UNL     1      -0.057   0.816  12.089  1.00  0.00     0.213 C 
ENDBRANCH  40  42
ENDBRANCH  38  40
ENDBRANCH  37  38
ENDBRANCH   1  36
TORSDOF 16
ENDMDL
