MODEL 1
REMARK VINA RESULT: -6.529754392      0.000      0.000
REMARK  16 active torsions:
REMARK  status: ('A' for Active; 'I' for Inactive)
REMARK    1  A    between atoms: O1_2  and  C2_3 
REMARK    2  A    between atoms: C2_3  and  O2_4 
REMARK    3  A    between atoms: O2_4  and  C3_5 
REMARK    4  A    between atoms: C3_5  and  C4_6 
REMARK    5  A    between atoms: C3_5  and  C22_36 
REMARK    6  A    between atoms: C5_7  and  C6_8 
REMARK    7  A    between atoms: C7_9  and  O3_10 
REMARK    8  A    between atoms: C9_13  and  O4_14 
REMARK    9  A    between atoms: C10_16  and  C11_17 
REMARK   10  A    between atoms: C11_17  and  C12_18 
REMARK   11  A    between atoms: C12_18  and  C13_20 
REMARK   12  A    between atoms: C13_20  and  O6_21 
REMARK   13  A    between atoms: O6_21  and  C14_22 
REMARK   14  A    between atoms: C15_23  and  O7_24 
REMARK   15  A    between atoms: C17_27  and  C18_28 
REMARK   16  A    between atoms: C22_36  and  O10_39 
ROOT
HETATM    1  C6  UNL     1      -8.144  -1.108   2.506  1.00  0.00     0.043 C 
HETATM    2  C7  UNL     1      -7.917  -2.500   1.971  1.00  0.00     0.128 C 
HETATM    3  C8  UNL     1      -7.275  -3.292   3.066  1.00  0.00     0.064 C 
HETATM    4  C9  UNL     1      -6.904  -2.313   4.138  1.00  0.00     0.125 C 
HETATM    5  C10 UNL     1      -7.583  -1.023   3.886  1.00  0.00     0.031 C 
ENDROOT
BRANCH   5   6
HETATM    6  C11 UNL     1      -8.602  -0.631   4.921  1.00  0.00     0.088 C 
BRANCH   6   7
HETATM    7  C12 UNL     1      -8.143   0.288   5.957  1.00  0.00     0.150 C 
HETATM    8  O5  UNL     1      -8.723   0.334   7.021  1.00  0.00    -0.296 OA
BRANCH   7   9
HETATM    9  C13 UNL     1      -6.982   1.191   5.772  1.00  0.00     0.248 C 
BRANCH   9  10
HETATM   10  O6  UNL     1      -5.969   1.041   6.675  1.00  0.00    -0.360 OA
BRANCH  10  11
HETATM   11  C14 UNL     1      -5.462  -0.240   6.820  1.00  0.00     0.239 C 
HETATM   12  C15 UNL     1      -5.162  -0.511   8.302  1.00  0.00     0.164 C 
HETATM   13  C16 UNL     1      -4.732  -1.967   8.391  1.00  0.00     0.068 C 
HETATM   14  C17 UNL     1      -4.119  -2.432   7.095  1.00  0.00     0.178 C 
HETATM   15  N1  UNL     1      -3.417  -1.388   6.403  1.00  0.00    -0.232 NA
HETATM   16  C19 UNL     1      -2.196  -0.966   6.993  1.00  0.00     0.110 A 
HETATM   17  N2  UNL     1      -4.201  -0.286   6.110  1.00  0.00    -0.218 NA
HETATM   18  C20 UNL     1      -2.170   0.526   7.014  1.00  0.00     0.032 A 
HETATM   19  C21 UNL     1      -3.474   0.912   6.394  1.00  0.00     0.112 A 
BRANCH  12  20
HETATM   20  O7  UNL     1      -6.329  -0.377   9.044  1.00  0.00    -0.392 OA
ATOM     21  H7  UNL     1      -6.113  -0.123   9.934  1.00  0.00     0.210 HD
ENDBRANCH  12  20
BRANCH  14  22
HETATM   22  C18 UNL     1      -3.251  -3.586   7.360  1.00  0.00     0.193 C 
HETATM   23  O8  UNL     1      -3.008  -4.024   8.519  1.00  0.00    -0.647 OA
HETATM   24  O9  UNL     1      -2.643  -4.265   6.307  1.00  0.00    -0.647 OA
ENDBRANCH  14  22
ENDBRANCH  10  11
ENDBRANCH   9  10
ENDBRANCH   7   9
ENDBRANCH   6   7
ENDBRANCH   5   6
BRANCH   1  25
HETATM   25  C5  UNL     1      -7.420  -0.182   1.592  1.00  0.00    -0.020 C 
HETATM   26  C4  UNL     1      -6.482   0.656   2.007  1.00  0.00     0.004 C 
BRANCH  26  27
HETATM   27  C3  UNL     1      -5.780   1.574   1.032  1.00  0.00     0.180 C 
BRANCH  27  28
HETATM   28  O2  UNL     1      -6.447   1.539  -0.202  1.00  0.00    -0.355 OA
BRANCH  28  29
HETATM   29  C2  UNL     1      -6.806   2.824  -0.537  1.00  0.00     0.338 C 
BRANCH  29  30
HETATM   30  O1  UNL     1      -7.915   3.298   0.110  1.00  0.00    -0.372 OA
HETATM   31  C1  UNL     1      -8.502   4.388  -0.479  1.00  0.00     0.204 C 
ENDBRANCH  29  30
ENDBRANCH  28  29
ENDBRANCH  27  28
BRANCH  27  32
HETATM   32  C22 UNL     1      -4.354   1.110   0.899  1.00  0.00     0.080 C 
HETATM   33  C23 UNL     1      -3.469   2.323   0.737  1.00  0.00     0.048 C 
HETATM   34  C24 UNL     1      -3.879   0.318   2.098  1.00  0.00     0.048 C 
BRANCH  32  35
HETATM   35  O10 UNL     1      -4.187   0.336  -0.257  1.00  0.00    -0.388 OA
ATOM     36  H10 UNL     1      -5.014  -0.044  -0.533  1.00  0.00     0.210 HD
ENDBRANCH  32  35
ENDBRANCH  27  32
ENDBRANCH  26  27
ENDBRANCH   1  25
BRANCH   4  37
HETATM   37  O4  UNL     1      -5.504  -2.119   4.029  1.00  0.00    -0.395 OA
ATOM     38  H4  UNL     1      -5.175  -2.054   4.918  1.00  0.00     0.210 HD
ENDBRANCH   4  37
BRANCH   2  39
HETATM   39  O3  UNL     1      -9.134  -3.027   1.546  1.00  0.00    -0.395 OA
ATOM     40  H3  UNL     1      -9.098  -3.171   0.608  1.00  0.00     0.210 HD
ENDBRANCH   2  39
TORSDOF 16
ENDMDL
MODEL 2
REMARK VINA RESULT: -6.394717550      0.956      2.362
REMARK  16 active torsions:
REMARK  status: ('A' for Active; 'I' for Inactive)
REMARK    1  A    between atoms: O1_2  and  C2_3 
REMARK    2  A    between atoms: C2_3  and  O2_4 
REMARK    3  A    between atoms: O2_4  and  C3_5 
REMARK    4  A    between atoms: C3_5  and  C4_6 
REMARK    5  A    between atoms: C3_5  and  C22_36 
REMARK    6  A    between atoms: C5_7  and  C6_8 
REMARK    7  A    between atoms: C7_9  and  O3_10 
REMARK    8  A    between atoms: C9_13  and  O4_14 
REMARK    9  A    between atoms: C10_16  and  C11_17 
REMARK   10  A    between atoms: C11_17  and  C12_18 
REMARK   11  A    between atoms: C12_18  and  C13_20 
REMARK   12  A    between atoms: C13_20  and  O6_21 
REMARK   13  A    between atoms: O6_21  and  C14_22 
REMARK   14  A    between atoms: C15_23  and  O7_24 
REMARK   15  A    between atoms: C17_27  and  C18_28 
REMARK   16  A    between atoms: C22_36  and  O10_39 
ROOT
HETATM    1  C6  UNL     1      -8.479  -1.203   2.624  1.00  0.00     0.043 C 
HETATM    2  C7  UNL     1      -8.013  -2.479   1.965  1.00  0.00     0.128 C 
HETATM    3  C8  UNL     1      -6.978  -3.084   2.859  1.00  0.00     0.064 C 
HETATM    4  C9  UNL     1      -6.661  -2.053   3.900  1.00  0.00     0.125 C 
HETATM    5  C10 UNL     1      -7.687  -0.988   3.871  1.00  0.00     0.031 C 
ENDROOT
BRANCH   5   6
HETATM    6  C11 UNL     1      -8.539  -0.894   5.108  1.00  0.00     0.088 C 
BRANCH   6   7
HETATM    7  C12 UNL     1      -8.190   0.167   6.046  1.00  0.00     0.150 C 
HETATM    8  O5  UNL     1      -8.809   0.280   7.083  1.00  0.00    -0.296 OA
BRANCH   7   9
HETATM    9  C13 UNL     1      -7.099   1.138   5.792  1.00  0.00     0.248 C 
BRANCH   9  10
HETATM   10  O6  UNL     1      -6.009   1.025   6.606  1.00  0.00    -0.360 OA
BRANCH  10  11
HETATM   11  C14 UNL     1      -5.490  -0.249   6.764  1.00  0.00     0.239 C 
HETATM   12  C15 UNL     1      -5.167  -0.495   8.245  1.00  0.00     0.164 C 
HETATM   13  C16 UNL     1      -4.725  -1.946   8.350  1.00  0.00     0.068 C 
HETATM   14  C17 UNL     1      -4.127  -2.427   7.053  1.00  0.00     0.178 C 
HETATM   15  N1  UNL     1      -3.443  -1.389   6.335  1.00  0.00    -0.232 NA
HETATM   16  C19 UNL     1      -2.217  -0.949   6.900  1.00  0.00     0.110 A 
HETATM   17  N2  UNL     1      -4.239  -0.298   6.036  1.00  0.00    -0.218 NA
HETATM   18  C20 UNL     1      -2.201   0.544   6.897  1.00  0.00     0.032 A 
HETATM   19  C21 UNL     1      -3.518   0.910   6.290  1.00  0.00     0.112 A 
BRANCH  12  20
HETATM   20  O7  UNL     1      -6.324  -0.358   9.002  1.00  0.00    -0.392 OA
ATOM     21  H7  UNL     1      -6.740  -1.207   9.103  1.00  0.00     0.210 HD
ENDBRANCH  12  20
BRANCH  14  22
HETATM   22  C18 UNL     1      -3.247  -3.570   7.324  1.00  0.00     0.193 C 
HETATM   23  O8  UNL     1      -2.981  -3.986   8.486  1.00  0.00    -0.647 OA
HETATM   24  O9  UNL     1      -2.653  -4.264   6.272  1.00  0.00    -0.647 OA
ENDBRANCH  14  22
ENDBRANCH  10  11
ENDBRANCH   9  10
ENDBRANCH   7   9
ENDBRANCH   6   7
ENDBRANCH   5   6
BRANCH   1  25
HETATM   25  C5  UNL     1      -8.222  -0.108   1.650  1.00  0.00    -0.020 C 
HETATM   26  C4  UNL     1      -8.069   1.158   2.009  1.00  0.00     0.004 C 
BRANCH  26  27
HETATM   27  C3  UNL     1      -7.811   2.228   0.973  1.00  0.00     0.180 C 
BRANCH  27  28
HETATM   28  O2  UNL     1      -6.468   2.629   1.042  1.00  0.00    -0.355 OA
BRANCH  28  29
HETATM   29  C2  UNL     1      -5.814   2.144  -0.066  1.00  0.00     0.338 C 
BRANCH  29  30
HETATM   30  O1  UNL     1      -5.195   0.936   0.115  1.00  0.00    -0.372 OA
HETATM   31  C1  UNL     1      -4.291   0.902   1.145  1.00  0.00     0.204 C 
ENDBRANCH  29  30
ENDBRANCH  28  29
ENDBRANCH  27  28
BRANCH  27  32
HETATM   32  C22 UNL     1      -8.742   3.378   1.250  1.00  0.00     0.080 C 
HETATM   33  C23 UNL     1      -8.591   4.395   0.144  1.00  0.00     0.048 C 
HETATM   34  C24 UNL     1     -10.193   2.956   1.326  1.00  0.00     0.048 C 
BRANCH  32  35
HETATM   35  O10 UNL     1      -8.391   4.029   2.441  1.00  0.00    -0.388 OA
ATOM     36  H10 UNL     1      -8.665   4.939   2.423  1.00  0.00     0.210 HD
ENDBRANCH  32  35
ENDBRANCH  27  32
ENDBRANCH  26  27
ENDBRANCH   1  25
BRANCH   4  37
HETATM   37  O4  UNL     1      -5.413  -1.492   3.533  1.00  0.00    -0.395 OA
ATOM     38  H4  UNL     1      -5.608  -0.774   2.942  1.00  0.00     0.210 HD
ENDBRANCH   4  37
BRANCH   2  39
HETATM   39  O3  UNL     1      -9.114  -3.306   1.751  1.00  0.00    -0.395 OA
ATOM     40  H3  UNL     1      -8.918  -4.173   2.087  1.00  0.00     0.210 HD
ENDBRANCH   2  39
TORSDOF 16
ENDMDL
MODEL 3
REMARK VINA RESULT: -6.375240687      2.277      6.907
REMARK  16 active torsions:
REMARK  status: ('A' for Active; 'I' for Inactive)
REMARK    1  A    between atoms: O1_2  and  C2_3 
REMARK    2  A    between atoms: C2_3  and  O2_4 
REMARK    3  A    between atoms: O2_4  and  C3_5 
REMARK    4  A    between atoms: C3_5  and  C4_6 
REMARK    5  A    between atoms: C3_5  and  C22_36 
REMARK    6  A    between atoms: C5_7  and  C6_8 
REMARK    7  A    between atoms: C7_9  and  O3_10 
REMARK    8  A    between atoms: C9_13  and  O4_14 
REMARK    9  A    between atoms: C10_16  and  C11_17 
REMARK   10  A    between atoms: C11_17  and  C12_18 
REMARK   11  A    between atoms: C12_18  and  C13_20 
REMARK   12  A    between atoms: C13_20  and  O6_21 
REMARK   13  A    between atoms: O6_21  and  C14_22 
REMARK   14  A    between atoms: C15_23  and  O7_24 
REMARK   15  A    between atoms: C17_27  and  C18_28 
REMARK   16  A    between atoms: C22_36  and  O10_39 
ROOT
HETATM    1  C6  UNL     1      -1.970   1.438   4.451  1.00  0.00     0.043 C 
HETATM    2  C7  UNL     1      -0.823   0.917   3.622  1.00  0.00     0.128 C 
HETATM    3  C8  UNL     1      -1.304   0.834   2.208  1.00  0.00     0.064 C 
HETATM    4  C9  UNL     1      -2.784   1.065   2.248  1.00  0.00     0.125 C 
HETATM    5  C10 UNL     1      -3.165   1.604   3.572  1.00  0.00     0.031 C 
ENDROOT
BRANCH   5   6
HETATM    6  C11 UNL     1      -3.700   3.011   3.553  1.00  0.00     0.088 C 
BRANCH   6   7
HETATM    7  C12 UNL     1      -5.142   3.150   3.727  1.00  0.00     0.150 C 
HETATM    8  O5  UNL     1      -5.592   3.432   4.817  1.00  0.00    -0.296 OA
BRANCH   7   9
HETATM    9  C13 UNL     1      -6.107   2.957   2.618  1.00  0.00     0.248 C 
BRANCH   9  10
HETATM   10  O6  UNL     1      -7.164   2.139   2.893  1.00  0.00    -0.360 OA
BRANCH  10  11
HETATM   11  C14 UNL     1      -6.884   0.787   2.992  1.00  0.00     0.239 C 
HETATM   12  C15 UNL     1      -7.796  -0.000   2.039  1.00  0.00     0.164 C 
HETATM   13  C16 UNL     1      -7.343  -1.450   2.114  1.00  0.00     0.068 C 
HETATM   14  C17 UNL     1      -6.710  -1.752   3.448  1.00  0.00     0.178 C 
HETATM   15  N1  UNL     1      -7.284  -0.993   4.523  1.00  0.00    -0.232 NA
HETATM   16  C19 UNL     1      -8.602  -1.360   4.905  1.00  0.00     0.110 A 
HETATM   17  N2  UNL     1      -7.213   0.376   4.341  1.00  0.00    -0.218 NA
HETATM   18  C20 UNL     1      -9.418  -0.118   5.046  1.00  0.00     0.032 A 
HETATM   19  C21 UNL     1      -8.459   0.977   4.707  1.00  0.00     0.112 A 
BRANCH  12  20
HETATM   20  O7  UNL     1      -7.589   0.432   0.734  1.00  0.00    -0.392 OA
ATOM     21  H7  UNL     1      -8.275   0.090   0.173  1.00  0.00     0.210 HD
ENDBRANCH  12  20
BRANCH  14  22
HETATM   22  C18 UNL     1      -6.788  -3.196   3.701  1.00  0.00     0.193 C 
HETATM   23  O8  UNL     1      -6.231  -3.764   4.681  1.00  0.00    -0.647 OA
HETATM   24  O9  UNL     1      -7.506  -4.022   2.839  1.00  0.00    -0.647 OA
ENDBRANCH  14  22
ENDBRANCH  10  11
ENDBRANCH   9  10
ENDBRANCH   7   9
ENDBRANCH   6   7
ENDBRANCH   5   6
BRANCH   1  25
HETATM   25  C5  UNL     1      -2.234   0.413   5.498  1.00  0.00    -0.020 C 
HETATM   26  C4  UNL     1      -3.435  -0.096   5.725  1.00  0.00     0.004 C 
BRANCH  26  27
HETATM   27  C3  UNL     1      -3.642  -1.135   6.803  1.00  0.00     0.180 C 
BRANCH  27  28
HETATM   28  O2  UNL     1      -3.627  -2.414   6.226  1.00  0.00    -0.355 OA
BRANCH  28  29
HETATM   29  C2  UNL     1      -2.782  -3.212   6.961  1.00  0.00     0.338 C 
BRANCH  29  30
HETATM   30  O1  UNL     1      -2.584  -4.465   6.448  1.00  0.00    -0.372 OA
HETATM   31  C1  UNL     1      -3.691  -5.274   6.462  1.00  0.00     0.204 C 
ENDBRANCH  29  30
ENDBRANCH  28  29
ENDBRANCH  27  28
BRANCH  27  32
HETATM   32  C22 UNL     1      -4.958  -0.852   7.477  1.00  0.00     0.080 C 
HETATM   33  C23 UNL     1      -4.820  -1.162   8.948  1.00  0.00     0.048 C 
HETATM   34  C24 UNL     1      -5.399   0.587   7.324  1.00  0.00     0.048 C 
BRANCH  32  35
HETATM   35  O10 UNL     1      -5.963  -1.695   6.984  1.00  0.00    -0.388 OA
ATOM     36  H10 UNL     1      -6.740  -1.197   6.756  1.00  0.00     0.210 HD
ENDBRANCH  32  35
ENDBRANCH  27  32
ENDBRANCH  26  27
ENDBRANCH   1  25
BRANCH   4  37
HETATM   37  O4  UNL     1      -3.387  -0.208   2.086  1.00  0.00    -0.395 OA
ATOM     38  H4  UNL     1      -4.322  -0.053   2.027  1.00  0.00     0.210 HD
ENDBRANCH   4  37
BRANCH   2  39
HETATM   39  O3  UNL     1       0.274   1.759   3.786  1.00  0.00    -0.395 OA
ATOM     40  H3  UNL     1       0.987   1.266   4.176  1.00  0.00     0.210 HD
ENDBRANCH   2  39
TORSDOF 16
ENDMDL
MODEL 4
REMARK VINA RESULT: -6.306747800      0.840      2.047
REMARK  16 active torsions:
REMARK  status: ('A' for Active; 'I' for Inactive)
REMARK    1  A    between atoms: O1_2  and  C2_3 
REMARK    2  A    between atoms: C2_3  and  O2_4 
REMARK    3  A    between atoms: O2_4  and  C3_5 
REMARK    4  A    between atoms: C3_5  and  C4_6 
REMARK    5  A    between atoms: C3_5  and  C22_36 
REMARK    6  A    between atoms: C5_7  and  C6_8 
REMARK    7  A    between atoms: C7_9  and  O3_10 
REMARK    8  A    between atoms: C9_13  and  O4_14 
REMARK    9  A    between atoms: C10_16  and  C11_17 
REMARK   10  A    between atoms: C11_17  and  C12_18 
REMARK   11  A    between atoms: C12_18  and  C13_20 
REMARK   12  A    between atoms: C13_20  and  O6_21 
REMARK   13  A    between atoms: O6_21  and  C14_22 
REMARK   14  A    between atoms: C15_23  and  O7_24 
REMARK   15  A    between atoms: C17_27  and  C18_28 
REMARK   16  A    between atoms: C22_36  and  O10_39 
ROOT
HETATM    1  C6  UNL     1      -8.498  -1.312   2.421  1.00  0.00     0.043 C 
HETATM    2  C7  UNL     1      -8.033  -2.636   1.866  1.00  0.00     0.128 C 
HETATM    3  C8  UNL     1      -7.017  -3.181   2.820  1.00  0.00     0.064 C 
HETATM    4  C9  UNL     1      -6.708  -2.078   3.786  1.00  0.00     0.125 C 
HETATM    5  C10 UNL     1      -7.724  -1.011   3.662  1.00  0.00     0.031 C 
ENDROOT
BRANCH   5   6
HETATM    6  C11 UNL     1      -8.594  -0.819   4.874  1.00  0.00     0.088 C 
BRANCH   6   7
HETATM    7  C12 UNL     1      -8.138   0.176   5.839  1.00  0.00     0.150 C 
HETATM    8  O5  UNL     1      -8.726   0.308   6.891  1.00  0.00    -0.296 OA
BRANCH   7   9
HETATM    9  C13 UNL     1      -6.970   1.056   5.594  1.00  0.00     0.248 C 
BRANCH   9  10
HETATM   10  O6  UNL     1      -5.946   0.939   6.489  1.00  0.00    -0.360 OA
BRANCH  10  11
HETATM   11  C14 UNL     1      -5.424  -0.332   6.661  1.00  0.00     0.239 C 
HETATM   12  C15 UNL     1      -5.209  -0.603   8.158  1.00  0.00     0.164 C 
HETATM   13  C16 UNL     1      -4.757  -2.052   8.268  1.00  0.00     0.068 C 
HETATM   14  C17 UNL     1      -4.058  -2.500   7.010  1.00  0.00     0.178 C 
HETATM   15  N1  UNL     1      -3.336  -1.440   6.365  1.00  0.00    -0.232 NA
HETATM   16  C19 UNL     1      -2.161  -0.997   7.029  1.00  0.00     0.110 A 
HETATM   17  N2  UNL     1      -4.122  -0.352   6.028  1.00  0.00    -0.218 NA
HETATM   18  C20 UNL     1      -2.165   0.495   7.055  1.00  0.00     0.032 A 
HETATM   19  C21 UNL     1      -3.437   0.859   6.359  1.00  0.00     0.112 A 
BRANCH  12  20
HETATM   20  O7  UNL     1      -6.421  -0.495   8.829  1.00  0.00    -0.392 OA
ATOM     21  H7  UNL     1      -6.260  -0.336   9.752  1.00  0.00     0.210 HD
ENDBRANCH  12  20
BRANCH  14  22
HETATM   22  C18 UNL     1      -3.186  -3.638   7.324  1.00  0.00     0.193 C 
HETATM   23  O8  UNL     1      -2.995  -4.068   8.496  1.00  0.00    -0.647 OA
HETATM   24  O9  UNL     1      -2.514  -4.310   6.306  1.00  0.00    -0.647 OA
ENDBRANCH  14  22
ENDBRANCH  10  11
ENDBRANCH   9  10
ENDBRANCH   7   9
ENDBRANCH   6   7
ENDBRANCH   5   6
BRANCH   1  25
HETATM   25  C5  UNL     1      -8.217  -0.294   1.373  1.00  0.00    -0.020 C 
HETATM   26  C4  UNL     1      -7.279   0.633   1.498  1.00  0.00     0.004 C 
BRANCH  26  27
HETATM   27  C3  UNL     1      -7.039   1.642   0.399  1.00  0.00     0.180 C 
BRANCH  27  28
HETATM   28  O2  UNL     1      -5.746   1.468  -0.119  1.00  0.00    -0.355 OA
BRANCH  28  29
HETATM   29  C2  UNL     1      -5.029   0.688   0.758  1.00  0.00     0.338 C 
BRANCH  29  30
HETATM   30  O1  UNL     1      -3.854   1.240   1.189  1.00  0.00    -0.372 OA
HETATM   31  C1  UNL     1      -3.837   1.597   2.512  1.00  0.00     0.204 C 
ENDBRANCH  29  30
ENDBRANCH  28  29
ENDBRANCH  27  28
BRANCH  27  32
HETATM   32  C22 UNL     1      -7.217   3.018   0.982  1.00  0.00     0.080 C 
HETATM   33  C23 UNL     1      -8.467   3.630   0.396  1.00  0.00     0.048 C 
HETATM   34  C24 UNL     1      -7.344   3.006   2.490  1.00  0.00     0.048 C 
BRANCH  32  35
HETATM   35  O10 UNL     1      -6.154   3.856   0.618  1.00  0.00    -0.388 OA
ATOM     36  H10 UNL     1      -5.669   4.140   1.385  1.00  0.00     0.210 HD
ENDBRANCH  32  35
ENDBRANCH  27  32
ENDBRANCH  26  27
ENDBRANCH   1  25
BRANCH   4  37
HETATM   37  O4  UNL     1      -5.449  -1.555   3.399  1.00  0.00    -0.395 OA
ATOM     38  H4  UNL     1      -5.604  -1.044   2.613  1.00  0.00     0.210 HD
ENDBRANCH   4  37
BRANCH   2  39
HETATM   39  O3  UNL     1      -9.137  -3.469   1.697  1.00  0.00    -0.395 OA
ATOM     40  H3  UNL     1      -9.028  -3.968   0.896  1.00  0.00     0.210 HD
ENDBRANCH   2  39
TORSDOF 16
ENDMDL
MODEL 5
REMARK VINA RESULT: -6.134447873      2.928      7.952
REMARK  16 active torsions:
REMARK  status: ('A' for Active; 'I' for Inactive)
REMARK    1  A    between atoms: O1_2  and  C2_3 
REMARK    2  A    between atoms: C2_3  and  O2_4 
REMARK    3  A    between atoms: O2_4  and  C3_5 
REMARK    4  A    between atoms: C3_5  and  C4_6 
REMARK    5  A    between atoms: C3_5  and  C22_36 
REMARK    6  A    between atoms: C5_7  and  C6_8 
REMARK    7  A    between atoms: C7_9  and  O3_10 
REMARK    8  A    between atoms: C9_13  and  O4_14 
REMARK    9  A    between atoms: C10_16  and  C11_17 
REMARK   10  A    between atoms: C11_17  and  C12_18 
REMARK   11  A    between atoms: C12_18  and  C13_20 
REMARK   12  A    between atoms: C13_20  and  O6_21 
REMARK   13  A    between atoms: O6_21  and  C14_22 
REMARK   14  A    between atoms: C15_23  and  O7_24 
REMARK   15  A    between atoms: C17_27  and  C18_28 
REMARK   16  A    between atoms: C22_36  and  O10_39 
ROOT
HETATM    1  C6  UNL     1      -4.006  -0.540  10.586  1.00  0.00     0.043 C 
HETATM    2  C7  UNL     1      -5.149  -0.097  11.466  1.00  0.00     0.128 C 
HETATM    3  C8  UNL     1      -6.409  -0.295  10.685  1.00  0.00     0.064 C 
HETATM    4  C9  UNL     1      -5.993  -0.612   9.281  1.00  0.00     0.125 C 
HETATM    5  C10 UNL     1      -4.550  -0.936   9.253  1.00  0.00     0.031 C 
ENDROOT
BRANCH   5   6
HETATM    6  C11 UNL     1      -4.226  -2.356   8.876  1.00  0.00     0.088 C 
BRANCH   6   7
HETATM    7  C12 UNL     1      -3.919  -2.591   7.469  1.00  0.00     0.150 C 
HETATM    8  O5  UNL     1      -4.083  -3.695   6.994  1.00  0.00    -0.296 OA
BRANCH   7   9
HETATM    9  C13 UNL     1      -3.404  -1.530   6.571  1.00  0.00     0.248 C 
BRANCH   9  10
HETATM   10  O6  UNL     1      -4.175  -1.258   5.478  1.00  0.00    -0.360 OA
BRANCH  10  11
HETATM   11  C14 UNL     1      -5.534  -1.121   5.705  1.00  0.00     0.239 C 
HETATM   12  C15 UNL     1      -6.317  -1.870   4.616  1.00  0.00     0.164 C 
HETATM   13  C16 UNL     1      -7.784  -1.777   5.006  1.00  0.00     0.068 C 
HETATM   14  C17 UNL     1      -8.051  -0.541   5.827  1.00  0.00     0.178 C 
HETATM   15  N1  UNL     1      -7.204   0.561   5.468  1.00  0.00    -0.232 NA
HETATM   16  C19 UNL     1      -7.474   1.165   4.212  1.00  0.00     0.110 A 
HETATM   17  N2  UNL     1      -5.852   0.286   5.575  1.00  0.00    -0.218 NA
HETATM   18  C20 UNL     1      -6.182   1.355   3.488  1.00  0.00     0.032 A 
HETATM   19  C21 UNL     1      -5.163   0.804   4.434  1.00  0.00     0.112 A 
BRANCH  12  20
HETATM   20  O7  UNL     1      -5.967  -3.215   4.635  1.00  0.00    -0.392 OA
ATOM     21  H7  UNL     1      -6.237  -3.602   5.460  1.00  0.00     0.210 HD
ENDBRANCH  12  20
BRANCH  14  22
HETATM   22  C18 UNL     1      -9.472  -0.191   5.721  1.00  0.00     0.193 C 
HETATM   23  O8  UNL     1     -10.064   0.575   6.531  1.00  0.00    -0.647 OA
HETATM   24  O9  UNL     1     -10.248  -0.709   4.686  1.00  0.00    -0.647 OA
ENDBRANCH  14  22
ENDBRANCH  10  11
ENDBRANCH   9  10
ENDBRANCH   7   9
ENDBRANCH   6   7
ENDBRANCH   5   6
BRANCH   1  25
HETATM   25  C5  UNL     1      -3.100   0.633  10.450  1.00  0.00    -0.020 C 
HETATM   26  C4  UNL     1      -2.397   0.881   9.355  1.00  0.00     0.004 C 
BRANCH  26  27
HETATM   27  C3  UNL     1      -1.492   2.089   9.275  1.00  0.00     0.180 C 
BRANCH  27  28
HETATM   28  O2  UNL     1      -1.646   2.864  10.434  1.00  0.00    -0.355 OA
BRANCH  28  29
HETATM   29  C2  UNL     1      -0.461   2.844  11.130  1.00  0.00     0.338 C 
BRANCH  29  30
HETATM   30  O1  UNL     1      -0.503   2.164  12.317  1.00  0.00    -0.372 OA
HETATM   31  C1  UNL     1       0.235   1.010  12.345  1.00  0.00     0.204 C 
ENDBRANCH  29  30
ENDBRANCH  28  29
ENDBRANCH  27  28
BRANCH  27  32
HETATM   32  C22 UNL     1      -1.861   2.867   8.040  1.00  0.00     0.080 C 
HETATM   33  C23 UNL     1      -0.590   3.305   7.351  1.00  0.00     0.048 C 
HETATM   34  C24 UNL     1      -2.689   2.061   7.063  1.00  0.00     0.048 C 
BRANCH  32  35
HETATM   35  O10 UNL     1      -2.556   4.036   8.376  1.00  0.00    -0.388 OA
ATOM     36  H10 UNL     1      -2.049   4.571   8.976  1.00  0.00     0.210 HD
ENDBRANCH  32  35
ENDBRANCH  27  32
ENDBRANCH  26  27
ENDBRANCH   1  25
BRANCH   4  37
HETATM   37  O4  UNL     1      -6.209   0.569   8.528  1.00  0.00    -0.395 OA
ATOM     38  H4  UNL     1      -6.682   0.304   7.748  1.00  0.00     0.210 HD
ENDBRANCH   4  37
BRANCH   2  39
HETATM   39  O3  UNL     1      -5.113  -0.823  12.654  1.00  0.00    -0.395 OA
ATOM     40  H3  UNL     1      -4.493  -0.415  13.247  1.00  0.00     0.210 HD
ENDBRANCH   2  39
TORSDOF 16
ENDMDL
