MODEL 1
REMARK VINA RESULT: -7.161624156      0.000      0.000
REMARK  17 active torsions:
REMARK  status: ('A' for Active; 'I' for Inactive)
REMARK    1  A    between atoms: C4_4  and  O1_5 
REMARK    2  A    between atoms: C5_7  and  O2_8 
REMARK    3  A    between atoms: C6_10  and  O3_11 
REMARK    4  A    between atoms: O3_11  and  C7_12 
REMARK    5  A    between atoms: C8_13  and  N1_14 
REMARK    6  A    between atoms: N1_14  and  N2_16 
REMARK    7  A    between atoms: N2_16  and  N3_17 
REMARK    8  A    between atoms: C13_24  and  O4_25 
REMARK    9  A    between atoms: O4_25  and  C14_26 
REMARK   10  A    between atoms: C15_28  and  C16_29 
REMARK   11  A    between atoms: C16_29  and  O6_30 
REMARK   12  A    between atoms: C17_32  and  O7_33 
REMARK   13  A    between atoms: C19_36  and  O8_37 
REMARK   14  A    between atoms: O8_37  and  C20_38 
REMARK   15  A    between atoms: C20_38  and  C21_39 
REMARK   16  A    between atoms: C21_39  and  N4_40 
REMARK   17  A    between atoms: N4_40  and  C22_42 
ROOT
HETATM    1  C7  UNL     1      -8.369  -1.045   3.791  1.00  0.00     0.179 C 
HETATM    2  C8  UNL     1      -7.829  -2.263   3.152  1.00  0.00     0.146 C 
HETATM    3  C9  UNL     1      -6.420  -2.236   2.728  1.00  0.00     0.031 C 
HETATM    4  C10 UNL     1      -5.787  -0.912   2.551  1.00  0.00     0.009 C 
HETATM    5  C11 UNL     1      -6.363   0.202   3.340  1.00  0.00     0.013 C 
HETATM    6  C12 UNL     1      -5.345   1.218   3.796  1.00  0.00     0.012 C 
HETATM    7  C13 UNL     1      -7.214  -0.307   4.475  1.00  0.00     0.159 C 
ENDROOT
BRANCH   7   8
HETATM    8  O4  UNL     1      -6.591  -1.218   5.294  1.00  0.00    -0.350 OA
BRANCH   8   9
HETATM    9  C14 UNL     1      -5.964  -0.683   6.381  1.00  0.00     0.289 C 
HETATM   10  O5  UNL     1      -6.670  -0.964   7.563  1.00  0.00    -0.349 OA
HETATM   11  C15 UNL     1      -6.169  -0.096   8.526  1.00  0.00     0.177 C 
HETATM   12  C17 UNL     1      -4.747  -0.316   8.880  1.00  0.00     0.151 C 
HETATM   13  C18 UNL     1      -3.854  -0.665   7.727  1.00  0.00     0.071 C 
HETATM   14  C19 UNL     1      -4.586  -1.286   6.568  1.00  0.00     0.179 C 
BRANCH  11  15
HETATM   15  C16 UNL     1      -7.005  -0.153   9.801  1.00  0.00     0.198 C 
BRANCH  15  16
HETATM   16  O6  UNL     1      -8.185   0.542   9.538  1.00  0.00    -0.398 OA
ATOM     17  H6  UNL     1      -8.739   0.437  10.303  1.00  0.00     0.209 HD
ENDBRANCH  15  16
ENDBRANCH  11  15
BRANCH  12  18
HETATM   18  O7  UNL     1      -4.689  -1.248   9.917  1.00  0.00    -0.393 OA
ATOM     19  H7  UNL     1      -3.957  -1.832   9.756  1.00  0.00     0.210 HD
ENDBRANCH  12  18
BRANCH  14  20
HETATM   20  O8  UNL     1      -4.629  -2.674   6.676  1.00  0.00    -0.379 OA
BRANCH  20  21
HETATM   21  C20 UNL     1      -3.382  -3.203   7.025  1.00  0.00     0.188 C 
BRANCH  21  22
HETATM   22  C21 UNL     1      -3.563  -4.355   7.973  1.00  0.00     0.148 C 
BRANCH  22  23
HETATM   23  N4  UNL     1      -4.025  -5.538   7.303  1.00  0.00    -0.366 N 
ATOM     24  H4  UNL     1      -4.015  -5.585   6.284  1.00  0.00     0.161 HD
BRANCH  23  25
HETATM   25  C22 UNL     1      -4.494  -6.636   8.057  1.00  0.00     0.348 C 
HETATM   26  O9  UNL     1      -5.722  -6.901   8.041  1.00  0.00    -0.284 OA
ENDBRANCH  23  25
ENDBRANCH  22  23
ENDBRANCH  21  22
ENDBRANCH  20  21
ENDBRANCH  14  20
ENDBRANCH   8   9
ENDBRANCH   7   8
BRANCH   1  27
HETATM   27  O3  UNL     1      -9.035  -0.253   2.887  1.00  0.00    -0.349 OA
BRANCH  27  28
HETATM   28  C6  UNL     1      -9.485   0.960   3.437  1.00  0.00     0.291 C 
HETATM   29  C5  UNL     1      -9.175   2.035   2.449  1.00  0.00     0.202 C 
HETATM   30  C4  UNL     1     -10.129   2.033   1.288  1.00  0.00     0.154 C 
HETATM   31  C3  UNL     1     -11.483   1.551   1.679  1.00  0.00     0.066 C 
HETATM   32  C2  UNL     1     -11.727   1.517   3.159  1.00  0.00     0.123 C 
HETATM   33  C1  UNL     1     -12.057   2.918   3.651  1.00  0.00     0.040 C 
HETATM   34  O10 UNL     1     -10.759   0.907   3.894  1.00  0.00    -0.354 OA
BRANCH  29  35
HETATM   35  O2  UNL     1      -9.018   3.296   3.024  1.00  0.00    -0.388 OA
ATOM     36  H2  UNL     1      -8.238   3.365   3.561  1.00  0.00     0.210 HD
ENDBRANCH  29  35
BRANCH  30  37
HETATM   37  O1  UNL     1     -10.132   3.297   0.709  1.00  0.00    -0.393 OA
ATOM     38  H1  UNL     1      -9.752   3.319  -0.162  1.00  0.00     0.210 HD
ENDBRANCH  30  37
ENDBRANCH  27  28
ENDBRANCH   1  27
BRANCH   2  39
HETATM   39  N1  UNL     1      -8.715  -2.608   2.030  1.00  0.00    -0.245 N 
ATOM     40  H1  UNL     1      -9.122  -1.871   1.454  1.00  0.00     0.197 HD
BRANCH  39  41
HETATM   41  N2  UNL     1      -8.964  -3.782   1.789  1.00  0.00    -0.248 NA
BRANCH  41  42
HETATM   42  N3  UNL     1      -9.124  -4.993   1.894  1.00  0.00    -0.261 N 
ATOM     43  H32 UNL     1      -9.720  -4.925   2.719  1.00  0.00     0.193 HD
ATOM     44  H31 UNL     1      -9.081  -6.001   1.740  1.00  0.00     0.193 HD
ENDBRANCH  41  42
ENDBRANCH  39  41
ENDBRANCH   2  39
TORSDOF 17
ENDMDL
MODEL 2
REMARK VINA RESULT: -7.061399260      3.019      4.730
REMARK  17 active torsions:
REMARK  status: ('A' for Active; 'I' for Inactive)
REMARK    1  A    between atoms: C4_4  and  O1_5 
REMARK    2  A    between atoms: C5_7  and  O2_8 
REMARK    3  A    between atoms: C6_10  and  O3_11 
REMARK    4  A    between atoms: O3_11  and  C7_12 
REMARK    5  A    between atoms: C8_13  and  N1_14 
REMARK    6  A    between atoms: N1_14  and  N2_16 
REMARK    7  A    between atoms: N2_16  and  N3_17 
REMARK    8  A    between atoms: C13_24  and  O4_25 
REMARK    9  A    between atoms: O4_25  and  C14_26 
REMARK   10  A    between atoms: C15_28  and  C16_29 
REMARK   11  A    between atoms: C16_29  and  O6_30 
REMARK   12  A    between atoms: C17_32  and  O7_33 
REMARK   13  A    between atoms: C19_36  and  O8_37 
REMARK   14  A    between atoms: O8_37  and  C20_38 
REMARK   15  A    between atoms: C20_38  and  C21_39 
REMARK   16  A    between atoms: C21_39  and  N4_40 
REMARK   17  A    between atoms: N4_40  and  C22_42 
ROOT
HETATM    1  C7  UNL     1      -5.182   0.387   4.299  1.00  0.00     0.179 C 
HETATM    2  C8  UNL     1      -4.299  -0.013   3.183  1.00  0.00     0.146 C 
HETATM    3  C9  UNL     1      -3.002   0.673   3.068  1.00  0.00     0.031 C 
HETATM    4  C10 UNL     1      -2.856   1.973   3.755  1.00  0.00     0.009 C 
HETATM    5  C11 UNL     1      -3.730   2.198   4.929  1.00  0.00     0.013 C 
HETATM    6  C12 UNL     1      -3.087   3.016   6.022  1.00  0.00     0.012 C 
HETATM    7  C13 UNL     1      -4.305   0.904   5.444  1.00  0.00     0.159 C 
ENDROOT
BRANCH   7   8
HETATM    8  O4  UNL     1      -3.375  -0.073   5.705  1.00  0.00    -0.350 OA
BRANCH   8   9
HETATM    9  C14 UNL     1      -3.776  -1.033   6.587  1.00  0.00     0.289 C 
HETATM   10  O5  UNL     1      -3.152  -2.262   6.318  1.00  0.00    -0.349 OA
HETATM   11  C15 UNL     1      -3.879  -3.223   7.012  1.00  0.00     0.177 C 
HETATM   12  C17 UNL     1      -3.829  -3.095   8.486  1.00  0.00     0.151 C 
HETATM   13  C18 UNL     1      -3.869  -1.686   9.001  1.00  0.00     0.071 C 
HETATM   14  C19 UNL     1      -3.381  -0.669   8.005  1.00  0.00     0.179 C 
BRANCH  11  15
HETATM   15  C16 UNL     1      -3.432  -4.630   6.627  1.00  0.00     0.198 C 
BRANCH  15  16
HETATM   16  O6  UNL     1      -2.119  -4.524   6.173  1.00  0.00    -0.398 OA
ATOM     17  H6  UNL     1      -1.579  -4.351   6.936  1.00  0.00     0.209 HD
ENDBRANCH  15  16
ENDBRANCH  11  15
BRANCH  12  18
HETATM   18  O7  UNL     1      -2.730  -3.816   8.956  1.00  0.00    -0.393 OA
ATOM     19  H7  UNL     1      -2.057  -3.200   9.221  1.00  0.00     0.210 HD
ENDBRANCH  12  18
BRANCH  14  20
HETATM   20  O8  UNL     1      -2.012  -0.447   8.129  1.00  0.00    -0.379 OA
BRANCH  20  21
HETATM   21  C20 UNL     1      -1.742   0.795   8.715  1.00  0.00     0.188 C 
BRANCH  21  22
HETATM   22  C21 UNL     1      -0.605   0.663   9.690  1.00  0.00     0.148 C 
BRANCH  22  23
HETATM   23  N4  UNL     1      -1.053   0.232  10.985  1.00  0.00    -0.366 N 
ATOM     24  H4  UNL     1      -0.497  -0.432  11.523  1.00  0.00     0.161 HD
BRANCH  23  25
HETATM   25  C22 UNL     1      -2.265   0.731  11.512  1.00  0.00     0.348 C 
HETATM   26  O9  UNL     1      -3.042  -0.063  12.098  1.00  0.00    -0.284 OA
ENDBRANCH  23  25
ENDBRANCH  22  23
ENDBRANCH  21  22
ENDBRANCH  20  21
ENDBRANCH  14  20
ENDBRANCH   8   9
ENDBRANCH   7   8
BRANCH   1  27
HETATM   27  O3  UNL     1      -6.117   1.310   3.897  1.00  0.00    -0.349 OA
BRANCH  27  28
HETATM   28  C6  UNL     1      -7.349   1.176   4.560  1.00  0.00     0.291 C 
HETATM   29  C5  UNL     1      -8.421   1.480   3.566  1.00  0.00     0.202 C 
HETATM   30  C4  UNL     1      -8.643   0.346   2.604  1.00  0.00     0.154 C 
HETATM   31  C3  UNL     1      -8.360  -0.976   3.227  1.00  0.00     0.066 C 
HETATM   32  C2  UNL     1      -8.273  -0.953   4.724  1.00  0.00     0.123 C 
HETATM   33  C1  UNL     1      -9.675  -0.950   5.313  1.00  0.00     0.040 C 
HETATM   34  O10 UNL     1      -7.472   0.015   5.245  1.00  0.00    -0.354 OA
BRANCH  29  35
HETATM   35  O2  UNL     1      -9.602   1.947   4.141  1.00  0.00    -0.388 OA
ATOM     36  H2  UNL     1      -9.454   2.589   4.825  1.00  0.00     0.210 HD
ENDBRANCH  29  35
BRANCH  30  37
HETATM   37  O1  UNL     1      -9.925   0.452   2.076  1.00  0.00    -0.393 OA
ATOM     38  H1  UNL     1     -10.102   1.292   1.669  1.00  0.00     0.210 HD
ENDBRANCH  30  37
ENDBRANCH  27  28
ENDBRANCH   1  27
BRANCH   2  39
HETATM   39  N1  UNL     1      -5.074   0.101   1.939  1.00  0.00    -0.245 N 
ATOM     40  H1  UNL     1      -6.066  -0.138   1.930  1.00  0.00     0.197 HD
BRANCH  39  41
HETATM   41  N2  UNL     1      -4.527   0.484   0.913  1.00  0.00    -0.248 NA
BRANCH  41  42
HETATM   42  N3  UNL     1      -3.949   0.514  -0.168  1.00  0.00    -0.261 N 
ATOM     43  H32 UNL     1      -4.788   0.318  -0.714  1.00  0.00     0.193 HD
ATOM     44  H31 UNL     1      -3.233   0.595  -0.890  1.00  0.00     0.193 HD
ENDBRANCH  41  42
ENDBRANCH  39  41
ENDBRANCH   2  39
TORSDOF 17
ENDMDL
MODEL 3
REMARK VINA RESULT: -7.025252686      2.987      4.041
REMARK  17 active torsions:
REMARK  status: ('A' for Active; 'I' for Inactive)
REMARK    1  A    between atoms: C4_4  and  O1_5 
REMARK    2  A    between atoms: C5_7  and  O2_8 
REMARK    3  A    between atoms: C6_10  and  O3_11 
REMARK    4  A    between atoms: O3_11  and  C7_12 
REMARK    5  A    between atoms: C8_13  and  N1_14 
REMARK    6  A    between atoms: N1_14  and  N2_16 
REMARK    7  A    between atoms: N2_16  and  N3_17 
REMARK    8  A    between atoms: C13_24  and  O4_25 
REMARK    9  A    between atoms: O4_25  and  C14_26 
REMARK   10  A    between atoms: C15_28  and  C16_29 
REMARK   11  A    between atoms: C16_29  and  O6_30 
REMARK   12  A    between atoms: C17_32  and  O7_33 
REMARK   13  A    between atoms: C19_36  and  O8_37 
REMARK   14  A    between atoms: O8_37  and  C20_38 
REMARK   15  A    between atoms: C20_38  and  C21_39 
REMARK   16  A    between atoms: C21_39  and  N4_40 
REMARK   17  A    between atoms: N4_40  and  C22_42 
ROOT
HETATM    1  C7  UNL     1      -6.509   0.376   4.782  1.00  0.00     0.179 C 
HETATM    2  C8  UNL     1      -7.883   0.623   5.268  1.00  0.00     0.146 C 
HETATM    3  C9  UNL     1      -8.792  -0.532   5.339  1.00  0.00     0.031 C 
HETATM    4  C10 UNL     1      -8.448  -1.721   4.531  1.00  0.00     0.009 C 
HETATM    5  C11 UNL     1      -7.014  -1.905   4.210  1.00  0.00     0.013 C 
HETATM    6  C12 UNL     1      -6.579  -3.348   4.157  1.00  0.00     0.012 C 
HETATM    7  C13 UNL     1      -6.136  -1.073   5.109  1.00  0.00     0.159 C 
ENDROOT
BRANCH   7   8
HETATM    8  O4  UNL     1      -6.364  -1.248   6.453  1.00  0.00    -0.350 OA
BRANCH   8   9
HETATM    9  C14 UNL     1      -5.336  -0.873   7.268  1.00  0.00     0.289 C 
HETATM   10  O5  UNL     1      -5.688  -1.005   8.622  1.00  0.00    -0.349 OA
HETATM   11  C15 UNL     1      -4.745  -0.275   9.337  1.00  0.00     0.177 C 
HETATM   12  C17 UNL     1      -3.363  -0.802   9.258  1.00  0.00     0.151 C 
HETATM   13  C18 UNL     1      -2.961  -1.326   7.911  1.00  0.00     0.071 C 
HETATM   14  C19 UNL     1      -4.126  -1.763   7.065  1.00  0.00     0.179 C 
BRANCH  11  15
HETATM   15  C16 UNL     1      -5.142  -0.161  10.806  1.00  0.00     0.198 C 
BRANCH  15  16
HETATM   16  O6  UNL     1      -6.504  -0.447  10.877  1.00  0.00    -0.398 OA
ATOM     17  H6  UNL     1      -6.962   0.382  10.805  1.00  0.00     0.209 HD
ENDBRANCH  15  16
ENDBRANCH  11  15
BRANCH  12  18
HETATM   18  O7  UNL     1      -3.185  -1.734  10.281  1.00  0.00    -0.393 OA
ATOM     19  H7  UNL     1      -3.130  -2.599   9.894  1.00  0.00     0.210 HD
ENDBRANCH  12  18
BRANCH  14  20
HETATM   20  O8  UNL     1      -4.424  -3.109   7.261  1.00  0.00    -0.379 OA
BRANCH  20  21
HETATM   21  C20 UNL     1      -3.336  -3.930   6.942  1.00  0.00     0.188 C 
BRANCH  21  22
HETATM   22  C21 UNL     1      -3.762  -5.371   6.961  1.00  0.00     0.148 C 
BRANCH  22  23
HETATM   23  N4  UNL     1      -4.003  -5.845   8.295  1.00  0.00    -0.366 N 
ATOM     24  H4  UNL     1      -3.587  -5.361   9.092  1.00  0.00     0.161 HD
BRANCH  23  25
HETATM   25  C22 UNL     1      -4.816  -6.981   8.502  1.00  0.00     0.348 C 
HETATM   26  O9  UNL     1      -5.975  -6.991   8.017  1.00  0.00    -0.284 OA
ENDBRANCH  23  25
ENDBRANCH  22  23
ENDBRANCH  21  22
ENDBRANCH  20  21
ENDBRANCH  14  20
ENDBRANCH   8   9
ENDBRANCH   7   8
BRANCH   1  27
HETATM   27  O3  UNL     1      -6.387   0.659   3.443  1.00  0.00    -0.349 OA
BRANCH  27  28
HETATM   28  C6  UNL     1      -5.081   1.016   3.067  1.00  0.00     0.291 C 
HETATM   29  C5  UNL     1      -4.716   0.178   1.887  1.00  0.00     0.202 C 
HETATM   30  C4  UNL     1      -5.373   0.659   0.624  1.00  0.00     0.154 C 
HETATM   31  C3  UNL     1      -5.589   2.133   0.633  1.00  0.00     0.066 C 
HETATM   32  C2  UNL     1      -4.812   2.868   1.685  1.00  0.00     0.123 C 
HETATM   33  C1  UNL     1      -3.377   3.056   1.215  1.00  0.00     0.040 C 
HETATM   34  O10 UNL     1      -4.900   2.352   2.940  1.00  0.00    -0.354 OA
BRANCH  29  35
HETATM   35  O2  UNL     1      -3.344  -0.024   1.745  1.00  0.00    -0.388 OA
ATOM     36  H2  UNL     1      -3.007  -0.703   2.318  1.00  0.00     0.210 HD
ENDBRANCH  29  35
BRANCH  30  37
HETATM   37  O1  UNL     1      -4.633   0.210  -0.465  1.00  0.00    -0.393 OA
ATOM     38  H1  UNL     1      -3.833   0.700  -0.611  1.00  0.00     0.210 HD
ENDBRANCH  30  37
ENDBRANCH  27  28
ENDBRANCH   1  27
BRANCH   2  39
HETATM   39  N1  UNL     1      -8.457   1.702   4.450  1.00  0.00    -0.245 N 
ATOM     40  H1  UNL     1      -7.886   2.507   4.191  1.00  0.00     0.197 HD
BRANCH  39  41
HETATM   41  N2  UNL     1      -9.622   1.632   4.079  1.00  0.00    -0.248 NA
BRANCH  41  42
HETATM   42  N3  UNL     1     -10.754   1.919   3.707  1.00  0.00    -0.261 N 
ATOM     43  H32 UNL     1     -11.100   2.119   4.645  1.00  0.00     0.193 HD
ATOM     44  H31 UNL     1     -11.576   2.095   3.129  1.00  0.00     0.193 HD
ENDBRANCH  41  42
ENDBRANCH  39  41
ENDBRANCH   2  39
TORSDOF 17
ENDMDL
MODEL 4
REMARK VINA RESULT: -6.954530551      3.435      4.688
REMARK  17 active torsions:
REMARK  status: ('A' for Active; 'I' for Inactive)
REMARK    1  A    between atoms: C4_4  and  O1_5 
REMARK    2  A    between atoms: C5_7  and  O2_8 
REMARK    3  A    between atoms: C6_10  and  O3_11 
REMARK    4  A    between atoms: O3_11  and  C7_12 
REMARK    5  A    between atoms: C8_13  and  N1_14 
REMARK    6  A    between atoms: N1_14  and  N2_16 
REMARK    7  A    between atoms: N2_16  and  N3_17 
REMARK    8  A    between atoms: C13_24  and  O4_25 
REMARK    9  A    between atoms: O4_25  and  C14_26 
REMARK   10  A    between atoms: C15_28  and  C16_29 
REMARK   11  A    between atoms: C16_29  and  O6_30 
REMARK   12  A    between atoms: C17_32  and  O7_33 
REMARK   13  A    between atoms: C19_36  and  O8_37 
REMARK   14  A    between atoms: O8_37  and  C20_38 
REMARK   15  A    between atoms: C20_38  and  C21_39 
REMARK   16  A    between atoms: C21_39  and  N4_40 
REMARK   17  A    between atoms: N4_40  and  C22_42 
ROOT
HETATM    1  C7  UNL     1      -5.760   0.222   5.138  1.00  0.00     0.179 C 
HETATM    2  C8  UNL     1      -6.863   0.777   5.953  1.00  0.00     0.146 C 
HETATM    3  C9  UNL     1      -8.112   0.003   6.015  1.00  0.00     0.031 C 
HETATM    4  C10 UNL     1      -8.350  -0.995   4.951  1.00  0.00     0.009 C 
HETATM    5  C11 UNL     1      -7.145  -1.552   4.293  1.00  0.00     0.013 C 
HETATM    6  C12 UNL     1      -7.284  -2.999   3.886  1.00  0.00     0.012 C 
HETATM    7  C13 UNL     1      -5.904  -1.302   5.110  1.00  0.00     0.159 C 
ENDROOT
BRANCH   7   8
HETATM    8  O4  UNL     1      -5.985  -1.719   6.416  1.00  0.00    -0.350 OA
BRANCH   8   9
HETATM    9  C14 UNL     1      -5.019  -1.224   7.242  1.00  0.00     0.289 C 
HETATM   10  O5  UNL     1      -5.459  -1.191   8.576  1.00  0.00    -0.349 OA
HETATM   11  C15 UNL     1      -4.575  -0.359   9.253  1.00  0.00     0.177 C 
HETATM   12  C17 UNL     1      -3.185  -0.865   9.332  1.00  0.00     0.151 C 
HETATM   13  C18 UNL     1      -2.687  -1.546   8.091  1.00  0.00     0.071 C 
HETATM   14  C19 UNL     1      -3.789  -2.109   7.233  1.00  0.00     0.179 C 
BRANCH  11  15
HETATM   15  C16 UNL     1      -5.071  -0.069  10.666  1.00  0.00     0.198 C 
BRANCH  15  16
HETATM   16  O6  UNL     1      -4.105   0.732  11.274  1.00  0.00    -0.398 OA
ATOM     17  H6  UNL     1      -4.554   1.253  11.929  1.00  0.00     0.209 HD
ENDBRANCH  15  16
ENDBRANCH  11  15
BRANCH  12  18
HETATM   18  O7  UNL     1      -3.066  -1.657  10.475  1.00  0.00    -0.393 OA
ATOM     19  H7  UNL     1      -3.350  -2.538  10.261  1.00  0.00     0.210 HD
ENDBRANCH  12  18
BRANCH  14  20
HETATM   20  O8  UNL     1      -4.084  -3.425   7.579  1.00  0.00    -0.379 OA
BRANCH  20  21
HETATM   21  C20 UNL     1      -3.297  -4.335   6.865  1.00  0.00     0.188 C 
BRANCH  21  22
HETATM   22  C21 UNL     1      -4.038  -5.633   6.701  1.00  0.00     0.148 C 
BRANCH  22  23
HETATM   23  N4  UNL     1      -3.892  -6.485   7.847  1.00  0.00    -0.366 N 
ATOM     24  H4  UNL     1      -2.965  -6.792   8.142  1.00  0.00     0.161 HD
BRANCH  23  25
HETATM   25  C22 UNL     1      -5.036  -6.899   8.566  1.00  0.00     0.348 C 
HETATM   26  O9  UNL     1      -6.133  -6.982   7.960  1.00  0.00    -0.284 OA
ENDBRANCH  23  25
ENDBRANCH  22  23
ENDBRANCH  21  22
ENDBRANCH  20  21
ENDBRANCH  14  20
ENDBRANCH   8   9
ENDBRANCH   7   8
BRANCH   1  27
HETATM   27  O3  UNL     1      -5.736   0.771   3.879  1.00  0.00    -0.349 OA
BRANCH  27  28
HETATM   28  C6  UNL     1      -4.436   0.945   3.374  1.00  0.00     0.291 C 
HETATM   29  C5  UNL     1      -4.343   0.155   2.111  1.00  0.00     0.202 C 
HETATM   30  C4  UNL     1      -5.042   0.831   0.965  1.00  0.00     0.154 C 
HETATM   31  C3  UNL     1      -5.009   2.314   1.087  1.00  0.00     0.066 C 
HETATM   32  C2  UNL     1      -4.014   2.834   2.082  1.00  0.00     0.123 C 
HETATM   33  C1  UNL     1      -2.626   2.830   1.459  1.00  0.00     0.040 C 
HETATM   34  O10 UNL     1      -4.052   2.242   3.306  1.00  0.00    -0.354 OA
BRANCH  29  35
HETATM   35  O2  UNL     1      -3.046  -0.248   1.797  1.00  0.00    -0.388 OA
ATOM     36  H2  UNL     1      -2.421   0.467   1.811  1.00  0.00     0.210 HD
ENDBRANCH  29  35
BRANCH  30  37
HETATM   37  O1  UNL     1      -4.507   0.356  -0.228  1.00  0.00    -0.393 OA
ATOM     38  H1  UNL     1      -4.183  -0.535  -0.173  1.00  0.00     0.210 HD
ENDBRANCH  30  37
ENDBRANCH  27  28
ENDBRANCH   1  27
BRANCH   2  39
HETATM   39  N1  UNL     1      -7.110   2.151   5.489  1.00  0.00    -0.245 N 
ATOM     40  H1  UNL     1      -7.850   2.337   4.813  1.00  0.00     0.197 HD
BRANCH  39  41
HETATM   41  N2  UNL     1      -6.426   3.071   5.918  1.00  0.00    -0.248 NA
BRANCH  41  42
HETATM   42  N3  UNL     1      -6.050   4.170   6.309  1.00  0.00    -0.261 N 
ATOM     43  H32 UNL     1      -6.848   4.672   5.921  1.00  0.00     0.193 HD
ATOM     44  H31 UNL     1      -5.511   4.920   6.742  1.00  0.00     0.193 HD
ENDBRANCH  41  42
ENDBRANCH  39  41
ENDBRANCH   2  39
TORSDOF 17
ENDMDL
MODEL 5
REMARK VINA RESULT: -6.863855723      3.341      7.551
REMARK  17 active torsions:
REMARK  status: ('A' for Active; 'I' for Inactive)
REMARK    1  A    between atoms: C4_4  and  O1_5 
REMARK    2  A    between atoms: C5_7  and  O2_8 
REMARK    3  A    between atoms: C6_10  and  O3_11 
REMARK    4  A    between atoms: O3_11  and  C7_12 
REMARK    5  A    between atoms: C8_13  and  N1_14 
REMARK    6  A    between atoms: N1_14  and  N2_16 
REMARK    7  A    between atoms: N2_16  and  N3_17 
REMARK    8  A    between atoms: C13_24  and  O4_25 
REMARK    9  A    between atoms: O4_25  and  C14_26 
REMARK   10  A    between atoms: C15_28  and  C16_29 
REMARK   11  A    between atoms: C16_29  and  O6_30 
REMARK   12  A    between atoms: C17_32  and  O7_33 
REMARK   13  A    between atoms: C19_36  and  O8_37 
REMARK   14  A    between atoms: O8_37  and  C20_38 
REMARK   15  A    between atoms: C20_38  and  C21_39 
REMARK   16  A    between atoms: C21_39  and  N4_40 
REMARK   17  A    between atoms: N4_40  and  C22_42 
ROOT
HETATM    1  C7  UNL     1      -4.468   0.781   4.411  1.00  0.00     0.179 C 
HETATM    2  C8  UNL     1      -4.926   2.182   4.296  1.00  0.00     0.146 C 
HETATM    3  C9  UNL     1      -4.288   3.019   3.267  1.00  0.00     0.031 C 
HETATM    4  C10 UNL     1      -2.977   2.578   2.746  1.00  0.00     0.009 C 
HETATM    5  C11 UNL     1      -2.694   1.126   2.824  1.00  0.00     0.013 C 
HETATM    6  C12 UNL     1      -1.872   0.601   1.673  1.00  0.00     0.012 C 
HETATM    7  C13 UNL     1      -3.954   0.329   3.040  1.00  0.00     0.159 C 
ENDROOT
BRANCH   7   8
HETATM    8  O4  UNL     1      -4.956   0.586   2.135  1.00  0.00    -0.350 OA
BRANCH   8   9
HETATM    9  C14 UNL     1      -5.866  -0.418   1.980  1.00  0.00     0.289 C 
HETATM   10  O5  UNL     1      -5.956  -1.206   3.140  1.00  0.00    -0.349 OA
HETATM   11  C15 UNL     1      -6.608  -2.374   2.763  1.00  0.00     0.177 C 
HETATM   12  C17 UNL     1      -8.013  -2.188   2.330  1.00  0.00     0.151 C 
HETATM   13  C18 UNL     1      -8.266  -0.955   1.513  1.00  0.00     0.071 C 
HETATM   14  C19 UNL     1      -7.257   0.138   1.749  1.00  0.00     0.179 C 
BRANCH  11  15
HETATM   15  C16 UNL     1      -6.575  -3.406   3.886  1.00  0.00     0.198 C 
BRANCH  15  16
HETATM   16  O6  UNL     1      -6.058  -2.761   5.008  1.00  0.00    -0.398 OA
ATOM     17  H6  UNL     1      -5.114  -2.857   4.968  1.00  0.00     0.209 HD
ENDBRANCH  15  16
ENDBRANCH  11  15
BRANCH  12  18
HETATM   18  O7  UNL     1      -8.837  -2.277   3.453  1.00  0.00    -0.393 OA
ATOM     19  H7  UNL     1      -9.710  -2.520   3.167  1.00  0.00     0.210 HD
ENDBRANCH  12  18
BRANCH  14  20
HETATM   20  O8  UNL     1      -7.660   0.993   2.772  1.00  0.00    -0.379 OA
BRANCH  20  21
HETATM   21  C20 UNL     1      -9.053   1.101   2.836  1.00  0.00     0.188 C 
BRANCH  21  22
HETATM   22  C21 UNL     1      -9.494   1.180   4.271  1.00  0.00     0.148 C 
BRANCH  22  23
HETATM   23  N4  UNL     1      -8.395   1.442   5.158  1.00  0.00    -0.366 N 
ATOM     24  H4  UNL     1      -7.868   2.312   5.076  1.00  0.00     0.161 HD
BRANCH  23  25
HETATM   25  C22 UNL     1      -8.046   0.493   6.144  1.00  0.00     0.348 C 
HETATM   26  O9  UNL     1      -7.867  -0.701   5.797  1.00  0.00    -0.284 OA
ENDBRANCH  23  25
ENDBRANCH  22  23
ENDBRANCH  21  22
ENDBRANCH  20  21
ENDBRANCH  14  20
ENDBRANCH   8   9
ENDBRANCH   7   8
BRANCH   1  27
HETATM   27  O3  UNL     1      -3.524   0.637   5.398  1.00  0.00    -0.349 OA
BRANCH  27  28
HETATM   28  C6  UNL     1      -3.784  -0.440   6.262  1.00  0.00     0.291 C 
HETATM   29  C5  UNL     1      -2.466  -0.940   6.755  1.00  0.00     0.202 C 
HETATM   30  C4  UNL     1      -1.875  -0.042   7.806  1.00  0.00     0.154 C 
HETATM   31  C3  UNL     1      -2.924   0.637   8.614  1.00  0.00     0.066 C 
HETATM   32  C2  UNL     1      -4.295   0.042   8.481  1.00  0.00     0.123 C 
HETATM   33  C1  UNL     1      -4.395  -1.201   9.352  1.00  0.00     0.040 C 
HETATM   34  O10 UNL     1      -4.717  -0.165   7.204  1.00  0.00    -0.354 OA
BRANCH  29  35
HETATM   35  O2  UNL     1      -2.481  -2.283   7.130  1.00  0.00    -0.388 OA
ATOM     36  H2  UNL     1      -3.352  -2.661   7.120  1.00  0.00     0.210 HD
ENDBRANCH  29  35
BRANCH  30  37
HETATM   37  O1  UNL     1      -0.973  -0.779   8.567  1.00  0.00    -0.393 OA
ATOM     38  H1  UNL     1      -0.065  -0.643   8.320  1.00  0.00     0.210 HD
ENDBRANCH  30  37
ENDBRANCH  27  28
ENDBRANCH   1  27
BRANCH   2  39
HETATM   39  N1  UNL     1      -4.815   2.797   5.627  1.00  0.00    -0.245 N 
ATOM     40  H1  UNL     1      -4.109   2.467   6.285  1.00  0.00     0.197 HD
BRANCH  39  41
HETATM   41  N2  UNL     1      -5.572   3.705   5.943  1.00  0.00    -0.248 NA
BRANCH  41  42
HETATM   42  N3  UNL     1      -6.108   4.631   6.542  1.00  0.00    -0.261 N 
ATOM     43  H32 UNL     1      -5.453   4.613   7.323  1.00  0.00     0.193 HD
ATOM     44  H31 UNL     1      -6.737   5.391   6.803  1.00  0.00     0.193 HD
ENDBRANCH  41  42
ENDBRANCH  39  41
ENDBRANCH   2  39
TORSDOF 17
ENDMDL
