MODEL 1
REMARK VINA RESULT: -7.619516148      0.000      0.000
REMARK  16 active torsions:
REMARK  status: ('A' for Active; 'I' for Inactive)
REMARK    1  A    between atoms: C2_2  and  C3_3 
REMARK    2  A    between atoms: C3_3  and  N1_4 
REMARK    3  A    between atoms: N1_4  and  C4_6 
REMARK    4  A    between atoms: C4_6  and  C5_7 
REMARK    5  A    between atoms: C7_9  and  O1_10 
REMARK    6  A    between atoms: O1_10  and  C8_11 
REMARK    7  A    between atoms: C9_13  and  C10_14 
REMARK    8  A    between atoms: C10_14  and  S1_15 
REMARK    9  A    between atoms: C12_17  and  S2_18 
REMARK   10  A    between atoms: S2_18  and  C13_19 
REMARK   11  A    between atoms: C14_20  and  O3_21 
REMARK   12  A    between atoms: C15_23  and  C16_24 
REMARK   13  A    between atoms: C17_26  and  O5_27 
REMARK   14  A    between atoms: C19_29  and  O6_30 
REMARK   15  A    between atoms: C20_33  and  O8_34 
REMARK   16  A    between atoms: C21_36  and  O9_37 
ROOT
HETATM    1  C8  UNL     1      -2.924  -2.450   7.886  1.00  0.00     0.415 C 
HETATM    2  O2  UNL     1      -4.030  -2.291   8.716  1.00  0.00    -0.329 OA
HETATM    3  C9  UNL     1      -4.745  -1.180   8.099  1.00  0.00     0.175 C 
HETATM    4  C12 UNL     1      -4.474  -1.596   6.679  1.00  0.00     0.218 C 
HETATM    5  O7  UNL     1      -3.065  -1.601   6.759  1.00  0.00    -0.320 OA
ENDROOT
BRANCH   1   6
HETATM    6  O1  UNL     1      -2.792  -3.750   7.404  1.00  0.00    -0.331 OA
BRANCH   6   7
HETATM    7  C7  UNL     1      -3.658  -4.635   7.991  1.00  0.00     0.158 C 
HETATM    8  C6  UNL     1      -3.017  -5.428   9.144  1.00  0.00     0.043 C 
HETATM    9  C5  UNL     1      -4.199  -6.361   9.440  1.00  0.00     0.037 C 
HETATM   10  C21 UNL     1      -4.734  -6.731   8.072  1.00  0.00     0.155 C 
HETATM   11  C20 UNL     1      -4.108  -5.762   7.097  1.00  0.00     0.176 C 
BRANCH   9  12
HETATM   12  C4  UNL     1      -3.794  -7.592  10.177  1.00  0.00     0.121 C 
BRANCH  12  13
HETATM   13  N1  UNL     1      -3.362  -7.240  11.490  1.00  0.00    -0.418 N 
ATOM     14  H1  UNL     1      -2.643  -6.535  11.645  1.00  0.00     0.153 HD
BRANCH  13  15
HETATM   15  C3  UNL     1      -3.985  -7.921  12.571  1.00  0.00     0.140 C 
BRANCH  15  16
HETATM   16  C2  UNL     1      -2.988  -8.281  13.611  1.00  0.00    -0.018 C 
HETATM   17  C1  UNL     1      -3.351  -8.313  14.875  1.00  0.00     0.008 C 
ENDBRANCH  15  16
ENDBRANCH  13  15
ENDBRANCH  12  13
ENDBRANCH   9  12
BRANCH  10  18
HETATM   18  O9  UNL     1      -4.390  -8.031   7.701  1.00  0.00    -0.392 OA
ATOM     19  H9  UNL     1      -5.115  -8.498   7.304  1.00  0.00     0.210 HD
ENDBRANCH  10  18
BRANCH  11  20
HETATM   20  O8  UNL     1      -5.089  -5.361   6.196  1.00  0.00    -0.390 OA
ATOM     21  H8  UNL     1      -5.658  -6.077   5.940  1.00  0.00     0.210 HD
ENDBRANCH  11  20
ENDBRANCH   6   7
ENDBRANCH   1   6
BRANCH   3  22
HETATM   22  C10 UNL     1      -3.953   0.029   8.559  1.00  0.00     0.109 C 
BRANCH  22  23
HETATM   23  S1  UNL     1      -3.979   0.154  10.362  1.00  0.00    -0.171 SA
HETATM   24  C11 UNL     1      -2.361   0.154  11.119  1.00  0.00     0.089 C 
ENDBRANCH  22  23
ENDBRANCH   3  22
BRANCH   4  25
HETATM   25  S2  UNL     1      -5.289  -1.023   5.323  1.00  0.00    -0.124 SA
BRANCH  25  26
HETATM   26  C13 UNL     1      -6.705  -1.577   4.535  1.00  0.00     0.110 C 
HETATM   27  C14 UNL     1      -6.631  -2.689   3.525  1.00  0.00     0.147 C 
HETATM   28  C15 UNL     1      -8.130  -2.718   3.129  1.00  0.00     0.108 C 
HETATM   29  C17 UNL     1      -8.243  -1.257   2.684  1.00  0.00     0.164 C 
HETATM   30  C19 UNL     1      -7.373  -0.484   3.644  1.00  0.00     0.164 C 
BRANCH  27  31
HETATM   31  O3  UNL     1      -6.190  -3.896   3.905  1.00  0.00    -0.393 OA
ATOM     32  H3  UNL     1      -6.353  -4.649   3.349  1.00  0.00     0.210 HD
ENDBRANCH  27  31
BRANCH  28  33
HETATM   33  C16 UNL     1      -8.367  -3.665   2.034  1.00  0.00     0.241 C 
HETATM   34  O4  UNL     1      -8.330  -4.879   2.141  1.00  0.00    -0.306 OA
ENDBRANCH  28  33
BRANCH  29  35
HETATM   35  O5  UNL     1      -7.736  -1.220   1.384  1.00  0.00    -0.387 OA
HETATM   36  C18 UNL     1      -7.403   0.037   0.949  1.00  0.00     0.202 C 
ENDBRANCH  29  35
BRANCH  30  37
HETATM   37  O6  UNL     1      -8.134   0.342   4.484  1.00  0.00    -0.392 OA
ATOM     38  H6  UNL     1      -8.832   0.719   3.962  1.00  0.00     0.210 HD
ENDBRANCH  30  37
ENDBRANCH  25  26
ENDBRANCH   4  25
TORSDOF 16
ENDMDL
MODEL 2
REMARK VINA RESULT: -7.587831543      1.127      2.059
REMARK  16 active torsions:
REMARK  status: ('A' for Active; 'I' for Inactive)
REMARK    1  A    between atoms: C2_2  and  C3_3 
REMARK    2  A    between atoms: C3_3  and  N1_4 
REMARK    3  A    between atoms: N1_4  and  C4_6 
REMARK    4  A    between atoms: C4_6  and  C5_7 
REMARK    5  A    between atoms: C7_9  and  O1_10 
REMARK    6  A    between atoms: O1_10  and  C8_11 
REMARK    7  A    between atoms: C9_13  and  C10_14 
REMARK    8  A    between atoms: C10_14  and  S1_15 
REMARK    9  A    between atoms: C12_17  and  S2_18 
REMARK   10  A    between atoms: S2_18  and  C13_19 
REMARK   11  A    between atoms: C14_20  and  O3_21 
REMARK   12  A    between atoms: C15_23  and  C16_24 
REMARK   13  A    between atoms: C17_26  and  O5_27 
REMARK   14  A    between atoms: C19_29  and  O6_30 
REMARK   15  A    between atoms: C20_33  and  O8_34 
REMARK   16  A    between atoms: C21_36  and  O9_37 
ROOT
HETATM    1  C8  UNL     1      -3.357  -2.393   8.224  1.00  0.00     0.415 C 
HETATM    2  O2  UNL     1      -4.660  -2.309   8.706  1.00  0.00    -0.329 OA
HETATM    3  C9  UNL     1      -5.192  -1.145   8.006  1.00  0.00     0.175 C 
HETATM    4  C12 UNL     1      -4.509  -1.431   6.697  1.00  0.00     0.218 C 
HETATM    5  O7  UNL     1      -3.185  -1.445   7.184  1.00  0.00    -0.320 OA
ENDROOT
BRANCH   1   6
HETATM    6  O1  UNL     1      -3.058  -3.645   7.691  1.00  0.00    -0.331 OA
BRANCH   6   7
HETATM    7  C7  UNL     1      -3.857  -4.645   8.177  1.00  0.00     0.158 C 
HETATM    8  C6  UNL     1      -3.209  -5.424   9.334  1.00  0.00     0.043 C 
HETATM    9  C5  UNL     1      -4.297  -6.491   9.508  1.00  0.00     0.037 C 
HETATM   10  C21 UNL     1      -4.701  -6.846   8.091  1.00  0.00     0.155 C 
HETATM   11  C20 UNL     1      -4.124  -5.766   7.205  1.00  0.00     0.176 C 
BRANCH   9  12
HETATM   12  C4  UNL     1      -3.808  -7.709  10.215  1.00  0.00     0.121 C 
BRANCH  12  13
HETATM   13  N1  UNL     1      -3.336  -7.348  11.511  1.00  0.00    -0.418 N 
ATOM     14  H1  UNL     1      -2.597  -6.656  11.638  1.00  0.00     0.153 HD
BRANCH  13  15
HETATM   15  C3  UNL     1      -3.946  -7.999  12.618  1.00  0.00     0.140 C 
BRANCH  15  16
HETATM   16  C2  UNL     1      -2.973  -8.177  13.726  1.00  0.00    -0.018 C 
HETATM   17  C1  UNL     1      -3.413  -8.406  14.944  1.00  0.00     0.008 C 
ENDBRANCH  15  16
ENDBRANCH  13  15
ENDBRANCH  12  13
ENDBRANCH   9  12
BRANCH  10  18
HETATM   18  O9  UNL     1      -4.194  -8.080   7.687  1.00  0.00    -0.392 OA
ATOM     19  H9  UNL     1      -3.265  -8.167   7.865  1.00  0.00     0.210 HD
ENDBRANCH  10  18
BRANCH  11  20
HETATM   20  O8  UNL     1      -5.084  -5.425   6.257  1.00  0.00    -0.390 OA
ATOM     21  H8  UNL     1      -5.324  -4.508   6.302  1.00  0.00     0.210 HD
ENDBRANCH  11  20
ENDBRANCH   6   7
ENDBRANCH   1   6
BRANCH   3  22
HETATM   22  C10 UNL     1      -4.600   0.015   8.782  1.00  0.00     0.109 C 
BRANCH  22  23
HETATM   23  S1  UNL     1      -4.883  -0.196  10.554  1.00  0.00    -0.171 SA
HETATM   24  C11 UNL     1      -3.392  -0.415  11.513  1.00  0.00     0.089 C 
ENDBRANCH  22  23
ENDBRANCH   3  22
BRANCH   4  25
HETATM   25  S2  UNL     1      -4.908  -0.735   5.217  1.00  0.00    -0.124 SA
BRANCH  25  26
HETATM   26  C13 UNL     1      -6.089  -1.156   4.050  1.00  0.00     0.110 C 
HETATM   27  C14 UNL     1      -6.774  -0.090   3.239  1.00  0.00     0.147 C 
HETATM   28  C15 UNL     1      -7.727  -1.012   2.435  1.00  0.00     0.108 C 
HETATM   29  C17 UNL     1      -8.427  -1.662   3.633  1.00  0.00     0.164 C 
HETATM   30  C19 UNL     1      -7.348  -1.833   4.674  1.00  0.00     0.164 C 
BRANCH  27  31
HETATM   31  O3  UNL     1      -6.046   0.698   2.437  1.00  0.00    -0.393 OA
ATOM     32  H3  UNL     1      -5.670   1.498   2.785  1.00  0.00     0.210 HD
ENDBRANCH  27  31
BRANCH  28  33
HETATM   33  C16 UNL     1      -8.643  -0.225   1.602  1.00  0.00     0.241 C 
HETATM   34  O4  UNL     1      -8.592   0.985   1.463  1.00  0.00    -0.306 OA
ENDBRANCH  28  33
BRANCH  29  35
HETATM   35  O5  UNL     1      -9.398  -0.747   4.043  1.00  0.00    -0.387 OA
HETATM   36  C18 UNL     1      -9.708  -0.820   5.376  1.00  0.00     0.202 C 
ENDBRANCH  29  35
BRANCH  30  37
HETATM   37  O6  UNL     1      -7.041  -3.185   4.887  1.00  0.00    -0.392 OA
ATOM     38  H6  UNL     1      -7.794  -3.697   4.614  1.00  0.00     0.210 HD
ENDBRANCH  30  37
ENDBRANCH  25  26
ENDBRANCH   4  25
TORSDOF 16
ENDMDL
MODEL 3
REMARK VINA RESULT: -7.398093616      1.420      2.473
REMARK  16 active torsions:
REMARK  status: ('A' for Active; 'I' for Inactive)
REMARK    1  A    between atoms: C2_2  and  C3_3 
REMARK    2  A    between atoms: C3_3  and  N1_4 
REMARK    3  A    between atoms: N1_4  and  C4_6 
REMARK    4  A    between atoms: C4_6  and  C5_7 
REMARK    5  A    between atoms: C7_9  and  O1_10 
REMARK    6  A    between atoms: O1_10  and  C8_11 
REMARK    7  A    between atoms: C9_13  and  C10_14 
REMARK    8  A    between atoms: C10_14  and  S1_15 
REMARK    9  A    between atoms: C12_17  and  S2_18 
REMARK   10  A    between atoms: S2_18  and  C13_19 
REMARK   11  A    between atoms: C14_20  and  O3_21 
REMARK   12  A    between atoms: C15_23  and  C16_24 
REMARK   13  A    between atoms: C17_26  and  O5_27 
REMARK   14  A    between atoms: C19_29  and  O6_30 
REMARK   15  A    between atoms: C20_33  and  O8_34 
REMARK   16  A    between atoms: C21_36  and  O9_37 
ROOT
HETATM    1  C8  UNL     1      -3.673  -2.456   8.496  1.00  0.00     0.415 C 
HETATM    2  O2  UNL     1      -5.060  -2.384   8.581  1.00  0.00    -0.329 OA
HETATM    3  C9  UNL     1      -5.364  -1.133   7.895  1.00  0.00     0.175 C 
HETATM    4  C12 UNL     1      -4.325  -1.294   6.820  1.00  0.00     0.218 C 
HETATM    5  O7  UNL     1      -3.204  -1.404   7.668  1.00  0.00    -0.320 OA
ENDROOT
BRANCH   1   6
HETATM    6  O1  UNL     1      -3.228  -3.650   7.932  1.00  0.00    -0.331 OA
BRANCH   6   7
HETATM    7  C7  UNL     1      -3.955  -4.740   8.328  1.00  0.00     0.158 C 
HETATM    8  C6  UNL     1      -3.350  -5.457   9.548  1.00  0.00     0.043 C 
HETATM    9  C5  UNL     1      -4.323  -6.641   9.602  1.00  0.00     0.037 C 
HETATM   10  C21 UNL     1      -4.531  -7.020   8.150  1.00  0.00     0.155 C 
HETATM   11  C20 UNL     1      -3.989  -5.871   7.333  1.00  0.00     0.176 C 
BRANCH   9  12
HETATM   12  C4  UNL     1      -3.778  -7.806  10.357  1.00  0.00     0.121 C 
BRANCH  12  13
HETATM   13  N1  UNL     1      -3.362  -7.379  11.652  1.00  0.00    -0.418 N 
ATOM     14  H1  UNL     1      -2.649  -6.661  11.776  1.00  0.00     0.153 HD
BRANCH  13  15
HETATM   15  C3  UNL     1      -3.991  -8.005  12.763  1.00  0.00     0.140 C 
BRANCH  15  16
HETATM   16  C2  UNL     1      -2.992  -8.360  13.803  1.00  0.00    -0.018 C 
HETATM   17  C1  UNL     1      -3.360  -8.413  15.065  1.00  0.00     0.008 C 
ENDBRANCH  15  16
ENDBRANCH  13  15
ENDBRANCH  12  13
ENDBRANCH   9  12
BRANCH  10  18
HETATM   18  O9  UNL     1      -3.848  -8.184   7.801  1.00  0.00    -0.392 OA
ATOM     19  H9  UNL     1      -4.093  -8.504   6.942  1.00  0.00     0.210 HD
ENDBRANCH  10  18
BRANCH  11  20
HETATM   20  O8  UNL     1      -4.874  -5.627   6.287  1.00  0.00    -0.390 OA
ATOM     21  H8  UNL     1      -5.661  -6.155   6.351  1.00  0.00     0.210 HD
ENDBRANCH  11  20
ENDBRANCH   6   7
ENDBRANCH   1   6
BRANCH   3  22
HETATM   22  C10 UNL     1      -5.029  -0.085   8.939  1.00  0.00     0.109 C 
BRANCH  22  23
HETATM   23  S1  UNL     1      -5.957  -0.387  10.461  1.00  0.00    -0.171 SA
HETATM   24  C11 UNL     1      -7.707  -0.051  10.330  1.00  0.00     0.089 C 
ENDBRANCH  22  23
ENDBRANCH   3  22
BRANCH   4  25
HETATM   25  S2  UNL     1      -4.272  -0.426   5.379  1.00  0.00    -0.124 SA
BRANCH  25  26
HETATM   26  C13 UNL     1      -5.517   0.107   4.331  1.00  0.00     0.110 C 
HETATM   27  C14 UNL     1      -6.916   0.306   4.848  1.00  0.00     0.147 C 
HETATM   28  C15 UNL     1      -7.582   0.718   3.509  1.00  0.00     0.108 C 
HETATM   29  C17 UNL     1      -7.208  -0.536   2.711  1.00  0.00     0.164 C 
HETATM   30  C19 UNL     1      -5.823  -0.905   3.184  1.00  0.00     0.164 C 
BRANCH  27  31
HETATM   31  O3  UNL     1      -7.140   1.205   5.815  1.00  0.00    -0.393 OA
ATOM     32  H3  UNL     1      -7.646   1.985   5.620  1.00  0.00     0.210 HD
ENDBRANCH  27  31
BRANCH  28  33
HETATM   33  C16 UNL     1      -9.031   0.876   3.668  1.00  0.00     0.241 C 
HETATM   34  O4  UNL     1      -9.598   1.087   4.728  1.00  0.00    -0.306 OA
ENDBRANCH  28  33
BRANCH  29  35
HETATM   35  O5  UNL     1      -8.149  -1.503   3.067  1.00  0.00    -0.387 OA
HETATM   36  C18 UNL     1      -7.985  -2.705   2.429  1.00  0.00     0.202 C 
ENDBRANCH  29  35
BRANCH  30  37
HETATM   37  O6  UNL     1      -4.863  -0.713   2.181  1.00  0.00    -0.392 OA
ATOM     38  H6  UNL     1      -5.197  -0.052   1.585  1.00  0.00     0.210 HD
ENDBRANCH  30  37
ENDBRANCH  25  26
ENDBRANCH   4  25
TORSDOF 16
ENDMDL
MODEL 4
REMARK VINA RESULT: -7.296953106      1.061      1.219
REMARK  16 active torsions:
REMARK  status: ('A' for Active; 'I' for Inactive)
REMARK    1  A    between atoms: C2_2  and  C3_3 
REMARK    2  A    between atoms: C3_3  and  N1_4 
REMARK    3  A    between atoms: N1_4  and  C4_6 
REMARK    4  A    between atoms: C4_6  and  C5_7 
REMARK    5  A    between atoms: C7_9  and  O1_10 
REMARK    6  A    between atoms: O1_10  and  C8_11 
REMARK    7  A    between atoms: C9_13  and  C10_14 
REMARK    8  A    between atoms: C10_14  and  S1_15 
REMARK    9  A    between atoms: C12_17  and  S2_18 
REMARK   10  A    between atoms: S2_18  and  C13_19 
REMARK   11  A    between atoms: C14_20  and  O3_21 
REMARK   12  A    between atoms: C15_23  and  C16_24 
REMARK   13  A    between atoms: C17_26  and  O5_27 
REMARK   14  A    between atoms: C19_29  and  O6_30 
REMARK   15  A    between atoms: C20_33  and  O8_34 
REMARK   16  A    between atoms: C21_36  and  O9_37 
ROOT
HETATM    1  C8  UNL     1      -3.418  -2.429   8.297  1.00  0.00     0.415 C 
HETATM    2  O2  UNL     1      -4.728  -2.386   8.767  1.00  0.00    -0.329 OA
HETATM    3  C9  UNL     1      -5.267  -1.196   8.118  1.00  0.00     0.175 C 
HETATM    4  C12 UNL     1      -4.565  -1.408   6.805  1.00  0.00     0.218 C 
HETATM    5  O7  UNL     1      -3.247  -1.429   7.307  1.00  0.00    -0.320 OA
ENDROOT
BRANCH   1   6
HETATM    6  O1  UNL     1      -3.096  -3.649   7.706  1.00  0.00    -0.331 OA
BRANCH   6   7
HETATM    7  C7  UNL     1      -3.832  -4.697   8.191  1.00  0.00     0.158 C 
HETATM    8  C6  UNL     1      -3.155  -5.411   9.375  1.00  0.00     0.043 C 
HETATM    9  C5  UNL     1      -4.168  -6.550   9.543  1.00  0.00     0.037 C 
HETATM   10  C21 UNL     1      -4.515  -6.953   8.124  1.00  0.00     0.155 C 
HETATM   11  C20 UNL     1      -3.997  -5.848   7.233  1.00  0.00     0.176 C 
BRANCH   9  12
HETATM   12  C4  UNL     1      -3.609  -7.719  10.280  1.00  0.00     0.121 C 
BRANCH  12  13
HETATM   13  N1  UNL     1      -3.411  -7.368  11.647  1.00  0.00    -0.418 N 
ATOM     14  H1  UNL     1      -2.979  -6.484  11.916  1.00  0.00     0.153 HD
BRANCH  13  15
HETATM   15  C3  UNL     1      -3.846  -8.311  12.618  1.00  0.00     0.140 C 
BRANCH  15  16
HETATM   16  C2  UNL     1      -2.906  -8.356  13.767  1.00  0.00    -0.018 C 
HETATM   17  C1  UNL     1      -3.382  -8.388  14.993  1.00  0.00     0.008 C 
ENDBRANCH  15  16
ENDBRANCH  13  15
ENDBRANCH  12  13
ENDBRANCH   9  12
BRANCH  10  18
HETATM   18  O9  UNL     1      -3.913  -8.154   7.750  1.00  0.00    -0.392 OA
ATOM     19  H9  UNL     1      -4.163  -8.428   6.876  1.00  0.00     0.210 HD
ENDBRANCH  10  18
BRANCH  11  20
HETATM   20  O8  UNL     1      -4.959  -5.591   6.260  1.00  0.00    -0.390 OA
ATOM     21  H8  UNL     1      -4.574  -5.445   5.404  1.00  0.00     0.210 HD
ENDBRANCH  11  20
ENDBRANCH   6   7
ENDBRANCH   1   6
BRANCH   3  22
HETATM   22  C10 UNL     1      -4.699  -0.068   8.958  1.00  0.00     0.109 C 
BRANCH  22  23
HETATM   23  S1  UNL     1      -5.300  -0.179  10.659  1.00  0.00    -0.171 SA
HETATM   24  C11 UNL     1      -7.062  -0.439  10.798  1.00  0.00     0.089 C 
ENDBRANCH  22  23
ENDBRANCH   3  22
BRANCH   4  25
HETATM   25  S2  UNL     1      -4.956  -0.645   5.357  1.00  0.00    -0.124 SA
BRANCH  25  26
HETATM   26  C13 UNL     1      -6.360  -0.724   4.378  1.00  0.00     0.110 C 
HETATM   27  C14 UNL     1      -6.525  -1.827   3.368  1.00  0.00     0.147 C 
HETATM   28  C15 UNL     1      -7.884  -1.373   2.777  1.00  0.00     0.108 C 
HETATM   29  C17 UNL     1      -7.450   0.032   2.345  1.00  0.00     0.164 C 
HETATM   30  C19 UNL     1      -6.508   0.502   3.426  1.00  0.00     0.164 C 
BRANCH  27  31
HETATM   31  O3  UNL     1      -6.559  -3.100   3.783  1.00  0.00    -0.393 OA
ATOM     32  H3  UNL     1      -6.743  -3.791   3.156  1.00  0.00     0.210 HD
ENDBRANCH  27  31
BRANCH  28  33
HETATM   33  C16 UNL     1      -8.274  -2.219   1.643  1.00  0.00     0.241 C 
HETATM   34  O4  UNL     1      -8.488  -3.418   1.709  1.00  0.00    -0.306 OA
ENDBRANCH  28  33
BRANCH  29  35
HETATM   35  O5  UNL     1      -6.793  -0.136   1.125  1.00  0.00    -0.387 OA
HETATM   36  C18 UNL     1      -6.059   0.953   0.731  1.00  0.00     0.202 C 
ENDBRANCH  29  35
BRANCH  30  37
HETATM   37  O6  UNL     1      -7.058   1.555   4.171  1.00  0.00    -0.392 OA
ATOM     38  H6  UNL     1      -6.531   1.657   4.956  1.00  0.00     0.210 HD
ENDBRANCH  30  37
ENDBRANCH  25  26
ENDBRANCH   4  25
TORSDOF 16
ENDMDL
MODEL 5
REMARK VINA RESULT: -7.252047818      2.925      6.720
REMARK  16 active torsions:
REMARK  status: ('A' for Active; 'I' for Inactive)
REMARK    1  A    between atoms: C2_2  and  C3_3 
REMARK    2  A    between atoms: C3_3  and  N1_4 
REMARK    3  A    between atoms: N1_4  and  C4_6 
REMARK    4  A    between atoms: C4_6  and  C5_7 
REMARK    5  A    between atoms: C7_9  and  O1_10 
REMARK    6  A    between atoms: O1_10  and  C8_11 
REMARK    7  A    between atoms: C9_13  and  C10_14 
REMARK    8  A    between atoms: C10_14  and  S1_15 
REMARK    9  A    between atoms: C12_17  and  S2_18 
REMARK   10  A    between atoms: S2_18  and  C13_19 
REMARK   11  A    between atoms: C14_20  and  O3_21 
REMARK   12  A    between atoms: C15_23  and  C16_24 
REMARK   13  A    between atoms: C17_26  and  O5_27 
REMARK   14  A    between atoms: C19_29  and  O6_30 
REMARK   15  A    between atoms: C20_33  and  O8_34 
REMARK   16  A    between atoms: C21_36  and  O9_37 
ROOT
HETATM    1  C8  UNL     1      -3.923  -2.943   6.979  1.00  0.00     0.415 C 
HETATM    2  O2  UNL     1      -3.244  -1.926   6.314  1.00  0.00    -0.329 OA
HETATM    3  C9  UNL     1      -3.869  -0.718   6.842  1.00  0.00     0.175 C 
HETATM    4  C12 UNL     1      -4.007  -1.224   8.253  1.00  0.00     0.218 C 
HETATM    5  O7  UNL     1      -4.774  -2.370   7.958  1.00  0.00    -0.320 OA
ENDROOT
BRANCH   1   6
HETATM    6  O1  UNL     1      -3.068  -3.820   7.643  1.00  0.00    -0.331 OA
BRANCH   6   7
HETATM    7  C7  UNL     1      -3.724  -4.845   8.271  1.00  0.00     0.158 C 
HETATM    8  C6  UNL     1      -2.982  -5.360   9.517  1.00  0.00     0.043 C 
HETATM    9  C5  UNL     1      -3.913  -6.534   9.847  1.00  0.00     0.037 C 
HETATM   10  C21 UNL     1      -4.253  -7.132   8.497  1.00  0.00     0.155 C 
HETATM   11  C20 UNL     1      -3.825  -6.115   7.465  1.00  0.00     0.176 C 
BRANCH   9  12
HETATM   12  C4  UNL     1      -3.265  -7.563  10.709  1.00  0.00     0.121 C 
BRANCH  12  13
HETATM   13  N1  UNL     1      -4.261  -8.439  11.232  1.00  0.00    -0.418 N 
ATOM     14  H1  UNL     1      -5.138  -8.606  10.741  1.00  0.00     0.153 HD
BRANCH  13  15
HETATM   15  C3  UNL     1      -3.970  -9.069  12.473  1.00  0.00     0.140 C 
BRANCH  15  16
HETATM   16  C2  UNL     1      -3.779  -8.059  13.545  1.00  0.00    -0.018 C 
HETATM   17  C1  UNL     1      -3.419  -8.449  14.748  1.00  0.00     0.008 C 
ENDBRANCH  15  16
ENDBRANCH  13  15
ENDBRANCH  12  13
ENDBRANCH   9  12
BRANCH  10  18
HETATM   18  O9  UNL     1      -3.577  -8.328   8.260  1.00  0.00    -0.392 OA
ATOM     19  H9  UNL     1      -3.080  -8.309   7.451  1.00  0.00     0.210 HD
ENDBRANCH  10  18
BRANCH  11  20
HETATM   20  O8  UNL     1      -4.816  -6.044   6.490  1.00  0.00    -0.390 OA
ATOM     21  H8  UNL     1      -4.588  -6.534   5.709  1.00  0.00     0.210 HD
ENDBRANCH  11  20
ENDBRANCH   6   7
ENDBRANCH   1   6
BRANCH   3  22
HETATM   22  C10 UNL     1      -5.172  -0.647   6.071  1.00  0.00     0.109 C 
BRANCH  22  23
HETATM   23  S1  UNL     1      -6.046   0.891   6.442  1.00  0.00    -0.171 SA
HETATM   24  C11 UNL     1      -7.698   0.659   7.079  1.00  0.00     0.089 C 
ENDBRANCH  22  23
ENDBRANCH   3  22
BRANCH   4  25
HETATM   25  S2  UNL     1      -4.313  -0.269   9.604  1.00  0.00    -0.124 SA
BRANCH  25  26
HETATM   26  C13 UNL     1      -3.370   0.934  10.377  1.00  0.00     0.110 C 
HETATM   27  C14 UNL     1      -2.224   1.588   9.654  1.00  0.00     0.147 C 
HETATM   28  C15 UNL     1      -1.736   2.501  10.808  1.00  0.00     0.108 C 
HETATM   29  C17 UNL     1      -1.487   1.395  11.839  1.00  0.00     0.164 C 
HETATM   30  C19 UNL     1      -2.597   0.396  11.621  1.00  0.00     0.164 C 
BRANCH  27  31
HETATM   31  O3  UNL     1      -2.462   2.282   8.533  1.00  0.00    -0.393 OA
ATOM     32  H3  UNL     1      -1.734   2.655   8.050  1.00  0.00     0.210 HD
ENDBRANCH  27  31
BRANCH  28  33
HETATM   33  C16 UNL     1      -0.508   3.212  10.434  1.00  0.00     0.241 C 
HETATM   34  O4  UNL     1      -0.091   3.330   9.293  1.00  0.00    -0.306 OA
ENDBRANCH  28  33
BRANCH  29  35
HETATM   35  O5  UNL     1      -0.239   0.858  11.522  1.00  0.00    -0.387 OA
HETATM   36  C18 UNL     1       0.604   0.728  12.595  1.00  0.00     0.202 C 
ENDBRANCH  29  35
BRANCH  30  37
HETATM   37  O6  UNL     1      -3.493   0.370  12.699  1.00  0.00    -0.392 OA
ATOM     38  H6  UNL     1      -3.839   1.248  12.806  1.00  0.00     0.210 HD
ENDBRANCH  30  37
ENDBRANCH  25  26
ENDBRANCH   4  25
TORSDOF 16
ENDMDL
