MODEL 1
REMARK VINA RESULT: -8.209358064      0.000      0.000
REMARK  18 active torsions:
REMARK  status: ('A' for Active; 'I' for Inactive)
REMARK    1  A    between atoms: C2_2  and  C3_3 
REMARK    2  A    between atoms: C3_3  and  O1_4 
REMARK    3  A    between atoms: O1_4  and  C4_5 
REMARK    4  A    between atoms: C7_8  and  C8_9 
REMARK    5  A    between atoms: C9_10  and  C10_11 
REMARK    6  A    between atoms: C11_12  and  C12_13 
REMARK    7  A    between atoms: C12_13  and  C14_15 
REMARK    8  A    between atoms: C14_15  and  O2_16 
REMARK    9  A    between atoms: O2_16  and  C15_17 
REMARK   10  A    between atoms: C15_17  and  C16_19 
REMARK   11  A    between atoms: C18_21  and  O4_22 
REMARK   12  A    between atoms: C19_24  and  O5_25 
REMARK   13  A    between atoms: C20_27  and  O6_28 
REMARK   14  A    between atoms: O6_28  and  C21_29 
REMARK   15  A    between atoms: C22_31  and  O8_32 
REMARK   16  A    between atoms: C23_34  and  O9_35 
REMARK   17  A    between atoms: C24_37  and  C25_38 
REMARK   18  A    between atoms: C25_38  and  O10_39 
ROOT
HETATM    1  C4  UNL     1      -4.274  -2.241   6.691  1.00  0.00     0.161 C 
HETATM    2  C5  UNL     1      -2.931  -1.551   6.787  1.00  0.00     0.058 C 
HETATM    3  C6  UNL     1      -2.679  -0.849   8.130  1.00  0.00     0.021 C 
HETATM    4  C7  UNL     1      -2.457   0.550   7.710  1.00  0.00     0.040 C 
HETATM    5  C18 UNL     1      -3.685   0.701   6.740  1.00  0.00     0.163 C 
HETATM    6  C19 UNL     1      -3.447  -0.476   5.855  1.00  0.00     0.119 C 
HETATM    7  C20 UNL     1      -4.606  -1.346   5.521  1.00  0.00     0.194 C 
ENDROOT
BRANCH   7   8
HETATM    8  O6  UNL     1      -5.858  -0.768   5.535  1.00  0.00    -0.328 OA
BRANCH   8   9
HETATM    9  C21 UNL     1      -6.573  -1.148   4.427  1.00  0.00     0.416 C 
HETATM   10  O7  UNL     1      -6.003  -2.213   3.733  1.00  0.00    -0.306 OA
HETATM   11  C22 UNL     1      -6.974  -2.780   2.948  1.00  0.00     0.293 C 
HETATM   12  C23 UNL     1      -8.086  -1.880   2.550  1.00  0.00     0.204 C 
HETATM   13  C24 UNL     1      -7.789  -0.422   2.652  1.00  0.00     0.184 C 
HETATM   14  O11 UNL     1      -6.742  -0.117   3.507  1.00  0.00    -0.329 OA
BRANCH  11  15
HETATM   15  O8  UNL     1      -7.470  -3.910   3.631  1.00  0.00    -0.368 OA
ATOM     16  H8  UNL     1      -7.591  -4.602   2.992  1.00  0.00     0.212 HD
ENDBRANCH  11  15
BRANCH  12  17
HETATM   17  O9  UNL     1      -8.556  -2.221   1.263  1.00  0.00    -0.388 OA
ATOM     18  H9  UNL     1      -9.058  -1.504   0.894  1.00  0.00     0.210 HD
ENDBRANCH  12  17
BRANCH  13  19
HETATM   19  C25 UNL     1      -9.026   0.376   3.081  1.00  0.00     0.199 C 
BRANCH  19  20
HETATM   20  O10 UNL     1      -9.888   0.401   2.003  1.00  0.00    -0.398 OA
ATOM     21  H10 UNL     1     -10.110   1.311   1.841  1.00  0.00     0.209 HD
ENDBRANCH  19  20
ENDBRANCH  13  19
ENDBRANCH   8   9
ENDBRANCH   7   8
BRANCH   1  22
HETATM   22  O1  UNL     1      -4.114  -3.557   6.341  1.00  0.00    -0.379 OA
BRANCH  22  23
HETATM   23  C3  UNL     1      -3.172  -4.244   7.074  1.00  0.00     0.195 C 
BRANCH  23  24
HETATM   24  C2  UNL     1      -3.696  -4.958   8.235  1.00  0.00    -0.011 C 
HETATM   25  C1  UNL     1      -4.187  -6.206   8.176  1.00  0.00     0.009 C 
ENDBRANCH  23  24
ENDBRANCH  22  23
ENDBRANCH   1  22
BRANCH   6  26
HETATM   26  O5  UNL     1      -2.589  -0.161   4.803  1.00  0.00    -0.384 OA
ATOM     27  H5  UNL     1      -2.504  -0.843   4.147  1.00  0.00     0.210 HD
ENDBRANCH   6  26
BRANCH   5  28
HETATM   28  O4  UNL     1      -4.857   0.661   7.455  1.00  0.00    -0.392 OA
ATOM     29  H4  UNL     1      -5.494   0.118   7.006  1.00  0.00     0.210 HD
ENDBRANCH   5  28
BRANCH   4  30
HETATM   30  C8  UNL     1      -2.421   1.625   8.645  1.00  0.00    -0.019 C 
HETATM   31  C9  UNL     1      -2.154   1.722   9.888  1.00  0.00    -0.004 C 
BRANCH  31  32
HETATM   32  C10 UNL     1      -1.771   0.737  10.848  1.00  0.00    -0.004 C 
HETATM   33  C11 UNL     1      -2.480  -0.083  11.564  1.00  0.00    -0.020 C 
BRANCH  33  34
HETATM   34  C12 UNL     1      -3.892  -0.363  11.706  1.00  0.00     0.028 C 
HETATM   35  C13 UNL     1      -4.822  -0.126  10.590  1.00  0.00     0.016 C 
BRANCH  34  36
HETATM   36  C14 UNL     1      -4.411   0.251  13.015  1.00  0.00     0.187 C 
BRANCH  36  37
HETATM   37  O2  UNL     1      -5.026  -0.696  13.793  1.00  0.00    -0.318 OA
BRANCH  37  38
HETATM   38  C15 UNL     1      -6.339  -0.774  14.186  1.00  0.00     0.282 C 
HETATM   39  O3  UNL     1      -6.605  -1.324  15.275  1.00  0.00    -0.260 OA
BRANCH  38  40
HETATM   40  C16 UNL     1      -7.393  -0.215  13.332  1.00  0.00     0.072 C 
HETATM   41  C17 UNL     1      -7.871  -0.945  12.353  1.00  0.00     0.017 C 
ENDBRANCH  38  40
ENDBRANCH  37  38
ENDBRANCH  36  37
ENDBRANCH  34  36
ENDBRANCH  33  34
ENDBRANCH  31  32
ENDBRANCH   4  30
TORSDOF 18
ENDMDL
MODEL 2
REMARK VINA RESULT: -8.007631681      0.756      1.781
REMARK  18 active torsions:
REMARK  status: ('A' for Active; 'I' for Inactive)
REMARK    1  A    between atoms: C2_2  and  C3_3 
REMARK    2  A    between atoms: C3_3  and  O1_4 
REMARK    3  A    between atoms: O1_4  and  C4_5 
REMARK    4  A    between atoms: C7_8  and  C8_9 
REMARK    5  A    between atoms: C9_10  and  C10_11 
REMARK    6  A    between atoms: C11_12  and  C12_13 
REMARK    7  A    between atoms: C12_13  and  C14_15 
REMARK    8  A    between atoms: C14_15  and  O2_16 
REMARK    9  A    between atoms: O2_16  and  C15_17 
REMARK   10  A    between atoms: C15_17  and  C16_19 
REMARK   11  A    between atoms: C18_21  and  O4_22 
REMARK   12  A    between atoms: C19_24  and  O5_25 
REMARK   13  A    between atoms: C20_27  and  O6_28 
REMARK   14  A    between atoms: O6_28  and  C21_29 
REMARK   15  A    between atoms: C22_31  and  O8_32 
REMARK   16  A    between atoms: C23_34  and  O9_35 
REMARK   17  A    between atoms: C24_37  and  C25_38 
REMARK   18  A    between atoms: C25_38  and  O10_39 
ROOT
HETATM    1  C4  UNL     1      -4.510  -1.796   6.508  1.00  0.00     0.161 C 
HETATM    2  C5  UNL     1      -3.089  -1.322   6.719  1.00  0.00     0.058 C 
HETATM    3  C6  UNL     1      -2.823  -0.734   8.113  1.00  0.00     0.021 C 
HETATM    4  C7  UNL     1      -2.371   0.635   7.791  1.00  0.00     0.040 C 
HETATM    5  C18 UNL     1      -3.499   1.018   6.765  1.00  0.00     0.163 C 
HETATM    6  C19 UNL     1      -3.381  -0.134   5.826  1.00  0.00     0.119 C 
HETATM    7  C20 UNL     1      -4.631  -0.803   5.377  1.00  0.00     0.194 C 
ENDROOT
BRANCH   7   8
HETATM    8  O6  UNL     1      -5.783  -0.045   5.355  1.00  0.00    -0.328 OA
BRANCH   8   9
HETATM    9  C21 UNL     1      -6.581  -0.416   4.303  1.00  0.00     0.416 C 
HETATM   10  O7  UNL     1      -7.376   0.619   3.813  1.00  0.00    -0.306 OA
HETATM   11  C22 UNL     1      -7.778   0.285   2.545  1.00  0.00     0.293 C 
HETATM   12  C23 UNL     1      -7.834  -1.169   2.250  1.00  0.00     0.204 C 
HETATM   13  C24 UNL     1      -7.896  -2.057   3.446  1.00  0.00     0.184 C 
HETATM   14  O11 UNL     1      -7.441  -1.465   4.614  1.00  0.00    -0.329 OA
BRANCH  11  15
HETATM   15  O8  UNL     1      -6.923   0.944   1.638  1.00  0.00    -0.368 OA
ATOM     16  H8  UNL     1      -6.987   1.876   1.806  1.00  0.00     0.212 HD
ENDBRANCH  11  15
BRANCH  12  17
HETATM   17  O9  UNL     1      -8.883  -1.447   1.347  1.00  0.00    -0.388 OA
ATOM     18  H9  UNL     1      -9.408  -0.669   1.203  1.00  0.00     0.210 HD
ENDBRANCH  12  17
BRANCH  13  19
HETATM   19  C25 UNL     1      -7.125  -3.363   3.221  1.00  0.00     0.199 C 
BRANCH  19  20
HETATM   20  O10 UNL     1      -6.858  -3.898   4.465  1.00  0.00    -0.398 OA
ATOM     21  H10 UNL     1      -7.690  -4.002   4.911  1.00  0.00     0.209 HD
ENDBRANCH  19  20
ENDBRANCH  13  19
ENDBRANCH   8   9
ENDBRANCH   7   8
BRANCH   1  22
HETATM   22  O1  UNL     1      -4.523  -3.101   6.088  1.00  0.00    -0.379 OA
BRANCH  22  23
HETATM   23  C3  UNL     1      -3.728  -3.955   6.821  1.00  0.00     0.195 C 
BRANCH  23  24
HETATM   24  C2  UNL     1      -4.030  -5.374   6.653  1.00  0.00    -0.011 C 
HETATM   25  C1  UNL     1      -4.133  -6.235   7.678  1.00  0.00     0.009 C 
ENDBRANCH  23  24
ENDBRANCH  22  23
ENDBRANCH   1  22
BRANCH   6  26
HETATM   26  O5  UNL     1      -2.421   0.101   4.843  1.00  0.00    -0.384 OA
ATOM     27  H5  UNL     1      -2.050   0.975   4.856  1.00  0.00     0.210 HD
ENDBRANCH   6  26
BRANCH   5  28
HETATM   28  O4  UNL     1      -4.708   1.118   7.411  1.00  0.00    -0.392 OA
ATOM     29  H4  UNL     1      -4.646   1.747   8.121  1.00  0.00     0.210 HD
ENDBRANCH   5  28
BRANCH   4  30
HETATM   30  C8  UNL     1      -2.238   1.644   8.789  1.00  0.00    -0.019 C 
HETATM   31  C9  UNL     1      -1.980   1.638  10.038  1.00  0.00    -0.004 C 
BRANCH  31  32
HETATM   32  C10 UNL     1      -1.715   0.565  10.940  1.00  0.00    -0.004 C 
HETATM   33  C11 UNL     1      -2.514  -0.233  11.582  1.00  0.00    -0.020 C 
BRANCH  33  34
HETATM   34  C12 UNL     1      -3.950  -0.394  11.670  1.00  0.00     0.028 C 
HETATM   35  C13 UNL     1      -4.822   0.009  10.554  1.00  0.00     0.016 C 
BRANCH  34  36
HETATM   36  C14 UNL     1      -4.451   0.166  13.010  1.00  0.00     0.187 C 
BRANCH  36  37
HETATM   37  O2  UNL     1      -5.139  -0.787  13.715  1.00  0.00    -0.318 OA
BRANCH  37  38
HETATM   38  C15 UNL     1      -6.436  -0.764  14.165  1.00  0.00     0.282 C 
HETATM   39  O3  UNL     1      -6.679  -1.197  15.310  1.00  0.00    -0.260 OA
BRANCH  38  40
HETATM   40  C16 UNL     1      -7.500  -0.235  13.303  1.00  0.00     0.072 C 
HETATM   41  C17 UNL     1      -7.895  -0.946  12.274  1.00  0.00     0.017 C 
ENDBRANCH  38  40
ENDBRANCH  37  38
ENDBRANCH  36  37
ENDBRANCH  34  36
ENDBRANCH  33  34
ENDBRANCH  31  32
ENDBRANCH   4  30
TORSDOF 18
ENDMDL
MODEL 3
REMARK VINA RESULT: -8.001920722      1.564      1.986
REMARK  18 active torsions:
REMARK  status: ('A' for Active; 'I' for Inactive)
REMARK    1  A    between atoms: C2_2  and  C3_3 
REMARK    2  A    between atoms: C3_3  and  O1_4 
REMARK    3  A    between atoms: O1_4  and  C4_5 
REMARK    4  A    between atoms: C7_8  and  C8_9 
REMARK    5  A    between atoms: C9_10  and  C10_11 
REMARK    6  A    between atoms: C11_12  and  C12_13 
REMARK    7  A    between atoms: C12_13  and  C14_15 
REMARK    8  A    between atoms: C14_15  and  O2_16 
REMARK    9  A    between atoms: O2_16  and  C15_17 
REMARK   10  A    between atoms: C15_17  and  C16_19 
REMARK   11  A    between atoms: C18_21  and  O4_22 
REMARK   12  A    between atoms: C19_24  and  O5_25 
REMARK   13  A    between atoms: C20_27  and  O6_28 
REMARK   14  A    between atoms: O6_28  and  C21_29 
REMARK   15  A    between atoms: C22_31  and  O8_32 
REMARK   16  A    between atoms: C23_34  and  O9_35 
REMARK   17  A    between atoms: C24_37  and  C25_38 
REMARK   18  A    between atoms: C25_38  and  O10_39 
ROOT
HETATM    1  C4  UNL     1      -3.968  -1.730   6.720  1.00  0.00     0.161 C 
HETATM    2  C5  UNL     1      -2.570  -1.180   6.899  1.00  0.00     0.058 C 
HETATM    3  C6  UNL     1      -2.318  -0.540   8.273  1.00  0.00     0.021 C 
HETATM    4  C7  UNL     1      -1.939   0.840   7.906  1.00  0.00     0.040 C 
HETATM    5  C18 UNL     1      -3.096   1.136   6.883  1.00  0.00     0.163 C 
HETATM    6  C19 UNL     1      -2.931  -0.035   5.977  1.00  0.00     0.119 C 
HETATM    7  C20 UNL     1      -4.151  -0.778   5.562  1.00  0.00     0.194 C 
ENDROOT
BRANCH   7   8
HETATM    8  O6  UNL     1      -5.340  -0.079   5.534  1.00  0.00    -0.328 OA
BRANCH   8   9
HETATM    9  C21 UNL     1      -6.296  -0.787   4.852  1.00  0.00     0.416 C 
HETATM   10  O7  UNL     1      -5.771  -1.695   3.935  1.00  0.00    -0.306 OA
HETATM   11  C22 UNL     1      -6.740  -2.623   3.649  1.00  0.00     0.293 C 
HETATM   12  C23 UNL     1      -8.141  -2.166   3.828  1.00  0.00     0.204 C 
HETATM   13  C24 UNL     1      -8.328  -0.687   3.843  1.00  0.00     0.184 C 
HETATM   14  O11 UNL     1      -7.179   0.026   4.147  1.00  0.00    -0.329 OA
BRANCH  11  15
HETATM   15  O8  UNL     1      -6.485  -3.764   4.437  1.00  0.00    -0.368 OA
ATOM     16  H8  UNL     1      -7.322  -4.156   4.656  1.00  0.00     0.212 HD
ENDBRANCH  11  15
BRANCH  12  17
HETATM   17  O9  UNL     1      -8.983  -2.783   2.878  1.00  0.00    -0.388 OA
ATOM     18  H9  UNL     1      -8.904  -3.727   2.930  1.00  0.00     0.210 HD
ENDBRANCH  12  17
BRANCH  13  19
HETATM   19  C25 UNL     1      -9.440  -0.269   4.812  1.00  0.00     0.199 C 
BRANCH  19  20
HETATM   20  O10 UNL     1     -10.107  -1.418   5.187  1.00  0.00    -0.398 OA
ATOM     21  H10 UNL     1     -10.099  -1.450   6.137  1.00  0.00     0.209 HD
ENDBRANCH  19  20
ENDBRANCH  13  19
ENDBRANCH   8   9
ENDBRANCH   7   8
BRANCH   1  22
HETATM   22  O1  UNL     1      -3.920  -3.046   6.338  1.00  0.00    -0.379 OA
BRANCH  22  23
HETATM   23  C3  UNL     1      -3.050  -3.830   7.062  1.00  0.00     0.195 C 
BRANCH  23  24
HETATM   24  C2  UNL     1      -3.666  -4.607   8.134  1.00  0.00    -0.011 C 
HETATM   25  C1  UNL     1      -4.115  -5.863   7.973  1.00  0.00     0.009 C 
ENDBRANCH  23  24
ENDBRANCH  22  23
ENDBRANCH   1  22
BRANCH   6  26
HETATM   26  O5  UNL     1      -1.995   0.219   4.975  1.00  0.00    -0.384 OA
ATOM     27  H5  UNL     1      -2.330   0.128   4.091  1.00  0.00     0.210 HD
ENDBRANCH   6  26
BRANCH   5  28
HETATM   28  O4  UNL     1      -4.301   1.196   7.541  1.00  0.00    -0.392 OA
ATOM     29  H4  UNL     1      -4.461   0.380   8.002  1.00  0.00     0.210 HD
ENDBRANCH   5  28
BRANCH   4  30
HETATM   30  C8  UNL     1      -1.845   1.883   8.873  1.00  0.00    -0.019 C 
HETATM   31  C9  UNL     1      -1.708   1.919  10.140  1.00  0.00    -0.004 C 
BRANCH  31  32
HETATM   32  C10 UNL     1      -1.590   0.873  11.104  1.00  0.00    -0.004 C 
HETATM   33  C11 UNL     1      -2.490   0.218  11.775  1.00  0.00    -0.020 C 
BRANCH  33  34
HETATM   34  C12 UNL     1      -3.935   0.244  11.845  1.00  0.00     0.028 C 
HETATM   35  C13 UNL     1      -4.634  -0.078  13.100  1.00  0.00     0.016 C 
BRANCH  34  36
HETATM   36  C14 UNL     1      -4.523  -0.531  10.656  1.00  0.00     0.187 C 
BRANCH  36  37
HETATM   37  O2  UNL     1      -5.465   0.217   9.998  1.00  0.00    -0.318 OA
BRANCH  37  38
HETATM   38  C15 UNL     1      -6.704  -0.157   9.542  1.00  0.00     0.282 C 
HETATM   39  O3  UNL     1      -6.813  -0.551   8.362  1.00  0.00    -0.260 OA
BRANCH  38  40
HETATM   40  C16 UNL     1      -7.865  -0.088  10.437  1.00  0.00     0.072 C 
HETATM   41  C17 UNL     1      -7.927  -0.906  11.460  1.00  0.00     0.017 C 
ENDBRANCH  38  40
ENDBRANCH  37  38
ENDBRANCH  36  37
ENDBRANCH  34  36
ENDBRANCH  33  34
ENDBRANCH  31  32
ENDBRANCH   4  30
TORSDOF 18
ENDMDL
MODEL 4
REMARK VINA RESULT: -7.918953860      2.015      3.102
REMARK  18 active torsions:
REMARK  status: ('A' for Active; 'I' for Inactive)
REMARK    1  A    between atoms: C2_2  and  C3_3 
REMARK    2  A    between atoms: C3_3  and  O1_4 
REMARK    3  A    between atoms: O1_4  and  C4_5 
REMARK    4  A    between atoms: C7_8  and  C8_9 
REMARK    5  A    between atoms: C9_10  and  C10_11 
REMARK    6  A    between atoms: C11_12  and  C12_13 
REMARK    7  A    between atoms: C12_13  and  C14_15 
REMARK    8  A    between atoms: C14_15  and  O2_16 
REMARK    9  A    between atoms: O2_16  and  C15_17 
REMARK   10  A    between atoms: C15_17  and  C16_19 
REMARK   11  A    between atoms: C18_21  and  O4_22 
REMARK   12  A    between atoms: C19_24  and  O5_25 
REMARK   13  A    between atoms: C20_27  and  O6_28 
REMARK   14  A    between atoms: O6_28  and  C21_29 
REMARK   15  A    between atoms: C22_31  and  O8_32 
REMARK   16  A    between atoms: C23_34  and  O9_35 
REMARK   17  A    between atoms: C24_37  and  C25_38 
REMARK   18  A    between atoms: C25_38  and  O10_39 
ROOT
HETATM    1  C4  UNL     1      -5.444  -0.057   7.189  1.00  0.00     0.161 C 
HETATM    2  C5  UNL     1      -4.094  -0.538   7.674  1.00  0.00     0.058 C 
HETATM    3  C6  UNL     1      -3.094   0.590   7.970  1.00  0.00     0.021 C 
HETATM    4  C7  UNL     1      -1.978   0.261   7.060  1.00  0.00     0.040 C 
HETATM    5  C18 UNL     1      -2.811   0.008   5.751  1.00  0.00     0.163 C 
HETATM    6  C19 UNL     1      -3.782  -0.999   6.267  1.00  0.00     0.119 C 
HETATM    7  C20 UNL     1      -5.218  -0.833   5.914  1.00  0.00     0.194 C 
ENDROOT
BRANCH   7   8
HETATM    8  O6  UNL     1      -5.509  -0.170   4.740  1.00  0.00    -0.328 OA
BRANCH   8   9
HETATM    9  C21 UNL     1      -6.334  -0.932   3.952  1.00  0.00     0.416 C 
HETATM   10  O7  UNL     1      -5.810  -2.186   3.643  1.00  0.00    -0.306 OA
HETATM   11  C22 UNL     1      -6.844  -2.997   3.253  1.00  0.00     0.293 C 
HETATM   12  C23 UNL     1      -8.027  -2.303   2.685  1.00  0.00     0.204 C 
HETATM   13  C24 UNL     1      -7.775  -0.916   2.197  1.00  0.00     0.184 C 
HETATM   14  O11 UNL     1      -6.647  -0.322   2.740  1.00  0.00    -0.329 OA
BRANCH  11  15
HETATM   15  O8  UNL     1      -7.215  -3.782   4.364  1.00  0.00    -0.368 OA
ATOM     16  H8  UNL     1      -6.502  -4.383   4.544  1.00  0.00     0.212 HD
ENDBRANCH  11  15
BRANCH  12  17
HETATM   17  O9  UNL     1      -8.631  -3.098   1.687  1.00  0.00    -0.388 OA
ATOM     18  H9  UNL     1      -9.453  -3.455   2.003  1.00  0.00     0.210 HD
ENDBRANCH  12  17
BRANCH  13  19
HETATM   19  C25 UNL     1      -8.982  -0.004   2.442  1.00  0.00     0.199 C 
BRANCH  19  20
HETATM   20  O10 UNL     1      -9.800  -0.104   1.334  1.00  0.00    -0.398 OA
ATOM     21  H10 UNL     1     -10.451  -0.769   1.526  1.00  0.00     0.209 HD
ENDBRANCH  19  20
ENDBRANCH  13  19
ENDBRANCH   8   9
ENDBRANCH   7   8
BRANCH   1  22
HETATM   22  O1  UNL     1      -6.446  -0.574   7.969  1.00  0.00    -0.379 OA
BRANCH  22  23
HETATM   23  C3  UNL     1      -6.246  -0.457   9.327  1.00  0.00     0.195 C 
BRANCH  23  24
HETATM   24  C2  UNL     1      -7.424  -0.057  10.091  1.00  0.00    -0.011 C 
HETATM   25  C1  UNL     1      -7.896  -0.750  11.140  1.00  0.00     0.009 C 
ENDBRANCH  23  24
ENDBRANCH  22  23
ENDBRANCH   1  22
BRANCH   6  26
HETATM   26  O5  UNL     1      -3.273  -2.294   6.181  1.00  0.00    -0.384 OA
ATOM     27  H5  UNL     1      -2.644  -2.424   5.482  1.00  0.00     0.210 HD
ENDBRANCH   6  26
BRANCH   5  28
HETATM   28  O4  UNL     1      -3.372   1.185   5.315  1.00  0.00    -0.392 OA
ATOM     29  H4  UNL     1      -4.315   1.090   5.246  1.00  0.00     0.210 HD
ENDBRANCH   5  28
BRANCH   4  30
HETATM   30  C8  UNL     1      -0.912   1.173   6.807  1.00  0.00    -0.019 C 
HETATM   31  C9  UNL     1       0.190   1.445   7.389  1.00  0.00    -0.004 C 
BRANCH  31  32
HETATM   32  C10 UNL     1       0.791   0.907   8.567  1.00  0.00    -0.004 C 
HETATM   33  C11 UNL     1       0.427   0.953   9.813  1.00  0.00    -0.020 C 
BRANCH  33  34
HETATM   34  C12 UNL     1      -0.687   1.530  10.535  1.00  0.00     0.028 C 
HETATM   35  C13 UNL     1      -0.735   2.974  10.815  1.00  0.00     0.016 C 
BRANCH  34  36
HETATM   36  C14 UNL     1      -0.969   0.700  11.796  1.00  0.00     0.187 C 
BRANCH  36  37
HETATM   37  O2  UNL     1      -2.271   0.850  12.203  1.00  0.00    -0.318 OA
BRANCH  37  38
HETATM   38  C15 UNL     1      -3.354   0.047  11.951  1.00  0.00     0.282 C 
HETATM   39  O3  UNL     1      -3.234  -0.875  11.117  1.00  0.00    -0.260 OA
BRANCH  38  40
HETATM   40  C16 UNL     1      -4.619   0.280  12.658  1.00  0.00     0.072 C 
HETATM   41  C17 UNL     1      -5.052  -0.626  13.501  1.00  0.00     0.017 C 
ENDBRANCH  38  40
ENDBRANCH  37  38
ENDBRANCH  36  37
ENDBRANCH  34  36
ENDBRANCH  33  34
ENDBRANCH  31  32
ENDBRANCH   4  30
TORSDOF 18
ENDMDL
MODEL 5
REMARK VINA RESULT: -7.908930053      3.835      9.479
REMARK  18 active torsions:
REMARK  status: ('A' for Active; 'I' for Inactive)
REMARK    1  A    between atoms: C2_2  and  C3_3 
REMARK    2  A    between atoms: C3_3  and  O1_4 
REMARK    3  A    between atoms: O1_4  and  C4_5 
REMARK    4  A    between atoms: C7_8  and  C8_9 
REMARK    5  A    between atoms: C9_10  and  C10_11 
REMARK    6  A    between atoms: C11_12  and  C12_13 
REMARK    7  A    between atoms: C12_13  and  C14_15 
REMARK    8  A    between atoms: C14_15  and  O2_16 
REMARK    9  A    between atoms: O2_16  and  C15_17 
REMARK   10  A    between atoms: C15_17  and  C16_19 
REMARK   11  A    between atoms: C18_21  and  O4_22 
REMARK   12  A    between atoms: C19_24  and  O5_25 
REMARK   13  A    between atoms: C20_27  and  O6_28 
REMARK   14  A    between atoms: O6_28  and  C21_29 
REMARK   15  A    between atoms: C22_31  and  O8_32 
REMARK   16  A    between atoms: C23_34  and  O9_35 
REMARK   17  A    between atoms: C24_37  and  C25_38 
REMARK   18  A    between atoms: C25_38  and  O10_39 
ROOT
HETATM    1  C4  UNL     1      -2.952  -0.342  11.593  1.00  0.00     0.161 C 
HETATM    2  C5  UNL     1      -3.668   0.458  10.527  1.00  0.00     0.058 C 
HETATM    3  C6  UNL     1      -3.904  -0.311   9.218  1.00  0.00     0.021 C 
HETATM    4  C7  UNL     1      -3.199   0.534   8.232  1.00  0.00     0.040 C 
HETATM    5  C18 UNL     1      -1.854   0.739   9.019  1.00  0.00     0.163 C 
HETATM    6  C19 UNL     1      -2.398   1.252  10.309  1.00  0.00     0.119 C 
HETATM    7  C20 UNL     1      -1.851   0.690  11.573  1.00  0.00     0.194 C 
ENDROOT
BRANCH   7   8
HETATM    8  O6  UNL     1      -0.561   0.201  11.543  1.00  0.00    -0.328 OA
BRANCH   8   9
HETATM    9  C21 UNL     1       0.245   0.926  12.384  1.00  0.00     0.416 C 
HETATM   10  O7  UNL     1       0.463   2.235  11.958  1.00  0.00    -0.306 OA
HETATM   11  C22 UNL     1       0.884   2.970  13.037  1.00  0.00     0.293 C 
HETATM   12  C23 UNL     1       1.557   2.204  14.115  1.00  0.00     0.204 C 
HETATM   13  C24 UNL     1       2.088   0.871  13.709  1.00  0.00     0.184 C 
HETATM   14  O11 UNL     1       1.499   0.352  12.567  1.00  0.00    -0.329 OA
BRANCH  11  15
HETATM   15  O8  UNL     1      -0.234   3.664  13.544  1.00  0.00    -0.368 OA
ATOM     16  H8  UNL     1      -0.193   3.623  14.492  1.00  0.00     0.212 HD
ENDBRANCH  11  15
BRANCH  12  17
HETATM   17  O9  UNL     1       2.556   2.991  14.727  1.00  0.00    -0.388 OA
ATOM     18  H9  UNL     1       3.382   2.522  14.745  1.00  0.00     0.210 HD
ENDBRANCH  12  17
BRANCH  13  19
HETATM   19  C25 UNL     1       1.962  -0.156  14.840  1.00  0.00     0.199 C 
BRANCH  19  20
HETATM   20  O10 UNL     1       2.307  -1.385  14.316  1.00  0.00    -0.398 OA
ATOM     21  H10 UNL     1       2.531  -1.950  15.047  1.00  0.00     0.209 HD
ENDBRANCH  19  20
ENDBRANCH  13  19
ENDBRANCH   8   9
ENDBRANCH   7   8
BRANCH   1  22
HETATM   22  O1  UNL     1      -3.675  -0.342  12.758  1.00  0.00    -0.379 OA
BRANCH  22  23
HETATM   23  C3  UNL     1      -5.007  -0.022  12.616  1.00  0.00     0.195 C 
BRANCH  23  24
HETATM   24  C2  UNL     1      -5.892  -0.608  13.619  1.00  0.00    -0.011 C 
HETATM   25  C1  UNL     1      -7.231  -0.609  13.514  1.00  0.00     0.009 C 
ENDBRANCH  23  24
ENDBRANCH  22  23
ENDBRANCH   1  22
BRANCH   6  26
HETATM   26  O5  UNL     1      -2.577   2.634  10.276  1.00  0.00    -0.384 OA
ATOM     27  H5  UNL     1      -2.781   3.024  11.117  1.00  0.00     0.210 HD
ENDBRANCH   6  26
BRANCH   5  28
HETATM   28  O4  UNL     1      -1.175  -0.453   9.108  1.00  0.00    -0.392 OA
ATOM     29  H4  UNL     1      -0.359  -0.328   9.580  1.00  0.00     0.210 HD
ENDBRANCH   5  28
BRANCH   4  30
HETATM   30  C8  UNL     1      -2.940   0.091   6.902  1.00  0.00    -0.019 C 
HETATM   31  C9  UNL     1      -3.486  -0.753   6.117  1.00  0.00    -0.004 C 
BRANCH  31  32
HETATM   32  C10 UNL     1      -4.618  -1.605   6.291  1.00  0.00    -0.004 C 
HETATM   33  C11 UNL     1      -4.713  -2.826   6.724  1.00  0.00    -0.020 C 
BRANCH  33  34
HETATM   34  C12 UNL     1      -3.777  -3.819   7.205  1.00  0.00     0.028 C 
HETATM   35  C13 UNL     1      -2.370  -3.469   7.456  1.00  0.00     0.016 C 
BRANCH  34  36
HETATM   36  C14 UNL     1      -3.899  -5.095   6.358  1.00  0.00     0.187 C 
BRANCH  36  37
HETATM   37  O2  UNL     1      -3.806  -6.217   7.141  1.00  0.00    -0.318 OA
BRANCH  37  38
HETATM   38  C15 UNL     1      -4.582  -6.594   8.209  1.00  0.00     0.282 C 
HETATM   39  O3  UNL     1      -5.773  -6.906   8.001  1.00  0.00    -0.260 OA
BRANCH  38  40
HETATM   40  C16 UNL     1      -4.006  -6.623   9.558  1.00  0.00     0.072 C 
HETATM   41  C17 UNL     1      -3.887  -7.776  10.172  1.00  0.00     0.017 C 
ENDBRANCH  38  40
ENDBRANCH  37  38
ENDBRANCH  36  37
ENDBRANCH  34  36
ENDBRANCH  33  34
ENDBRANCH  31  32
ENDBRANCH   4  30
TORSDOF 18
ENDMDL
