MODEL 1
REMARK VINA RESULT: -8.447699579      0.000      0.000
REMARK  17 active torsions:
REMARK  status: ('A' for Active; 'I' for Inactive)
REMARK    1  A    between atoms: O1_2  and  C2_3 
REMARK    2  A    between atoms: C2_3  and  C3_4 
REMARK    3  A    between atoms: C2_3  and  C13_21 
REMARK    4  A    between atoms: C4_5  and  C5_6 
REMARK    5  A    between atoms: C5_6  and  O2_7 
REMARK    6  A    between atoms: C6_9  and  C7_10 
REMARK    7  A    between atoms: C7_10  and  C8_11 
REMARK    8  A    between atoms: C8_11  and  N1_12 
REMARK       I    between atoms: N1_12  and  C9_14 
REMARK    9  A    between atoms: C9_14  and  C10_16 
REMARK   10  A    between atoms: C10_16  and  O4_19 
REMARK   11  A    between atoms: C13_21  and  O5_22 
REMARK   12  A    between atoms: C13_21  and  C14_24 
REMARK   13  A    between atoms: C14_24  and  C16_26 
REMARK   14  A    between atoms: C17_28  and  O7_29 
REMARK   15  A    between atoms: O7_29  and  C18_30 
REMARK   16  A    between atoms: C21_33  and  O8_34 
REMARK   17  A    between atoms: C22_36  and  C23_37 
ROOT
HETATM    1  C2  UNL     1      -4.065  -1.813   7.566  1.00  0.00     0.172 C 
ENDROOT
BRANCH   1   2
HETATM    2  O1  UNL     1      -5.234  -2.243   8.253  1.00  0.00    -0.384 OA
HETATM    3  C1  UNL     1      -5.677  -1.327   9.171  1.00  0.00     0.202 C 
ENDBRANCH   1   2
BRANCH   1   4
HETATM    4  C3  UNL     1      -2.974  -2.751   7.755  1.00  0.00     0.010 C 
HETATM    5  C4  UNL     1      -2.877  -3.996   7.969  1.00  0.00     0.035 C 
BRANCH   5   6
HETATM    6  C5  UNL     1      -3.699  -5.117   8.137  1.00  0.00     0.065 C 
HETATM    7  C6  UNL     1      -3.951  -6.167   9.038  1.00  0.00     0.038 C 
BRANCH   6   8
HETATM    8  O2  UNL     1      -4.553  -5.249   7.060  1.00  0.00    -0.361 OA
ATOM      9  H2  UNL     1      -5.051  -6.054   7.133  1.00  0.00     0.217 HD
ENDBRANCH   6   8
BRANCH   7  10
HETATM   10  C7  UNL     1      -3.458  -6.538  10.166  1.00  0.00     0.020 C 
BRANCH  10  11
HETATM   11  C8  UNL     1      -3.941  -7.775  10.819  1.00  0.00     0.091 C 
BRANCH  11  12
HETATM   12  N1  UNL     1      -3.189  -8.375  11.668  1.00  0.00    -0.335 N 
HETATM   13  C9  UNL     1      -3.426  -8.317  13.057  1.00  0.00     0.255 C 
HETATM   14  O3  UNL     1      -4.533  -7.835  13.446  1.00  0.00    -0.270 OA
ATOM     15  H1  UNL     1      -2.392  -8.913  11.326  1.00  0.00     0.168 HD
BRANCH  13  16
HETATM   16  C10 UNL     1      -2.442  -8.793  14.050  1.00  0.00     0.131 C 
HETATM   17  C11 UNL     1      -1.801 -10.069  13.554  1.00  0.00     0.056 C 
HETATM   18  C12 UNL     1      -3.088  -9.101  15.384  1.00  0.00     0.056 C 
BRANCH  16  19
HETATM   19  O4  UNL     1      -1.460  -7.826  14.235  1.00  0.00    -0.381 OA
ATOM     20  H4  UNL     1      -1.865  -7.003  14.485  1.00  0.00     0.211 HD
ENDBRANCH  16  19
ENDBRANCH  13  16
ENDBRANCH  11  12
ENDBRANCH  10  11
ENDBRANCH   7  10
ENDBRANCH   5   6
ENDBRANCH   1   4
BRANCH   1  21
HETATM   21  C13 UNL     1      -4.430  -1.762   6.115  1.00  0.00     0.159 C 
BRANCH  21  22
HETATM   22  O5  UNL     1      -5.108  -2.932   5.732  1.00  0.00    -0.392 OA
ATOM     23  H5  UNL     1      -6.039  -2.852   5.901  1.00  0.00     0.210 HD
ENDBRANCH  21  22
BRANCH  21  24
HETATM   24  C14 UNL     1      -5.284  -0.598   5.700  1.00  0.00     0.069 C 
HETATM   25  C15 UNL     1      -4.461   0.409   4.951  1.00  0.00     0.017 C 
BRANCH  24  26
HETATM   26  C16 UNL     1      -6.358  -1.179   4.776  1.00  0.00     0.270 C 
HETATM   27  O6  UNL     1      -7.620  -0.818   5.171  1.00  0.00    -0.328 OA
HETATM   28  C17 UNL     1      -8.544  -1.322   4.266  1.00  0.00     0.295 C 
HETATM   29  C21 UNL     1      -7.924  -2.103   3.133  1.00  0.00     0.212 C 
HETATM   30  C22 UNL     1      -6.840  -1.269   2.517  1.00  0.00     0.258 C 
HETATM   31  O11 UNL     1      -6.091  -0.690   3.515  1.00  0.00    -0.342 OA
BRANCH  28  32
HETATM   32  O7  UNL     1      -9.195  -0.226   3.694  1.00  0.00    -0.354 OA
BRANCH  32  33
HETATM   33  C18 UNL     1      -9.755   0.605   4.661  1.00  0.00     0.116 C 
HETATM   34  C19 UNL     1     -10.661  -0.232   5.531  1.00  0.00     0.039 C 
HETATM   35  C20 UNL     1     -10.620   1.688   4.007  1.00  0.00     0.039 C 
ENDBRANCH  32  33
ENDBRANCH  28  32
BRANCH  29  36
HETATM   36  O8  UNL     1      -8.912  -2.452   2.205  1.00  0.00    -0.387 OA
ATOM     37  H8  UNL     1      -8.909  -1.832   1.485  1.00  0.00     0.210 HD
ENDBRANCH  29  36
BRANCH  30  38
HETATM   38  C23 UNL     1      -7.413  -0.265   1.579  1.00  0.00     0.206 C 
HETATM   39  O9  UNL     1      -7.258   0.951   1.856  1.00  0.00    -0.646 OA
HETATM   40  O10 UNL     1      -8.097  -0.592   0.436  1.00  0.00    -0.646 OA
ENDBRANCH  30  38
ENDBRANCH  24  26
ENDBRANCH  21  24
ENDBRANCH   1  21
TORSDOF 17
ENDMDL
MODEL 2
REMARK VINA RESULT: -8.095458757      1.298      2.306
REMARK  17 active torsions:
REMARK  status: ('A' for Active; 'I' for Inactive)
REMARK    1  A    between atoms: O1_2  and  C2_3 
REMARK    2  A    between atoms: C2_3  and  C3_4 
REMARK    3  A    between atoms: C2_3  and  C13_21 
REMARK    4  A    between atoms: C4_5  and  C5_6 
REMARK    5  A    between atoms: C5_6  and  O2_7 
REMARK    6  A    between atoms: C6_9  and  C7_10 
REMARK    7  A    between atoms: C7_10  and  C8_11 
REMARK    8  A    between atoms: C8_11  and  N1_12 
REMARK       I    between atoms: N1_12  and  C9_14 
REMARK    9  A    between atoms: C9_14  and  C10_16 
REMARK   10  A    between atoms: C10_16  and  O4_19 
REMARK   11  A    between atoms: C13_21  and  O5_22 
REMARK   12  A    between atoms: C13_21  and  C14_24 
REMARK   13  A    between atoms: C14_24  and  C16_26 
REMARK   14  A    between atoms: C17_28  and  O7_29 
REMARK   15  A    between atoms: O7_29  and  C18_30 
REMARK   16  A    between atoms: C21_33  and  O8_34 
REMARK   17  A    between atoms: C22_36  and  C23_37 
ROOT
HETATM    1  C2  UNL     1      -3.290  -1.820   7.884  1.00  0.00     0.172 C 
ENDROOT
BRANCH   1   2
HETATM    2  O1  UNL     1      -3.758  -2.002   9.216  1.00  0.00    -0.384 OA
HETATM    3  C1  UNL     1      -3.439  -0.953  10.038  1.00  0.00     0.202 C 
ENDBRANCH   1   2
BRANCH   1   4
HETATM    4  C3  UNL     1      -2.556  -2.984   7.425  1.00  0.00     0.010 C 
HETATM    5  C4  UNL     1      -2.759  -4.235   7.410  1.00  0.00     0.035 C 
BRANCH   5   6
HETATM    6  C5  UNL     1      -3.732  -5.163   7.797  1.00  0.00     0.065 C 
HETATM    7  C6  UNL     1      -4.040  -6.061   8.835  1.00  0.00     0.038 C 
BRANCH   6   8
HETATM    8  O2  UNL     1      -4.732  -5.230   6.849  1.00  0.00    -0.361 OA
ATOM      9  H2  UNL     1      -4.834  -6.122   6.540  1.00  0.00     0.217 HD
ENDBRANCH   6   8
BRANCH   7  10
HETATM   10  C7  UNL     1      -3.472  -6.414   9.933  1.00  0.00     0.020 C 
BRANCH  10  11
HETATM   11  C8  UNL     1      -3.998  -7.559  10.709  1.00  0.00     0.091 C 
BRANCH  11  12
HETATM   12  N1  UNL     1      -3.220  -8.188  11.513  1.00  0.00    -0.335 N 
HETATM   13  C9  UNL     1      -3.442  -8.217  12.905  1.00  0.00     0.255 C 
HETATM   14  O3  UNL     1      -4.556  -7.789  13.333  1.00  0.00    -0.270 OA
ATOM     15  H1  UNL     1      -2.413  -8.682  11.132  1.00  0.00     0.168 HD
BRANCH  13  16
HETATM   16  C10 UNL     1      -2.433  -8.723  13.859  1.00  0.00     0.131 C 
HETATM   17  C11 UNL     1      -1.751  -9.938  13.273  1.00  0.00     0.056 C 
HETATM   18  C12 UNL     1      -3.058  -9.144  15.172  1.00  0.00     0.056 C 
BRANCH  16  19
HETATM   19  O4  UNL     1      -1.485  -7.735  14.104  1.00  0.00    -0.381 OA
ATOM     20  H4  UNL     1      -1.709  -6.950  13.617  1.00  0.00     0.211 HD
ENDBRANCH  16  19
ENDBRANCH  13  16
ENDBRANCH  11  12
ENDBRANCH  10  11
ENDBRANCH   7  10
ENDBRANCH   5   6
ENDBRANCH   1   4
BRANCH   1  21
HETATM   21  C13 UNL     1      -4.510  -1.637   7.037  1.00  0.00     0.159 C 
BRANCH  21  22
HETATM   22  O5  UNL     1      -5.677  -1.807   7.802  1.00  0.00    -0.392 OA
ATOM     23  H5  UNL     1      -6.441  -1.874   7.241  1.00  0.00     0.210 HD
ENDBRANCH  21  22
BRANCH  21  24
HETATM   24  C14 UNL     1      -4.626  -0.311   6.341  1.00  0.00     0.069 C 
HETATM   25  C15 UNL     1      -3.561  -0.180   5.291  1.00  0.00     0.017 C 
BRANCH  24  26
HETATM   26  C16 UNL     1      -6.007  -0.306   5.680  1.00  0.00     0.270 C 
HETATM   27  O6  UNL     1      -6.105   0.656   4.709  1.00  0.00    -0.328 OA
HETATM   28  C17 UNL     1      -7.353   0.574   4.108  1.00  0.00     0.295 C 
HETATM   29  C21 UNL     1      -8.230  -0.518   4.670  1.00  0.00     0.212 C 
HETATM   30  C22 UNL     1      -7.453  -1.801   4.670  1.00  0.00     0.258 C 
HETATM   31  O11 UNL     1      -6.180  -1.560   5.134  1.00  0.00    -0.342 OA
BRANCH  28  32
HETATM   32  O7  UNL     1      -7.138   0.266   2.761  1.00  0.00    -0.354 OA
BRANCH  32  33
HETATM   33  C18 UNL     1      -6.185   1.104   2.186  1.00  0.00     0.116 C 
HETATM   34  C19 UNL     1      -6.856   1.898   1.092  1.00  0.00     0.039 C 
HETATM   35  C20 UNL     1      -5.067   0.282   1.535  1.00  0.00     0.039 C 
ENDBRANCH  32  33
ENDBRANCH  28  32
BRANCH  29  36
HETATM   36  O8  UNL     1      -9.406  -0.614   3.917  1.00  0.00    -0.387 OA
ATOM     37  H8  UNL     1     -10.117  -0.915   4.470  1.00  0.00     0.210 HD
ENDBRANCH  29  36
BRANCH  30  38
HETATM   38  C23 UNL     1      -7.459  -2.424   3.318  1.00  0.00     0.206 C 
HETATM   39  O9  UNL     1      -6.351  -2.732   2.811  1.00  0.00    -0.646 OA
HETATM   40  O10 UNL     1      -8.600  -2.678   2.600  1.00  0.00    -0.646 OA
ENDBRANCH  30  38
ENDBRANCH  24  26
ENDBRANCH  21  24
ENDBRANCH   1  21
TORSDOF 17
ENDMDL
MODEL 3
REMARK VINA RESULT: -7.988067313      1.098      2.394
REMARK  17 active torsions:
REMARK  status: ('A' for Active; 'I' for Inactive)
REMARK    1  A    between atoms: O1_2  and  C2_3 
REMARK    2  A    between atoms: C2_3  and  C3_4 
REMARK    3  A    between atoms: C2_3  and  C13_21 
REMARK    4  A    between atoms: C4_5  and  C5_6 
REMARK    5  A    between atoms: C5_6  and  O2_7 
REMARK    6  A    between atoms: C6_9  and  C7_10 
REMARK    7  A    between atoms: C7_10  and  C8_11 
REMARK    8  A    between atoms: C8_11  and  N1_12 
REMARK       I    between atoms: N1_12  and  C9_14 
REMARK    9  A    between atoms: C9_14  and  C10_16 
REMARK   10  A    between atoms: C10_16  and  O4_19 
REMARK   11  A    between atoms: C13_21  and  O5_22 
REMARK   12  A    between atoms: C13_21  and  C14_24 
REMARK   13  A    between atoms: C14_24  and  C16_26 
REMARK   14  A    between atoms: C17_28  and  O7_29 
REMARK   15  A    between atoms: O7_29  and  C18_30 
REMARK   16  A    between atoms: C21_33  and  O8_34 
REMARK   17  A    between atoms: C22_36  and  C23_37 
ROOT
HETATM    1  C2  UNL     1      -3.851  -2.048   7.363  1.00  0.00     0.172 C 
ENDROOT
BRANCH   1   2
HETATM    2  O1  UNL     1      -4.797  -2.420   8.359  1.00  0.00    -0.384 OA
HETATM    3  C1  UNL     1      -4.967  -1.453   9.316  1.00  0.00     0.202 C 
ENDBRANCH   1   2
BRANCH   1   4
HETATM    4  C3  UNL     1      -3.005  -3.170   7.002  1.00  0.00     0.010 C 
HETATM    5  C4  UNL     1      -3.084  -4.431   7.099  1.00  0.00     0.035 C 
BRANCH   5   6
HETATM    6  C5  UNL     1      -3.961  -5.412   7.576  1.00  0.00     0.065 C 
HETATM    7  C6  UNL     1      -4.150  -6.277   8.669  1.00  0.00     0.038 C 
BRANCH   6   8
HETATM    8  O2  UNL     1      -4.992  -5.608   6.679  1.00  0.00    -0.361 OA
ATOM      9  H2  UNL     1      -5.142  -4.817   6.174  1.00  0.00     0.217 HD
ENDBRANCH   6   8
BRANCH   7  10
HETATM   10  C7  UNL     1      -3.509  -6.527   9.755  1.00  0.00     0.020 C 
BRANCH  10  11
HETATM   11  C8  UNL     1      -4.066  -7.472  10.748  1.00  0.00     0.091 C 
BRANCH  11  12
HETATM   12  N1  UNL     1      -3.270  -8.111  11.527  1.00  0.00    -0.335 N 
HETATM   13  C9  UNL     1      -3.485  -8.194  12.918  1.00  0.00     0.255 C 
HETATM   14  O3  UNL     1      -4.607  -7.807  13.365  1.00  0.00    -0.270 OA
ATOM     15  H1  UNL     1      -2.454  -8.573  11.125  1.00  0.00     0.168 HD
BRANCH  13  16
HETATM   16  C10 UNL     1      -2.461  -8.710  13.849  1.00  0.00     0.131 C 
HETATM   17  C11 UNL     1      -1.776  -9.908  13.232  1.00  0.00     0.056 C 
HETATM   18  C12 UNL     1      -3.066  -9.162  15.161  1.00  0.00     0.056 C 
BRANCH  16  19
HETATM   19  O4  UNL     1      -1.518  -7.720  14.103  1.00  0.00    -0.381 OA
ATOM     20  H4  UNL     1      -1.946  -6.872  14.134  1.00  0.00     0.211 HD
ENDBRANCH  16  19
ENDBRANCH  13  16
ENDBRANCH  11  12
ENDBRANCH  10  11
ENDBRANCH   7  10
ENDBRANCH   5   6
ENDBRANCH   1   4
BRANCH   1  21
HETATM   21  C13 UNL     1      -4.649  -1.624   6.171  1.00  0.00     0.159 C 
BRANCH  21  22
HETATM   22  O5  UNL     1      -6.020  -1.850   6.383  1.00  0.00    -0.392 OA
ATOM     23  H5  UNL     1      -6.403  -2.313   5.646  1.00  0.00     0.210 HD
ENDBRANCH  21  22
BRANCH  21  24
HETATM   24  C14 UNL     1      -4.496  -0.185   5.764  1.00  0.00     0.069 C 
HETATM   25  C15 UNL     1      -3.064   0.107   5.421  1.00  0.00     0.017 C 
BRANCH  24  26
HETATM   26  C16 UNL     1      -5.372  -0.009   4.520  1.00  0.00     0.270 C 
HETATM   27  O6  UNL     1      -5.486  -1.174   3.807  1.00  0.00    -0.328 OA
HETATM   28  C17 UNL     1      -6.334  -0.968   2.729  1.00  0.00     0.295 C 
HETATM   29  C21 UNL     1      -6.880   0.436   2.641  1.00  0.00     0.212 C 
HETATM   30  C22 UNL     1      -7.466   0.804   3.972  1.00  0.00     0.258 C 
HETATM   31  O11 UNL     1      -6.608   0.403   4.971  1.00  0.00    -0.342 OA
BRANCH  28  32
HETATM   32  O7  UNL     1      -7.431  -1.818   2.904  1.00  0.00    -0.354 OA
BRANCH  32  33
HETATM   33  C18 UNL     1      -7.115  -3.138   2.590  1.00  0.00     0.116 C 
HETATM   34  C19 UNL     1      -8.350  -3.793   2.021  1.00  0.00     0.039 C 
HETATM   35  C20 UNL     1      -6.726  -3.914   3.853  1.00  0.00     0.039 C 
ENDBRANCH  32  33
ENDBRANCH  28  32
BRANCH  29  36
HETATM   36  O8  UNL     1      -7.826   0.512   1.612  1.00  0.00    -0.387 OA
ATOM     37  H8  UNL     1      -7.452   0.172   0.807  1.00  0.00     0.210 HD
ENDBRANCH  29  36
BRANCH  30  38
HETATM   38  C23 UNL     1      -8.830   0.229   4.128  1.00  0.00     0.206 C 
HETATM   39  O9  UNL     1      -9.017  -0.589   5.064  1.00  0.00    -0.646 OA
HETATM   40  O10 UNL     1      -9.887   0.541   3.312  1.00  0.00    -0.646 OA
ENDBRANCH  30  38
ENDBRANCH  24  26
ENDBRANCH  21  24
ENDBRANCH   1  21
TORSDOF 17
ENDMDL
MODEL 4
REMARK VINA RESULT: -7.923115317      1.123      1.286
REMARK  17 active torsions:
REMARK  status: ('A' for Active; 'I' for Inactive)
REMARK    1  A    between atoms: O1_2  and  C2_3 
REMARK    2  A    between atoms: C2_3  and  C3_4 
REMARK    3  A    between atoms: C2_3  and  C13_21 
REMARK    4  A    between atoms: C4_5  and  C5_6 
REMARK    5  A    between atoms: C5_6  and  O2_7 
REMARK    6  A    between atoms: C6_9  and  C7_10 
REMARK    7  A    between atoms: C7_10  and  C8_11 
REMARK    8  A    between atoms: C8_11  and  N1_12 
REMARK       I    between atoms: N1_12  and  C9_14 
REMARK    9  A    between atoms: C9_14  and  C10_16 
REMARK   10  A    between atoms: C10_16  and  O4_19 
REMARK   11  A    between atoms: C13_21  and  O5_22 
REMARK   12  A    between atoms: C13_21  and  C14_24 
REMARK   13  A    between atoms: C14_24  and  C16_26 
REMARK   14  A    between atoms: C17_28  and  O7_29 
REMARK   15  A    between atoms: O7_29  and  C18_30 
REMARK   16  A    between atoms: C21_33  and  O8_34 
REMARK   17  A    between atoms: C22_36  and  C23_37 
ROOT
HETATM    1  C2  UNL     1      -3.784  -2.181   8.052  1.00  0.00     0.172 C 
ENDROOT
BRANCH   1   2
HETATM    2  O1  UNL     1      -5.107  -2.511   8.461  1.00  0.00    -0.384 OA
HETATM    3  C1  UNL     1      -5.718  -1.495   9.148  1.00  0.00     0.202 C 
ENDBRANCH   1   2
BRANCH   1   4
HETATM    4  C3  UNL     1      -2.868  -3.275   8.318  1.00  0.00     0.010 C 
HETATM    5  C4  UNL     1      -2.938  -4.540   8.298  1.00  0.00     0.035 C 
BRANCH   5   6
HETATM    6  C5  UNL     1      -3.864  -5.553   8.029  1.00  0.00     0.065 C 
HETATM    7  C6  UNL     1      -4.247  -6.834   8.466  1.00  0.00     0.038 C 
BRANCH   6   8
HETATM    8  O2  UNL     1      -4.684  -5.185   6.981  1.00  0.00    -0.361 OA
ATOM      9  H2  UNL     1      -5.491  -4.807   7.312  1.00  0.00     0.217 HD
ENDBRANCH   6   8
BRANCH   7  10
HETATM   10  C7  UNL     1      -3.835  -7.649   9.371  1.00  0.00     0.020 C 
BRANCH  10  11
HETATM   11  C8  UNL     1      -3.785  -7.226  10.788  1.00  0.00     0.091 C 
BRANCH  11  12
HETATM   12  N1  UNL     1      -3.064  -7.888  11.619  1.00  0.00    -0.335 N 
HETATM   13  C9  UNL     1      -3.445  -8.070  12.965  1.00  0.00     0.255 C 
HETATM   14  O3  UNL     1      -4.627  -7.752  13.291  1.00  0.00    -0.270 OA
ATOM     15  H1  UNL     1      -2.187  -8.295  11.295  1.00  0.00     0.168 HD
BRANCH  13  16
HETATM   16  C10 UNL     1      -2.522  -8.613  13.983  1.00  0.00     0.131 C 
HETATM   17  C11 UNL     1      -1.966  -9.936  13.506  1.00  0.00     0.056 C 
HETATM   18  C12 UNL     1      -3.220  -8.865  15.302  1.00  0.00     0.056 C 
BRANCH  16  19
HETATM   19  O4  UNL     1      -1.475  -7.720  14.187  1.00  0.00    -0.381 OA
ATOM     20  H4  UNL     1      -0.945  -8.011  14.921  1.00  0.00     0.211 HD
ENDBRANCH  16  19
ENDBRANCH  13  16
ENDBRANCH  11  12
ENDBRANCH  10  11
ENDBRANCH   7  10
ENDBRANCH   5   6
ENDBRANCH   1   4
BRANCH   1  21
HETATM   21  C13 UNL     1      -3.854  -1.941   6.576  1.00  0.00     0.159 C 
BRANCH  21  22
HETATM   22  O5  UNL     1      -4.845  -2.745   5.987  1.00  0.00    -0.392 OA
ATOM     23  H5  UNL     1      -5.010  -2.474   5.092  1.00  0.00     0.210 HD
ENDBRANCH  21  22
BRANCH  21  24
HETATM   24  C14 UNL     1      -4.129  -0.523   6.161  1.00  0.00     0.069 C 
HETATM   25  C15 UNL     1      -2.891   0.097   5.581  1.00  0.00     0.017 C 
BRANCH  24  26
HETATM   26  C16 UNL     1      -5.218  -0.607   5.087  1.00  0.00     0.270 C 
HETATM   27  O6  UNL     1      -6.467  -0.403   5.611  1.00  0.00    -0.328 OA
HETATM   28  C17 UNL     1      -7.403  -0.433   4.586  1.00  0.00     0.295 C 
HETATM   29  C21 UNL     1      -6.805  -0.674   3.222  1.00  0.00     0.212 C 
HETATM   30  C22 UNL     1      -5.684   0.301   3.013  1.00  0.00     0.258 C 
HETATM   31  O11 UNL     1      -4.921   0.365   4.156  1.00  0.00    -0.342 OA
BRANCH  28  32
HETATM   32  O7  UNL     1      -8.005   0.828   4.547  1.00  0.00    -0.354 OA
BRANCH  32  33
HETATM   33  C18 UNL     1      -9.263   0.817   5.145  1.00  0.00     0.116 C 
HETATM   34  C19 UNL     1      -9.639  -0.618   5.424  1.00  0.00     0.039 C 
HETATM   35  C20 UNL     1     -10.318   1.390   4.191  1.00  0.00     0.039 C 
ENDBRANCH  32  33
ENDBRANCH  28  32
BRANCH  29  36
HETATM   36  O8  UNL     1      -7.798  -0.551   2.243  1.00  0.00    -0.387 OA
ATOM     37  H8  UNL     1      -7.524   0.078   1.586  1.00  0.00     0.210 HD
ENDBRANCH  29  36
BRANCH  30  38
HETATM   38  C23 UNL     1      -6.210   1.633   2.604  1.00  0.00     0.206 C 
HETATM   39  O9  UNL     1      -5.938   2.619   3.333  1.00  0.00    -0.646 OA
HETATM   40  O10 UNL     1      -6.970   1.840   1.481  1.00  0.00    -0.646 OA
ENDBRANCH  30  38
ENDBRANCH  24  26
ENDBRANCH  21  24
ENDBRANCH   1  21
TORSDOF 17
ENDMDL
MODEL 5
REMARK VINA RESULT: -7.911396170      1.433      2.284
REMARK  17 active torsions:
REMARK  status: ('A' for Active; 'I' for Inactive)
REMARK    1  A    between atoms: O1_2  and  C2_3 
REMARK    2  A    between atoms: C2_3  and  C3_4 
REMARK    3  A    between atoms: C2_3  and  C13_21 
REMARK    4  A    between atoms: C4_5  and  C5_6 
REMARK    5  A    between atoms: C5_6  and  O2_7 
REMARK    6  A    between atoms: C6_9  and  C7_10 
REMARK    7  A    between atoms: C7_10  and  C8_11 
REMARK    8  A    between atoms: C8_11  and  N1_12 
REMARK       I    between atoms: N1_12  and  C9_14 
REMARK    9  A    between atoms: C9_14  and  C10_16 
REMARK   10  A    between atoms: C10_16  and  O4_19 
REMARK   11  A    between atoms: C13_21  and  O5_22 
REMARK   12  A    between atoms: C13_21  and  C14_24 
REMARK   13  A    between atoms: C14_24  and  C16_26 
REMARK   14  A    between atoms: C17_28  and  O7_29 
REMARK   15  A    between atoms: O7_29  and  C18_30 
REMARK   16  A    between atoms: C21_33  and  O8_34 
REMARK   17  A    between atoms: C22_36  and  C23_37 
ROOT
HETATM    1  C2  UNL     1      -3.885  -1.732   7.747  1.00  0.00     0.172 C 
ENDROOT
BRANCH   1   2
HETATM    2  O1  UNL     1      -5.088  -2.165   8.371  1.00  0.00    -0.384 OA
HETATM    3  C1  UNL     1      -5.623  -1.219   9.207  1.00  0.00     0.202 C 
ENDBRANCH   1   2
BRANCH   1   4
HETATM    4  C3  UNL     1      -2.837  -2.726   7.888  1.00  0.00     0.010 C 
HETATM    5  C4  UNL     1      -2.797  -3.981   8.058  1.00  0.00     0.035 C 
BRANCH   5   6
HETATM    6  C5  UNL     1      -3.669  -5.067   8.203  1.00  0.00     0.065 C 
HETATM    7  C6  UNL     1      -3.921  -6.167   9.042  1.00  0.00     0.038 C 
BRANCH   6   8
HETATM    8  O2  UNL     1      -4.598  -5.072   7.183  1.00  0.00    -0.361 OA
ATOM      9  H2  UNL     1      -5.389  -4.621   7.455  1.00  0.00     0.217 HD
ENDBRANCH   6   8
BRANCH   7  10
HETATM   10  C7  UNL     1      -3.377  -6.647  10.103  1.00  0.00     0.020 C 
BRANCH  10  11
HETATM   11  C8  UNL     1      -3.918  -7.875  10.727  1.00  0.00     0.091 C 
BRANCH  11  12
HETATM   12  N1  UNL     1      -3.229  -8.482  11.625  1.00  0.00    -0.335 N 
HETATM   13  C9  UNL     1      -3.469  -8.306  13.003  1.00  0.00     0.255 C 
HETATM   14  O3  UNL     1      -4.528  -7.698  13.344  1.00  0.00    -0.270 OA
ATOM     15  H1  UNL     1      -2.484  -9.114  11.331  1.00  0.00     0.168 HD
BRANCH  13  16
HETATM   16  C10 UNL     1      -2.540  -8.801  14.039  1.00  0.00     0.131 C 
HETATM   17  C11 UNL     1      -1.970 -10.134  13.611  1.00  0.00     0.056 C 
HETATM   18  C12 UNL     1      -3.234  -9.012  15.368  1.00  0.00     0.056 C 
BRANCH  16  19
HETATM   19  O4  UNL     1      -1.502  -7.890  14.210  1.00  0.00    -0.381 OA
ATOM     20  H4  UNL     1      -1.855  -7.053  14.490  1.00  0.00     0.211 HD
ENDBRANCH  16  19
ENDBRANCH  13  16
ENDBRANCH  11  12
ENDBRANCH  10  11
ENDBRANCH   7  10
ENDBRANCH   5   6
ENDBRANCH   1   4
BRANCH   1  21
HETATM   21  C13 UNL     1      -4.209  -1.553   6.298  1.00  0.00     0.159 C 
BRANCH  21  22
HETATM   22  O5  UNL     1      -5.155  -2.504   5.878  1.00  0.00    -0.392 OA
ATOM     23  H5  UNL     1      -4.725  -3.264   5.502  1.00  0.00     0.210 HD
ENDBRANCH  21  22
BRANCH  21  24
HETATM   24  C14 UNL     1      -4.739  -0.201   5.912  1.00  0.00     0.069 C 
HETATM   25  C15 UNL     1      -3.909   0.881   6.539  1.00  0.00     0.017 C 
BRANCH  24  26
HETATM   26  C16 UNL     1      -4.618  -0.127   4.386  1.00  0.00     0.270 C 
HETATM   27  O6  UNL     1      -5.593  -0.858   3.761  1.00  0.00    -0.328 OA
HETATM   28  C17 UNL     1      -5.469  -0.706   2.388  1.00  0.00     0.295 C 
HETATM   29  C21 UNL     1      -4.331   0.195   1.975  1.00  0.00     0.212 C 
HETATM   30  C22 UNL     1      -4.441   1.482   2.736  1.00  0.00     0.258 C 
HETATM   31  O11 UNL     1      -4.727   1.207   4.053  1.00  0.00    -0.342 OA
BRANCH  28  32
HETATM   32  O7  UNL     1      -6.646  -0.103   1.935  1.00  0.00    -0.354 OA
BRANCH  32  33
HETATM   33  C18 UNL     1      -7.773  -0.644   2.550  1.00  0.00     0.116 C 
HETATM   34  C19 UNL     1      -8.215  -1.843   1.748  1.00  0.00     0.039 C 
HETATM   35  C20 UNL     1      -8.928   0.363   2.543  1.00  0.00     0.039 C 
ENDBRANCH  32  33
ENDBRANCH  28  32
BRANCH  29  36
HETATM   36  O8  UNL     1      -4.367   0.397   0.590  1.00  0.00    -0.387 OA
ATOM     37  H8  UNL     1      -5.195   0.794   0.346  1.00  0.00     0.210 HD
ENDBRANCH  29  36
BRANCH  30  38
HETATM   38  C23 UNL     1      -5.447   2.383   2.110  1.00  0.00     0.206 C 
HETATM   39  O9  UNL     1      -6.426   2.743   2.811  1.00  0.00    -0.646 OA
HETATM   40  O10 UNL     1      -5.365   2.839   0.819  1.00  0.00    -0.646 OA
ENDBRANCH  30  38
ENDBRANCH  24  26
ENDBRANCH  21  24
ENDBRANCH   1  21
TORSDOF 17
ENDMDL
