MODEL 1
REMARK VINA RESULT: -7.148403383      0.000      0.000
REMARK  4 active torsions:
REMARK  status: ('A' for Active; 'I' for Inactive)
REMARK    1  A    between atoms: O1_2  and  C2_3 
REMARK    2  A    between atoms: C4_5  and  C5_6 
REMARK    3  A    between atoms: C5_6  and  C6_7 
REMARK    4  A    between atoms: C6_7  and  C7_8 
ROOT
HETATM    1  C6  UNL     1      69.516  39.350  -0.388  1.00  0.00     0.068 C 
ENDROOT
BRANCH   1   2
HETATM    2  C5  UNL     1      70.250  38.073  -0.625  1.00  0.00     0.043 C 
BRANCH   2   3
HETATM    3  C4  UNL     1      70.602  37.496   0.703  1.00  0.00    -0.052 A 
HETATM    4  C3  UNL     1      70.427  36.161   1.006  1.00  0.00     0.047 A 
HETATM    5  C2  UNL     1      70.745  35.609   2.221  1.00  0.00     0.104 A 
HETATM    6  C16 UNL     1      71.269  36.460   3.189  1.00  0.00     0.138 A 
HETATM    7  C15 UNL     1      71.464  37.802   2.942  1.00  0.00     0.108 A 
HETATM    8  O7  UNL     1      71.688  36.228   4.501  1.00  0.00    -0.320 OA
HETATM    9  C14 UNL     1      71.132  38.300   1.713  1.00  0.00     0.047 A 
HETATM   10  O8  UNL     1      71.995  38.401   4.077  1.00  0.00    -0.323 OA
HETATM   11  C17 UNL     1      72.406  37.354   4.955  1.00  0.00     0.352 C 
BRANCH   5  12
HETATM   12  O1  UNL     1      70.565  34.265   2.516  1.00  0.00    -0.353 OA
HETATM   13  C1  UNL     1      71.669  33.390   2.326  1.00  0.00     0.210 C 
ENDBRANCH   5  12
ENDBRANCH   2   3
ENDBRANCH   1   2
BRANCH   1  14
HETATM   14  C7  UNL     1      68.101  39.148   0.087  1.00  0.00     0.299 C 
HETATM   15  O2  UNL     1      67.333  40.267  -0.180  1.00  0.00    -0.334 OA
HETATM   16  C8  UNL     1      66.884  40.327  -1.482  1.00  0.00     0.345 C 
HETATM   17  O3  UNL     1      66.149  39.236  -1.884  1.00  0.00    -0.328 OA
HETATM   18  C9  UNL     1      65.418  38.661  -0.871  1.00  0.00     0.203 C 
HETATM   19  C10 UNL     1      64.553  37.557  -1.496  1.00  0.00     0.098 C 
HETATM   20  C13 UNL     1      64.485  39.590  -0.169  1.00  0.00     0.098 C 
HETATM   21  O5  UNL     1      66.271  37.978   0.028  1.00  0.00    -0.198 OA
HETATM   22  C11 UNL     1      63.749  36.993  -0.321  1.00  0.00     0.173 C 
HETATM   23  O4  UNL     1      62.769  37.901   0.021  1.00  0.00    -0.391 OA
HETATM   24  C12 UNL     1      63.030  39.192  -0.361  1.00  0.00     0.173 C 
HETATM   25  O6  UNL     1      67.496  38.041  -0.453  1.00  0.00    -0.205 OA
ENDBRANCH   1  14
TORSDOF 4
ENDMDL
MODEL 2
REMARK VINA RESULT: -7.021673548      1.759      7.475
REMARK  4 active torsions:
REMARK  status: ('A' for Active; 'I' for Inactive)
REMARK    1  A    between atoms: O1_2  and  C2_3 
REMARK    2  A    between atoms: C4_5  and  C5_6 
REMARK    3  A    between atoms: C5_6  and  C6_7 
REMARK    4  A    between atoms: C6_7  and  C7_8 
ROOT
HETATM    1  C6  UNL     1      70.443  38.715  -0.975  1.00  0.00     0.068 C 
ENDROOT
BRANCH   1   2
HETATM    2  C5  UNL     1      69.383  37.686  -1.181  1.00  0.00     0.043 C 
BRANCH   2   3
HETATM    3  C4  UNL     1      68.062  38.353  -1.017  1.00  0.00    -0.052 A 
HETATM    4  C3  UNL     1      67.905  39.724  -1.077  1.00  0.00     0.047 A 
HETATM    5  C2  UNL     1      66.698  40.359  -0.929  1.00  0.00     0.104 A 
HETATM    6  C16 UNL     1      65.582  39.559  -0.706  1.00  0.00     0.138 A 
HETATM    7  C15 UNL     1      65.679  38.186  -0.635  1.00  0.00     0.108 A 
HETATM    8  O7  UNL     1      64.235  39.877  -0.516  1.00  0.00    -0.320 OA
HETATM    9  C14 UNL     1      66.906  37.604  -0.790  1.00  0.00     0.047 A 
HETATM   10  O8  UNL     1      64.418  37.651  -0.406  1.00  0.00    -0.323 OA
HETATM   11  C17 UNL     1      63.470  38.696  -0.622  1.00  0.00     0.352 C 
BRANCH   5  12
HETATM   12  O1  UNL     1      66.552  41.738  -0.991  1.00  0.00    -0.353 OA
HETATM   13  C1  UNL     1      67.465  42.466  -1.800  1.00  0.00     0.210 C 
ENDBRANCH   5  12
ENDBRANCH   2   3
ENDBRANCH   1   2
BRANCH   1  14
HETATM   14  C7  UNL     1      71.356  38.411   0.184  1.00  0.00     0.299 C 
HETATM   15  O2  UNL     1      71.173  39.331   1.202  1.00  0.00    -0.334 OA
HETATM   16  C8  UNL     1      70.080  39.060   1.996  1.00  0.00     0.345 C 
HETATM   17  O3  UNL     1      70.092  37.816   2.582  1.00  0.00    -0.328 OA
HETATM   18  C9  UNL     1      71.355  37.359   2.876  1.00  0.00     0.203 C 
HETATM   19  C10 UNL     1      71.201  36.038   3.643  1.00  0.00     0.098 C 
HETATM   20  C13 UNL     1      72.163  38.266   3.743  1.00  0.00     0.098 C 
HETATM   21  O5  UNL     1      72.039  37.002   1.690  1.00  0.00    -0.198 OA
HETATM   22  C11 UNL     1      72.636  35.614   3.963  1.00  0.00     0.173 C 
HETATM   23  O4  UNL     1      73.123  36.420   4.970  1.00  0.00    -0.391 OA
HETATM   24  C12 UNL     1      72.490  37.632   5.086  1.00  0.00     0.173 C 
HETATM   25  O6  UNL     1      71.202  37.143   0.684  1.00  0.00    -0.205 OA
ENDBRANCH   1  14
TORSDOF 4
ENDMDL
MODEL 3
REMARK VINA RESULT: -6.952975160      0.786      2.229
REMARK  4 active torsions:
REMARK  status: ('A' for Active; 'I' for Inactive)
REMARK    1  A    between atoms: O1_2  and  C2_3 
REMARK    2  A    between atoms: C4_5  and  C5_6 
REMARK    3  A    between atoms: C5_6  and  C6_7 
REMARK    4  A    between atoms: C6_7  and  C7_8 
ROOT
HETATM    1  C6  UNL     1      69.440  39.896  -0.460  1.00  0.00     0.068 C 
ENDROOT
BRANCH   1   2
HETATM    2  C5  UNL     1      70.394  40.259   0.628  1.00  0.00     0.043 C 
BRANCH   2   3
HETATM    3  C4  UNL     1      70.665  39.029   1.425  1.00  0.00    -0.052 A 
HETATM    4  C3  UNL     1      70.992  39.066   2.765  1.00  0.00     0.047 A 
HETATM    5  C2  UNL     1      71.245  37.947   3.517  1.00  0.00     0.104 A 
HETATM    6  C16 UNL     1      71.163  36.716   2.874  1.00  0.00     0.138 A 
HETATM    7  C15 UNL     1      70.842  36.619   1.537  1.00  0.00     0.108 A 
HETATM    8  O7  UNL     1      71.357  35.411   3.335  1.00  0.00    -0.320 OA
HETATM    9  C14 UNL     1      70.598  37.766   0.834  1.00  0.00     0.047 A 
HETATM   10  O8  UNL     1      70.833  35.281   1.166  1.00  0.00    -0.323 OA
HETATM   11  C17 UNL     1      70.871  34.509   2.366  1.00  0.00     0.352 C 
BRANCH   5  12
HETATM   12  O1  UNL     1      71.574  37.994   4.865  1.00  0.00    -0.353 OA
HETATM   13  C1  UNL     1      72.945  37.870   5.218  1.00  0.00     0.210 C 
ENDBRANCH   5  12
ENDBRANCH   2   3
ENDBRANCH   1   2
BRANCH   1  14
HETATM   14  C7  UNL     1      68.059  39.565   0.040  1.00  0.00     0.299 C 
HETATM   15  O2  UNL     1      67.176  40.588  -0.255  1.00  0.00    -0.334 OA
HETATM   16  C8  UNL     1      66.711  40.554  -1.553  1.00  0.00     0.345 C 
HETATM   17  O3  UNL     1      66.091  39.379  -1.908  1.00  0.00    -0.328 OA
HETATM   18  C9  UNL     1      65.433  38.768  -0.867  1.00  0.00     0.203 C 
HETATM   19  C10 UNL     1      64.683  37.558  -1.443  1.00  0.00     0.098 C 
HETATM   20  C13 UNL     1      64.413  39.619  -0.185  1.00  0.00     0.098 C 
HETATM   21  O5  UNL     1      66.360  38.209   0.043  1.00  0.00    -0.198 OA
HETATM   22  C11 UNL     1      63.952  36.956  -0.240  1.00  0.00     0.173 C 
HETATM   23  O4  UNL     1      62.886  37.767   0.083  1.00  0.00    -0.391 OA
HETATM   24  C12 UNL     1      63.007  39.065  -0.346  1.00  0.00     0.173 C 
HETATM   25  O6  UNL     1      67.567  38.383  -0.454  1.00  0.00    -0.205 OA
ENDBRANCH   1  14
TORSDOF 4
ENDMDL
MODEL 4
REMARK VINA RESULT: -6.940557928      1.134      1.292
REMARK  4 active torsions:
REMARK  status: ('A' for Active; 'I' for Inactive)
REMARK    1  A    between atoms: O1_2  and  C2_3 
REMARK    2  A    between atoms: C4_5  and  C5_6 
REMARK    3  A    between atoms: C5_6  and  C6_7 
REMARK    4  A    between atoms: C6_7  and  C7_8 
ROOT
HETATM    1  C6  UNL     1      69.472  39.769  -0.468  1.00  0.00     0.068 C 
ENDROOT
BRANCH   1   2
HETATM    2  C5  UNL     1      70.390  40.277   0.593  1.00  0.00     0.043 C 
BRANCH   2   3
HETATM    3  C4  UNL     1      70.869  39.106   1.380  1.00  0.00    -0.052 A 
HETATM    4  C3  UNL     1      71.227  37.909   0.793  1.00  0.00     0.047 A 
HETATM    5  C2  UNL     1      71.670  36.819   1.498  1.00  0.00     0.104 A 
HETATM    6  C16 UNL     1      71.756  36.947   2.881  1.00  0.00     0.138 A 
HETATM    7  C15 UNL     1      71.411  38.119   3.521  1.00  0.00     0.108 A 
HETATM    8  O7  UNL     1      72.159  36.051   3.875  1.00  0.00    -0.320 OA
HETATM    9  C14 UNL     1      70.976  39.175   2.770  1.00  0.00     0.047 A 
HETATM   10  O8  UNL     1      71.594  37.962   4.888  1.00  0.00    -0.323 OA
HETATM   11  C17 UNL     1      72.340  36.760   5.080  1.00  0.00     0.352 C 
BRANCH   5  12
HETATM   12  O1  UNL     1      72.027  35.619   0.899  1.00  0.00    -0.353 OA
HETATM   13  C1  UNL     1      72.468  35.657  -0.451  1.00  0.00     0.210 C 
ENDBRANCH   5  12
ENDBRANCH   2   3
ENDBRANCH   1   2
BRANCH   1  14
HETATM   14  C7  UNL     1      68.086  39.463   0.036  1.00  0.00     0.299 C 
HETATM   15  O2  UNL     1      67.220  40.500  -0.259  1.00  0.00    -0.334 OA
HETATM   16  C8  UNL     1      66.752  40.473  -1.555  1.00  0.00     0.345 C 
HETATM   17  O3  UNL     1      66.111  39.308  -1.907  1.00  0.00    -0.328 OA
HETATM   18  C9  UNL     1      65.445  38.710  -0.863  1.00  0.00     0.203 C 
HETATM   19  C10 UNL     1      64.672  37.512  -1.435  1.00  0.00     0.098 C 
HETATM   20  C13 UNL     1      64.442  39.579  -0.180  1.00  0.00     0.098 C 
HETATM   21  O5  UNL     1      66.365  38.136   0.046  1.00  0.00    -0.198 OA
HETATM   22  C11 UNL     1      63.934  36.924  -0.230  1.00  0.00     0.173 C 
HETATM   23  O4  UNL     1      62.884  37.755   0.095  1.00  0.00    -0.391 OA
HETATM   24  C12 UNL     1      63.026  39.050  -0.336  1.00  0.00     0.173 C 
HETATM   25  O6  UNL     1      67.573  38.288  -0.455  1.00  0.00    -0.205 OA
ENDBRANCH   1  14
TORSDOF 4
ENDMDL
MODEL 5
REMARK VINA RESULT: -6.865032742      1.883      7.689
REMARK  4 active torsions:
REMARK  status: ('A' for Active; 'I' for Inactive)
REMARK    1  A    between atoms: O1_2  and  C2_3 
REMARK    2  A    between atoms: C4_5  and  C5_6 
REMARK    3  A    between atoms: C5_6  and  C6_7 
REMARK    4  A    between atoms: C6_7  and  C7_8 
ROOT
HETATM    1  C6  UNL     1      70.163  39.148   2.282  1.00  0.00     0.068 C 
ENDROOT
BRANCH   1   2
HETATM    2  C5  UNL     1      70.349  39.765   0.936  1.00  0.00     0.043 C 
BRANCH   2   3
HETATM    3  C4  UNL     1      69.024  39.787   0.257  1.00  0.00    -0.052 A 
HETATM    4  C3  UNL     1      68.540  40.901  -0.399  1.00  0.00     0.047 A 
HETATM    5  C2  UNL     1      67.323  40.943  -1.031  1.00  0.00     0.104 A 
HETATM    6  C16 UNL     1      66.548  39.789  -0.996  1.00  0.00     0.138 A 
HETATM    7  C15 UNL     1      66.979  38.648  -0.354  1.00  0.00     0.108 A 
HETATM    8  O7  UNL     1      65.288  39.499  -1.526  1.00  0.00    -0.320 OA
HETATM    9  C14 UNL     1      68.201  38.660   0.259  1.00  0.00     0.047 A 
HETATM   10  O8  UNL     1      66.011  37.660  -0.479  1.00  0.00    -0.323 OA
HETATM   11  C17 UNL     1      65.078  38.106  -1.463  1.00  0.00     0.352 C 
BRANCH   5  12
HETATM   12  O1  UNL     1      66.846  42.069  -1.688  1.00  0.00    -0.353 OA
HETATM   13  C1  UNL     1      67.796  42.946  -2.277  1.00  0.00     0.210 C 
ENDBRANCH   5  12
ENDBRANCH   2   3
ENDBRANCH   1   2
BRANCH   1  14
HETATM   14  C7  UNL     1      71.103  38.003   2.552  1.00  0.00     0.299 C 
HETATM   15  O2  UNL     1      70.404  36.890   2.983  1.00  0.00    -0.334 OA
HETATM   16  C8  UNL     1      69.828  36.172   1.958  1.00  0.00     0.345 C 
HETATM   17  O3  UNL     1      70.711  35.738   0.997  1.00  0.00    -0.328 OA
HETATM   18  C9  UNL     1      71.964  35.457   1.488  1.00  0.00     0.203 C 
HETATM   19  C10 UNL     1      72.787  34.858   0.339  1.00  0.00     0.098 C 
HETATM   20  C13 UNL     1      71.992  34.461   2.599  1.00  0.00     0.098 C 
HETATM   21  O5  UNL     1      72.642  36.653   1.824  1.00  0.00    -0.198 OA
HETATM   22  C11 UNL     1      74.146  34.542   0.968  1.00  0.00     0.173 C 
HETATM   23  O4  UNL     1      74.014  33.431   1.773  1.00  0.00    -0.391 OA
HETATM   24  C12 UNL     1      72.736  33.193   2.212  1.00  0.00     0.173 C 
HETATM   25  O6  UNL     1      71.876  37.664   1.469  1.00  0.00    -0.205 OA
ENDBRANCH   1  14
TORSDOF 4
ENDMDL
