MODEL 1
REMARK VINA RESULT: -6.846816735      0.000      0.000
REMARK  7 active torsions:
REMARK  status: ('A' for Active; 'I' for Inactive)
REMARK    1  A    between atoms: C2_2  and  O1_3 
REMARK    2  A    between atoms: O1_3  and  C3_4 
REMARK    3  A    between atoms: C3_4  and  C4_6 
REMARK    4  A    between atoms: N1_9  and  C7_10 
REMARK    5  A    between atoms: C10_14  and  C11_15 
REMARK    6  A    between atoms: C11_15  and  O4_17 
REMARK    7  A    between atoms: C13_19  and  N2_20 
ROOT
HETATM    1  C7  UNL     1      68.547  39.866  -0.663  1.00  0.00     0.110 A 
HETATM    2  S1  UNL     1      69.125  41.423  -1.204  1.00  0.00    -0.074 SA
HETATM    3  C8  UNL     1      70.661  41.416  -0.496  1.00  0.00    -0.000 A 
HETATM    4  C9  UNL     1      71.731  42.487  -0.558  1.00  0.00     0.057 C 
HETATM    5  C10 UNL     1      70.710  40.217   0.146  1.00  0.00     0.088 A 
HETATM    6  C13 UNL     1      69.608  39.416   0.054  1.00  0.00     0.154 A 
ENDROOT
BRANCH   1   7
HETATM    7  N1  UNL     1      67.268  39.322  -0.967  1.00  0.00    -0.353 N 
HETATM    8  C6  UNL     1      67.003  37.964  -1.177  1.00  0.00     0.065 C 
HETATM    9  C5  UNL     1      65.578  37.532  -1.032  1.00  0.00     0.059 C 
HETATM   10  C4  UNL     1      64.521  38.548  -1.000  1.00  0.00     0.092 C 
HETATM   11  C15 UNL     1      64.979  39.769  -0.247  1.00  0.00     0.035 C 
HETATM   12  C14 UNL     1      66.169  40.304  -1.062  1.00  0.00     0.129 C 
BRANCH  10  13
HETATM   13  C3  UNL     1      63.325  37.967  -0.309  1.00  0.00     0.263 C 
HETATM   14  O2  UNL     1      62.401  38.716   0.030  1.00  0.00    -0.265 OA
BRANCH  13  15
HETATM   15  O1  UNL     1      63.253  36.614  -0.053  1.00  0.00    -0.322 OA
BRANCH  15  16
HETATM   16  C2  UNL     1      63.023  36.099   1.221  1.00  0.00     0.174 C 
HETATM   17  C1  UNL     1      64.261  35.441   1.771  1.00  0.00     0.034 C 
ENDBRANCH  15  16
ENDBRANCH  13  15
ENDBRANCH  10  13
ENDBRANCH   1   7
BRANCH   6  18
HETATM   18  N2  UNL     1      69.637  38.112   0.726  1.00  0.00    -0.112 N 
HETATM   19  O5  UNL     1      69.171  37.940   1.858  1.00  0.00    -0.532 OA
HETATM   20  O6  UNL     1      70.180  37.038   0.071  1.00  0.00    -0.532 OA
ENDBRANCH   6  18
BRANCH   5  21
HETATM   21  C11 UNL     1      71.962  39.863   0.906  1.00  0.00     0.296 C 
HETATM   22  O3  UNL     1      72.909  39.264   0.366  1.00  0.00    -0.259 OA
BRANCH  21  23
HETATM   23  O4  UNL     1      72.073  40.207   2.242  1.00  0.00    -0.322 OA
HETATM   24  C12 UNL     1      72.077  39.273   3.301  1.00  0.00     0.213 C 
ENDBRANCH  21  23
ENDBRANCH   5  21
TORSDOF 7
ENDMDL
MODEL 2
REMARK VINA RESULT: -6.672939643      1.044      1.114
REMARK  7 active torsions:
REMARK  status: ('A' for Active; 'I' for Inactive)
REMARK    1  A    between atoms: C2_2  and  O1_3 
REMARK    2  A    between atoms: O1_3  and  C3_4 
REMARK    3  A    between atoms: C3_4  and  C4_6 
REMARK    4  A    between atoms: N1_9  and  C7_10 
REMARK    5  A    between atoms: C10_14  and  C11_15 
REMARK    6  A    between atoms: C11_15  and  O4_17 
REMARK    7  A    between atoms: C13_19  and  N2_20 
ROOT
HETATM    1  C7  UNL     1      69.258  39.565  -0.117  1.00  0.00     0.110 A 
HETATM    2  S1  UNL     1      70.149  41.036  -0.423  1.00  0.00    -0.074 SA
HETATM    3  C8  UNL     1      71.528  40.730   0.508  1.00  0.00    -0.000 A 
HETATM    4  C9  UNL     1      72.744  41.611   0.705  1.00  0.00     0.057 C 
HETATM    5  C10 UNL     1      71.285  39.502   1.040  1.00  0.00     0.088 A 
HETATM    6  C13 UNL     1      70.104  38.901   0.710  1.00  0.00     0.154 A 
ENDROOT
BRANCH   1   7
HETATM    7  N1  UNL     1      67.978  39.261  -0.660  1.00  0.00    -0.353 N 
HETATM    8  C6  UNL     1      67.554  37.984  -1.046  1.00  0.00     0.065 C 
HETATM    9  C5  UNL     1      66.076  37.779  -1.158  1.00  0.00     0.059 C 
HETATM   10  C4  UNL     1      65.189  38.946  -1.177  1.00  0.00     0.092 C 
HETATM   11  C15 UNL     1      65.695  40.014  -0.243  1.00  0.00     0.035 C 
HETATM   12  C14 UNL     1      67.065  40.412  -0.814  1.00  0.00     0.129 C 
BRANCH  10  13
HETATM   13  C3  UNL     1      63.824  38.513  -0.733  1.00  0.00     0.263 C 
HETATM   14  O2  UNL     1      62.982  39.373  -0.447  1.00  0.00    -0.265 OA
BRANCH  13  15
HETATM   15  O1  UNL     1      63.510  37.174  -0.642  1.00  0.00    -0.322 OA
BRANCH  15  16
HETATM   16  C2  UNL     1      62.765  36.644   0.410  1.00  0.00     0.174 C 
HETATM   17  C1  UNL     1      63.662  36.085   1.482  1.00  0.00     0.034 C 
ENDBRANCH  15  16
ENDBRANCH  13  15
ENDBRANCH  10  13
ENDBRANCH   1   7
BRANCH   6  18
HETATM   18  N2  UNL     1      69.821  37.570   1.260  1.00  0.00    -0.112 N 
HETATM   19  O5  UNL     1      69.107  37.404   2.255  1.00  0.00    -0.532 OA
HETATM   20  O6  UNL     1      70.348  36.469   0.640  1.00  0.00    -0.532 OA
ENDBRANCH   6  18
BRANCH   5  21
HETATM   21  C11 UNL     1      72.325  38.897   1.949  1.00  0.00     0.296 C 
HETATM   22  O3  UNL     1      73.272  38.224   1.504  1.00  0.00    -0.259 OA
BRANCH  21  23
HETATM   23  O4  UNL     1      72.235  39.089   3.316  1.00  0.00    -0.322 OA
HETATM   24  C12 UNL     1      71.950  38.060   4.241  1.00  0.00     0.213 C 
ENDBRANCH  21  23
ENDBRANCH   5  21
TORSDOF 7
ENDMDL
MODEL 3
REMARK VINA RESULT: -6.645137509      0.647      1.183
REMARK  7 active torsions:
REMARK  status: ('A' for Active; 'I' for Inactive)
REMARK    1  A    between atoms: C2_2  and  O1_3 
REMARK    2  A    between atoms: O1_3  and  C3_4 
REMARK    3  A    between atoms: C3_4  and  C4_6 
REMARK    4  A    between atoms: N1_9  and  C7_10 
REMARK    5  A    between atoms: C10_14  and  C11_15 
REMARK    6  A    between atoms: C11_15  and  O4_17 
REMARK    7  A    between atoms: C13_19  and  N2_20 
ROOT
HETATM    1  C7  UNL     1      68.477  40.095  -0.744  1.00  0.00     0.110 A 
HETATM    2  S1  UNL     1      68.952  41.671  -1.328  1.00  0.00    -0.074 SA
HETATM    3  C8  UNL     1      70.502  41.766  -0.655  1.00  0.00    -0.000 A 
HETATM    4  C9  UNL     1      71.506  42.895  -0.762  1.00  0.00     0.057 C 
HETATM    5  C10 UNL     1      70.633  40.585   0.008  1.00  0.00     0.088 A 
HETATM    6  C13 UNL     1      69.577  39.721  -0.044  1.00  0.00     0.154 A 
ENDROOT
BRANCH   1   7
HETATM    7  N1  UNL     1      67.224  39.473  -1.008  1.00  0.00    -0.353 N 
HETATM    8  C6  UNL     1      67.032  38.097  -1.180  1.00  0.00     0.065 C 
HETATM    9  C5  UNL     1      65.636  37.591  -0.995  1.00  0.00     0.059 C 
HETATM   10  C4  UNL     1      64.525  38.547  -0.966  1.00  0.00     0.092 C 
HETATM   11  C15 UNL     1      64.928  39.811  -0.253  1.00  0.00     0.035 C 
HETATM   12  C14 UNL     1      66.070  40.389  -1.104  1.00  0.00     0.129 C 
BRANCH  10  13
HETATM   13  C3  UNL     1      63.377  37.918  -0.236  1.00  0.00     0.263 C 
HETATM   14  O2  UNL     1      62.402  38.616   0.071  1.00  0.00    -0.265 OA
BRANCH  13  15
HETATM   15  O1  UNL     1      63.404  36.579   0.090  1.00  0.00    -0.322 OA
BRANCH  15  16
HETATM   16  C2  UNL     1      63.257  36.118   1.397  1.00  0.00     0.174 C 
HETATM   17  C1  UNL     1      64.447  35.298   1.819  1.00  0.00     0.034 C 
ENDBRANCH  15  16
ENDBRANCH  13  15
ENDBRANCH  10  13
ENDBRANCH   1   7
BRANCH   6  18
HETATM   18  N2  UNL     1      69.695  38.434   0.652  1.00  0.00    -0.112 N 
HETATM   19  O5  UNL     1      70.131  37.419   0.097  1.00  0.00    -0.532 OA
HETATM   20  O6  UNL     1      69.331  38.355   1.970  1.00  0.00    -0.532 OA
ENDBRANCH   6  18
BRANCH   5  21
HETATM   21  C11 UNL     1      71.920  40.318   0.746  1.00  0.00     0.296 C 
HETATM   22  O3  UNL     1      72.064  40.625   1.942  1.00  0.00    -0.259 OA
BRANCH  21  23
HETATM   23  O4  UNL     1      72.976  39.714   0.085  1.00  0.00    -0.322 OA
HETATM   24  C12 UNL     1      73.499  38.447   0.425  1.00  0.00     0.213 C 
ENDBRANCH  21  23
ENDBRANCH   5  21
TORSDOF 7
ENDMDL
MODEL 4
REMARK VINA RESULT: -6.341148602      2.003      2.723
REMARK  7 active torsions:
REMARK  status: ('A' for Active; 'I' for Inactive)
REMARK    1  A    between atoms: C2_2  and  O1_3 
REMARK    2  A    between atoms: O1_3  and  C3_4 
REMARK    3  A    between atoms: C3_4  and  C4_6 
REMARK    4  A    between atoms: N1_9  and  C7_10 
REMARK    5  A    between atoms: C10_14  and  C11_15 
REMARK    6  A    between atoms: C11_15  and  O4_17 
REMARK    7  A    between atoms: C13_19  and  N2_20 
ROOT
HETATM    1  C7  UNL     1      69.320  39.568   0.356  1.00  0.00     0.110 A 
HETATM    2  S1  UNL     1      69.798  38.822   1.862  1.00  0.00    -0.074 SA
HETATM    3  C8  UNL     1      71.324  39.527   2.054  1.00  0.00    -0.000 A 
HETATM    4  C9  UNL     1      72.321  39.321   3.174  1.00  0.00     0.057 C 
HETATM    5  C10 UNL     1      71.444  40.327   0.959  1.00  0.00     0.088 A 
HETATM    6  C13 UNL     1      70.398  40.344   0.081  1.00  0.00     0.154 A 
ENDROOT
BRANCH   1   7
HETATM    7  N1  UNL     1      68.083  39.337  -0.310  1.00  0.00    -0.353 N 
HETATM    8  C6  UNL     1      67.680  38.110  -0.850  1.00  0.00     0.065 C 
HETATM    9  C5  UNL     1      66.214  37.938  -1.093  1.00  0.00     0.059 C 
HETATM   10  C4  UNL     1      65.340  39.115  -1.065  1.00  0.00     0.092 C 
HETATM   11  C15 UNL     1      65.780  40.080   0.004  1.00  0.00     0.035 C 
HETATM   12  C14 UNL     1      67.194  40.510  -0.419  1.00  0.00     0.129 C 
BRANCH  10  13
HETATM   13  C3  UNL     1      63.942  38.661  -0.771  1.00  0.00     0.263 C 
HETATM   14  O2  UNL     1      63.069  39.507  -0.543  1.00  0.00    -0.265 OA
BRANCH  13  15
HETATM   15  O1  UNL     1      63.631  37.318  -0.752  1.00  0.00    -0.322 OA
BRANCH  15  16
HETATM   16  C2  UNL     1      62.907  36.726   0.280  1.00  0.00     0.174 C 
HETATM   17  C1  UNL     1      63.825  36.101   1.297  1.00  0.00     0.034 C 
ENDBRANCH  15  16
ENDBRANCH  13  15
ENDBRANCH  10  13
ENDBRANCH   1   7
BRANCH   6  18
HETATM   18  N2  UNL     1      70.496  41.206  -1.103  1.00  0.00    -0.112 N 
HETATM   19  O5  UNL     1      71.017  40.826  -2.157  1.00  0.00    -0.532 OA
HETATM   20  O6  UNL     1      69.973  42.471  -1.048  1.00  0.00    -0.532 OA
ENDBRANCH   6  18
BRANCH   5  21
HETATM   21  C11 UNL     1      72.711  41.127   0.793  1.00  0.00     0.296 C 
HETATM   22  O3  UNL     1      73.717  40.652   0.236  1.00  0.00    -0.259 OA
BRANCH  21  23
HETATM   23  O4  UNL     1      72.769  42.425   1.269  1.00  0.00    -0.322 OA
HETATM   24  C12 UNL     1      73.019  43.553   0.457  1.00  0.00     0.213 C 
ENDBRANCH  21  23
ENDBRANCH   5  21
TORSDOF 7
ENDMDL
MODEL 5
REMARK VINA RESULT: -6.241234100      2.014      2.728
REMARK  7 active torsions:
REMARK  status: ('A' for Active; 'I' for Inactive)
REMARK    1  A    between atoms: C2_2  and  O1_3 
REMARK    2  A    between atoms: O1_3  and  C3_4 
REMARK    3  A    between atoms: C3_4  and  C4_6 
REMARK    4  A    between atoms: N1_9  and  C7_10 
REMARK    5  A    between atoms: C10_14  and  C11_15 
REMARK    6  A    between atoms: C11_15  and  O4_17 
REMARK    7  A    between atoms: C13_19  and  N2_20 
ROOT
HETATM    1  C7  UNL     1      69.340  39.607   0.405  1.00  0.00     0.110 A 
HETATM    2  S1  UNL     1      69.805  38.877   1.923  1.00  0.00    -0.074 SA
HETATM    3  C8  UNL     1      71.323  39.594   2.128  1.00  0.00    -0.000 A 
HETATM    4  C9  UNL     1      72.308  39.403   3.262  1.00  0.00     0.057 C 
HETATM    5  C10 UNL     1      71.452  40.385   1.028  1.00  0.00     0.088 A 
HETATM    6  C13 UNL     1      70.416  40.388   0.137  1.00  0.00     0.154 A 
ENDROOT
BRANCH   1   7
HETATM    7  N1  UNL     1      68.114  39.362  -0.274  1.00  0.00    -0.353 N 
HETATM    8  C6  UNL     1      67.717  38.123  -0.792  1.00  0.00     0.065 C 
HETATM    9  C5  UNL     1      66.254  37.948  -1.053  1.00  0.00     0.059 C 
HETATM   10  C4  UNL     1      65.381  39.126  -1.066  1.00  0.00     0.092 C 
HETATM   11  C15 UNL     1      65.807  40.115  -0.012  1.00  0.00     0.035 C 
HETATM   12  C14 UNL     1      67.227  40.534  -0.424  1.00  0.00     0.129 C 
BRANCH  10  13
HETATM   13  C3  UNL     1      63.979  38.681  -0.782  1.00  0.00     0.263 C 
HETATM   14  O2  UNL     1      63.107  39.532  -0.567  1.00  0.00    -0.265 OA
BRANCH  13  15
HETATM   15  O1  UNL     1      63.661  37.340  -0.758  1.00  0.00    -0.322 OA
BRANCH  15  16
HETATM   16  C2  UNL     1      62.908  36.760   0.261  1.00  0.00     0.174 C 
HETATM   17  C1  UNL     1      63.796  36.128   1.298  1.00  0.00     0.034 C 
ENDBRANCH  15  16
ENDBRANCH  13  15
ENDBRANCH  10  13
ENDBRANCH   1   7
BRANCH   6  18
HETATM   18  N2  UNL     1      70.523  41.241  -1.052  1.00  0.00    -0.112 N 
HETATM   19  O5  UNL     1      71.002  40.835  -2.117  1.00  0.00    -0.532 OA
HETATM   20  O6  UNL     1      70.057  42.527  -0.991  1.00  0.00    -0.532 OA
ENDBRANCH   6  18
BRANCH   5  21
HETATM   21  C11 UNL     1      72.715  41.192   0.871  1.00  0.00     0.296 C 
HETATM   22  O3  UNL     1      72.770  42.392   1.195  1.00  0.00    -0.259 OA
BRANCH  21  23
HETATM   23  O4  UNL     1      73.851  40.594   0.353  1.00  0.00    -0.322 OA
HETATM   24  C12 UNL     1      73.831  39.469  -0.500  1.00  0.00     0.213 C 
ENDBRANCH  21  23
ENDBRANCH   5  21
TORSDOF 7
ENDMDL
