MODEL 1
REMARK VINA RESULT: -6.519340782      0.000      0.000
REMARK  7 active torsions:
REMARK  status: ('A' for Active; 'I' for Inactive)
REMARK    1  A    between atoms: O1_2  and  C2_3 
REMARK    2  A    between atoms: C4_5  and  C5_6 
REMARK       I    between atoms: N1_13  and  C11_14 
REMARK    3  A    between atoms: C11_14  and  O4_16 
REMARK    4  A    between atoms: O4_16  and  N2_17 
REMARK    5  A    between atoms: N2_17  and  O5_19 
REMARK    6  A    between atoms: C14_23  and  O6_24 
REMARK    7  A    between atoms: C16_26  and  O7_27 
ROOT
HETATM    1  C5  UNL     1      70.350  39.097  -0.596  1.00  0.00     0.047 C 
HETATM    2  C6  UNL     1      70.096  39.823   0.705  1.00  0.00     0.180 C 
HETATM    3  O2  UNL     1      68.739  39.995   0.857  1.00  0.00    -0.360 OA
HETATM    4  C7  UNL     1      68.226  40.019  -0.459  1.00  0.00     0.141 C 
HETATM    5  C8  UNL     1      68.613  41.311  -1.152  1.00  0.00     0.063 C 
HETATM    6  C9  UNL     1      67.393  42.199  -1.125  1.00  0.00     0.025 C 
HETATM    7  C10 UNL     1      66.457  41.432  -0.201  1.00  0.00     0.131 C 
HETATM    8  N1  UNL     1      66.813  40.062  -0.520  1.00  0.00    -0.294 N 
HETATM    9  C11 UNL     1      65.869  39.058  -0.818  1.00  0.00     0.388 C 
HETATM   10  O3  UNL     1      64.613  39.311  -0.817  1.00  0.00    -0.236 OA
HETATM   11  C12 UNL     1      68.900  38.826  -1.041  1.00  0.00     0.073 C 
ENDROOT
BRANCH   1  12
HETATM   12  C4  UNL     1      71.116  37.863  -0.441  1.00  0.00    -0.046 A 
HETATM   13  C3  UNL     1      72.211  37.631  -1.242  1.00  0.00     0.047 A 
HETATM   14  C2  UNL     1      72.938  36.445  -1.086  1.00  0.00     0.104 A 
HETATM   15  C16 UNL     1      72.556  35.520  -0.138  1.00  0.00     0.135 A 
HETATM   16  C14 UNL     1      71.452  35.770   0.656  1.00  0.00     0.104 A 
HETATM   17  C13 UNL     1      70.732  36.939   0.507  1.00  0.00     0.047 A 
BRANCH  14  18
HETATM   18  O1  UNL     1      74.033  36.175  -1.861  1.00  0.00    -0.353 OA
HETATM   19  C1  UNL     1      74.522  37.147  -2.768  1.00  0.00     0.210 C 
ENDBRANCH  14  18
BRANCH  15  20
HETATM   20  O7  UNL     1      73.255  34.329   0.045  1.00  0.00    -0.351 OA
HETATM   21  C17 UNL     1      74.331  34.221   0.944  1.00  0.00     0.210 C 
ENDBRANCH  15  20
BRANCH  16  22
HETATM   22  O6  UNL     1      71.062  34.862   1.600  1.00  0.00    -0.353 OA
HETATM   23  C15 UNL     1      71.070  35.166   2.963  1.00  0.00     0.210 C 
ENDBRANCH  16  22
ENDBRANCH   1  12
BRANCH   9  24
HETATM   24  O4  UNL     1      66.169  37.741  -1.134  1.00  0.00    -0.160 OA
BRANCH  24  25
HETATM   25  N2  UNL     1      65.362  36.681  -0.808  1.00  0.00    -0.164 N 
ATOM     26  H2  UNL     1      65.047  36.026  -1.525  1.00  0.00     0.224 HD
BRANCH  25  27
HETATM   27  O5  UNL     1      65.022  36.535   0.381  1.00  0.00    -0.269 OA
ATOM     28  H5  UNL     1      64.919  35.653   0.718  1.00  0.00     0.246 HD
ENDBRANCH  25  27
ENDBRANCH  24  25
ENDBRANCH   9  24
TORSDOF 7
ENDMDL
MODEL 2
REMARK VINA RESULT: -6.508739049      0.037      2.523
REMARK  7 active torsions:
REMARK  status: ('A' for Active; 'I' for Inactive)
REMARK    1  A    between atoms: O1_2  and  C2_3 
REMARK    2  A    between atoms: C4_5  and  C5_6 
REMARK       I    between atoms: N1_13  and  C11_14 
REMARK    3  A    between atoms: C11_14  and  O4_16 
REMARK    4  A    between atoms: O4_16  and  N2_17 
REMARK    5  A    between atoms: N2_17  and  O5_19 
REMARK    6  A    between atoms: C14_23  and  O6_24 
REMARK    7  A    between atoms: C16_26  and  O7_27 
ROOT
HETATM    1  C5  UNL     1      70.343  39.086  -0.588  1.00  0.00     0.047 C 
HETATM    2  C6  UNL     1      70.091  39.822   0.708  1.00  0.00     0.180 C 
HETATM    3  O2  UNL     1      68.735  40.000   0.858  1.00  0.00    -0.360 OA
HETATM    4  C7  UNL     1      68.222  40.017  -0.458  1.00  0.00     0.141 C 
HETATM    5  C8  UNL     1      68.615  41.302  -1.159  1.00  0.00     0.063 C 
HETATM    6  C9  UNL     1      67.398  42.195  -1.139  1.00  0.00     0.025 C 
HETATM    7  C10 UNL     1      66.459  41.438  -0.209  1.00  0.00     0.131 C 
HETATM    8  N1  UNL     1      66.810  40.064  -0.518  1.00  0.00    -0.294 N 
HETATM    9  C11 UNL     1      65.862  39.062  -0.810  1.00  0.00     0.388 C 
HETATM   10  O3  UNL     1      64.607  39.320  -0.811  1.00  0.00    -0.236 OA
HETATM   11  C12 UNL     1      68.892  38.817  -1.031  1.00  0.00     0.073 C 
ENDROOT
BRANCH   1  12
HETATM   12  C4  UNL     1      71.105  37.849  -0.425  1.00  0.00    -0.046 A 
HETATM   13  C3  UNL     1      70.731  36.935   0.532  1.00  0.00     0.047 A 
HETATM   14  C2  UNL     1      71.467  35.754   0.680  1.00  0.00     0.104 A 
HETATM   15  C16 UNL     1      72.556  35.514  -0.128  1.00  0.00     0.135 A 
HETATM   16  C14 UNL     1      72.918  36.445  -1.084  1.00  0.00     0.104 A 
HETATM   17  C13 UNL     1      72.195  37.612  -1.235  1.00  0.00     0.047 A 
BRANCH  14  18
HETATM   18  O1  UNL     1      71.129  34.818   1.620  1.00  0.00    -0.353 OA
HETATM   19  C1  UNL     1      71.072  35.172   2.991  1.00  0.00     0.210 C 
ENDBRANCH  14  18
BRANCH  15  20
HETATM   20  O7  UNL     1      73.313  34.350  -0.009  1.00  0.00    -0.351 OA
HETATM   21  C17 UNL     1      74.383  34.240   0.898  1.00  0.00     0.210 C 
ENDBRANCH  15  20
BRANCH  16  22
HETATM   22  O6  UNL     1      73.997  36.220  -1.893  1.00  0.00    -0.353 OA
HETATM   23  C15 UNL     1      74.478  37.196  -2.768  1.00  0.00     0.210 C 
ENDBRANCH  16  22
ENDBRANCH   1  12
BRANCH   9  24
HETATM   24  O4  UNL     1      66.157  37.742  -1.116  1.00  0.00    -0.160 OA
BRANCH  24  25
HETATM   25  N2  UNL     1      65.348  36.686  -0.779  1.00  0.00    -0.164 N 
ATOM     26  H2  UNL     1      65.030  36.025  -1.489  1.00  0.00     0.224 HD
BRANCH  25  27
HETATM   27  O5  UNL     1      65.010  36.552   0.412  1.00  0.00    -0.269 OA
ATOM     28  H5  UNL     1      64.509  35.784   0.657  1.00  0.00     0.246 HD
ENDBRANCH  25  27
ENDBRANCH  24  25
ENDBRANCH   9  24
TORSDOF 7
ENDMDL
MODEL 3
REMARK VINA RESULT: -6.481028759      2.368      7.094
REMARK  7 active torsions:
REMARK  status: ('A' for Active; 'I' for Inactive)
REMARK    1  A    between atoms: O1_2  and  C2_3 
REMARK    2  A    between atoms: C4_5  and  C5_6 
REMARK       I    between atoms: N1_13  and  C11_14 
REMARK    3  A    between atoms: C11_14  and  O4_16 
REMARK    4  A    between atoms: O4_16  and  N2_17 
REMARK    5  A    between atoms: N2_17  and  O5_19 
REMARK    6  A    between atoms: C14_23  and  O6_24 
REMARK    7  A    between atoms: C16_26  and  O7_27 
ROOT
HETATM    1  C5  UNL     1      70.713  38.812  -0.343  1.00  0.00     0.047 C 
HETATM    2  C6  UNL     1      71.360  37.946  -1.399  1.00  0.00     0.180 C 
HETATM    3  O2  UNL     1      71.842  36.805  -0.800  1.00  0.00    -0.360 OA
HETATM    4  C7  UNL     1      72.107  37.180   0.536  1.00  0.00     0.141 C 
HETATM    5  C8  UNL     1      73.322  38.083   0.598  1.00  0.00     0.063 C 
HETATM    6  C9  UNL     1      74.474  37.228   1.068  1.00  0.00     0.025 C 
HETATM    7  C10 UNL     1      73.878  35.828   1.014  1.00  0.00     0.131 C 
HETATM    8  N1  UNL     1      72.496  36.101   1.365  1.00  0.00    -0.294 N 
HETATM    9  C11 UNL     1      71.782  35.383   2.346  1.00  0.00     0.388 C 
HETATM   10  O3  UNL     1      72.331  34.423   2.992  1.00  0.00    -0.236 OA
HETATM   11  C12 UNL     1      70.843  37.886   0.881  1.00  0.00     0.073 C 
ENDROOT
BRANCH   1  12
HETATM   12  C4  UNL     1      69.320  39.150  -0.630  1.00  0.00    -0.046 A 
HETATM   13  C3  UNL     1      68.395  38.148  -0.809  1.00  0.00     0.047 A 
HETATM   14  C2  UNL     1      67.064  38.483  -1.083  1.00  0.00     0.104 A 
HETATM   15  C16 UNL     1      66.688  39.805  -1.173  1.00  0.00     0.135 A 
HETATM   16  C14 UNL     1      67.633  40.799  -0.991  1.00  0.00     0.104 A 
HETATM   17  C13 UNL     1      68.948  40.475  -0.719  1.00  0.00     0.047 A 
BRANCH  14  18
HETATM   18  O1  UNL     1      66.111  37.518  -1.268  1.00  0.00    -0.353 OA
HETATM   19  C1  UNL     1      65.331  37.068  -0.174  1.00  0.00     0.210 C 
ENDBRANCH  14  18
BRANCH  15  20
HETATM   20  O7  UNL     1      65.374  40.176  -1.445  1.00  0.00    -0.351 OA
HETATM   21  C17 UNL     1      64.428  40.392  -0.426  1.00  0.00     0.210 C 
ENDBRANCH  15  20
BRANCH  16  22
HETATM   22  O6  UNL     1      67.275  42.115  -1.077  1.00  0.00    -0.353 OA
HETATM   23  C15 UNL     1      67.998  43.027  -1.849  1.00  0.00     0.210 C 
ENDBRANCH  16  22
ENDBRANCH   1  12
BRANCH   9  24
HETATM   24  O4  UNL     1      70.466  35.618   2.714  1.00  0.00    -0.160 OA
BRANCH  24  25
HETATM   25  N2  UNL     1      69.410  34.857   2.279  1.00  0.00    -0.164 N 
ATOM     26  H2  UNL     1      68.471  35.252   2.221  1.00  0.00     0.224 HD
BRANCH  25  27
HETATM   27  O5  UNL     1      69.623  33.673   1.957  1.00  0.00    -0.269 OA
ATOM     28  H5  UNL     1      69.886  33.059   2.632  1.00  0.00     0.246 HD
ENDBRANCH  25  27
ENDBRANCH  24  25
ENDBRANCH   9  24
TORSDOF 7
ENDMDL
MODEL 4
REMARK VINA RESULT: -6.450900081      1.189      1.414
REMARK  7 active torsions:
REMARK  status: ('A' for Active; 'I' for Inactive)
REMARK    1  A    between atoms: O1_2  and  C2_3 
REMARK    2  A    between atoms: C4_5  and  C5_6 
REMARK       I    between atoms: N1_13  and  C11_14 
REMARK    3  A    between atoms: C11_14  and  O4_16 
REMARK    4  A    between atoms: O4_16  and  N2_17 
REMARK    5  A    between atoms: N2_17  and  O5_19 
REMARK    6  A    between atoms: C14_23  and  O6_24 
REMARK    7  A    between atoms: C16_26  and  O7_27 
ROOT
HETATM    1  C5  UNL     1      70.520  38.858   0.117  1.00  0.00     0.047 C 
HETATM    2  C6  UNL     1      70.090  39.792   1.224  1.00  0.00     0.180 C 
HETATM    3  O2  UNL     1      68.753  40.080   1.065  1.00  0.00    -0.360 OA
HETATM    4  C7  UNL     1      68.512  39.936  -0.319  1.00  0.00     0.141 C 
HETATM    5  C8  UNL     1      69.154  41.075  -1.086  1.00  0.00     0.063 C 
HETATM    6  C9  UNL     1      68.047  42.040  -1.436  1.00  0.00     0.025 C 
HETATM    7  C10 UNL     1      66.877  41.492  -0.630  1.00  0.00     0.131 C 
HETATM    8  N1  UNL     1      67.150  40.067  -0.677  1.00  0.00    -0.294 N 
HETATM    9  C11 UNL     1      66.188  39.098  -1.025  1.00  0.00     0.388 C 
HETATM   10  O3  UNL     1      64.987  39.434  -1.320  1.00  0.00    -0.236 OA
HETATM   11  C12 UNL     1      69.165  38.623  -0.579  1.00  0.00     0.073 C 
ENDROOT
BRANCH   1  12
HETATM   12  C4  UNL     1      71.114  37.612   0.595  1.00  0.00    -0.046 A 
HETATM   13  C3  UNL     1      71.797  36.799  -0.280  1.00  0.00     0.047 A 
HETATM   14  C2  UNL     1      72.363  35.607   0.188  1.00  0.00     0.104 A 
HETATM   15  C16 UNL     1      72.233  35.255   1.514  1.00  0.00     0.135 A 
HETATM   16  C14 UNL     1      71.542  36.084   2.378  1.00  0.00     0.104 A 
HETATM   17  C13 UNL     1      70.983  37.262   1.922  1.00  0.00     0.047 A 
BRANCH  14  18
HETATM   18  O1  UNL     1      73.050  34.769  -0.648  1.00  0.00    -0.353 OA
HETATM   19  C1  UNL     1      74.332  35.136  -1.129  1.00  0.00     0.210 C 
ENDBRANCH  14  18
BRANCH  15  20
HETATM   20  O7  UNL     1      72.782  34.076   2.015  1.00  0.00    -0.351 OA
HETATM   21  C17 UNL     1      72.023  32.901   2.168  1.00  0.00     0.210 C 
ENDBRANCH  15  20
BRANCH  16  22
HETATM   22  O6  UNL     1      71.406  35.748   3.696  1.00  0.00    -0.353 OA
HETATM   23  C15 UNL     1      72.195  36.329   4.690  1.00  0.00     0.210 C 
ENDBRANCH  16  22
ENDBRANCH   1  12
BRANCH   9  24
HETATM   24  O4  UNL     1      66.411  37.730  -1.088  1.00  0.00    -0.160 OA
BRANCH  24  25
HETATM   25  N2  UNL     1      65.414  36.793  -0.980  1.00  0.00    -0.164 N 
ATOM     26  H2  UNL     1      65.070  36.300  -1.804  1.00  0.00     0.224 HD
BRANCH  25  27
HETATM   27  O5  UNL     1      64.939  36.558   0.147  1.00  0.00    -0.269 OA
ATOM     28  H5  UNL     1      64.022  36.750   0.301  1.00  0.00     0.246 HD
ENDBRANCH  25  27
ENDBRANCH  24  25
ENDBRANCH   9  24
TORSDOF 7
ENDMDL
MODEL 5
REMARK VINA RESULT: -6.411863888      1.223      2.660
REMARK  7 active torsions:
REMARK  status: ('A' for Active; 'I' for Inactive)
REMARK    1  A    between atoms: O1_2  and  C2_3 
REMARK    2  A    between atoms: C4_5  and  C5_6 
REMARK       I    between atoms: N1_13  and  C11_14 
REMARK    3  A    between atoms: C11_14  and  O4_16 
REMARK    4  A    between atoms: O4_16  and  N2_17 
REMARK    5  A    between atoms: N2_17  and  O5_19 
REMARK    6  A    between atoms: C14_23  and  O6_24 
REMARK    7  A    between atoms: C16_26  and  O7_27 
ROOT
HETATM    1  C5  UNL     1      70.595  38.877   0.118  1.00  0.00     0.047 C 
HETATM    2  C6  UNL     1      70.154  39.814   1.218  1.00  0.00     0.180 C 
HETATM    3  O2  UNL     1      68.823  40.114   1.038  1.00  0.00    -0.360 OA
HETATM    4  C7  UNL     1      68.604  39.973  -0.351  1.00  0.00     0.141 C 
HETATM    5  C8  UNL     1      69.269  41.106  -1.106  1.00  0.00     0.063 C 
HETATM    6  C9  UNL     1      68.176  42.081  -1.474  1.00  0.00     0.025 C 
HETATM    7  C10 UNL     1      66.988  41.543  -0.688  1.00  0.00     0.131 C 
HETATM    8  N1  UNL     1      67.250  40.115  -0.732  1.00  0.00    -0.294 N 
HETATM    9  C11 UNL     1      66.284  39.155  -1.096  1.00  0.00     0.388 C 
HETATM   10  O3  UNL     1      65.092  39.502  -1.411  1.00  0.00    -0.236 OA
HETATM   11  C12 UNL     1      69.250  38.655  -0.600  1.00  0.00     0.073 C 
ENDROOT
BRANCH   1  12
HETATM   12  C4  UNL     1      71.171  37.626   0.605  1.00  0.00    -0.046 A 
HETATM   13  C3  UNL     1      71.057  37.290   1.934  1.00  0.00     0.047 A 
HETATM   14  C2  UNL     1      71.612  36.090   2.390  1.00  0.00     0.104 A 
HETATM   15  C16 UNL     1      72.266  35.253   1.512  1.00  0.00     0.135 A 
HETATM   16  C14 UNL     1      72.371  35.608   0.179  1.00  0.00     0.104 A 
HETATM   17  C13 UNL     1      71.825  36.791  -0.276  1.00  0.00     0.047 A 
BRANCH  14  18
HETATM   18  O1  UNL     1      71.522  35.717   3.704  1.00  0.00    -0.353 OA
HETATM   19  C1  UNL     1      72.435  36.235   4.656  1.00  0.00     0.210 C 
ENDBRANCH  14  18
BRANCH  15  20
HETATM   20  O7  UNL     1      72.832  34.051   1.930  1.00  0.00    -0.351 OA
HETATM   21  C17 UNL     1      72.057  32.900   2.167  1.00  0.00     0.210 C 
ENDBRANCH  15  20
BRANCH  16  22
HETATM   22  O6  UNL     1      73.017  34.788  -0.704  1.00  0.00    -0.353 OA
HETATM   23  C15 UNL     1      74.288  35.092  -1.197  1.00  0.00     0.210 C 
ENDBRANCH  16  22
ENDBRANCH   1  12
BRANCH   9  24
HETATM   24  O4  UNL     1      66.497  37.785  -1.156  1.00  0.00    -0.160 OA
BRANCH  24  25
HETATM   25  N2  UNL     1      65.487  36.858  -1.105  1.00  0.00    -0.164 N 
ATOM     26  H2  UNL     1      65.152  36.403  -1.955  1.00  0.00     0.224 HD
BRANCH  25  27
HETATM   27  O5  UNL     1      64.988  36.584   0.003  1.00  0.00    -0.269 OA
ATOM     28  H5  UNL     1      65.154  37.168   0.732  1.00  0.00     0.246 HD
ENDBRANCH  25  27
ENDBRANCH  24  25
ENDBRANCH   9  24
TORSDOF 7
ENDMDL
