MODEL 1
REMARK VINA RESULT: -6.240603565      0.000      0.000
REMARK  5 active torsions:
REMARK  status: ('A' for Active; 'I' for Inactive)
REMARK    1  A    between atoms: C2_2  and  C3_3 
REMARK    2  A    between atoms: C8_11  and  C9_12 
REMARK    3  A    between atoms: C11_14  and  O4_15 
REMARK    4  A    between atoms: C13_17  and  O5_18 
REMARK    5  A    between atoms: C15_20  and  O6_21 
ROOT
HETATM    1  C3  UNL     1      71.456  35.385   2.230  1.00  0.00     0.202 C 
HETATM    2  C4  UNL     1      72.787  35.820   2.763  1.00  0.00     0.100 C 
HETATM    3  C5  UNL     1      72.962  37.280   2.905  1.00  0.00     0.215 C 
HETATM    4  O1  UNL     1      72.455  38.051   1.902  1.00  0.00    -0.238 OA
HETATM    5  O2  UNL     1      72.411  37.511   0.733  1.00  0.00    -0.198 OA
HETATM    6  C6  UNL     1      71.180  36.899   0.511  1.00  0.00     0.229 C 
HETATM    7  C7  UNL     1      70.896  36.976  -0.971  1.00  0.00     0.085 C 
HETATM    8  O3  UNL     1      71.352  35.547   0.848  1.00  0.00    -0.311 OA
HETATM    9  C8  UNL     1      70.080  37.440   1.361  1.00  0.00     0.258 C 
HETATM   10  O7  UNL     1      69.493  36.339   2.025  1.00  0.00    -0.222 OA
HETATM   11  O8  UNL     1      70.389  35.952   2.912  1.00  0.00    -0.200 OA
ENDROOT
BRANCH   9  12
HETATM   12  C9  UNL     1      69.076  38.220   0.611  1.00  0.00    -0.015 A 
HETATM   13  C10 UNL     1      67.979  37.614   0.038  1.00  0.00     0.049 A 
HETATM   14  C11 UNL     1      67.030  38.326  -0.665  1.00  0.00     0.104 A 
HETATM   15  C13 UNL     1      67.191  39.690  -0.797  1.00  0.00     0.135 A 
HETATM   16  C15 UNL     1      68.270  40.327  -0.242  1.00  0.00     0.104 A 
HETATM   17  C17 UNL     1      69.200  39.586   0.456  1.00  0.00     0.049 A 
BRANCH  14  18
HETATM   18  O4  UNL     1      65.930  37.699  -1.236  1.00  0.00    -0.353 OA
HETATM   19  C12 UNL     1      64.881  37.179  -0.480  1.00  0.00     0.210 C 
ENDBRANCH  14  18
BRANCH  15  20
HETATM   20  O5  UNL     1      66.224  40.418  -1.517  1.00  0.00    -0.351 OA
HETATM   21  C14 UNL     1      65.133  40.926  -0.761  1.00  0.00     0.210 C 
ENDBRANCH  15  20
BRANCH  16  22
HETATM   22  O6  UNL     1      68.409  41.695  -0.387  1.00  0.00    -0.353 OA
HETATM   23  C16 UNL     1      69.375  42.201  -1.266  1.00  0.00     0.210 C 
ENDBRANCH  16  22
ENDBRANCH   9  12
BRANCH   1  24
HETATM   24  C2  UNL     1      71.359  33.872   2.475  1.00  0.00     0.067 C 
HETATM   25  C1  UNL     1      72.664  33.196   2.073  1.00  0.00     0.010 C 
ENDBRANCH   1  24
TORSDOF 5
ENDMDL
MODEL 2
REMARK VINA RESULT: -6.221792525      0.051      2.533
REMARK  5 active torsions:
REMARK  status: ('A' for Active; 'I' for Inactive)
REMARK    1  A    between atoms: C2_2  and  C3_3 
REMARK    2  A    between atoms: C8_11  and  C9_12 
REMARK    3  A    between atoms: C11_14  and  O4_15 
REMARK    4  A    between atoms: C13_17  and  O5_18 
REMARK    5  A    between atoms: C15_20  and  O6_21 
ROOT
HETATM    1  C3  UNL     1      71.452  35.414   2.247  1.00  0.00     0.202 C 
HETATM    2  C4  UNL     1      72.789  35.858   2.759  1.00  0.00     0.100 C 
HETATM    3  C5  UNL     1      72.964  37.320   2.877  1.00  0.00     0.215 C 
HETATM    4  O1  UNL     1      72.444  38.075   1.869  1.00  0.00    -0.238 OA
HETATM    5  O2  UNL     1      72.387  37.518   0.708  1.00  0.00    -0.198 OA
HETATM    6  C6  UNL     1      71.155  36.902   0.509  1.00  0.00     0.229 C 
HETATM    7  C7  UNL     1      70.853  36.956  -0.969  1.00  0.00     0.085 C 
HETATM    8  O3  UNL     1      71.333  35.555   0.865  1.00  0.00    -0.311 OA
HETATM    9  C8  UNL     1      70.064  37.454   1.365  1.00  0.00     0.258 C 
HETATM   10  O7  UNL     1      69.486  36.361   2.052  1.00  0.00    -0.222 OA
HETATM   11  O8  UNL     1      70.392  35.989   2.934  1.00  0.00    -0.200 OA
ENDROOT
BRANCH   9  12
HETATM   12  C9  UNL     1      69.050  38.222   0.615  1.00  0.00    -0.015 A 
HETATM   13  C10 UNL     1      69.165  39.584   0.443  1.00  0.00     0.049 A 
HETATM   14  C11 UNL     1      68.228  40.318  -0.255  1.00  0.00     0.104 A 
HETATM   15  C13 UNL     1      67.142  39.659  -0.795  1.00  0.00     0.135 A 
HETATM   16  C15 UNL     1      66.994  38.306  -0.643  1.00  0.00     0.104 A 
HETATM   17  C17 UNL     1      67.949  37.602   0.060  1.00  0.00     0.049 A 
BRANCH  14  18
HETATM   18  O4  UNL     1      68.360  41.690  -0.419  1.00  0.00    -0.353 OA
HETATM   19  C12 UNL     1      69.308  42.262  -1.267  1.00  0.00     0.210 C 
ENDBRANCH  14  18
BRANCH  15  20
HETATM   20  O5  UNL     1      66.184  40.408  -1.507  1.00  0.00    -0.351 OA
HETATM   21  C14 UNL     1      65.098  40.918  -0.746  1.00  0.00     0.210 C 
ENDBRANCH  15  20
BRANCH  16  22
HETATM   22  O6  UNL     1      65.897  37.669  -1.194  1.00  0.00    -0.353 OA
HETATM   23  C16 UNL     1      64.884  37.192  -0.355  1.00  0.00     0.210 C 
ENDBRANCH  16  22
ENDBRANCH   9  12
BRANCH   1  24
HETATM   24  C2  UNL     1      71.361  33.904   2.517  1.00  0.00     0.067 C 
HETATM   25  C1  UNL     1      72.664  33.224   2.114  1.00  0.00     0.010 C 
ENDBRANCH   1  24
TORSDOF 5
ENDMDL
MODEL 3
REMARK VINA RESULT: -6.038389202      1.230      1.620
REMARK  5 active torsions:
REMARK  status: ('A' for Active; 'I' for Inactive)
REMARK    1  A    between atoms: C2_2  and  C3_3 
REMARK    2  A    between atoms: C8_11  and  C9_12 
REMARK    3  A    between atoms: C11_14  and  O4_15 
REMARK    4  A    between atoms: C13_17  and  O5_18 
REMARK    5  A    between atoms: C15_20  and  O6_21 
ROOT
HETATM    1  C3  UNL     1      70.769  36.016   1.832  1.00  0.00     0.202 C 
HETATM    2  C4  UNL     1      72.181  36.033   2.333  1.00  0.00     0.100 C 
HETATM    3  C5  UNL     1      72.791  37.374   2.455  1.00  0.00     0.215 C 
HETATM    4  O1  UNL     1      72.515  38.257   1.454  1.00  0.00    -0.238 OA
HETATM    5  O2  UNL     1      72.284  37.750   0.292  1.00  0.00    -0.198 OA
HETATM    6  C6  UNL     1      70.922  37.535   0.102  1.00  0.00     0.229 C 
HETATM    7  C7  UNL     1      70.640  37.687  -1.374  1.00  0.00     0.085 C 
HETATM    8  O3  UNL     1      70.687  36.195   0.451  1.00  0.00    -0.311 OA
HETATM    9  C8  UNL     1      70.055  38.386   0.968  1.00  0.00     0.258 C 
HETATM   10  O7  UNL     1      69.179  37.515   1.657  1.00  0.00    -0.222 OA
HETATM   11  O8  UNL     1      69.938  36.881   2.529  1.00  0.00    -0.200 OA
ENDROOT
BRANCH   9  12
HETATM   12  C9  UNL     1      69.314  39.428   0.230  1.00  0.00    -0.015 A 
HETATM   13  C10 UNL     1      68.031  39.211  -0.223  1.00  0.00     0.049 A 
HETATM   14  C11 UNL     1      67.324  40.173  -0.914  1.00  0.00     0.104 A 
HETATM   15  C13 UNL     1      67.927  41.390  -1.156  1.00  0.00     0.135 A 
HETATM   16  C15 UNL     1      69.201  41.641  -0.721  1.00  0.00     0.104 A 
HETATM   17  C17 UNL     1      69.881  40.658  -0.033  1.00  0.00     0.049 A 
BRANCH  14  18
HETATM   18  O4  UNL     1      66.031  39.937  -1.364  1.00  0.00    -0.353 OA
HETATM   19  C12 UNL     1      65.188  38.994  -0.778  1.00  0.00     0.210 C 
ENDBRANCH  14  18
BRANCH  15  20
HETATM   20  O5  UNL     1      67.206  42.372  -1.863  1.00  0.00    -0.351 OA
HETATM   21  C14 UNL     1      67.809  42.854  -3.056  1.00  0.00     0.210 C 
ENDBRANCH  15  20
BRANCH  16  22
HETATM   22  O6  UNL     1      69.785  42.869  -0.976  1.00  0.00    -0.353 OA
HETATM   23  C16 UNL     1      71.175  42.959  -1.105  1.00  0.00     0.210 C 
ENDBRANCH  16  22
ENDBRANCH   9  12
BRANCH   1  24
HETATM   24  C2  UNL     1      70.228  34.604   2.097  1.00  0.00     0.067 C 
HETATM   25  C1  UNL     1      71.385  33.634   2.305  1.00  0.00     0.010 C 
ENDBRANCH   1  24
TORSDOF 5
ENDMDL
MODEL 4
REMARK VINA RESULT: -6.031078124      1.243      3.006
REMARK  5 active torsions:
REMARK  status: ('A' for Active; 'I' for Inactive)
REMARK    1  A    between atoms: C2_2  and  C3_3 
REMARK    2  A    between atoms: C8_11  and  C9_12 
REMARK    3  A    between atoms: C11_14  and  O4_15 
REMARK    4  A    between atoms: C13_17  and  O5_18 
REMARK    5  A    between atoms: C15_20  and  O6_21 
ROOT
HETATM    1  C3  UNL     1      70.744  36.030   1.815  1.00  0.00     0.202 C 
HETATM    2  C4  UNL     1      72.155  36.046   2.322  1.00  0.00     0.100 C 
HETATM    3  C5  UNL     1      72.765  37.386   2.445  1.00  0.00     0.215 C 
HETATM    4  O1  UNL     1      72.494  38.269   1.442  1.00  0.00    -0.238 OA
HETATM    5  O2  UNL     1      72.267  37.761   0.279  1.00  0.00    -0.198 OA
HETATM    6  C6  UNL     1      70.906  37.548   0.085  1.00  0.00     0.229 C 
HETATM    7  C7  UNL     1      70.629  37.699  -1.392  1.00  0.00     0.085 C 
HETATM    8  O3  UNL     1      70.668  36.208   0.434  1.00  0.00    -0.311 OA
HETATM    9  C8  UNL     1      70.036  38.400   0.948  1.00  0.00     0.258 C 
HETATM   10  O7  UNL     1      69.157  37.530   1.633  1.00  0.00    -0.222 OA
HETATM   11  O8  UNL     1      69.911  36.896   2.509  1.00  0.00    -0.200 OA
ENDROOT
BRANCH   9  12
HETATM   12  C9  UNL     1      69.299  39.443   0.206  1.00  0.00    -0.015 A 
HETATM   13  C10 UNL     1      69.861  40.676  -0.045  1.00  0.00     0.049 A 
HETATM   14  C11 UNL     1      69.189  41.662  -0.737  1.00  0.00     0.104 A 
HETATM   15  C13 UNL     1      67.911  41.399  -1.188  1.00  0.00     0.135 A 
HETATM   16  C15 UNL     1      67.321  40.185  -0.956  1.00  0.00     0.104 A 
HETATM   17  C17 UNL     1      68.021  39.220  -0.262  1.00  0.00     0.049 A 
BRANCH  14  18
HETATM   18  O4  UNL     1      69.770  42.899  -0.981  1.00  0.00    -0.353 OA
HETATM   19  C12 UNL     1      71.148  43.077  -1.097  1.00  0.00     0.210 C 
ENDBRANCH  14  18
BRANCH  15  20
HETATM   20  O5  UNL     1      67.223  42.406  -1.893  1.00  0.00    -0.351 OA
HETATM   21  C14 UNL     1      67.831  42.852  -3.098  1.00  0.00     0.210 C 
ENDBRANCH  15  20
BRANCH  16  22
HETATM   22  O6  UNL     1      66.039  39.945  -1.419  1.00  0.00    -0.353 OA
HETATM   23  C16 UNL     1      65.245  38.985  -0.781  1.00  0.00     0.210 C 
ENDBRANCH  16  22
ENDBRANCH   9  12
BRANCH   1  24
HETATM   24  C2  UNL     1      70.201  34.618   2.079  1.00  0.00     0.067 C 
HETATM   25  C1  UNL     1      71.356  33.643   2.268  1.00  0.00     0.010 C 
ENDBRANCH   1  24
TORSDOF 5
ENDMDL
MODEL 5
REMARK VINA RESULT: -5.933144173      1.553      6.527
REMARK  5 active torsions:
REMARK  status: ('A' for Active; 'I' for Inactive)
REMARK    1  A    between atoms: C2_2  and  C3_3 
REMARK    2  A    between atoms: C8_11  and  C9_12 
REMARK    3  A    between atoms: C11_14  and  O4_15 
REMARK    4  A    between atoms: C13_17  and  O5_18 
REMARK    5  A    between atoms: C15_20  and  O6_21 
ROOT
HETATM    1  C3  UNL     1      67.759  40.697  -0.887  1.00  0.00     0.202 C 
HETATM    2  C4  UNL     1      66.439  40.215  -1.407  1.00  0.00     0.100 C 
HETATM    3  C5  UNL     1      65.914  38.996  -0.757  1.00  0.00     0.215 C 
HETATM    4  O1  UNL     1      66.823  38.020  -0.476  1.00  0.00    -0.238 OA
HETATM    5  O2  UNL     1      67.848  37.953  -1.254  1.00  0.00    -0.198 OA
HETATM    6  C6  UNL     1      68.908  38.700  -0.749  1.00  0.00     0.229 C 
HETATM    7  C7  UNL     1      70.187  38.033  -1.194  1.00  0.00     0.085 C 
HETATM    8  O3  UNL     1      68.833  39.954  -1.378  1.00  0.00    -0.311 OA
HETATM    9  C8  UNL     1      68.832  38.929   0.724  1.00  0.00     0.258 C 
HETATM   10  O7  UNL     1      68.928  40.325   0.929  1.00  0.00    -0.222 OA
HETATM   11  O8  UNL     1      67.785  40.818   0.495  1.00  0.00    -0.200 OA
ENDROOT
BRANCH   9  12
HETATM   12  C9  UNL     1      69.856  38.196   1.494  1.00  0.00    -0.015 A 
HETATM   13  C10 UNL     1      69.674  36.878   1.855  1.00  0.00     0.049 A 
HETATM   14  C11 UNL     1      70.619  36.176   2.574  1.00  0.00     0.104 A 
HETATM   15  C13 UNL     1      71.782  36.822   2.942  1.00  0.00     0.135 A 
HETATM   16  C15 UNL     1      71.997  38.131   2.602  1.00  0.00     0.104 A 
HETATM   17  C17 UNL     1      71.032  38.804   1.882  1.00  0.00     0.049 A 
BRANCH  14  18
HETATM   18  O4  UNL     1      70.420  34.849   2.929  1.00  0.00    -0.353 OA
HETATM   19  C12 UNL     1      70.930  33.784   2.187  1.00  0.00     0.210 C 
ENDBRANCH  14  18
BRANCH  15  20
HETATM   20  O5  UNL     1      72.747  36.106   3.677  1.00  0.00    -0.351 OA
HETATM   21  C14 UNL     1      72.670  36.223   5.091  1.00  0.00     0.210 C 
ENDBRANCH  15  20
BRANCH  16  22
HETATM   22  O6  UNL     1      73.171  38.756   2.982  1.00  0.00    -0.353 OA
HETATM   23  C16 UNL     1      74.257  38.777   2.100  1.00  0.00     0.210 C 
ENDBRANCH  16  22
ENDBRANCH   9  12
BRANCH   1  24
HETATM   24  C2  UNL     1      67.954  42.116  -1.440  1.00  0.00     0.067 C 
HETATM   25  C1  UNL     1      69.420  42.341  -1.792  1.00  0.00     0.010 C 
ENDBRANCH   1  24
TORSDOF 5
ENDMDL
