MODEL 1
REMARK VINA RESULT: -6.787390630      0.000      0.000
REMARK  5 active torsions:
REMARK  status: ('A' for Active; 'I' for Inactive)
REMARK    1  A    between atoms: C2_2  and  C4_4 
REMARK    2  A    between atoms: C5_5  and  C6_6 
REMARK    3  A    between atoms: C6_6  and  N1_7 
REMARK    4  A    between atoms: N1_7  and  O1_8 
REMARK    5  A    between atoms: N1_7  and  C7_10 
ROOT
HETATM    1  C7  UNL     1      -7.410   3.351 -22.852  1.00  0.00     0.111 C 
HETATM    2  C8  UNL     1      -6.349   2.299 -22.886  1.00  0.00     0.027 C 
HETATM    3  C9  UNL     1      -5.955   2.029 -24.309  1.00  0.00     0.040 C 
HETATM    4  C10 UNL     1      -7.150   1.814 -25.183  1.00  0.00     0.061 C 
HETATM    5  C11 UNL     1      -7.618   0.385 -25.256  1.00  0.00     0.038 C 
HETATM    6  C12 UNL     1      -6.982  -0.401 -26.378  1.00  0.00     0.003 C 
HETATM    7  C13 UNL     1      -7.324   0.151 -27.745  1.00  0.00     0.000 C 
HETATM    8  C14 UNL     1      -7.786   1.599 -27.518  1.00  0.00     0.003 C 
HETATM    9  C15 UNL     1      -6.731   2.197 -26.598  1.00  0.00     0.038 C 
HETATM   10  O2  UNL     1      -8.246   2.610 -24.886  1.00  0.00    -0.379 OA
HETATM   11  C16 UNL     1      -7.852   3.783 -24.229  1.00  0.00     0.190 C 
ENDROOT
BRANCH   1  12
HETATM   12  N1  UNL     1      -7.082   4.462 -21.979  1.00  0.00    -0.182 NA
BRANCH  12  13
HETATM   13  C6  UNL     1      -5.855   4.126 -21.321  1.00  0.00     0.215 C 
BRANCH  13  14
HETATM   14  C5  UNL     1      -5.339   5.285 -20.595  1.00  0.00    -0.085 C 
HETATM   15  C4  UNL     1      -4.876   6.235 -19.982  1.00  0.00    -0.071 C 
BRANCH  15  16
HETATM   16  C2  UNL     1      -4.291   7.339 -19.251  1.00  0.00    -0.018 C 
HETATM   17  C1  UNL     1      -4.604   8.595 -19.453  1.00  0.00     0.028 C 
HETATM   18  C3  UNL     1      -3.288   7.011 -18.213  1.00  0.00     0.057 C 
ENDBRANCH  15  16
ENDBRANCH  13  14
ENDBRANCH  12  13
BRANCH  12  19
HETATM   19  O1  UNL     1      -6.956   5.614 -22.688  1.00  0.00    -0.312 OA
ATOM     20  H1  UNL     1      -7.470   5.581 -23.486  1.00  0.00     0.237 HD
ENDBRANCH  12  19
ENDBRANCH   1  12
TORSDOF 5
ENDMDL
MODEL 2
REMARK VINA RESULT: -6.545298799      2.088      2.899
REMARK  5 active torsions:
REMARK  status: ('A' for Active; 'I' for Inactive)
REMARK    1  A    between atoms: C2_2  and  C4_4 
REMARK    2  A    between atoms: C5_5  and  C6_6 
REMARK    3  A    between atoms: C6_6  and  N1_7 
REMARK    4  A    between atoms: N1_7  and  O1_8 
REMARK    5  A    between atoms: N1_7  and  C7_10 
ROOT
HETATM    1  C7  UNL     1      -5.756   3.978 -21.692  1.00  0.00     0.111 C 
HETATM    2  C8  UNL     1      -6.979   4.337 -22.474  1.00  0.00     0.027 C 
HETATM    3  C9  UNL     1      -7.580   3.096 -23.066  1.00  0.00     0.040 C 
HETATM    4  C10 UNL     1      -6.551   2.262 -23.763  1.00  0.00     0.061 C 
HETATM    5  C11 UNL     1      -6.347   2.609 -25.213  1.00  0.00     0.038 C 
HETATM    6  C12 UNL     1      -7.238   1.828 -26.151  1.00  0.00     0.003 C 
HETATM    7  C13 UNL     1      -6.971   0.340 -26.105  1.00  0.00     0.000 C 
HETATM    8  C14 UNL     1      -6.243   0.076 -24.777  1.00  0.00     0.003 C 
HETATM    9  C15 UNL     1      -7.063   0.826 -23.738  1.00  0.00     0.038 C 
HETATM   10  O2  UNL     1      -5.307   2.229 -23.150  1.00  0.00    -0.379 OA
HETATM   11  C16 UNL     1      -5.413   2.511 -21.783  1.00  0.00     0.190 C 
ENDROOT
BRANCH   1  12
HETATM   12  N1  UNL     1      -5.782   4.480 -20.333  1.00  0.00    -0.182 NA
BRANCH  12  13
HETATM   13  C6  UNL     1      -5.107   3.513 -19.518  1.00  0.00     0.215 C 
BRANCH  13  14
HETATM   14  C5  UNL     1      -3.962   4.129 -18.851  1.00  0.00    -0.085 C 
HETATM   15  C4  UNL     1      -2.994   4.609 -18.281  1.00  0.00    -0.071 C 
BRANCH  15  16
HETATM   16  C2  UNL     1      -1.836   5.140 -17.593  1.00  0.00    -0.018 C 
HETATM   17  C1  UNL     1      -1.031   6.036 -18.106  1.00  0.00     0.028 C 
HETATM   18  C3  UNL     1      -1.566   4.633 -16.228  1.00  0.00     0.057 C 
ENDBRANCH  15  16
ENDBRANCH  13  14
ENDBRANCH  12  13
BRANCH  12  19
HETATM   19  O1  UNL     1      -5.177   5.693 -20.252  1.00  0.00    -0.312 OA
ATOM     20  H1  UNL     1      -5.810   6.379 -20.075  1.00  0.00     0.237 HD
ENDBRANCH  12  19
ENDBRANCH   1  12
TORSDOF 5
ENDMDL
MODEL 3
REMARK VINA RESULT: -6.524277152      0.789      1.635
REMARK  5 active torsions:
REMARK  status: ('A' for Active; 'I' for Inactive)
REMARK    1  A    between atoms: C2_2  and  C4_4 
REMARK    2  A    between atoms: C5_5  and  C6_6 
REMARK    3  A    between atoms: C6_6  and  N1_7 
REMARK    4  A    between atoms: N1_7  and  O1_8 
REMARK    5  A    between atoms: N1_7  and  C7_10 
ROOT
HETATM    1  C7  UNL     1      -6.752   3.875 -23.417  1.00  0.00     0.111 C 
HETATM    2  C8  UNL     1      -7.970   3.859 -24.284  1.00  0.00     0.027 C 
HETATM    3  C9  UNL     1      -8.293   2.445 -24.670  1.00  0.00     0.040 C 
HETATM    4  C10 UNL     1      -7.088   1.721 -25.181  1.00  0.00     0.061 C 
HETATM    5  C11 UNL     1      -6.862   1.857 -26.664  1.00  0.00     0.038 C 
HETATM    6  C12 UNL     1      -7.534   0.776 -27.477  1.00  0.00     0.003 C 
HETATM    7  C13 UNL     1      -7.000  -0.605 -27.166  1.00  0.00     0.000 C 
HETATM    8  C14 UNL     1      -6.320  -0.501 -25.792  1.00  0.00     0.003 C 
HETATM    9  C15 UNL     1      -7.326   0.238 -24.922  1.00  0.00     0.038 C 
HETATM   10  O2  UNL     1      -5.899   2.030 -24.536  1.00  0.00    -0.379 OA
HETATM   11  C16 UNL     1      -6.139   2.507 -23.242  1.00  0.00     0.190 C 
ENDROOT
BRANCH   1  12
HETATM   12  N1  UNL     1      -6.954   4.579 -22.167  1.00  0.00    -0.182 NA
BRANCH  12  13
HETATM   13  C6  UNL     1      -5.906   4.168 -21.281  1.00  0.00     0.215 C 
BRANCH  13  14
HETATM   14  C5  UNL     1      -5.366   5.323 -20.568  1.00  0.00    -0.085 C 
HETATM   15  C4  UNL     1      -4.884   6.270 -19.963  1.00  0.00    -0.071 C 
BRANCH  15  16
HETATM   16  C2  UNL     1      -4.278   7.368 -19.241  1.00  0.00    -0.018 C 
HETATM   17  C1  UNL     1      -4.559   8.628 -19.460  1.00  0.00     0.028 C 
HETATM   18  C3  UNL     1      -3.289   7.028 -18.193  1.00  0.00     0.057 C 
ENDBRANCH  15  16
ENDBRANCH  13  14
ENDBRANCH  12  13
BRANCH  12  19
HETATM   19  O1  UNL     1      -6.930   5.925 -22.358  1.00  0.00    -0.312 OA
ATOM     20  H1  UNL     1      -7.018   6.387 -21.534  1.00  0.00     0.237 HD
ENDBRANCH  12  19
ENDBRANCH   1  12
TORSDOF 5
ENDMDL
MODEL 4
REMARK VINA RESULT: -6.378263454      2.373      3.383
REMARK  5 active torsions:
REMARK  status: ('A' for Active; 'I' for Inactive)
REMARK    1  A    between atoms: C2_2  and  C4_4 
REMARK    2  A    between atoms: C5_5  and  C6_6 
REMARK    3  A    between atoms: C6_6  and  N1_7 
REMARK    4  A    between atoms: N1_7  and  O1_8 
REMARK    5  A    between atoms: N1_7  and  C7_10 
ROOT
HETATM    1  C7  UNL     1      -5.443   3.799 -21.434  1.00  0.00     0.111 C 
HETATM    2  C8  UNL     1      -6.545   4.298 -22.313  1.00  0.00     0.027 C 
HETATM    3  C9  UNL     1      -7.286   3.132 -22.901  1.00  0.00     0.040 C 
HETATM    4  C10 UNL     1      -6.352   2.124 -23.492  1.00  0.00     0.061 C 
HETATM    5  C11 UNL     1      -6.005   2.369 -24.936  1.00  0.00     0.038 C 
HETATM    6  C12 UNL     1      -6.941   1.685 -25.905  1.00  0.00     0.003 C 
HETATM    7  C13 UNL     1      -6.905   0.177 -25.786  1.00  0.00     0.000 C 
HETATM    8  C14 UNL     1      -6.312  -0.129 -24.401  1.00  0.00     0.003 C 
HETATM    9  C15 UNL     1      -7.075   0.782 -23.450  1.00  0.00     0.038 C 
HETATM   10  O2  UNL     1      -5.169   1.936 -22.792  1.00  0.00    -0.379 OA
HETATM   11  C16 UNL     1      -5.320   2.294 -21.447  1.00  0.00     0.190 C 
ENDROOT
BRANCH   1  12
HETATM   12  N1  UNL     1      -5.481   4.362 -20.099  1.00  0.00    -0.182 NA
BRANCH  12  13
HETATM   13  C6  UNL     1      -4.334   5.210 -19.971  1.00  0.00     0.215 C 
BRANCH  13  14
HETATM   14  C5  UNL     1      -3.466   4.725 -18.900  1.00  0.00    -0.085 C 
HETATM   15  C4  UNL     1      -2.714   4.344 -18.015  1.00  0.00    -0.071 C 
BRANCH  15  16
HETATM   16  C2  UNL     1      -1.796   3.922 -16.978  1.00  0.00    -0.018 C 
HETATM   17  C1  UNL     1      -2.158   3.257 -15.910  1.00  0.00     0.028 C 
HETATM   18  C3  UNL     1      -0.367   4.265 -17.157  1.00  0.00     0.057 C 
ENDBRANCH  15  16
ENDBRANCH  13  14
ENDBRANCH  12  13
BRANCH  12  19
HETATM   19  O1  UNL     1      -6.629   5.062 -19.902  1.00  0.00    -0.312 OA
ATOM     20  H1  UNL     1      -6.927   4.982 -19.004  1.00  0.00     0.237 HD
ENDBRANCH  12  19
ENDBRANCH   1  12
TORSDOF 5
ENDMDL
MODEL 5
REMARK VINA RESULT: -6.318846072      1.753      2.892
REMARK  5 active torsions:
REMARK  status: ('A' for Active; 'I' for Inactive)
REMARK    1  A    between atoms: C2_2  and  C4_4 
REMARK    2  A    between atoms: C5_5  and  C6_6 
REMARK    3  A    between atoms: C6_6  and  N1_7 
REMARK    4  A    between atoms: N1_7  and  O1_8 
REMARK    5  A    between atoms: N1_7  and  C7_10 
ROOT
HETATM    1  C7  UNL     1      -5.813   4.158 -21.724  1.00  0.00     0.111 C 
HETATM    2  C8  UNL     1      -6.899   4.139 -22.752  1.00  0.00     0.027 C 
HETATM    3  C9  UNL     1      -7.405   2.736 -22.924  1.00  0.00     0.040 C 
HETATM    4  C10 UNL     1      -6.283   1.762 -23.105  1.00  0.00     0.061 C 
HETATM    5  C11 UNL     1      -5.855   1.566 -24.535  1.00  0.00     0.038 C 
HETATM    6  C12 UNL     1      -6.592   0.449 -25.236  1.00  0.00     0.003 C 
HETATM    7  C13 UNL     1      -6.340  -0.903 -24.605  1.00  0.00     0.000 C 
HETATM    8  C14 UNL     1      -5.829  -0.623 -23.183  1.00  0.00     0.003 C 
HETATM    9  C15 UNL     1      -6.797   0.410 -22.626  1.00  0.00     0.038 C 
HETATM   10  O2  UNL     1      -5.149   2.024 -22.350  1.00  0.00    -0.379 OA
HETATM   11  C16 UNL     1      -5.466   2.780 -21.215  1.00  0.00     0.190 C 
ENDROOT
BRANCH   1  12
HETATM   12  N1  UNL     1      -6.049   5.119 -20.666  1.00  0.00    -0.182 NA
BRANCH  12  13
HETATM   13  C6  UNL     1      -4.772   5.439 -20.100  1.00  0.00     0.215 C 
BRANCH  13  14
HETATM   14  C5  UNL     1      -4.689   6.872 -19.822  1.00  0.00    -0.085 C 
HETATM   15  C4  UNL     1      -4.652   8.074 -19.605  1.00  0.00    -0.071 C 
BRANCH  15  16
HETATM   16  C2  UNL     1      -4.647   9.501 -19.366  1.00  0.00    -0.018 C 
HETATM   17  C1  UNL     1      -5.029  10.053 -18.241  1.00  0.00     0.028 C 
HETATM   18  C3  UNL     1      -4.172  10.372 -20.464  1.00  0.00     0.057 C 
ENDBRANCH  15  16
ENDBRANCH  13  14
ENDBRANCH  12  13
BRANCH  12  19
HETATM   19  O1  UNL     1      -6.660   6.233 -21.150  1.00  0.00    -0.312 OA
ATOM     20  H1  UNL     1      -7.569   6.057 -21.363  1.00  0.00     0.237 HD
ENDBRANCH  12  19
ENDBRANCH   1  12
TORSDOF 5
ENDMDL
