MODEL 1
REMARK VINA RESULT: -6.067057079      0.000      0.000
REMARK  2 active torsions:
REMARK  status: ('A' for Active; 'I' for Inactive)
REMARK    1  A    between atoms: C6_10  and  C7_11 
REMARK    2  A    between atoms: C7_11  and  C8_12 
ROOT
HETATM    1  C1  UNL     1      -8.224   1.779 -23.035  1.00  0.00     0.039 C 
HETATM    2  C2  UNL     1      -7.370   2.432 -24.113  1.00  0.00     0.039 C 
HETATM    3  C3  UNL     1      -8.146   2.574 -25.381  1.00  0.00     0.039 C 
HETATM    4  N1  UNL     1      -6.895   3.694 -23.622  1.00  0.00    -0.377 N 
ATOM      5  H1  UNL     1      -7.014   4.534 -24.189  1.00  0.00     0.160 HD
HETATM    6  C4  UNL     1      -6.259   3.784 -22.352  1.00  0.00     0.078 A 
HETATM    7  C5  UNL     1      -6.332   4.976 -21.634  1.00  0.00     0.121 A 
HETATM    8  N2  UNL     1      -5.735   5.070 -20.432  1.00  0.00    -0.353 N 
ATOM      9  H2  UNL     1      -5.788   5.943 -19.906  1.00  0.00     0.166 HD
HETATM   10  C6  UNL     1      -5.067   4.022 -19.917  1.00  0.00     0.082 A 
HETATM   11  N3  UNL     1      -4.991   2.869 -20.602  1.00  0.00    -0.339 N 
ATOM     12  H3  UNL     1      -4.481   2.083 -20.198  1.00  0.00     0.168 HD
HETATM   13  C11 UNL     1      -5.569   2.724 -21.804  1.00  0.00     0.100 A 
HETATM   14  S1  UNL     1      -5.461   1.169 -22.718  1.00  0.00    -0.098 SA
HETATM   15  C12 UNL     1      -6.168   1.523 -24.368  1.00  0.00     0.032 C 
HETATM   16  C13 UNL     1      -5.104   2.226 -25.162  1.00  0.00     0.030 C 
HETATM   17  C14 UNL     1      -6.650   0.291 -25.051  1.00  0.00     0.030 C 
ENDROOT
BRANCH  10  18
HETATM   18  C7  UNL     1      -4.391   4.078 -18.595  1.00  0.00     0.081 C 
BRANCH  18  19
HETATM   19  C8  UNL     1      -3.128   4.878 -18.709  1.00  0.00    -0.007 A 
HETATM   20  C9  UNL     1      -2.613   5.724 -17.633  1.00  0.00     0.005 A 
HETATM   21  C10 UNL     1      -1.947   4.387 -17.845  1.00  0.00     0.005 A 
ENDBRANCH  18  19
ENDBRANCH  10  18
TORSDOF 2
ENDMDL
MODEL 2
REMARK VINA RESULT: -5.424017578      1.004      1.021
REMARK  2 active torsions:
REMARK  status: ('A' for Active; 'I' for Inactive)
REMARK    1  A    between atoms: C6_10  and  C7_11 
REMARK    2  A    between atoms: C7_11  and  C8_12 
ROOT
HETATM    1  C1  UNL     1      -7.700   1.119 -24.088  1.00  0.00     0.039 C 
HETATM    2  C2  UNL     1      -6.743   1.839 -25.029  1.00  0.00     0.039 C 
HETATM    3  C3  UNL     1      -7.296   1.871 -26.415  1.00  0.00     0.039 C 
HETATM    4  N1  UNL     1      -6.493   3.155 -24.513  1.00  0.00    -0.377 N 
ATOM      5  H1  UNL     1      -6.597   3.966 -25.123  1.00  0.00     0.160 HD
HETATM    6  C4  UNL     1      -6.101   3.338 -23.157  1.00  0.00     0.078 A 
HETATM    7  C5  UNL     1      -6.420   4.530 -22.508  1.00  0.00     0.121 A 
HETATM    8  N2  UNL     1      -6.054   4.712 -21.226  1.00  0.00    -0.353 N 
ATOM      9  H2  UNL     1      -6.288   5.584 -20.751  1.00  0.00     0.166 HD
HETATM   10  C6  UNL     1      -5.381   3.752 -20.565  1.00  0.00     0.082 A 
HETATM   11  N3  UNL     1      -5.069   2.600 -21.182  1.00  0.00    -0.339 N 
ATOM     12  H3  UNL     1      -4.560   1.883 -20.666  1.00  0.00     0.168 HD
HETATM   13  C11 UNL     1      -5.411   2.370 -22.459  1.00  0.00     0.100 A 
HETATM   14  S1  UNL     1      -4.986   0.818 -23.280  1.00  0.00    -0.098 SA
HETATM   15  C12 UNL     1      -5.427   1.060 -25.039  1.00  0.00     0.032 C 
HETATM   16  C13 UNL     1      -4.319   1.858 -25.665  1.00  0.00     0.030 C 
HETATM   17  C14 UNL     1      -5.653  -0.230 -25.747  1.00  0.00     0.030 C 
ENDROOT
BRANCH  10  18
HETATM   18  C7  UNL     1      -4.955   3.907 -19.150  1.00  0.00     0.081 C 
BRANCH  18  19
HETATM   19  C8  UNL     1      -3.527   4.359 -19.101  1.00  0.00    -0.007 A 
HETATM   20  C9  UNL     1      -3.088   5.566 -18.399  1.00  0.00     0.005 A 
HETATM   21  C10 UNL     1      -2.836   4.240 -17.726  1.00  0.00     0.005 A 
ENDBRANCH  18  19
ENDBRANCH  10  18
TORSDOF 2
ENDMDL
MODEL 3
REMARK VINA RESULT: -5.266845975      3.911      7.869
REMARK  2 active torsions:
REMARK  status: ('A' for Active; 'I' for Inactive)
REMARK    1  A    between atoms: C6_10  and  C7_11 
REMARK    2  A    between atoms: C7_11  and  C8_12 
ROOT
HETATM    1  C1  UNL     1      -6.644  -0.178 -24.452  1.00  0.00     0.039 C 
HETATM    2  C2  UNL     1      -6.074   1.126 -23.908  1.00  0.00     0.039 C 
HETATM    3  C3  UNL     1      -5.778   1.000 -22.451  1.00  0.00     0.039 C 
HETATM    4  N1  UNL     1      -4.910   1.474 -24.672  1.00  0.00    -0.377 N 
ATOM      5  H1  UNL     1      -4.040   1.705 -24.191  1.00  0.00     0.160 HD
HETATM    6  C4  UNL     1      -4.957   1.498 -26.094  1.00  0.00     0.078 A 
HETATM    7  C5  UNL     1      -3.794   1.249 -26.822  1.00  0.00     0.121 A 
HETATM    8  N2  UNL     1      -3.830   1.270 -28.167  1.00  0.00    -0.353 N 
ATOM      9  H2  UNL     1      -2.978   1.087 -28.698  1.00  0.00     0.166 HD
HETATM   10  C6  UNL     1      -4.979   1.530 -28.815  1.00  0.00     0.082 A 
HETATM   11  N3  UNL     1      -6.105   1.771 -28.123  1.00  0.00    -0.339 N 
ATOM     12  H3  UNL     1      -6.968   1.965 -28.631  1.00  0.00     0.168 HD
HETATM   13  C11 UNL     1      -6.122   1.761 -26.782  1.00  0.00     0.100 A 
HETATM   14  S1  UNL     1      -7.641   2.088 -25.859  1.00  0.00    -0.098 SA
HETATM   15  C12 UNL     1      -7.130   2.213 -24.107  1.00  0.00     0.032 C 
HETATM   16  C13 UNL     1      -6.552   3.586 -23.914  1.00  0.00     0.030 C 
HETATM   17  C14 UNL     1      -8.257   1.946 -23.171  1.00  0.00     0.030 C 
ENDROOT
BRANCH  10  18
HETATM   18  C7  UNL     1      -5.067   1.564 -30.299  1.00  0.00     0.081 C 
BRANCH  18  19
HETATM   19  C8  UNL     1      -5.168   2.985 -30.764  1.00  0.00    -0.007 A 
HETATM   20  C9  UNL     1      -5.109   3.377 -32.173  1.00  0.00     0.005 A 
HETATM   21  C10 UNL     1      -6.466   3.352 -31.514  1.00  0.00     0.005 A 
ENDBRANCH  18  19
ENDBRANCH  10  18
TORSDOF 2
ENDMDL
MODEL 4
REMARK VINA RESULT: -5.181298672      3.742      7.664
REMARK  2 active torsions:
REMARK  status: ('A' for Active; 'I' for Inactive)
REMARK    1  A    between atoms: C6_10  and  C7_11 
REMARK    2  A    between atoms: C7_11  and  C8_12 
ROOT
HETATM    1  C1  UNL     1      -7.737   1.501 -23.368  1.00  0.00     0.039 C 
HETATM    2  C2  UNL     1      -6.618   0.472 -23.272  1.00  0.00     0.039 C 
HETATM    3  C3  UNL     1      -6.665  -0.231 -21.957  1.00  0.00     0.039 C 
HETATM    4  N1  UNL     1      -6.732  -0.435 -24.378  1.00  0.00    -0.377 N 
ATOM      5  H1  UNL     1      -6.725  -1.441 -24.210  1.00  0.00     0.160 HD
HETATM    6  C4  UNL     1      -6.853   0.056 -25.708  1.00  0.00     0.078 A 
HETATM    7  C5  UNL     1      -7.526  -0.707 -26.661  1.00  0.00     0.121 A 
HETATM    8  N2  UNL     1      -7.647  -0.251 -27.921  1.00  0.00    -0.353 N 
ATOM      9  H2  UNL     1      -8.140  -0.810 -28.617  1.00  0.00     0.166 HD
HETATM   10  C6  UNL     1      -7.122   0.938 -28.269  1.00  0.00     0.082 A 
HETATM   11  N3  UNL     1      -6.472   1.681 -27.359  1.00  0.00    -0.339 N 
ATOM     12  H3  UNL     1      -6.080   2.581 -27.639  1.00  0.00     0.168 HD
HETATM   13  C11 UNL     1      -6.325   1.271 -26.090  1.00  0.00     0.100 A 
HETATM   14  S1  UNL     1      -5.448   2.277 -24.873  1.00  0.00    -0.098 SA
HETATM   15  C12 UNL     1      -5.289   1.219 -23.388  1.00  0.00     0.032 C 
HETATM   16  C13 UNL     1      -4.147   0.276 -23.639  1.00  0.00     0.030 C 
HETATM   17  C14 UNL     1      -5.091   2.016 -22.146  1.00  0.00     0.030 C 
ENDROOT
BRANCH  10  18
HETATM   18  C7  UNL     1      -7.229   1.483 -29.648  1.00  0.00     0.081 C 
BRANCH  18  19
HETATM   19  C8  UNL     1      -6.291   2.642 -29.804  1.00  0.00    -0.007 A 
HETATM   20  C9  UNL     1      -5.064   2.583 -30.600  1.00  0.00     0.005 A 
HETATM   21  C10 UNL     1      -6.253   3.285 -31.207  1.00  0.00     0.005 A 
ENDBRANCH  18  19
ENDBRANCH  10  18
TORSDOF 2
ENDMDL
MODEL 5
REMARK VINA RESULT: -5.162520052      3.960      7.846
REMARK  2 active torsions:
REMARK  status: ('A' for Active; 'I' for Inactive)
REMARK    1  A    between atoms: C6_10  and  C7_11 
REMARK    2  A    between atoms: C7_11  and  C8_12 
ROOT
HETATM    1  C1  UNL     1      -6.472   3.341 -24.445  1.00  0.00     0.039 C 
HETATM    2  C2  UNL     1      -7.149   1.997 -24.211  1.00  0.00     0.039 C 
HETATM    3  C3  UNL     1      -8.118   2.089 -23.080  1.00  0.00     0.039 C 
HETATM    4  N1  UNL     1      -7.776   1.578 -25.432  1.00  0.00    -0.377 N 
ATOM      5  H1  UNL     1      -8.753   1.285 -25.424  1.00  0.00     0.160 HD
HETATM    6  C4  UNL     1      -7.048   1.570 -26.655  1.00  0.00     0.078 A 
HETATM    7  C5  UNL     1      -7.729   1.747 -27.858  1.00  0.00     0.121 A 
HETATM    8  N2  UNL     1      -7.048   1.741 -29.019  1.00  0.00    -0.353 N 
ATOM      9  H2  UNL     1      -7.547   1.871 -29.899  1.00  0.00     0.166 HD
HETATM   10  C6  UNL     1      -5.714   1.566 -29.027  1.00  0.00     0.082 A 
HETATM   11  N3  UNL     1      -5.049   1.395 -27.873  1.00  0.00    -0.339 N 
ATOM     12  H3  UNL     1      -4.038   1.264 -27.897  1.00  0.00     0.168 HD
HETATM   13  C11 UNL     1      -5.681   1.393 -26.689  1.00  0.00     0.100 A 
HETATM   14  S1  UNL     1      -4.778   1.161 -25.142  1.00  0.00    -0.098 SA
HETATM   15  C12 UNL     1      -6.061   0.986 -23.850  1.00  0.00     0.032 C 
HETATM   16  C13 UNL     1      -6.573  -0.425 -23.925  1.00  0.00     0.030 C 
HETATM   17  C14 UNL     1      -5.545   1.318 -22.494  1.00  0.00     0.030 C 
ENDROOT
BRANCH  10  18
HETATM   18  C7  UNL     1      -4.920   1.551 -30.283  1.00  0.00     0.081 C 
BRANCH  18  19
HETATM   19  C8  UNL     1      -4.760   2.951 -30.794  1.00  0.00    -0.007 A 
HETATM   20  C9  UNL     1      -4.098   3.275 -32.059  1.00  0.00     0.005 A 
HETATM   21  C10 UNL     1      -5.606   3.309 -32.035  1.00  0.00     0.005 A 
ENDBRANCH  18  19
ENDBRANCH  10  18
TORSDOF 2
ENDMDL
