MODEL 1
REMARK VINA RESULT: -5.412226741      0.000      0.000
REMARK  4 active torsions:
REMARK  status: ('A' for Active; 'I' for Inactive)
REMARK    1  A    between atoms: C2_2  and  C10_15 
REMARK    2  A    between atoms: N1_3  and  N2_5 
REMARK       I    between atoms: N2_5  and  C3_7 
REMARK    3  A    between atoms: C3_7  and  C4_9 
REMARK    4  A    between atoms: C10_15  and  C13_18 
ROOT
HETATM    1  C1  UNL     1      -5.713  -0.265 -24.528  1.00  0.00     0.066 C 
HETATM    2  C2  UNL     1      -5.831   0.547 -23.304  1.00  0.00     0.008 C 
HETATM    3  N1  UNL     1      -5.941  -0.074 -22.187  1.00  0.00    -0.306 N 
ATOM      4  H1  UNL     1      -6.023   0.489 -21.341  1.00  0.00     0.186 HD
ENDROOT
BRANCH   3   5
HETATM    5  N2  UNL     1      -5.957  -1.448 -22.044  1.00  0.00    -0.270 N 
HETATM    6  C3  UNL     1      -5.930  -2.093 -20.781  1.00  0.00     0.240 C 
HETATM    7  O1  UNL     1      -5.889  -1.423 -19.720  1.00  0.00    -0.271 OA
ATOM      8  H2  UNL     1      -5.991  -2.025 -22.884  1.00  0.00     0.190 HD
BRANCH   6   9
HETATM    9  C4  UNL     1      -5.949  -3.570 -20.663  1.00  0.00     0.079 C 
HETATM   10  C5  UNL     1      -7.166  -4.137 -21.349  1.00  0.00     0.014 C 
HETATM   11  C6  UNL     1      -8.393  -4.112 -20.480  1.00  0.00     0.001 C 
HETATM   12  C7  UNL     1      -8.101  -4.956 -19.257  1.00  0.00     0.000 C 
HETATM   13  C8  UNL     1      -7.000  -4.285 -18.494  1.00  0.00     0.001 C 
HETATM   14  C9  UNL     1      -5.755  -4.053 -19.271  1.00  0.00     0.014 C 
ENDBRANCH   6   9
ENDBRANCH   3   5
BRANCH   2  15
HETATM   15  C10 UNL     1      -5.826   2.003 -23.325  1.00  0.00    -0.001 C 
HETATM   16  C11 UNL     1      -5.532   2.579 -21.930  1.00  0.00     0.022 C 
HETATM   17  C12 UNL     1      -4.669   2.458 -24.203  1.00  0.00     0.022 C 
BRANCH  15  18
HETATM   18  C13 UNL     1      -7.076   2.667 -23.797  1.00  0.00    -0.039 C 
HETATM   19  C14 UNL     1      -7.191   2.894 -25.263  1.00  0.00     0.015 C 
HETATM   20  C15 UNL     1      -8.328   1.943 -23.333  1.00  0.00     0.015 C 
HETATM   21  C16 UNL     1      -7.120   4.050 -23.134  1.00  0.00     0.015 C 
ENDBRANCH  15  18
ENDBRANCH   2  15
TORSDOF 4
ENDMDL
MODEL 2
REMARK VINA RESULT: -5.393484763      4.320      7.994
REMARK  4 active torsions:
REMARK  status: ('A' for Active; 'I' for Inactive)
REMARK    1  A    between atoms: C2_2  and  C10_15 
REMARK    2  A    between atoms: N1_3  and  N2_5 
REMARK       I    between atoms: N2_5  and  C3_7 
REMARK    3  A    between atoms: C3_7  and  C4_9 
REMARK    4  A    between atoms: C10_15  and  C13_18 
ROOT
HETATM    1  C1  UNL     1      -4.093   1.738 -25.682  1.00  0.00     0.066 C 
HETATM    2  C2  UNL     1      -5.423   1.343 -25.184  1.00  0.00     0.008 C 
HETATM    3  N1  UNL     1      -6.243   0.825 -26.023  1.00  0.00    -0.306 N 
ATOM      4  H1  UNL     1      -7.162   0.552 -25.677  1.00  0.00     0.186 HD
ENDROOT
BRANCH   3   5
HETATM    5  N2  UNL     1      -5.974   0.610 -27.361  1.00  0.00    -0.270 N 
HETATM    6  C3  UNL     1      -6.576   1.365 -28.400  1.00  0.00     0.240 C 
HETATM    7  O1  UNL     1      -7.394   2.280 -28.137  1.00  0.00    -0.271 OA
ATOM      8  H2  UNL     1      -5.314  -0.125 -27.614  1.00  0.00     0.190 HD
BRANCH   6   9
HETATM    9  C4  UNL     1      -6.265   1.108 -29.827  1.00  0.00     0.079 C 
HETATM   10  C5  UNL     1      -4.774   1.108 -30.049  1.00  0.00     0.014 C 
HETATM   11  C6  UNL     1      -4.210   2.489 -30.237  1.00  0.00     0.001 C 
HETATM   12  C7  UNL     1      -4.873   3.087 -31.460  1.00  0.00     0.000 C 
HETATM   13  C8  UNL     1      -6.332   3.238 -31.159  1.00  0.00     0.001 C 
HETATM   14  C9  UNL     1      -7.020   1.984 -30.761  1.00  0.00     0.014 C 
ENDBRANCH   6   9
ENDBRANCH   3   5
BRANCH   2  15
HETATM   15  C10 UNL     1      -5.823   1.519 -23.795  1.00  0.00    -0.001 C 
HETATM   16  C11 UNL     1      -6.463   0.238 -23.234  1.00  0.00     0.022 C 
HETATM   17  C12 UNL     1      -4.566   1.738 -22.965  1.00  0.00     0.022 C 
BRANCH  15  18
HETATM   18  C13 UNL     1      -6.783   2.625 -23.513  1.00  0.00    -0.039 C 
HETATM   19  C14 UNL     1      -6.992   3.614 -24.605  1.00  0.00     0.015 C 
HETATM   20  C15 UNL     1      -8.145   2.113 -23.074  1.00  0.00     0.015 C 
HETATM   21  C16 UNL     1      -6.222   3.405 -22.316  1.00  0.00     0.015 C 
ENDBRANCH  15  18
ENDBRANCH   2  15
TORSDOF 4
ENDMDL
MODEL 3
REMARK VINA RESULT: -5.340048842      4.474      8.355
REMARK  4 active torsions:
REMARK  status: ('A' for Active; 'I' for Inactive)
REMARK    1  A    between atoms: C2_2  and  C10_15 
REMARK    2  A    between atoms: N1_3  and  N2_5 
REMARK       I    between atoms: N2_5  and  C3_7 
REMARK    3  A    between atoms: C3_7  and  C4_9 
REMARK    4  A    between atoms: C10_15  and  C13_18 
ROOT
HETATM    1  C1  UNL     1      -7.706   0.358 -25.707  1.00  0.00     0.066 C 
HETATM    2  C2  UNL     1      -7.245   1.722 -25.392  1.00  0.00     0.008 C 
HETATM    3  N1  UNL     1      -6.931   2.485 -26.374  1.00  0.00    -0.306 N 
ATOM      4  H1  UNL     1      -6.612   3.428 -26.155  1.00  0.00     0.186 HD
ENDROOT
BRANCH   3   5
HETATM    5  N2  UNL     1      -6.992   2.125 -27.707  1.00  0.00    -0.270 N 
HETATM    6  C3  UNL     1      -5.858   1.699 -28.443  1.00  0.00     0.240 C 
HETATM    7  O1  UNL     1      -4.728   1.631 -27.899  1.00  0.00    -0.271 OA
ATOM      8  H2  UNL     1      -7.893   2.168 -28.182  1.00  0.00     0.190 HD
BRANCH   6   9
HETATM    9  C4  UNL     1      -5.957   1.319 -29.872  1.00  0.00     0.079 C 
HETATM   10  C5  UNL     1      -4.602   1.388 -30.530  1.00  0.00     0.014 C 
HETATM   11  C6  UNL     1      -4.244   2.775 -30.987  1.00  0.00     0.001 C 
HETATM   12  C7  UNL     1      -5.286   3.204 -31.998  1.00  0.00     0.000 C 
HETATM   13  C8  UNL     1      -6.601   3.294 -31.286  1.00  0.00     0.001 C 
HETATM   14  C9  UNL     1      -7.027   2.046 -30.603  1.00  0.00     0.014 C 
ENDBRANCH   6   9
ENDBRANCH   3   5
BRANCH   2  15
HETATM   15  C10 UNL     1      -7.140   2.218 -24.027  1.00  0.00    -0.001 C 
HETATM   16  C11 UNL     1      -7.217   3.753 -23.986  1.00  0.00     0.022 C 
HETATM   17  C12 UNL     1      -8.355   1.731 -23.252  1.00  0.00     0.022 C 
BRANCH  15  18
HETATM   18  C13 UNL     1      -5.908   1.840 -23.274  1.00  0.00    -0.039 C 
HETATM   19  C14 UNL     1      -5.943   0.535 -22.562  1.00  0.00     0.015 C 
HETATM   20  C15 UNL     1      -4.664   1.869 -24.146  1.00  0.00     0.015 C 
HETATM   21  C16 UNL     1      -5.695   2.919 -22.203  1.00  0.00     0.015 C 
ENDBRANCH  15  18
ENDBRANCH   2  15
TORSDOF 4
ENDMDL
MODEL 4
REMARK VINA RESULT: -5.270874135      1.826      6.934
REMARK  4 active torsions:
REMARK  status: ('A' for Active; 'I' for Inactive)
REMARK    1  A    between atoms: C2_2  and  C10_15 
REMARK    2  A    between atoms: N1_3  and  N2_5 
REMARK       I    between atoms: N2_5  and  C3_7 
REMARK    3  A    between atoms: C3_7  and  C4_9 
REMARK    4  A    between atoms: C10_15  and  C13_18 
ROOT
HETATM    1  C1  UNL     1      -5.918  -0.504 -20.893  1.00  0.00     0.066 C 
HETATM    2  C2  UNL     1      -5.578  -1.666 -21.735  1.00  0.00     0.008 C 
HETATM    3  N1  UNL     1      -5.215  -1.438 -22.944  1.00  0.00    -0.306 N 
ATOM      4  H1  UNL     1      -4.980  -2.242 -23.525  1.00  0.00     0.186 HD
ENDROOT
BRANCH   3   5
HETATM    5  N2  UNL     1      -5.119  -0.185 -23.518  1.00  0.00    -0.270 N 
HETATM    6  C3  UNL     1      -6.088   0.329 -24.415  1.00  0.00     0.240 C 
HETATM    7  O1  UNL     1      -7.096  -0.351 -24.730  1.00  0.00    -0.271 OA
ATOM      8  H2  UNL     1      -4.313   0.396 -23.286  1.00  0.00     0.190 HD
BRANCH   6   9
HETATM    9  C4  UNL     1      -5.955   1.678 -25.014  1.00  0.00     0.079 C 
HETATM   10  C5  UNL     1      -5.279   2.618 -24.048  1.00  0.00     0.014 C 
HETATM   11  C6  UNL     1      -6.231   3.220 -23.053  1.00  0.00     0.001 C 
HETATM   12  C7  UNL     1      -7.267   4.003 -23.832  1.00  0.00     0.000 C 
HETATM   13  C8  UNL     1      -8.045   3.029 -24.662  1.00  0.00     0.001 C 
HETATM   14  C9  UNL     1      -7.225   2.200 -25.582  1.00  0.00     0.014 C 
ENDBRANCH   6   9
ENDBRANCH   3   5
BRANCH   2  15
HETATM   15  C10 UNL     1      -5.640  -3.035 -21.243  1.00  0.00    -0.001 C 
HETATM   16  C11 UNL     1      -6.994  -3.325 -20.575  1.00  0.00     0.022 C 
HETATM   17  C12 UNL     1      -5.572  -3.971 -22.440  1.00  0.00     0.022 C 
BRANCH  15  18
HETATM   18  C13 UNL     1      -4.593  -3.438 -20.259  1.00  0.00    -0.039 C 
HETATM   19  C14 UNL     1      -3.250  -2.825 -20.436  1.00  0.00     0.015 C 
HETATM   20  C15 UNL     1      -5.030  -3.212 -18.822  1.00  0.00     0.015 C 
HETATM   21  C16 UNL     1      -4.407  -4.955 -20.407  1.00  0.00     0.015 C 
ENDBRANCH  15  18
ENDBRANCH   2  15
TORSDOF 4
ENDMDL
MODEL 5
REMARK VINA RESULT: -5.266333647      5.234      7.805
REMARK  4 active torsions:
REMARK  status: ('A' for Active; 'I' for Inactive)
REMARK    1  A    between atoms: C2_2  and  C10_15 
REMARK    2  A    between atoms: N1_3  and  N2_5 
REMARK       I    between atoms: N2_5  and  C3_7 
REMARK    3  A    between atoms: C3_7  and  C4_9 
REMARK    4  A    between atoms: C10_15  and  C13_18 
ROOT
HETATM    1  C1  UNL     1      -7.237   0.206 -29.659  1.00  0.00     0.066 C 
HETATM    2  C2  UNL     1      -6.760   1.587 -29.856  1.00  0.00     0.008 C 
HETATM    3  N1  UNL     1      -6.882   2.404 -28.874  1.00  0.00    -0.306 N 
ATOM      4  H1  UNL     1      -6.551   3.359 -29.012  1.00  0.00     0.186 HD
ENDROOT
BRANCH   3   5
HETATM    5  N2  UNL     1      -7.427   2.088 -27.645  1.00  0.00    -0.270 N 
HETATM    6  C3  UNL     1      -6.643   1.700 -26.530  1.00  0.00     0.240 C 
HETATM    7  O1  UNL     1      -5.393   1.627 -26.619  1.00  0.00    -0.271 OA
ATOM      8  H2  UNL     1      -8.440   2.136 -27.535  1.00  0.00     0.190 HD
BRANCH   6   9
HETATM    9  C4  UNL     1      -7.261   1.368 -25.224  1.00  0.00     0.079 C 
HETATM   10  C5  UNL     1      -8.352   2.353 -24.892  1.00  0.00     0.014 C 
HETATM   11  C6  UNL     1      -7.832   3.612 -24.257  1.00  0.00     0.001 C 
HETATM   12  C7  UNL     1      -7.139   3.218 -22.969  1.00  0.00     0.000 C 
HETATM   13  C8  UNL     1      -5.954   2.376 -23.328  1.00  0.00     0.001 C 
HETATM   14  C9  UNL     1      -6.268   1.170 -24.136  1.00  0.00     0.014 C 
ENDBRANCH   6   9
ENDBRANCH   3   5
BRANCH   2  15
HETATM   15  C10 UNL     1      -6.166   2.040 -31.106  1.00  0.00    -0.001 C 
HETATM   16  C11 UNL     1      -6.697   1.229 -32.300  1.00  0.00     0.022 C 
HETATM   17  C12 UNL     1      -6.621   3.471 -31.355  1.00  0.00     0.022 C 
BRANCH  15  18
HETATM   18  C13 UNL     1      -4.678   1.988 -31.194  1.00  0.00    -0.039 C 
HETATM   19  C14 UNL     1      -3.937   2.038 -29.905  1.00  0.00     0.015 C 
HETATM   20  C15 UNL     1      -4.184   0.781 -31.974  1.00  0.00     0.015 C 
HETATM   21  C16 UNL     1      -4.238   3.218 -32.001  1.00  0.00     0.015 C 
ENDBRANCH  15  18
ENDBRANCH   2  15
TORSDOF 4
ENDMDL
