MODEL 1
REMARK VINA RESULT: -8.631847561      0.000      0.000
REMARK  10 active torsions:
REMARK  status: ('A' for Active; 'I' for Inactive)
REMARK    1  A    between atoms: C2_2  and  N1_3 
REMARK    2  A    between atoms: N1_3  and  C3_4 
REMARK    3  A    between atoms: N1_3  and  C5_6 
REMARK    4  A    between atoms: C5_6  and  C6_7 
REMARK    5  A    between atoms: C6_7  and  C7_8 
REMARK    6  A    between atoms: C9_12  and  C10_13 
REMARK    7  A    between atoms: N2_14  and  C11_16 
REMARK    8  A    between atoms: C14_20  and  O3_21 
REMARK    9  A    between atoms: C18_27  and  C19_28 
REMARK   10  A    between atoms: C19_28  and  O4_29 
ROOT
HETATM    1  C7  UNL     1      -1.759  -1.485 -21.289  1.00  0.00     0.139 C 
HETATM    2  O1  UNL     1      -1.448  -2.873 -21.450  1.00  0.00    -0.315 OA
HETATM    3  C8  UNL     1      -0.356  -3.435 -20.822  1.00  0.00     0.268 C 
HETATM    4  O2  UNL     1      -0.445  -4.529 -20.238  1.00  0.00    -0.264 OA
HETATM    5  C9  UNL     1       0.931  -2.715 -20.850  1.00  0.00     0.124 C 
HETATM    6  C17 UNL     1       0.669  -1.225 -20.749  1.00  0.00     0.029 C 
HETATM    7  C18 UNL     1      -0.741  -0.883 -20.378  1.00  0.00     0.040 C 
ENDROOT
BRANCH   5   8
HETATM    8  C10 UNL     1       1.530  -2.950 -22.189  1.00  0.00     0.076 C 
HETATM    9  N2  UNL     1       2.782  -2.955 -22.352  1.00  0.00    -0.369 N 
ATOM     10  H2  UNL     1       3.105  -3.124 -23.305  1.00  0.00     0.165 HD
BRANCH   9  11
HETATM   11  C11 UNL     1       3.792  -2.756 -21.388  1.00  0.00     0.034 A 
HETATM   12  C12 UNL     1       5.082  -3.248 -21.588  1.00  0.00     0.051 A 
HETATM   13  C13 UNL     1       6.096  -3.074 -20.666  1.00  0.00     0.047 A 
HETATM   14 BR1  UNL     1       7.855  -3.763 -20.981  1.00  0.00    -0.048 Br
HETATM   15  C14 UNL     1       5.856  -2.393 -19.488  1.00  0.00     0.100 A 
HETATM   16  C15 UNL     1       4.583  -1.906 -19.285  1.00  0.00     0.047 A 
HETATM   17 BR2  UNL     1       4.247  -0.958 -17.648  1.00  0.00    -0.048 Br
HETATM   18  C16 UNL     1       3.565  -2.078 -20.210  1.00  0.00     0.051 A 
BRANCH  15  19
HETATM   19  O3  UNL     1       6.852  -2.197 -18.528  1.00  0.00    -0.358 OA
ATOM     20  H3  UNL     1       6.660  -1.847 -17.667  1.00  0.00     0.217 HD
ENDBRANCH  15  19
ENDBRANCH   9  11
ENDBRANCH   5   8
BRANCH   7  21
HETATM   21  C19 UNL     1      -0.853   0.641 -20.543  1.00  0.00     0.171 C 
BRANCH  21  22
HETATM   22  O4  UNL     1       0.269   1.018 -21.314  1.00  0.00    -0.400 OA
ATOM     23  H4  UNL     1      -0.084   1.301 -22.150  1.00  0.00     0.209 HD
ENDBRANCH  21  22
ENDBRANCH   7  21
BRANCH   1  24
HETATM   24  C6  UNL     1      -3.180  -1.379 -20.719  1.00  0.00     0.063 C 
BRANCH  24  25
HETATM   25  C5  UNL     1      -3.521  -2.777 -20.261  1.00  0.00     0.275 C 
BRANCH  25  26
HETATM   26  N1  UNL     1      -4.236  -2.862 -19.037  1.00  0.00     0.087 N 
BRANCH  26  27
HETATM   27  C2  UNL     1      -5.444  -2.065 -19.015  1.00  0.00     0.268 C 
HETATM   28  C1  UNL     1      -5.782  -1.714 -17.584  1.00  0.00     0.037 C 
ENDBRANCH  26  27
BRANCH  26  29
HETATM   29  C3  UNL     1      -4.411  -4.168 -18.495  1.00  0.00     0.268 C 
HETATM   30  C4  UNL     1      -5.500  -4.909 -19.222  1.00  0.00     0.037 C 
ENDBRANCH  26  29
ENDBRANCH  25  26
ENDBRANCH  24  25
ENDBRANCH   1  24
TORSDOF 10
ENDMDL
MODEL 2
REMARK VINA RESULT: -8.597992524      0.954      1.501
REMARK  10 active torsions:
REMARK  status: ('A' for Active; 'I' for Inactive)
REMARK    1  A    between atoms: C2_2  and  N1_3 
REMARK    2  A    between atoms: N1_3  and  C3_4 
REMARK    3  A    between atoms: N1_3  and  C5_6 
REMARK    4  A    between atoms: C5_6  and  C6_7 
REMARK    5  A    between atoms: C6_7  and  C7_8 
REMARK    6  A    between atoms: C9_12  and  C10_13 
REMARK    7  A    between atoms: N2_14  and  C11_16 
REMARK    8  A    between atoms: C14_20  and  O3_21 
REMARK    9  A    between atoms: C18_27  and  C19_28 
REMARK   10  A    between atoms: C19_28  and  O4_29 
ROOT
HETATM    1  C7  UNL     1      -2.741  -1.742 -21.296  1.00  0.00     0.139 C 
HETATM    2  O1  UNL     1      -2.258  -3.086 -21.401  1.00  0.00    -0.315 OA
HETATM    3  C8  UNL     1      -1.054  -3.456 -20.838  1.00  0.00     0.268 C 
HETATM    4  O2  UNL     1      -0.949  -4.509 -20.184  1.00  0.00    -0.264 OA
HETATM    5  C9  UNL     1       0.117  -2.578 -21.021  1.00  0.00     0.124 C 
HETATM    6  C17 UNL     1      -0.335  -1.132 -20.986  1.00  0.00     0.029 C 
HETATM    7  C18 UNL     1      -1.745  -0.950 -20.515  1.00  0.00     0.040 C 
ENDROOT
BRANCH   5   8
HETATM    8  C10 UNL     1       0.636  -2.828 -22.390  1.00  0.00     0.076 C 
HETATM    9  N2  UNL     1       1.875  -2.920 -22.613  1.00  0.00    -0.369 N 
ATOM     10  H2  UNL     1       2.141  -3.091 -23.582  1.00  0.00     0.165 HD
BRANCH   9  11
HETATM   11  C11 UNL     1       2.940  -2.815 -21.694  1.00  0.00     0.034 A 
HETATM   12  C12 UNL     1       4.240  -3.168 -22.058  1.00  0.00     0.051 A 
HETATM   13  C13 UNL     1       5.307  -3.081 -21.185  1.00  0.00     0.047 A 
HETATM   14 BR1  UNL     1       7.077  -3.573 -21.726  1.00  0.00    -0.048 Br
HETATM   15  C14 UNL     1       5.113  -2.632 -19.892  1.00  0.00     0.100 A 
HETATM   16  C15 UNL     1       3.831  -2.283 -19.528  1.00  0.00     0.047 A 
HETATM   17 BR2  UNL     1       3.560  -1.658 -17.730  1.00  0.00    -0.048 Br
HETATM   18  C16 UNL     1       2.760  -2.369 -20.402  1.00  0.00     0.051 A 
BRANCH  15  19
HETATM   19  O3  UNL     1       6.164  -2.531 -18.977  1.00  0.00    -0.358 OA
ATOM     20  H3  UNL     1       6.630  -3.294 -18.659  1.00  0.00     0.217 HD
ENDBRANCH  15  19
ENDBRANCH   9  11
ENDBRANCH   5   8
BRANCH   7  21
HETATM   21  C19 UNL     1      -2.075   0.530 -20.760  1.00  0.00     0.171 C 
BRANCH  21  22
HETATM   22  O4  UNL     1      -0.966   1.249 -20.262  1.00  0.00    -0.400 OA
ATOM     23  H4  UNL     1      -1.336   1.964 -19.757  1.00  0.00     0.209 HD
ENDBRANCH  21  22
ENDBRANCH   7  21
BRANCH   1  24
HETATM   24  C6  UNL     1      -4.114  -1.782 -20.612  1.00  0.00     0.063 C 
BRANCH  24  25
HETATM   25  C5  UNL     1      -3.845  -2.329 -19.230  1.00  0.00     0.275 C 
BRANCH  25  26
HETATM   26  N1  UNL     1      -4.978  -2.837 -18.542  1.00  0.00     0.087 N 
BRANCH  26  27
HETATM   27  C2  UNL     1      -4.925  -4.267 -18.317  1.00  0.00     0.268 C 
HETATM   28  C1  UNL     1      -5.646  -4.974 -19.441  1.00  0.00     0.037 C 
ENDBRANCH  26  27
BRANCH  26  29
HETATM   29  C3  UNL     1      -5.410  -2.101 -17.402  1.00  0.00     0.268 C 
HETATM   30  C4  UNL     1      -5.816  -3.027 -16.287  1.00  0.00     0.037 C 
ENDBRANCH  26  29
ENDBRANCH  25  26
ENDBRANCH  24  25
ENDBRANCH   1  24
TORSDOF 10
ENDMDL
MODEL 3
REMARK VINA RESULT: -8.565864664      0.960      2.318
REMARK  10 active torsions:
REMARK  status: ('A' for Active; 'I' for Inactive)
REMARK    1  A    between atoms: C2_2  and  N1_3 
REMARK    2  A    between atoms: N1_3  and  C3_4 
REMARK    3  A    between atoms: N1_3  and  C5_6 
REMARK    4  A    between atoms: C5_6  and  C6_7 
REMARK    5  A    between atoms: C6_7  and  C7_8 
REMARK    6  A    between atoms: C9_12  and  C10_13 
REMARK    7  A    between atoms: N2_14  and  C11_16 
REMARK    8  A    between atoms: C14_20  and  O3_21 
REMARK    9  A    between atoms: C18_27  and  C19_28 
REMARK   10  A    between atoms: C19_28  and  O4_29 
ROOT
HETATM    1  C7  UNL     1      -2.752  -1.723 -21.270  1.00  0.00     0.139 C 
HETATM    2  O1  UNL     1      -2.261  -3.061 -21.402  1.00  0.00    -0.315 OA
HETATM    3  C8  UNL     1      -1.050  -3.431 -20.854  1.00  0.00     0.268 C 
HETATM    4  O2  UNL     1      -0.932  -4.495 -20.219  1.00  0.00    -0.264 OA
HETATM    5  C9  UNL     1       0.114  -2.543 -21.031  1.00  0.00     0.124 C 
HETATM    6  C17 UNL     1      -0.348  -1.100 -20.968  1.00  0.00     0.029 C 
HETATM    7  C18 UNL     1      -1.756  -0.937 -20.483  1.00  0.00     0.040 C 
ENDROOT
BRANCH   5   8
HETATM    8  C10 UNL     1       0.623  -2.765 -22.408  1.00  0.00     0.076 C 
HETATM    9  N2  UNL     1       1.860  -2.872 -22.637  1.00  0.00    -0.369 N 
ATOM     10  H2  UNL     1       2.120  -3.023 -23.612  1.00  0.00     0.165 HD
BRANCH   9  11
HETATM   11  C11 UNL     1       2.929  -2.810 -21.720  1.00  0.00     0.034 A 
HETATM   12  C12 UNL     1       2.725  -2.384 -20.407  1.00  0.00     0.051 A 
HETATM   13  C13 UNL     1       3.749  -2.309 -19.481  1.00  0.00     0.047 A 
HETATM   14 BR1  UNL     1       3.424  -1.722 -17.687  1.00  0.00    -0.048 Br
HETATM   15  C14 UNL     1       5.037  -2.660 -19.838  1.00  0.00     0.100 A 
HETATM   16  C15 UNL     1       5.244  -3.080 -21.134  1.00  0.00     0.047 A 
HETATM   17 BR2  UNL     1       7.035  -3.569 -21.632  1.00  0.00    -0.048 Br
HETATM   18  C16 UNL     1       4.218  -3.158 -22.063  1.00  0.00     0.051 A 
BRANCH  15  19
HETATM   19  O3  UNL     1       6.100  -2.596 -18.934  1.00  0.00    -0.358 OA
ATOM     20  H3  UNL     1       6.947  -2.241 -19.176  1.00  0.00     0.217 HD
ENDBRANCH  15  19
ENDBRANCH   9  11
ENDBRANCH   5   8
BRANCH   7  21
HETATM   21  C19 UNL     1      -2.099   0.545 -20.700  1.00  0.00     0.171 C 
BRANCH  21  22
HETATM   22  O4  UNL     1      -0.862   1.226 -20.653  1.00  0.00    -0.400 OA
ATOM     23  H4  UNL     1      -0.213   0.590 -20.930  1.00  0.00     0.209 HD
ENDBRANCH  21  22
ENDBRANCH   7  21
BRANCH   1  24
HETATM   24  C6  UNL     1      -4.120  -1.784 -20.576  1.00  0.00     0.063 C 
BRANCH  24  25
HETATM   25  C5  UNL     1      -3.829  -2.302 -19.187  1.00  0.00     0.275 C 
BRANCH  25  26
HETATM   26  N1  UNL     1      -4.938  -2.862 -18.499  1.00  0.00     0.087 N 
BRANCH  26  27
HETATM   27  C2  UNL     1      -4.854  -4.298 -18.338  1.00  0.00     0.268 C 
HETATM   28  C1  UNL     1      -5.611  -4.969 -19.461  1.00  0.00     0.037 C 
ENDBRANCH  26  27
BRANCH  26  29
HETATM   29  C3  UNL     1      -5.358  -2.185 -17.319  1.00  0.00     0.268 C 
HETATM   30  C4  UNL     1      -5.803  -3.164 -16.267  1.00  0.00     0.037 C 
ENDBRANCH  26  29
ENDBRANCH  25  26
ENDBRANCH  24  25
ENDBRANCH   1  24
TORSDOF 10
ENDMDL
MODEL 4
REMARK VINA RESULT: -8.560585867      0.086      1.789
REMARK  10 active torsions:
REMARK  status: ('A' for Active; 'I' for Inactive)
REMARK    1  A    between atoms: C2_2  and  N1_3 
REMARK    2  A    between atoms: N1_3  and  C3_4 
REMARK    3  A    between atoms: N1_3  and  C5_6 
REMARK    4  A    between atoms: C5_6  and  C6_7 
REMARK    5  A    between atoms: C6_7  and  C7_8 
REMARK    6  A    between atoms: C9_12  and  C10_13 
REMARK    7  A    between atoms: N2_14  and  C11_16 
REMARK    8  A    between atoms: C14_20  and  O3_21 
REMARK    9  A    between atoms: C18_27  and  C19_28 
REMARK   10  A    between atoms: C19_28  and  O4_29 
ROOT
HETATM    1  C7  UNL     1      -1.694  -1.481 -21.280  1.00  0.00     0.139 C 
HETATM    2  O1  UNL     1      -1.353  -2.863 -21.437  1.00  0.00    -0.315 OA
HETATM    3  C8  UNL     1      -0.240  -3.395 -20.822  1.00  0.00     0.268 C 
HETATM    4  O2  UNL     1      -0.295  -4.488 -20.230  1.00  0.00    -0.264 OA
HETATM    5  C9  UNL     1       1.030  -2.646 -20.874  1.00  0.00     0.124 C 
HETATM    6  C17 UNL     1       0.736  -1.162 -20.778  1.00  0.00     0.029 C 
HETATM    7  C18 UNL     1      -0.676  -0.850 -20.388  1.00  0.00     0.040 C 
ENDROOT
BRANCH   5   8
HETATM    8  C10 UNL     1       1.615  -2.877 -22.220  1.00  0.00     0.076 C 
HETATM    9  N2  UNL     1       2.865  -2.913 -22.392  1.00  0.00    -0.369 N 
ATOM     10  H2  UNL     1       3.177  -3.076 -23.349  1.00  0.00     0.165 HD
BRANCH   9  11
HETATM   11  C11 UNL     1       3.885  -2.756 -21.431  1.00  0.00     0.034 A 
HETATM   12  C12 UNL     1       3.652  -2.067 -20.241  1.00  0.00     0.051 A 
HETATM   13  C13 UNL     1       4.628  -1.892 -19.278  1.00  0.00     0.047 A 
HETATM   14 BR1  UNL     1       4.263  -0.942 -17.656  1.00  0.00    -0.048 Br
HETATM   15  C14 UNL     1       5.896  -2.405 -19.472  1.00  0.00     0.100 A 
HETATM   16  C15 UNL     1       6.132  -3.086 -20.646  1.00  0.00     0.047 A 
HETATM   17 BR2  UNL     1       7.895  -3.801 -20.918  1.00  0.00    -0.048 Br
HETATM   18  C16 UNL     1       5.154  -3.263 -21.612  1.00  0.00     0.051 A 
BRANCH  15  19
HETATM   19  O3  UNL     1       6.911  -2.249 -18.525  1.00  0.00    -0.358 OA
ATOM     20  H3  UNL     1       6.752  -1.857 -17.675  1.00  0.00     0.217 HD
ENDBRANCH  15  19
ENDBRANCH   9  11
ENDBRANCH   5   8
BRANCH   7  21
HETATM   21  C19 UNL     1      -0.826   0.669 -20.561  1.00  0.00     0.171 C 
BRANCH  21  22
HETATM   22  O4  UNL     1       0.289   1.071 -21.331  1.00  0.00    -0.400 OA
ATOM     23  H4  UNL     1       0.255   0.540 -22.119  1.00  0.00     0.209 HD
ENDBRANCH  21  22
ENDBRANCH   7  21
BRANCH   1  24
HETATM   24  C6  UNL     1      -3.108  -1.403 -20.689  1.00  0.00     0.063 C 
BRANCH  24  25
HETATM   25  C5  UNL     1      -3.402  -2.801 -20.199  1.00  0.00     0.275 C 
BRANCH  25  26
HETATM   26  N1  UNL     1      -4.166  -2.882 -19.005  1.00  0.00     0.087 N 
BRANCH  26  27
HETATM   27  C2  UNL     1      -5.357  -2.057 -19.022  1.00  0.00     0.268 C 
HETATM   28  C1  UNL     1      -5.749  -1.723 -17.601  1.00  0.00     0.037 C 
ENDBRANCH  26  27
BRANCH  26  29
HETATM   29  C3  UNL     1      -4.392  -4.189 -18.485  1.00  0.00     0.268 C 
HETATM   30  C4  UNL     1      -5.478  -4.892 -19.252  1.00  0.00     0.037 C 
ENDBRANCH  26  29
ENDBRANCH  25  26
ENDBRANCH  24  25
ENDBRANCH   1  24
TORSDOF 10
ENDMDL
MODEL 5
REMARK VINA RESULT: -8.487230567      3.630      8.388
REMARK  10 active torsions:
REMARK  status: ('A' for Active; 'I' for Inactive)
REMARK    1  A    between atoms: C2_2  and  N1_3 
REMARK    2  A    between atoms: N1_3  and  C3_4 
REMARK    3  A    between atoms: N1_3  and  C5_6 
REMARK    4  A    between atoms: C5_6  and  C6_7 
REMARK    5  A    between atoms: C6_7  and  C7_8 
REMARK    6  A    between atoms: C9_12  and  C10_13 
REMARK    7  A    between atoms: N2_14  and  C11_16 
REMARK    8  A    between atoms: C14_20  and  O3_21 
REMARK    9  A    between atoms: C18_27  and  C19_28 
REMARK   10  A    between atoms: C19_28  and  O4_29 
ROOT
HETATM    1  C7  UNL     1       2.541  -1.956 -21.516  1.00  0.00     0.139 C 
HETATM    2  O1  UNL     1       2.168  -1.144 -20.397  1.00  0.00    -0.315 OA
HETATM    3  C8  UNL     1       1.039  -1.428 -19.658  1.00  0.00     0.268 C 
HETATM    4  O2  UNL     1       1.065  -1.408 -18.414  1.00  0.00    -0.264 OA
HETATM    5  C9  UNL     1      -0.212  -1.759 -20.366  1.00  0.00     0.124 C 
HETATM    6  C17 UNL     1       0.118  -2.568 -21.605  1.00  0.00     0.029 C 
HETATM    7  C18 UNL     1       1.535  -3.050 -21.653  1.00  0.00     0.040 C 
ENDROOT
BRANCH   5   8
HETATM    8  C10 UNL     1      -0.795  -0.478 -20.838  1.00  0.00     0.076 C 
HETATM    9  N2  UNL     1      -2.041  -0.347 -20.999  1.00  0.00    -0.369 N 
ATOM     10  H2  UNL     1      -2.352   0.568 -21.326  1.00  0.00     0.165 HD
BRANCH   9  11
HETATM   11  C11 UNL     1      -3.056  -1.301 -20.784  1.00  0.00     0.034 A 
HETATM   12  C12 UNL     1      -4.110  -1.444 -21.688  1.00  0.00     0.051 A 
HETATM   13  C13 UNL     1      -5.123  -2.366 -21.510  1.00  0.00     0.047 A 
HETATM   14 BR1  UNL     1      -6.549  -2.532 -22.777  1.00  0.00    -0.048 Br
HETATM   15  C14 UNL     1      -5.125  -3.193 -20.403  1.00  0.00     0.100 A 
HETATM   16  C15 UNL     1      -4.088  -3.055 -19.507  1.00  0.00     0.047 A 
HETATM   17 BR2  UNL     1      -4.088  -4.204 -17.966  1.00  0.00    -0.048 Br
HETATM   18  C16 UNL     1      -3.069  -2.132 -19.684  1.00  0.00     0.051 A 
BRANCH  15  19
HETATM   19  O3  UNL     1      -6.131  -4.137 -20.184  1.00  0.00    -0.358 OA
ATOM     20  H3  UNL     1      -5.985  -4.918 -19.665  1.00  0.00     0.217 HD
ENDBRANCH  15  19
ENDBRANCH   9  11
ENDBRANCH   5   8
BRANCH   7  21
HETATM   21  C19 UNL     1       1.722  -3.643 -23.058  1.00  0.00     0.171 C 
BRANCH  21  22
HETATM   22  O4  UNL     1       0.434  -3.647 -23.638  1.00  0.00    -0.400 OA
ATOM     23  H4  UNL     1       0.474  -3.011 -24.344  1.00  0.00     0.209 HD
ENDBRANCH  21  22
ENDBRANCH   7  21
BRANCH   1  24
HETATM   24  C6  UNL     1       3.955  -2.498 -21.261  1.00  0.00     0.063 C 
BRANCH  24  25
HETATM   25  C5  UNL     1       4.660  -1.401 -20.500  1.00  0.00     0.275 C 
BRANCH  25  26
HETATM   26  N1  UNL     1       5.882  -1.776 -19.880  1.00  0.00     0.087 N 
BRANCH  26  27
HETATM   27  C2  UNL     1       5.976  -1.372 -18.493  1.00  0.00     0.268 C 
HETATM   28  C1  UNL     1       4.601  -0.993 -17.991  1.00  0.00     0.037 C 
ENDBRANCH  26  27
BRANCH  26  29
HETATM   29  C3  UNL     1       6.327  -3.109 -20.111  1.00  0.00     0.268 C 
HETATM   30  C4  UNL     1       7.144  -3.611 -18.952  1.00  0.00     0.037 C 
ENDBRANCH  26  29
ENDBRANCH  25  26
ENDBRANCH  24  25
ENDBRANCH   1  24
TORSDOF 10
ENDMDL
