MODEL 1
REMARK VINA RESULT: -7.828799913      0.000      0.000
REMARK  10 active torsions:
REMARK  status: ('A' for Active; 'I' for Inactive)
REMARK    1  A    between atoms: O1_2  and  C2_3 
REMARK    2  A    between atoms: C3_6  and  C4_7 
REMARK    3  A    between atoms: C4_7  and  C5_8 
REMARK    4  A    between atoms: C9_12  and  C11_14 
REMARK    5  A    between atoms: C11_14  and  C13_16 
REMARK    6  A    between atoms: C13_16  and  N2_17 
REMARK    7  A    between atoms: C14_21  and  C15_22 
REMARK    8  A    between atoms: C20_28  and  N3_29 
REMARK    9  A    between atoms: C20_28  and  O4_34 
REMARK       I    between atoms: N3_29  and  C21_31 
REMARK   10  A    between atoms: C25_37  and  C26_38 
ROOT
HETATM    1  C5  UNL     1       6.579  -3.886 -22.203  1.00  0.00    -0.013 C 
HETATM    2  C6  UNL     1       7.071  -4.472 -23.458  1.00  0.00    -0.045 C 
HETATM    3  C7  UNL     1       6.881  -4.081 -24.697  1.00  0.00    -0.018 C 
HETATM    4  C8  UNL     1       7.452  -4.790 -25.869  1.00  0.00     0.038 C 
HETATM    5  C9  UNL     1       7.555  -6.282 -25.757  1.00  0.00    -0.025 C 
HETATM    6  C10 UNL     1       8.822  -6.678 -26.507  1.00  0.00     0.016 C 
HETATM    7  C14 UNL     1       7.539  -6.717 -24.352  1.00  0.00     0.068 C 
HETATM    8  C16 UNL     1       7.953  -5.708 -23.330  1.00  0.00    -0.006 C 
HETATM    9  C17 UNL     1       9.409  -5.377 -23.364  1.00  0.00     0.021 C 
HETATM   10  C18 UNL     1       7.627  -6.250 -21.967  1.00  0.00     0.020 C 
HETATM   11  C19 UNL     1       7.989  -5.327 -20.848  1.00  0.00     0.067 C 
HETATM   12  C20 UNL     1       7.559  -3.863 -21.087  1.00  0.00     0.161 C 
ENDROOT
BRANCH   1  13
HETATM   13  C4  UNL     1       5.702  -2.706 -22.346  1.00  0.00     0.097 C 
BRANCH  13  14
HETATM   14  C3  UNL     1       4.283  -2.850 -22.031  1.00  0.00     0.016 A 
HETATM   15  N1  UNL     1       3.498  -3.304 -23.059  1.00  0.00    -0.340 N 
HETATM   16  C2  UNL     1       2.170  -3.443 -22.950  1.00  0.00     0.148 A 
ATOM     17  H1  UNL     1       3.944  -3.546 -23.944  1.00  0.00     0.167 HD
HETATM   18  C27 UNL     1       1.508  -3.133 -21.783  1.00  0.00     0.001 A 
HETATM   19  C25 UNL     1       2.272  -2.672 -20.728  1.00  0.00     0.018 A 
HETATM   20  C28 UNL     1       0.054  -3.297 -21.701  1.00  0.00     0.053 C 
HETATM   21  C24 UNL     1       3.637  -2.542 -20.877  1.00  0.00     0.038 A 
BRANCH  16  22
HETATM   22  O1  UNL     1       1.400  -3.913 -24.028  1.00  0.00    -0.340 OA
HETATM   23  C1  UNL     1       2.034  -4.504 -25.153  1.00  0.00     0.211 C 
ENDBRANCH  16  22
BRANCH  19  24
HETATM   24  C26 UNL     1       1.597  -2.311 -19.452  1.00  0.00     0.387 C 
HETATM   25  F1  UNL     1       2.339  -2.733 -18.346  1.00  0.00    -0.209 F 
HETATM   26  F2  UNL     1       1.318  -0.967 -19.408  1.00  0.00    -0.209 F 
ENDBRANCH  19  24
ENDBRANCH  13  14
ENDBRANCH   1  13
BRANCH  12  27
HETATM   27  N3  UNL     1       6.865  -3.478 -19.852  1.00  0.00    -0.326 N 
HETATM   28  C21 UNL     1       6.906  -2.101 -19.500  1.00  0.00     0.216 C 
HETATM   29  C22 UNL     1       6.243  -1.614 -18.285  1.00  0.00     0.117 C 
HETATM   30  O3  UNL     1       7.510  -1.244 -20.215  1.00  0.00    -0.274 OA
ATOM     31  H3  UNL     1       6.379  -4.164 -19.275  1.00  0.00     0.165 HD
ENDBRANCH  12  27
BRANCH  12  32
HETATM   32  O4  UNL     1       8.676  -3.154 -21.192  1.00  0.00    -0.361 OA
HETATM   33  C23 UNL     1       9.851  -3.515 -20.655  1.00  0.00     0.205 C 
ENDBRANCH  12  32
BRANCH   7  34
HETATM   34  C15 UNL     1       8.286  -7.974 -24.078  1.00  0.00     0.237 C 
HETATM   35  O2  UNL     1       7.787  -9.088 -24.132  1.00  0.00    -0.306 OA
ENDBRANCH   7  34
BRANCH   5  36
HETATM   36  C11 UNL     1       6.428  -6.846 -26.590  1.00  0.00     0.016 C 
HETATM   37  C12 UNL     1       5.166  -7.113 -25.833  1.00  0.00     0.012 C 
BRANCH  36  38
HETATM   38  C13 UNL     1       6.822  -7.962 -27.504  1.00  0.00     0.234 C 
BRANCH  38  39
HETATM   39  N2  UNL     1       6.402  -9.255 -26.938  1.00  0.00    -0.079 N 
ATOM     40  H23 UNL     1       5.908  -9.142 -26.053  1.00  0.00     0.274 HD
ATOM     41  H22 UNL     1       5.647  -9.680 -27.478  1.00  0.00     0.274 HD
ATOM     42  H21 UNL     1       7.204  -9.879 -26.850  1.00  0.00     0.274 HD
ENDBRANCH  38  39
ENDBRANCH  36  38
ENDBRANCH   5  36
TORSDOF 10
ENDMDL
MODEL 2
REMARK VINA RESULT: -7.686620212      2.275      4.215
REMARK  10 active torsions:
REMARK  status: ('A' for Active; 'I' for Inactive)
REMARK    1  A    between atoms: O1_2  and  C2_3 
REMARK    2  A    between atoms: C3_6  and  C4_7 
REMARK    3  A    between atoms: C4_7  and  C5_8 
REMARK    4  A    between atoms: C9_12  and  C11_14 
REMARK    5  A    between atoms: C11_14  and  C13_16 
REMARK    6  A    between atoms: C13_16  and  N2_17 
REMARK    7  A    between atoms: C14_21  and  C15_22 
REMARK    8  A    between atoms: C20_28  and  N3_29 
REMARK    9  A    between atoms: C20_28  and  O4_34 
REMARK       I    between atoms: N3_29  and  C21_31 
REMARK   10  A    between atoms: C25_37  and  C26_38 
ROOT
HETATM    1  C5  UNL     1       5.731  -4.742 -23.260  1.00  0.00    -0.013 C 
HETATM    2  C6  UNL     1       4.999  -5.088 -24.487  1.00  0.00    -0.045 C 
HETATM    3  C7  UNL     1       4.322  -4.317 -25.305  1.00  0.00    -0.018 C 
HETATM    4  C8  UNL     1       3.631  -4.826 -26.516  1.00  0.00     0.038 C 
HETATM    5  C9  UNL     1       3.037  -6.199 -26.413  1.00  0.00    -0.025 C 
HETATM    6  C10 UNL     1       3.192  -6.833 -27.791  1.00  0.00     0.016 C 
HETATM    7  C14 UNL     1       3.663  -6.975 -25.331  1.00  0.00     0.068 C 
HETATM    8  C16 UNL     1       5.032  -6.553 -24.906  1.00  0.00    -0.006 C 
HETATM    9  C17 UNL     1       6.093  -6.834 -25.919  1.00  0.00     0.021 C 
HETATM   10  C18 UNL     1       5.384  -7.287 -23.642  1.00  0.00     0.020 C 
HETATM   11  C19 UNL     1       6.738  -6.947 -23.105  1.00  0.00     0.067 C 
HETATM   12  C20 UNL     1       7.035  -5.431 -23.083  1.00  0.00     0.161 C 
ENDROOT
BRANCH   1  13
HETATM   13  C4  UNL     1       5.665  -3.324 -22.853  1.00  0.00     0.097 C 
BRANCH  13  14
HETATM   14  C3  UNL     1       4.705  -2.938 -21.820  1.00  0.00     0.016 A 
HETATM   15  N1  UNL     1       5.251  -2.611 -20.606  1.00  0.00    -0.340 N 
HETATM   16  C2  UNL     1       4.506  -2.284 -19.542  1.00  0.00     0.148 A 
ATOM     17  H1  UNL     1       6.266  -2.616 -20.510  1.00  0.00     0.167 HD
HETATM   18  C27 UNL     1       3.131  -2.259 -19.607  1.00  0.00     0.001 A 
HETATM   19  C25 UNL     1       2.550  -2.584 -20.818  1.00  0.00     0.018 A 
HETATM   20  C28 UNL     1       2.350  -1.897 -18.421  1.00  0.00     0.053 C 
HETATM   21  C24 UNL     1       3.349  -2.915 -21.892  1.00  0.00     0.038 A 
BRANCH  16  22
HETATM   22  O1  UNL     1       5.104  -1.954 -18.314  1.00  0.00    -0.340 OA
HETATM   23  C1  UNL     1       6.412  -1.399 -18.283  1.00  0.00     0.211 C 
ENDBRANCH  16  22
BRANCH  19  24
HETATM   24  C26 UNL     1       1.066  -2.585 -20.929  1.00  0.00     0.387 C 
HETATM   25  F1  UNL     1       0.651  -2.166 -22.196  1.00  0.00    -0.209 F 
HETATM   26  F2  UNL     1       0.549  -3.811 -20.593  1.00  0.00    -0.209 F 
ENDBRANCH  19  24
ENDBRANCH  13  14
ENDBRANCH   1  13
BRANCH  12  27
HETATM   27  N3  UNL     1       7.529  -5.174 -21.725  1.00  0.00    -0.326 N 
HETATM   28  C21 UNL     1       8.475  -4.123 -21.578  1.00  0.00     0.216 C 
HETATM   29  C22 UNL     1       9.030  -3.786 -20.262  1.00  0.00     0.117 C 
HETATM   30  O3  UNL     1       8.875  -3.438 -22.570  1.00  0.00    -0.274 OA
ATOM     31  H3  UNL     1       7.209  -5.722 -20.926  1.00  0.00     0.165 HD
ENDBRANCH  12  27
BRANCH  12  32
HETATM   32  O4  UNL     1       8.022  -5.228 -23.946  1.00  0.00    -0.361 OA
HETATM   33  C23 UNL     1       8.896  -6.171 -24.327  1.00  0.00     0.205 C 
ENDBRANCH  12  32
BRANCH   7  34
HETATM   34  C15 UNL     1       3.688  -8.446 -25.550  1.00  0.00     0.237 C 
HETATM   35  O2  UNL     1       2.746  -9.186 -25.311  1.00  0.00    -0.306 OA
ENDBRANCH   7  34
BRANCH   5  36
HETATM   36  C11 UNL     1       1.548  -6.004 -26.250  1.00  0.00     0.016 C 
HETATM   37  C12 UNL     1       0.704  -6.933 -27.063  1.00  0.00     0.012 C 
BRANCH  36  38
HETATM   38  C13 UNL     1       1.093  -4.581 -26.307  1.00  0.00     0.234 C 
BRANCH  38  39
HETATM   39  N2  UNL     1       0.377  -4.225 -25.069  1.00  0.00    -0.079 N 
ATOM     40  H23 UNL     1      -0.495  -3.731 -25.262  1.00  0.00     0.274 HD
ATOM     41  H22 UNL     1      -0.015  -5.046 -24.607  1.00  0.00     0.274 HD
ATOM     42  H21 UNL     1       0.987  -3.694 -24.449  1.00  0.00     0.274 HD
ENDBRANCH  38  39
ENDBRANCH  36  38
ENDBRANCH   5  36
TORSDOF 10
ENDMDL
MODEL 3
REMARK VINA RESULT: -7.537732055      3.234      6.473
REMARK  10 active torsions:
REMARK  status: ('A' for Active; 'I' for Inactive)
REMARK    1  A    between atoms: O1_2  and  C2_3 
REMARK    2  A    between atoms: C3_6  and  C4_7 
REMARK    3  A    between atoms: C4_7  and  C5_8 
REMARK    4  A    between atoms: C9_12  and  C11_14 
REMARK    5  A    between atoms: C11_14  and  C13_16 
REMARK    6  A    between atoms: C13_16  and  N2_17 
REMARK    7  A    between atoms: C14_21  and  C15_22 
REMARK    8  A    between atoms: C20_28  and  N3_29 
REMARK    9  A    between atoms: C20_28  and  O4_34 
REMARK       I    between atoms: N3_29  and  C21_31 
REMARK   10  A    between atoms: C25_37  and  C26_38 
ROOT
HETATM    1  C5  UNL     1       2.650  -3.211 -21.516  1.00  0.00    -0.013 C 
HETATM    2  C6  UNL     1       4.030  -2.709 -21.463  1.00  0.00    -0.045 C 
HETATM    3  C7  UNL     1       4.873  -2.469 -22.440  1.00  0.00    -0.018 C 
HETATM    4  C8  UNL     1       6.249  -1.958 -22.219  1.00  0.00     0.038 C 
HETATM    5  C9  UNL     1       6.943  -2.437 -20.979  1.00  0.00    -0.025 C 
HETATM    6  C10 UNL     1       7.803  -1.273 -20.499  1.00  0.00     0.016 C 
HETATM    7  C14 UNL     1       5.981  -2.916 -19.976  1.00  0.00     0.068 C 
HETATM    8  C16 UNL     1       4.584  -2.392 -20.080  1.00  0.00    -0.006 C 
HETATM    9  C17 UNL     1       4.454  -0.947 -19.728  1.00  0.00     0.021 C 
HETATM   10  C18 UNL     1       3.710  -3.183 -19.146  1.00  0.00     0.020 C 
HETATM   11  C19 UNL     1       2.277  -2.759 -19.159  1.00  0.00     0.067 C 
HETATM   12  C20 UNL     1       1.701  -2.559 -20.578  1.00  0.00     0.161 C 
ENDROOT
BRANCH   1  13
HETATM   13  C4  UNL     1       2.139  -3.541 -22.862  1.00  0.00     0.097 C 
BRANCH  13  14
HETATM   14  C3  UNL     1       2.704  -4.693 -23.561  1.00  0.00     0.016 A 
HETATM   15  N1  UNL     1       1.829  -5.380 -24.361  1.00  0.00    -0.340 N 
HETATM   16  C2  UNL     1       2.175  -6.487 -25.031  1.00  0.00     0.148 A 
ATOM     17  H1  UNL     1       0.874  -5.033 -24.450  1.00  0.00     0.167 HD
HETATM   18  C27 UNL     1       3.448  -7.006 -24.951  1.00  0.00     0.001 A 
HETATM   19  C25 UNL     1       4.355  -6.336 -24.152  1.00  0.00     0.018 A 
HETATM   20  C28 UNL     1       3.791  -8.220 -25.698  1.00  0.00     0.053 C 
HETATM   21  C24 UNL     1       3.962  -5.198 -23.478  1.00  0.00     0.038 A 
BRANCH  16  22
HETATM   22  O1  UNL     1       1.248  -7.163 -25.842  1.00  0.00    -0.340 OA
HETATM   23  C1  UNL     1       0.738  -6.542 -27.013  1.00  0.00     0.211 C 
ENDBRANCH  16  22
BRANCH  19  24
HETATM   24  C26 UNL     1       5.738  -6.870 -24.026  1.00  0.00     0.387 C 
HETATM   25  F1  UNL     1       6.690  -5.895 -24.337  1.00  0.00    -0.209 F 
HETATM   26  F2  UNL     1       5.942  -7.415 -22.782  1.00  0.00    -0.209 F 
ENDBRANCH  19  24
ENDBRANCH  13  14
ENDBRANCH   1  13
BRANCH  12  27
HETATM   27  N3  UNL     1       0.442  -3.313 -20.573  1.00  0.00    -0.326 N 
HETATM   28  C21 UNL     1      -0.636  -2.761 -21.317  1.00  0.00     0.216 C 
HETATM   29  C22 UNL     1      -1.937  -3.438 -21.376  1.00  0.00     0.117 C 
HETATM   30  O3  UNL     1      -0.520  -1.669 -21.955  1.00  0.00    -0.274 OA
ATOM     31  H3  UNL     1       0.345  -4.191 -20.061  1.00  0.00     0.165 HD
ENDBRANCH  12  27
BRANCH  12  32
HETATM   32  O4  UNL     1       1.428  -1.266 -20.695  1.00  0.00    -0.361 OA
HETATM   33  C23 UNL     1       1.158  -0.456 -19.661  1.00  0.00     0.205 C 
ENDBRANCH  12  32
BRANCH   7  34
HETATM   34  C15 UNL     1       6.421  -2.761 -18.563  1.00  0.00     0.237 C 
HETATM   35  O2  UNL     1       7.157  -3.548 -17.990  1.00  0.00    -0.306 OA
ENDBRANCH   7  34
BRANCH   5  36
HETATM   36  C11 UNL     1       7.937  -3.482 -21.430  1.00  0.00     0.016 C 
HETATM   37  C12 UNL     1       7.472  -4.895 -21.268  1.00  0.00     0.012 C 
BRANCH  36  38
HETATM   38  C13 UNL     1       9.338  -3.258 -20.961  1.00  0.00     0.234 C 
BRANCH  38  39
HETATM   39  N2  UNL     1       9.693  -4.246 -19.927  1.00  0.00    -0.079 N 
ATOM     40  H23 UNL     1      10.139  -5.072 -20.326  1.00  0.00     0.274 HD
ATOM     41  H22 UNL     1      10.466  -3.926 -19.343  1.00  0.00     0.274 HD
ATOM     42  H21 UNL     1       8.872  -4.487 -19.373  1.00  0.00     0.274 HD
ENDBRANCH  38  39
ENDBRANCH  36  38
ENDBRANCH   5  36
TORSDOF 10
ENDMDL
MODEL 4
REMARK VINA RESULT: -7.509012354      2.223      3.875
REMARK  10 active torsions:
REMARK  status: ('A' for Active; 'I' for Inactive)
REMARK    1  A    between atoms: O1_2  and  C2_3 
REMARK    2  A    between atoms: C3_6  and  C4_7 
REMARK    3  A    between atoms: C4_7  and  C5_8 
REMARK    4  A    between atoms: C9_12  and  C11_14 
REMARK    5  A    between atoms: C11_14  and  C13_16 
REMARK    6  A    between atoms: C13_16  and  N2_17 
REMARK    7  A    between atoms: C14_21  and  C15_22 
REMARK    8  A    between atoms: C20_28  and  N3_29 
REMARK    9  A    between atoms: C20_28  and  O4_34 
REMARK       I    between atoms: N3_29  and  C21_31 
REMARK   10  A    between atoms: C25_37  and  C26_38 
ROOT
HETATM    1  C5  UNL     1       5.764  -4.820 -23.357  1.00  0.00    -0.013 C 
HETATM    2  C6  UNL     1       5.022  -5.171 -24.576  1.00  0.00    -0.045 C 
HETATM    3  C7  UNL     1       4.350  -4.401 -25.400  1.00  0.00    -0.018 C 
HETATM    4  C8  UNL     1       3.647  -4.915 -26.601  1.00  0.00     0.038 C 
HETATM    5  C9  UNL     1       3.037  -6.280 -26.480  1.00  0.00    -0.025 C 
HETATM    6  C10 UNL     1       3.178  -6.930 -27.852  1.00  0.00     0.016 C 
HETATM    7  C14 UNL     1       3.659  -7.051 -25.393  1.00  0.00     0.068 C 
HETATM    8  C16 UNL     1       5.036  -6.640 -24.980  1.00  0.00    -0.006 C 
HETATM    9  C17 UNL     1       6.088  -6.946 -25.994  1.00  0.00     0.021 C 
HETATM   10  C18 UNL     1       5.386  -7.365 -23.709  1.00  0.00     0.020 C 
HETATM   11  C19 UNL     1       6.746  -7.035 -23.183  1.00  0.00     0.067 C 
HETATM   12  C20 UNL     1       7.060  -5.523 -23.179  1.00  0.00     0.161 C 
ENDROOT
BRANCH   1  13
HETATM   13  C4  UNL     1       5.717  -3.397 -22.965  1.00  0.00     0.097 C 
BRANCH  13  14
HETATM   14  C3  UNL     1       4.863  -3.010 -21.844  1.00  0.00     0.016 A 
HETATM   15  N1  UNL     1       3.575  -2.679 -22.177  1.00  0.00    -0.340 N 
HETATM   16  C2  UNL     1       2.680  -2.255 -21.274  1.00  0.00     0.148 A 
ATOM     17  H1  UNL     1       3.286  -2.758 -23.152  1.00  0.00     0.167 HD
HETATM   18  C27 UNL     1       3.007  -2.125 -19.943  1.00  0.00     0.001 A 
HETATM   19  C25 UNL     1       4.299  -2.453 -19.576  1.00  0.00     0.018 A 
HETATM   20  C28 UNL     1       2.002  -1.658 -18.985  1.00  0.00     0.053 C 
HETATM   21  C24 UNL     1       5.193  -2.886 -20.533  1.00  0.00     0.038 A 
BRANCH  16  22
HETATM   22  O1  UNL     1       1.368  -1.924 -21.655  1.00  0.00    -0.340 OA
HETATM   23  C1  UNL     1       0.496  -2.928 -22.156  1.00  0.00     0.211 C 
ENDBRANCH  16  22
BRANCH  19  24
HETATM   24  C26 UNL     1       4.701  -2.314 -18.150  1.00  0.00     0.387 C 
HETATM   25  F1  UNL     1       5.203  -3.516 -17.644  1.00  0.00    -0.209 F 
HETATM   26  F2  UNL     1       5.582  -1.274 -17.987  1.00  0.00    -0.209 F 
ENDBRANCH  19  24
ENDBRANCH  13  14
ENDBRANCH   1  13
BRANCH  12  27
HETATM   27  N3  UNL     1       7.564  -5.257 -21.826  1.00  0.00    -0.326 N 
HETATM   28  C21 UNL     1       8.517  -4.210 -21.695  1.00  0.00     0.216 C 
HETATM   29  C22 UNL     1       9.082  -3.865 -20.385  1.00  0.00     0.117 C 
HETATM   30  O3  UNL     1       8.916  -3.536 -22.694  1.00  0.00    -0.274 OA
ATOM     31  H3  UNL     1       7.247  -5.796 -21.020  1.00  0.00     0.165 HD
ENDBRANCH  12  27
BRANCH  12  32
HETATM   32  O4  UNL     1       8.045  -5.341 -24.049  1.00  0.00    -0.361 OA
HETATM   33  C23 UNL     1       8.910  -6.297 -24.420  1.00  0.00     0.205 C 
ENDBRANCH  12  32
BRANCH   7  34
HETATM   34  C15 UNL     1       3.666  -8.525 -25.596  1.00  0.00     0.237 C 
HETATM   35  O2  UNL     1       2.719  -9.251 -25.341  1.00  0.00    -0.306 OA
ENDBRANCH   7  34
BRANCH   5  36
HETATM   36  C11 UNL     1       1.551  -6.065 -26.312  1.00  0.00     0.016 C 
HETATM   37  C12 UNL     1       0.693  -7.042 -27.050  1.00  0.00     0.012 C 
BRANCH  36  38
HETATM   38  C13 UNL     1       1.103  -4.646 -26.459  1.00  0.00     0.234 C 
BRANCH  38  39
HETATM   39  N2  UNL     1       0.099  -4.320 -25.431  1.00  0.00    -0.079 N 
ATOM     40  H23 UNL     1      -0.692  -4.963 -25.454  1.00  0.00     0.274 HD
ATOM     41  H22 UNL     1       0.436  -4.530 -24.491  1.00  0.00     0.274 HD
ATOM     42  H21 UNL     1      -0.196  -3.349 -25.522  1.00  0.00     0.274 HD
ENDBRANCH  38  39
ENDBRANCH  36  38
ENDBRANCH   5  36
TORSDOF 10
ENDMDL
MODEL 5
REMARK VINA RESULT: -7.448058407      2.428      5.359
REMARK  10 active torsions:
REMARK  status: ('A' for Active; 'I' for Inactive)
REMARK    1  A    between atoms: O1_2  and  C2_3 
REMARK    2  A    between atoms: C3_6  and  C4_7 
REMARK    3  A    between atoms: C4_7  and  C5_8 
REMARK    4  A    between atoms: C9_12  and  C11_14 
REMARK    5  A    between atoms: C11_14  and  C13_16 
REMARK    6  A    between atoms: C13_16  and  N2_17 
REMARK    7  A    between atoms: C14_21  and  C15_22 
REMARK    8  A    between atoms: C20_28  and  N3_29 
REMARK    9  A    between atoms: C20_28  and  O4_34 
REMARK       I    between atoms: N3_29  and  C21_31 
REMARK   10  A    between atoms: C25_37  and  C26_38 
ROOT
HETATM    1  C5  UNL     1       4.269  -4.886 -24.524  1.00  0.00    -0.013 C 
HETATM    2  C6  UNL     1       5.555  -5.377 -24.010  1.00  0.00    -0.045 C 
HETATM    3  C7  UNL     1       5.824  -6.013 -22.893  1.00  0.00    -0.018 C 
HETATM    4  C8  UNL     1       7.192  -6.446 -22.514  1.00  0.00     0.038 C 
HETATM    5  C9  UNL     1       8.314  -5.544 -22.935  1.00  0.00    -0.025 C 
HETATM    6  C10 UNL     1       9.492  -6.456 -23.259  1.00  0.00     0.016 C 
HETATM    7  C14 UNL     1       7.913  -4.675 -24.051  1.00  0.00     0.068 C 
HETATM    8  C16 UNL     1       6.773  -5.145 -24.895  1.00  0.00    -0.006 C 
HETATM    9  C17 UNL     1       7.098  -6.330 -25.743  1.00  0.00     0.021 C 
HETATM   10  C18 UNL     1       6.357  -4.020 -25.801  1.00  0.00     0.020 C 
HETATM   11  C19 UNL     1       5.212  -4.362 -26.700  1.00  0.00     0.067 C 
HETATM   12  C20 UNL     1       4.051  -5.083 -25.980  1.00  0.00     0.161 C 
ENDROOT
BRANCH   1  13
HETATM   13  C4  UNL     1       3.103  -5.093 -23.641  1.00  0.00     0.097 C 
BRANCH  13  14
HETATM   14  C3  UNL     1       2.725  -4.022 -22.722  1.00  0.00     0.016 A 
HETATM   15  N1  UNL     1       1.380  -3.767 -22.643  1.00  0.00    -0.340 N 
HETATM   16  C2  UNL     1       0.872  -2.785 -21.886  1.00  0.00     0.148 A 
ATOM     17  H1  UNL     1       0.740  -4.350 -23.182  1.00  0.00     0.167 HD
HETATM   18  C27 UNL     1       1.683  -1.964 -21.135  1.00  0.00     0.001 A 
HETATM   19  C25 UNL     1       3.045  -2.195 -21.194  1.00  0.00     0.018 A 
HETATM   20  C28 UNL     1       1.091  -0.900 -20.320  1.00  0.00     0.053 C 
HETATM   21  C24 UNL     1       3.530  -3.216 -21.984  1.00  0.00     0.038 A 
BRANCH  16  22
HETATM   22  O1  UNL     1      -0.513  -2.556 -21.831  1.00  0.00    -0.340 OA
HETATM   23  C1  UNL     1      -1.360  -3.466 -21.144  1.00  0.00     0.211 C 
ENDBRANCH  16  22
BRANCH  19  24
HETATM   24  C26 UNL     1       3.959  -1.322 -20.410  1.00  0.00     0.387 C 
HETATM   25  F1  UNL     1       4.237  -1.873 -19.156  1.00  0.00    -0.209 F 
HETATM   26  F2  UNL     1       5.102  -1.046 -21.120  1.00  0.00    -0.209 F 
ENDBRANCH  19  24
ENDBRANCH  13  14
ENDBRANCH   1  13
BRANCH  12  27
HETATM   27  N3  UNL     1       2.851  -4.341 -26.387  1.00  0.00    -0.326 N 
HETATM   28  C21 UNL     1       1.622  -5.054 -26.362  1.00  0.00     0.216 C 
HETATM   29  C22 UNL     1       0.365  -4.404 -26.749  1.00  0.00     0.117 C 
HETATM   30  O3  UNL     1       1.559  -6.271 -26.006  1.00  0.00    -0.274 OA
ATOM     31  H3  UNL     1       2.897  -3.363 -26.673  1.00  0.00     0.165 HD
ENDBRANCH  12  27
BRANCH  12  32
HETATM   32  O4  UNL     1       3.994  -6.307 -26.489  1.00  0.00    -0.361 OA
HETATM   33  C23 UNL     1       4.485  -6.648 -27.689  1.00  0.00     0.205 C 
ENDBRANCH  12  32
BRANCH   7  34
HETATM   34  C15 UNL     1       9.020  -4.278 -24.963  1.00  0.00     0.237 C 
HETATM   35  O2  UNL     1       9.710  -3.283 -24.804  1.00  0.00    -0.306 OA
ENDBRANCH   7  34
BRANCH   5  36
HETATM   36  C11 UNL     1       8.742  -4.797 -21.694  1.00  0.00     0.016 C 
HETATM   37  C12 UNL     1       8.055  -3.484 -21.488  1.00  0.00     0.012 C 
BRANCH  36  38
HETATM   38  C13 UNL     1      10.220  -4.737 -21.476  1.00  0.00     0.234 C 
BRANCH  38  39
HETATM   39  N2  UNL     1      10.527  -3.931 -20.282  1.00  0.00    -0.079 N 
ATOM     40  H23 UNL     1       9.846  -4.080 -19.537  1.00  0.00     0.274 HD
ATOM     41  H22 UNL     1      11.358  -4.270 -19.797  1.00  0.00     0.274 HD
ATOM     42  H21 UNL     1      10.607  -2.946 -20.533  1.00  0.00     0.274 HD
ENDBRANCH  38  39
ENDBRANCH  36  38
ENDBRANCH   5  36
TORSDOF 10
ENDMDL
