MODEL 1
REMARK VINA RESULT: -8.059366568      0.000      0.000
REMARK  9 active torsions:
REMARK  status: ('A' for Active; 'I' for Inactive)
REMARK    1  A    between atoms: C2_2  and  C3_3 
REMARK    2  A    between atoms: C7_8  and  O2_9 
REMARK    3  A    between atoms: O2_9  and  C8_10 
REMARK    4  A    between atoms: C8_10  and  C9_11 
REMARK    5  A    between atoms: C9_11  and  O3_12 
REMARK    6  A    between atoms: C9_11  and  C10_14 
REMARK    7  A    between atoms: C10_14  and  N1_15 
REMARK    8  A    between atoms: N3_28  and  C20_29 
REMARK    9  A    between atoms: C20_29  and  C21_30 
ROOT
HETATM    1  C3  UNL     1       5.981  -2.171 -20.496  1.00  0.00     0.015 A 
HETATM    2  C4  UNL     1       4.819  -1.658 -20.029  1.00  0.00     0.081 A 
HETATM    3  C5  UNL     1       3.633  -1.913 -20.662  1.00  0.00     0.189 A 
HETATM    4  O1  UNL     1       2.554  -1.432 -20.224  1.00  0.00    -0.287 OA
HETATM    5  C6  UNL     1       3.641  -2.701 -21.791  1.00  0.00     0.077 A 
HETATM    6  C7  UNL     1       2.468  -2.949 -22.469  1.00  0.00     0.104 A 
HETATM    7  C16 UNL     1       2.464  -3.721 -23.645  1.00  0.00     0.071 A 
HETATM    8 BR1  UNL     1       0.804  -4.014 -24.513  1.00  0.00    -0.046 Br
HETATM    9  C17 UNL     1       3.635  -4.217 -24.101  1.00  0.00     0.090 A 
HETATM   10  N2  UNL     1       3.687  -5.009 -25.285  1.00  0.00    -0.099 NA
HETATM   11  C18 UNL     1       4.856  -3.983 -23.428  1.00  0.00     0.087 A 
HETATM   12 CL1  UNL     1       6.294  -4.578 -24.203  1.00  0.00    -0.080 Cl
HETATM   13  C19 UNL     1       4.872  -3.244 -22.289  1.00  0.00     0.075 A 
HETATM   14  N3  UNL     1       6.010  -2.956 -21.608  1.00  0.00    -0.348 N 
ENDROOT
BRANCH   6  15
HETATM   15  O2  UNL     1       1.230  -2.473 -22.058  1.00  0.00    -0.346 OA
BRANCH  15  16
HETATM   16  C8  UNL     1       0.353  -3.095 -21.171  1.00  0.00     0.209 C 
BRANCH  16  17
HETATM   17  C9  UNL     1      -1.112  -2.846 -21.451  1.00  0.00     0.170 C 
BRANCH  17  18
HETATM   18  O3  UNL     1      -1.674  -4.048 -21.861  1.00  0.00    -0.392 OA
ATOM     19  H3  UNL     1      -2.598  -3.895 -22.019  1.00  0.00     0.210 HD
ENDBRANCH  17  18
BRANCH  17  20
HETATM   20  C10 UNL     1      -1.881  -2.252 -20.323  1.00  0.00     0.306 C 
BRANCH  20  21
HETATM   21  N1  UNL     1      -3.271  -2.536 -20.437  1.00  0.00     0.091 N 
HETATM   22  C11 UNL     1      -3.918  -1.433 -21.179  1.00  0.00     0.272 C 
HETATM   23  C12 UNL     1      -5.176  -2.074 -21.767  1.00  0.00     0.030 C 
HETATM   24  C13 UNL     1      -5.975  -2.634 -20.628  1.00  0.00     0.003 C 
HETATM   25  C14 UNL     1      -5.404  -2.259 -19.282  1.00  0.00     0.030 C 
HETATM   26  C15 UNL     1      -3.947  -2.714 -19.181  1.00  0.00     0.272 C 
ENDBRANCH  20  21
ENDBRANCH  17  20
ENDBRANCH  16  17
ENDBRANCH  15  16
ENDBRANCH   6  15
BRANCH  14  27
HETATM   27  C20 UNL     1       7.263  -3.540 -21.942  1.00  0.00     0.134 C 
BRANCH  27  28
HETATM   28  C21 UNL     1       7.547  -4.666 -20.968  1.00  0.00     0.004 A 
HETATM   29  C22 UNL     1       8.119  -5.963 -21.454  1.00  0.00     0.007 A 
HETATM   30  C23 UNL     1       8.962  -5.115 -20.631  1.00  0.00     0.007 A 
ENDBRANCH  27  28
ENDBRANCH  14  27
BRANCH   1  31
HETATM   31  C2  UNL     1       7.227  -1.762 -19.843  1.00  0.00     0.053 C 
HETATM   32  C1  UNL     1       6.945  -1.416 -18.347  1.00  0.00     0.011 C 
ENDBRANCH   1  31
TORSDOF 9
ENDMDL
MODEL 2
REMARK VINA RESULT: -7.989459609      0.992      1.411
REMARK  9 active torsions:
REMARK  status: ('A' for Active; 'I' for Inactive)
REMARK    1  A    between atoms: C2_2  and  C3_3 
REMARK    2  A    between atoms: C7_8  and  O2_9 
REMARK    3  A    between atoms: O2_9  and  C8_10 
REMARK    4  A    between atoms: C8_10  and  C9_11 
REMARK    5  A    between atoms: C9_11  and  O3_12 
REMARK    6  A    between atoms: C9_11  and  C10_14 
REMARK    7  A    between atoms: C10_14  and  N1_15 
REMARK    8  A    between atoms: N3_28  and  C20_29 
REMARK    9  A    between atoms: C20_29  and  C21_30 
ROOT
HETATM    1  C3  UNL     1       6.569  -2.148 -20.692  1.00  0.00     0.015 A 
HETATM    2  C4  UNL     1       5.544  -1.486 -20.106  1.00  0.00     0.081 A 
HETATM    3  C5  UNL     1       4.256  -1.663 -20.530  1.00  0.00     0.189 A 
HETATM    4  O1  UNL     1       3.306  -1.044 -19.982  1.00  0.00    -0.287 OA
HETATM    5  C6  UNL     1       4.017  -2.529 -21.575  1.00  0.00     0.077 A 
HETATM    6  C7  UNL     1       2.736  -2.704 -22.047  1.00  0.00     0.104 A 
HETATM    7  C16 UNL     1       2.478  -3.555 -23.138  1.00  0.00     0.071 A 
HETATM    8 BR1  UNL     1       0.684  -3.739 -23.722  1.00  0.00    -0.046 Br
HETATM    9  C17 UNL     1       3.514  -4.201 -23.716  1.00  0.00     0.090 A 
HETATM   10  N2  UNL     1       3.309  -5.079 -24.821  1.00  0.00    -0.099 NA
HETATM   11  C18 UNL     1       4.841  -4.045 -23.255  1.00  0.00     0.087 A 
HETATM   12 CL1  UNL     1       6.081  -4.839 -24.178  1.00  0.00    -0.080 Cl
HETATM   13  C19 UNL     1       5.102  -3.230 -22.200  1.00  0.00     0.075 A 
HETATM   14  N3  UNL     1       6.353  -3.012 -21.722  1.00  0.00    -0.348 N 
ENDROOT
BRANCH   6  15
HETATM   15  O2  UNL     1       1.625  -2.075 -21.502  1.00  0.00    -0.346 OA
BRANCH  15  16
HETATM   16  C8  UNL     1       0.720  -2.624 -20.595  1.00  0.00     0.209 C 
BRANCH  16  17
HETATM   17  C9  UNL     1      -0.399  -1.697 -20.177  1.00  0.00     0.170 C 
BRANCH  17  18
HETATM   18  O3  UNL     1       0.166  -0.465 -19.871  1.00  0.00    -0.392 OA
ATOM     19  H3  UNL     1       1.106  -0.544 -19.978  1.00  0.00     0.210 HD
ENDBRANCH  17  18
BRANCH  17  20
HETATM   20  C10 UNL     1      -1.503  -1.549 -21.165  1.00  0.00     0.306 C 
BRANCH  20  21
HETATM   21  N1  UNL     1      -2.775  -1.723 -20.550  1.00  0.00     0.091 N 
HETATM   22  C11 UNL     1      -2.936  -3.149 -20.194  1.00  0.00     0.272 C 
HETATM   23  C12 UNL     1      -3.960  -3.131 -19.060  1.00  0.00     0.030 C 
HETATM   24  C13 UNL     1      -5.197  -2.457 -19.574  1.00  0.00     0.003 C 
HETATM   25  C14 UNL     1      -5.123  -2.165 -21.054  1.00  0.00     0.030 C 
HETATM   26  C15 UNL     1      -3.889  -1.316 -21.363  1.00  0.00     0.272 C 
ENDBRANCH  20  21
ENDBRANCH  17  20
ENDBRANCH  16  17
ENDBRANCH  15  16
ENDBRANCH   6  15
BRANCH  14  27
HETATM   27  C20 UNL     1       7.481  -3.744 -22.186  1.00  0.00     0.134 C 
BRANCH  27  28
HETATM   28  C21 UNL     1       7.758  -4.872 -21.212  1.00  0.00     0.004 A 
HETATM   29  C22 UNL     1       8.148  -6.228 -21.714  1.00  0.00     0.007 A 
HETATM   30  C23 UNL     1       9.152  -5.451 -21.012  1.00  0.00     0.007 A 
ENDBRANCH  27  28
ENDBRANCH  14  27
BRANCH   1  31
HETATM   31  C2  UNL     1       7.933  -1.823 -20.269  1.00  0.00     0.053 C 
HETATM   32  C1  UNL     1       8.102  -2.147 -18.751  1.00  0.00     0.011 C 
ENDBRANCH   1  31
TORSDOF 9
ENDMDL
MODEL 3
REMARK VINA RESULT: -7.954971478      3.646      6.610
REMARK  9 active torsions:
REMARK  status: ('A' for Active; 'I' for Inactive)
REMARK    1  A    between atoms: C2_2  and  C3_3 
REMARK    2  A    between atoms: C7_8  and  O2_9 
REMARK    3  A    between atoms: O2_9  and  C8_10 
REMARK    4  A    between atoms: C8_10  and  C9_11 
REMARK    5  A    between atoms: C9_11  and  O3_12 
REMARK    6  A    between atoms: C9_11  and  C10_14 
REMARK    7  A    between atoms: C10_14  and  N1_15 
REMARK    8  A    between atoms: N3_28  and  C20_29 
REMARK    9  A    between atoms: C20_29  and  C21_30 
ROOT
HETATM    1  C3  UNL     1       1.763  -2.112 -21.515  1.00  0.00     0.015 A 
HETATM    2  C4  UNL     1       1.391  -2.976 -22.488  1.00  0.00     0.081 A 
HETATM    3  C5  UNL     1       2.312  -3.772 -23.113  1.00  0.00     0.189 A 
HETATM    4  O1  UNL     1       1.961  -4.574 -24.019  1.00  0.00    -0.287 OA
HETATM    5  C6  UNL     1       3.633  -3.678 -22.735  1.00  0.00     0.077 A 
HETATM    6  C7  UNL     1       4.589  -4.441 -23.366  1.00  0.00     0.104 A 
HETATM    7  C16 UNL     1       5.948  -4.329 -23.019  1.00  0.00     0.071 A 
HETATM    8 BR1  UNL     1       7.196  -5.421 -23.939  1.00  0.00    -0.046 Br
HETATM    9  C17 UNL     1       6.301  -3.456 -22.051  1.00  0.00     0.090 A 
HETATM   10  N2  UNL     1       7.663  -3.306 -21.658  1.00  0.00    -0.099 NA
HETATM   11  C18 UNL     1       5.345  -2.658 -21.382  1.00  0.00     0.087 A 
HETATM   12 CL1  UNL     1       5.964  -1.492 -20.252  1.00  0.00    -0.080 Cl
HETATM   13  C19 UNL     1       4.030  -2.761 -21.704  1.00  0.00     0.075 A 
HETATM   14  N3  UNL     1       3.063  -2.007 -21.124  1.00  0.00    -0.348 N 
ENDROOT
BRANCH   6  15
HETATM   15  O2  UNL     1       4.298  -5.359 -24.367  1.00  0.00    -0.346 OA
BRANCH  15  16
HETATM   16  C8  UNL     1       4.362  -6.748 -24.266  1.00  0.00     0.209 C 
BRANCH  16  17
HETATM   17  C9  UNL     1       3.196  -7.482 -24.888  1.00  0.00     0.170 C 
BRANCH  17  18
HETATM   18  O3  UNL     1       2.127  -7.404 -24.004  1.00  0.00    -0.392 OA
ATOM     19  H3  UNL     1       1.359  -7.150 -24.502  1.00  0.00     0.210 HD
ENDBRANCH  17  18
BRANCH  17  20
HETATM   20  C10 UNL     1       2.803  -7.013 -26.246  1.00  0.00     0.306 C 
BRANCH  20  21
HETATM   21  N1  UNL     1       1.445  -7.329 -26.531  1.00  0.00     0.091 N 
HETATM   22  C11 UNL     1       1.380  -8.718 -27.033  1.00  0.00     0.272 C 
HETATM   23  C12 UNL     1      -0.054  -9.152 -26.728  1.00  0.00     0.030 C 
HETATM   24  C13 UNL     1      -0.977  -8.183 -27.404  1.00  0.00     0.003 C 
HETATM   25  C14 UNL     1      -0.241  -7.208 -28.292  1.00  0.00     0.030 C 
HETATM   26  C15 UNL     1       0.819  -6.456 -27.486  1.00  0.00     0.272 C 
ENDBRANCH  20  21
ENDBRANCH  17  20
ENDBRANCH  16  17
ENDBRANCH  15  16
ENDBRANCH   6  15
BRANCH  14  27
HETATM   27  C20 UNL     1       3.326  -1.158 -20.013  1.00  0.00     0.134 C 
BRANCH  27  28
HETATM   28  C21 UNL     1       2.760  -1.807 -18.765  1.00  0.00     0.004 A 
HETATM   29  C22 UNL     1       3.458  -2.972 -18.133  1.00  0.00     0.007 A 
HETATM   30  C23 UNL     1       3.452  -1.712 -17.413  1.00  0.00     0.007 A 
ENDBRANCH  27  28
ENDBRANCH  14  27
BRANCH   1  31
HETATM   31  C2  UNL     1       0.748  -1.206 -20.973  1.00  0.00     0.053 C 
HETATM   32  C1  UNL     1      -0.658  -1.603 -21.524  1.00  0.00     0.011 C 
ENDBRANCH   1  31
TORSDOF 9
ENDMDL
MODEL 4
REMARK VINA RESULT: -7.865548217      4.402      6.693
REMARK  9 active torsions:
REMARK  status: ('A' for Active; 'I' for Inactive)
REMARK    1  A    between atoms: C2_2  and  C3_3 
REMARK    2  A    between atoms: C7_8  and  O2_9 
REMARK    3  A    between atoms: O2_9  and  C8_10 
REMARK    4  A    between atoms: C8_10  and  C9_11 
REMARK    5  A    between atoms: C9_11  and  O3_12 
REMARK    6  A    between atoms: C9_11  and  C10_14 
REMARK    7  A    between atoms: C10_14  and  N1_15 
REMARK    8  A    between atoms: N3_28  and  C20_29 
REMARK    9  A    between atoms: C20_29  and  C21_30 
ROOT
HETATM    1  C3  UNL     1       3.947  -4.177 -23.420  1.00  0.00     0.015 A 
HETATM    2  C4  UNL     1       4.288  -2.968 -22.918  1.00  0.00     0.081 A 
HETATM    3  C5  UNL     1       5.523  -2.756 -22.369  1.00  0.00     0.189 A 
HETATM    4  O1  UNL     1       5.834  -1.628 -21.902  1.00  0.00    -0.287 OA
HETATM    5  C6  UNL     1       6.419  -3.801 -22.331  1.00  0.00     0.077 A 
HETATM    6  C7  UNL     1       7.657  -3.629 -21.755  1.00  0.00     0.104 A 
HETATM    7  C16 UNL     1       8.570  -4.697 -21.673  1.00  0.00     0.071 A 
HETATM    8 BR1  UNL     1      10.254  -4.371 -20.865  1.00  0.00    -0.046 Br
HETATM    9  C17 UNL     1       8.209  -5.899 -22.172  1.00  0.00     0.090 A 
HETATM   10  N2  UNL     1       9.097  -7.013 -22.119  1.00  0.00    -0.099 NA
HETATM   11  C18 UNL     1       6.946  -6.110 -22.771  1.00  0.00     0.087 A 
HETATM   12 CL1  UNL     1       6.578  -7.739 -23.251  1.00  0.00    -0.080 Cl
HETATM   13  C19 UNL     1       6.059  -5.085 -22.860  1.00  0.00     0.075 A 
HETATM   14  N3  UNL     1       4.820  -5.222 -23.397  1.00  0.00    -0.348 N 
ENDROOT
BRANCH   6  15
HETATM   15  O2  UNL     1       8.095  -2.423 -21.224  1.00  0.00    -0.346 OA
BRANCH  15  16
HETATM   16  C8  UNL     1       8.341  -2.147 -19.880  1.00  0.00     0.209 C 
BRANCH  16  17
HETATM   17  C9  UNL     1       7.317  -2.712 -18.921  1.00  0.00     0.170 C 
BRANCH  17  18
HETATM   18  O3  UNL     1       8.004  -3.283 -17.857  1.00  0.00    -0.392 OA
ATOM     19  H3  UNL     1       7.539  -3.058 -17.059  1.00  0.00     0.210 HD
ENDBRANCH  17  18
BRANCH  17  20
HETATM   20  C10 UNL     1       6.294  -1.743 -18.440  1.00  0.00     0.306 C 
BRANCH  20  21
HETATM   21  N1  UNL     1       4.986  -2.122 -18.853  1.00  0.00     0.091 N 
HETATM   22  C11 UNL     1       4.144  -0.910 -18.926  1.00  0.00     0.272 C 
HETATM   23  C12 UNL     1       3.038  -1.289 -19.911  1.00  0.00     0.030 C 
HETATM   24  C13 UNL     1       2.353  -2.512 -19.377  1.00  0.00     0.003 C 
HETATM   25  C14 UNL     1       2.832  -2.884 -17.994  1.00  0.00     0.030 C 
HETATM   26  C15 UNL     1       4.348  -3.083 -17.996  1.00  0.00     0.272 C 
ENDBRANCH  20  21
ENDBRANCH  17  20
ENDBRANCH  16  17
ENDBRANCH  15  16
ENDBRANCH   6  15
BRANCH  14  27
HETATM   27  C20 UNL     1       4.406  -6.412 -24.057  1.00  0.00     0.134 C 
BRANCH  27  28
HETATM   28  C21 UNL     1       4.668  -6.257 -25.542  1.00  0.00     0.004 A 
HETATM   29  C22 UNL     1       4.797  -7.464 -26.419  1.00  0.00     0.007 A 
HETATM   30  C23 UNL     1       3.630  -6.620 -26.594  1.00  0.00     0.007 A 
ENDBRANCH  27  28
ENDBRANCH  14  27
BRANCH   1  31
HETATM   31  C2  UNL     1       2.572  -4.369 -23.885  1.00  0.00     0.053 C 
HETATM   32  C1  UNL     1       1.587  -3.631 -22.924  1.00  0.00     0.011 C 
ENDBRANCH   1  31
TORSDOF 9
ENDMDL
MODEL 5
REMARK VINA RESULT: -7.832392391      3.843      9.027
REMARK  9 active torsions:
REMARK  status: ('A' for Active; 'I' for Inactive)
REMARK    1  A    between atoms: C2_2  and  C3_3 
REMARK    2  A    between atoms: C7_8  and  O2_9 
REMARK    3  A    between atoms: O2_9  and  C8_10 
REMARK    4  A    between atoms: C8_10  and  C9_11 
REMARK    5  A    between atoms: C9_11  and  O3_12 
REMARK    6  A    between atoms: C9_11  and  C10_14 
REMARK    7  A    between atoms: C10_14  and  N1_15 
REMARK    8  A    between atoms: N3_28  and  C20_29 
REMARK    9  A    between atoms: C20_29  and  C21_30 
ROOT
HETATM    1  C3  UNL     1       2.209  -2.698 -21.908  1.00  0.00     0.015 A 
HETATM    2  C4  UNL     1       2.199  -3.653 -22.867  1.00  0.00     0.081 A 
HETATM    3  C5  UNL     1       3.355  -4.274 -23.254  1.00  0.00     0.189 A 
HETATM    4  O1  UNL     1       3.341  -5.161 -24.148  1.00  0.00    -0.287 OA
HETATM    5  C6  UNL     1       4.538  -3.906 -22.651  1.00  0.00     0.077 A 
HETATM    6  C7  UNL     1       5.723  -4.488 -23.041  1.00  0.00     0.104 A 
HETATM    7  C16 UNL     1       6.945  -4.096 -22.463  1.00  0.00     0.071 A 
HETATM    8 BR1  UNL     1       8.528  -4.952 -23.058  1.00  0.00    -0.046 Br
HETATM    9  C17 UNL     1       6.935  -3.136 -21.514  1.00  0.00     0.090 A 
HETATM   10  N2  UNL     1       8.144  -2.705 -20.891  1.00  0.00    -0.099 NA
HETATM   11  C18 UNL     1       5.736  -2.519 -21.088  1.00  0.00     0.087 A 
HETATM   12 CL1  UNL     1       5.897  -1.213 -19.953  1.00  0.00    -0.080 Cl
HETATM   13  C19 UNL     1       4.551  -2.892 -21.636  1.00  0.00     0.075 A 
HETATM   14  N3  UNL     1       3.366  -2.323 -21.297  1.00  0.00    -0.348 N 
ENDROOT
BRANCH   6  15
HETATM   15  O2  UNL     1       5.807  -5.481 -24.008  1.00  0.00    -0.346 OA
BRANCH  15  16
HETATM   16  C8  UNL     1       5.892  -6.854 -23.784  1.00  0.00     0.209 C 
BRANCH  16  17
HETATM   17  C9  UNL     1       5.734  -7.708 -25.023  1.00  0.00     0.170 C 
BRANCH  17  18
HETATM   18  O3  UNL     1       4.593  -7.279 -25.688  1.00  0.00    -0.392 OA
ATOM     19  H3  UNL     1       3.963  -7.004 -25.033  1.00  0.00     0.210 HD
ENDBRANCH  17  18
BRANCH  17  20
HETATM   20  C10 UNL     1       6.911  -7.726 -25.935  1.00  0.00     0.306 C 
BRANCH  20  21
HETATM   21  N1  UNL     1       7.963  -8.527 -25.407  1.00  0.00     0.091 N 
HETATM   22  C11 UNL     1       9.207  -7.729 -25.401  1.00  0.00     0.272 C 
HETATM   23  C12 UNL     1      10.061  -8.387 -24.318  1.00  0.00     0.030 C 
HETATM   24  C13 UNL     1      10.230  -9.831 -24.687  1.00  0.00     0.003 C 
HETATM   25  C14 UNL     1       9.671 -10.147 -26.054  1.00  0.00     0.030 C 
HETATM   26  C15 UNL     1       8.196  -9.750 -26.126  1.00  0.00     0.272 C 
ENDBRANCH  20  21
ENDBRANCH  17  20
ENDBRANCH  16  17
ENDBRANCH  15  16
ENDBRANCH   6  15
BRANCH  14  27
HETATM   27  C20 UNL     1       3.247  -1.399 -20.222  1.00  0.00     0.134 C 
BRANCH  27  28
HETATM   28  C21 UNL     1       2.642  -2.118 -19.032  1.00  0.00     0.004 A 
HETATM   29  C22 UNL     1       3.497  -2.976 -18.150  1.00  0.00     0.007 A 
HETATM   30  C23 UNL     1       2.977  -1.740 -17.596  1.00  0.00     0.007 A 
ENDBRANCH  27  28
ENDBRANCH  14  27
BRANCH   1  31
HETATM   31  C2  UNL     1       0.957  -1.991 -21.626  1.00  0.00     0.053 C 
HETATM   32  C1  UNL     1      -0.178  -3.026 -21.346  1.00  0.00     0.011 C 
ENDBRANCH   1  31
TORSDOF 9
ENDMDL
