MODEL 1
REMARK VINA RESULT: -7.763751412      0.000      0.000
REMARK  9 active torsions:
REMARK  status: ('A' for Active; 'I' for Inactive)
REMARK    1  A    between atoms: O1_2  and  C2_3 
REMARK    2  A    between atoms: C2_3  and  C3_5 
REMARK    3  A    between atoms: C6_8  and  S1_9 
REMARK    4  A    between atoms: S1_9  and  C7_10 
REMARK    5  A    between atoms: C7_10  and  C8_11 
REMARK    6  A    between atoms: C9_12  and  C10_13 
REMARK    7  A    between atoms: C12_16  and  N1_17 
REMARK       I    between atoms: N1_17  and  C13_19 
REMARK    8  A    between atoms: C17_24  and  N2_26 
REMARK       I    between atoms: N2_26  and  C19_28 
REMARK    9  A    between atoms: C19_28  and  C20_30 
ROOT
HETATM    1  C8  UNL     1       6.664  -3.340 -21.402  1.00  0.00     0.007 C 
HETATM    2  C9  UNL     1       7.892  -4.054 -20.864  1.00  0.00     0.011 C 
HETATM    3  C11 UNL     1       7.951  -3.629 -19.428  1.00  0.00     0.019 C 
HETATM    4  C12 UNL     1       8.169  -2.139 -19.280  1.00  0.00     0.093 C 
HETATM    5  C15 UNL     1       6.925  -2.137 -18.401  1.00  0.00     0.016 C 
HETATM    6  C16 UNL     1       5.886  -1.160 -18.829  1.00  0.00     0.038 C 
HETATM    7  C17 UNL     1       5.189  -1.776 -20.028  1.00  0.00     0.034 C 
HETATM    8  C18 UNL     1       5.141  -0.792 -21.128  1.00  0.00     0.039 C 
HETATM    9  C21 UNL     1       5.729  -3.119 -20.283  1.00  0.00     0.023 C 
HETATM   10  C22 UNL     1       6.505  -3.459 -19.025  1.00  0.00     0.005 C 
ENDROOT
BRANCH   1  11
HETATM   11  C7  UNL     1       6.086  -4.101 -22.580  1.00  0.00     0.086 C 
BRANCH  11  12
HETATM   12  S1  UNL     1       7.130  -4.099 -24.040  1.00  0.00    -0.112 SA
BRANCH  12  13
HETATM   13  C6  UNL     1       7.701  -5.773 -24.319  1.00  0.00     0.069 A 
HETATM   14  C5  UNL     1       6.880  -6.849 -24.059  1.00  0.00     0.038 A 
HETATM   15  C4  UNL     1       7.312  -8.129 -24.271  1.00  0.00     0.022 A 
HETATM   16  C3  UNL     1       8.581  -8.320 -24.749  1.00  0.00     0.054 A 
HETATM   17  C23 UNL     1       9.414  -7.257 -25.015  1.00  0.00     0.106 A 
HETATM   18  N3  UNL     1       8.955  -6.023 -24.794  1.00  0.00    -0.360 N 
ATOM     19  H3  UNL     1       9.569  -5.232 -24.988  1.00  0.00     0.166 HD
BRANCH  16  20
HETATM   20  C2  UNL     1       9.071  -9.673 -24.986  1.00  0.00     0.294 C 
HETATM   21  O2  UNL     1       9.620 -10.339 -24.065  1.00  0.00    -0.259 OA
BRANCH  20  22
HETATM   22  O1  UNL     1       8.964 -10.301 -26.217  1.00  0.00    -0.322 OA
HETATM   23  C1  UNL     1       7.753 -10.851 -26.701  1.00  0.00     0.213 C 
ENDBRANCH  20  22
ENDBRANCH  16  20
ENDBRANCH  12  13
ENDBRANCH  11  12
ENDBRANCH   1  11
BRANCH   2  24
HETATM   24  C10 UNL     1       7.804  -5.555 -20.933  1.00  0.00     0.120 C 
HETATM   25 CL1  UNL     1       9.288  -6.356 -21.412  1.00  0.00    -0.130 Cl
ENDBRANCH   2  24
BRANCH   7  26
HETATM   26  N2  UNL     1       3.788  -1.946 -19.578  1.00  0.00    -0.351 N 
HETATM   27  C19 UNL     1       2.811  -2.421 -20.459  1.00  0.00     0.232 C 
HETATM   28  O4  UNL     1       2.983  -2.740 -21.659  1.00  0.00    -0.272 OA
ATOM     29  H2  UNL     1       3.533  -1.715 -18.618  1.00  0.00     0.163 HD
BRANCH  27  30
HETATM   30  C20 UNL     1       1.407  -2.578 -19.951  1.00  0.00     0.217 C 
HETATM   31 CL2  UNL     1       0.512  -1.063 -20.101  1.00  0.00    -0.121 Cl
ENDBRANCH  27  30
ENDBRANCH   7  26
BRANCH   4  32
HETATM   32  N1  UNL     1       9.378  -1.777 -18.601  1.00  0.00    -0.356 N 
HETATM   33  C13 UNL     1      10.519  -1.410 -19.335  1.00  0.00     0.213 C 
HETATM   34  C14 UNL     1      11.809  -1.021 -18.665  1.00  0.00     0.117 C 
HETATM   35  O3  UNL     1      10.496  -1.394 -20.587  1.00  0.00    -0.274 OA
ATOM     36  H1  UNL     1       9.410  -1.786 -17.582  1.00  0.00     0.162 HD
ENDBRANCH   4  32
TORSDOF 9
ENDMDL
MODEL 2
REMARK VINA RESULT: -7.763335063      2.052      5.071
REMARK  9 active torsions:
REMARK  status: ('A' for Active; 'I' for Inactive)
REMARK    1  A    between atoms: O1_2  and  C2_3 
REMARK    2  A    between atoms: C2_3  and  C3_5 
REMARK    3  A    between atoms: C6_8  and  S1_9 
REMARK    4  A    between atoms: S1_9  and  C7_10 
REMARK    5  A    between atoms: C7_10  and  C8_11 
REMARK    6  A    between atoms: C9_12  and  C10_13 
REMARK    7  A    between atoms: C12_16  and  N1_17 
REMARK       I    between atoms: N1_17  and  C13_19 
REMARK    8  A    between atoms: C17_24  and  N2_26 
REMARK       I    between atoms: N2_26  and  C19_28 
REMARK    9  A    between atoms: C19_28  and  C20_30 
ROOT
HETATM    1  C8  UNL     1       6.076  -3.414 -21.301  1.00  0.00     0.007 C 
HETATM    2  C9  UNL     1       4.908  -2.900 -22.124  1.00  0.00     0.011 C 
HETATM    3  C11 UNL     1       4.446  -1.689 -21.372  1.00  0.00     0.019 C 
HETATM    4  C12 UNL     1       3.935  -2.033 -19.991  1.00  0.00     0.093 C 
HETATM    5  C15 UNL     1       4.924  -0.999 -19.467  1.00  0.00     0.016 C 
HETATM    6  C16 UNL     1       5.839  -1.520 -18.413  1.00  0.00     0.038 C 
HETATM    7  C17 UNL     1       6.890  -2.345 -19.132  1.00  0.00     0.034 C 
HETATM    8  C18 UNL     1       7.009  -3.665 -18.481  1.00  0.00     0.039 C 
HETATM    9  C21 UNL     1       6.675  -2.272 -20.585  1.00  0.00     0.023 C 
HETATM   10  C22 UNL     1       5.707  -1.119 -20.765  1.00  0.00     0.005 C 
ENDROOT
BRANCH   1  11
HETATM   11  C7  UNL     1       7.035  -4.196 -22.178  1.00  0.00     0.086 C 
BRANCH  11  12
HETATM   12  S1  UNL     1       7.715  -5.663 -21.399  1.00  0.00    -0.112 SA
BRANCH  12  13
HETATM   13  C6  UNL     1       7.990  -6.893 -22.671  1.00  0.00     0.069 A 
HETATM   14  C5  UNL     1       6.939  -7.384 -23.414  1.00  0.00     0.038 A 
HETATM   15  C4  UNL     1       7.145  -8.323 -24.387  1.00  0.00     0.022 A 
HETATM   16  C3  UNL     1       8.421  -8.767 -24.608  1.00  0.00     0.054 A 
HETATM   17  C23 UNL     1       9.483  -8.286 -23.875  1.00  0.00     0.106 A 
HETATM   18  N3  UNL     1       9.241  -7.371 -22.934  1.00  0.00    -0.360 N 
ATOM     19  H3  UNL     1      10.024  -7.013 -22.388  1.00  0.00     0.166 HD
BRANCH  16  20
HETATM   20  C2  UNL     1       8.673  -9.768 -25.638  1.00  0.00     0.294 C 
HETATM   21  O2  UNL     1       9.844  -9.997 -26.052  1.00  0.00    -0.259 OA
BRANCH  20  22
HETATM   22  O1  UNL     1       7.660 -10.517 -26.215  1.00  0.00    -0.322 OA
HETATM   23  C1  UNL     1       7.783 -11.132 -27.484  1.00  0.00     0.213 C 
ENDBRANCH  20  22
ENDBRANCH  16  20
ENDBRANCH  12  13
ENDBRANCH  11  12
ENDBRANCH   1  11
BRANCH   2  24
HETATM   24  C10 UNL     1       5.279  -2.501 -23.527  1.00  0.00     0.120 C 
HETATM   25 CL1  UNL     1       4.333  -3.272 -24.785  1.00  0.00    -0.130 Cl
ENDBRANCH   2  24
BRANCH   7  26
HETATM   26  N2  UNL     1       8.159  -1.637 -18.842  1.00  0.00    -0.351 N 
HETATM   27  C19 UNL     1       9.355  -2.049 -19.438  1.00  0.00     0.232 C 
HETATM   28  O4  UNL     1       9.499  -3.004 -20.236  1.00  0.00    -0.272 OA
ATOM     29  H2  UNL     1       8.160  -0.843 -18.203  1.00  0.00     0.163 HD
BRANCH  27  30
HETATM   30  C20 UNL     1      10.612  -1.295 -19.112  1.00  0.00     0.217 C 
HETATM   31 CL2  UNL     1      11.115  -0.293 -20.477  1.00  0.00    -0.121 Cl
ENDBRANCH  27  30
ENDBRANCH   7  26
BRANCH   4  32
HETATM   32  N1  UNL     1       2.558  -1.706 -19.765  1.00  0.00    -0.356 N 
HETATM   33  C13 UNL     1       1.546  -2.374 -20.476  1.00  0.00     0.213 C 
HETATM   34  C14 UNL     1       0.088  -2.065 -20.272  1.00  0.00     0.117 C 
HETATM   35  O3  UNL     1       1.832  -3.261 -21.313  1.00  0.00    -0.274 OA
ATOM     36  H1  UNL     1       2.312  -0.985 -19.087  1.00  0.00     0.162 HD
ENDBRANCH   4  32
TORSDOF 9
ENDMDL
MODEL 3
REMARK VINA RESULT: -7.708985161      2.910      5.651
REMARK  9 active torsions:
REMARK  status: ('A' for Active; 'I' for Inactive)
REMARK    1  A    between atoms: O1_2  and  C2_3 
REMARK    2  A    between atoms: C2_3  and  C3_5 
REMARK    3  A    between atoms: C6_8  and  S1_9 
REMARK    4  A    between atoms: S1_9  and  C7_10 
REMARK    5  A    between atoms: C7_10  and  C8_11 
REMARK    6  A    between atoms: C9_12  and  C10_13 
REMARK    7  A    between atoms: C12_16  and  N1_17 
REMARK       I    between atoms: N1_17  and  C13_19 
REMARK    8  A    between atoms: C17_24  and  N2_26 
REMARK       I    between atoms: N2_26  and  C19_28 
REMARK    9  A    between atoms: C19_28  and  C20_30 
ROOT
HETATM    1  C8  UNL     1       6.130  -3.358 -21.530  1.00  0.00     0.007 C 
HETATM    2  C9  UNL     1       4.950  -2.829 -22.327  1.00  0.00     0.011 C 
HETATM    3  C11 UNL     1       4.428  -1.702 -21.489  1.00  0.00     0.019 C 
HETATM    4  C12 UNL     1       3.916  -2.175 -20.147  1.00  0.00     0.093 C 
HETATM    5  C15 UNL     1       4.854  -1.146 -19.528  1.00  0.00     0.016 C 
HETATM    6  C16 UNL     1       5.778  -1.710 -18.506  1.00  0.00     0.038 C 
HETATM    7  C17 UNL     1       6.872  -2.431 -19.271  1.00  0.00     0.034 C 
HETATM    8  C18 UNL     1       7.039  -3.793 -18.725  1.00  0.00     0.039 C 
HETATM    9  C21 UNL     1       6.671  -2.253 -20.717  1.00  0.00     0.023 C 
HETATM   10  C22 UNL     1       5.657  -1.130 -20.820  1.00  0.00     0.005 C 
ENDROOT
BRANCH   1  11
HETATM   11  C7  UNL     1       7.131  -4.027 -22.451  1.00  0.00     0.086 C 
BRANCH  11  12
HETATM   12  S1  UNL     1       7.223  -5.810 -22.267  1.00  0.00    -0.112 SA
BRANCH  12  13
HETATM   13  C6  UNL     1       6.199  -6.555 -23.533  1.00  0.00     0.069 A 
HETATM   14  C5  UNL     1       4.853  -6.270 -23.606  1.00  0.00     0.038 A 
HETATM   15  C4  UNL     1       4.067  -6.837 -24.572  1.00  0.00     0.022 A 
HETATM   16  C3  UNL     1       4.648  -7.696 -25.466  1.00  0.00     0.054 A 
HETATM   17  C23 UNL     1       5.991  -7.992 -25.407  1.00  0.00     0.106 A 
HETATM   18  N3  UNL     1       6.724  -7.418 -24.450  1.00  0.00    -0.360 N 
ATOM     19  H3  UNL     1       7.719  -7.635 -24.401  1.00  0.00     0.166 HD
BRANCH  16  20
HETATM   20  C2  UNL     1       3.837  -8.317 -26.507  1.00  0.00     0.294 C 
HETATM   21  O2  UNL     1       4.043  -8.071 -27.728  1.00  0.00    -0.259 OA
BRANCH  20  22
HETATM   22  O1  UNL     1       2.807  -9.201 -26.225  1.00  0.00    -0.322 OA
HETATM   23  C1  UNL     1       1.458  -8.950 -26.571  1.00  0.00     0.213 C 
ENDBRANCH  20  22
ENDBRANCH  16  20
ENDBRANCH  12  13
ENDBRANCH  11  12
ENDBRANCH   1  11
BRANCH   2  24
HETATM   24  C10 UNL     1       5.320  -2.304 -23.689  1.00  0.00     0.120 C 
HETATM   25 CL1  UNL     1       4.458  -3.047 -25.022  1.00  0.00    -0.130 Cl
ENDBRANCH   2  24
BRANCH   7  26
HETATM   26  N2  UNL     1       8.107  -1.697 -18.908  1.00  0.00    -0.351 N 
HETATM   27  C19 UNL     1       9.339  -2.063 -19.455  1.00  0.00     0.232 C 
HETATM   28  O4  UNL     1       9.546  -2.997 -20.266  1.00  0.00    -0.272 OA
ATOM     29  H2  UNL     1       8.056  -0.917 -18.253  1.00  0.00     0.163 HD
BRANCH  27  30
HETATM   30  C20 UNL     1      10.558  -1.284 -19.056  1.00  0.00     0.217 C 
HETATM   31 CL2  UNL     1      11.180  -0.346 -20.418  1.00  0.00    -0.121 Cl
ENDBRANCH  27  30
ENDBRANCH   7  26
BRANCH   4  32
HETATM   32  N1  UNL     1       2.524  -1.924 -19.917  1.00  0.00    -0.356 N 
HETATM   33  C13 UNL     1       1.550  -2.573 -20.695  1.00  0.00     0.213 C 
HETATM   34  C14 UNL     1       0.078  -2.342 -20.489  1.00  0.00     0.117 C 
HETATM   35  O3  UNL     1       1.883  -3.376 -21.597  1.00  0.00    -0.274 OA
ATOM     36  H1  UNL     1       2.240  -1.273 -19.186  1.00  0.00     0.162 HD
ENDBRANCH   4  32
TORSDOF 9
ENDMDL
MODEL 4
REMARK VINA RESULT: -7.667455956      2.192      5.213
REMARK  9 active torsions:
REMARK  status: ('A' for Active; 'I' for Inactive)
REMARK    1  A    between atoms: O1_2  and  C2_3 
REMARK    2  A    between atoms: C2_3  and  C3_5 
REMARK    3  A    between atoms: C6_8  and  S1_9 
REMARK    4  A    between atoms: S1_9  and  C7_10 
REMARK    5  A    between atoms: C7_10  and  C8_11 
REMARK    6  A    between atoms: C9_12  and  C10_13 
REMARK    7  A    between atoms: C12_16  and  N1_17 
REMARK       I    between atoms: N1_17  and  C13_19 
REMARK    8  A    between atoms: C17_24  and  N2_26 
REMARK       I    between atoms: N2_26  and  C19_28 
REMARK    9  A    between atoms: C19_28  and  C20_30 
ROOT
HETATM    1  C8  UNL     1       6.047  -3.436 -21.246  1.00  0.00     0.007 C 
HETATM    2  C9  UNL     1       4.888  -2.923 -22.083  1.00  0.00     0.011 C 
HETATM    3  C11 UNL     1       4.460  -1.674 -21.372  1.00  0.00     0.019 C 
HETATM    4  C12 UNL     1       3.947  -1.957 -19.977  1.00  0.00     0.093 C 
HETATM    5  C15 UNL     1       4.964  -0.931 -19.493  1.00  0.00     0.016 C 
HETATM    6  C16 UNL     1       5.871  -1.437 -18.426  1.00  0.00     0.038 C 
HETATM    7  C17 UNL     1       6.898  -2.313 -19.119  1.00  0.00     0.034 C 
HETATM    8  C18 UNL     1       6.987  -3.612 -18.423  1.00  0.00     0.039 C 
HETATM    9  C21 UNL     1       6.677  -2.286 -20.573  1.00  0.00     0.023 C 
HETATM   10  C22 UNL     1       5.738  -1.116 -20.790  1.00  0.00     0.005 C 
ENDROOT
BRANCH   1  11
HETATM   11  C7  UNL     1       6.981  -4.272 -22.099  1.00  0.00     0.086 C 
BRANCH  11  12
HETATM   12  S1  UNL     1       7.759  -5.632 -21.223  1.00  0.00    -0.112 SA
BRANCH  12  13
HETATM   13  C6  UNL     1       8.468  -6.743 -22.435  1.00  0.00     0.069 A 
HETATM   14  C5  UNL     1       9.832  -6.917 -22.515  1.00  0.00     0.038 A 
HETATM   15  C4  UNL     1      10.379  -7.766 -23.439  1.00  0.00     0.022 A 
HETATM   16  C3  UNL     1       9.539  -8.440 -24.284  1.00  0.00     0.054 A 
HETATM   17  C23 UNL     1       8.173  -8.279 -24.216  1.00  0.00     0.106 A 
HETATM   18  N3  UNL     1       7.679  -7.441 -23.301  1.00  0.00    -0.360 N 
ATOM     19  H3  UNL     1       6.668  -7.317 -23.248  1.00  0.00     0.166 HD
BRANCH  16  20
HETATM   20  C2  UNL     1      10.090  -9.352 -25.279  1.00  0.00     0.294 C 
HETATM   21  O2  UNL     1       9.615  -9.407 -26.448  1.00  0.00    -0.259 OA
BRANCH  20  22
HETATM   22  O1  UNL     1      11.153 -10.200 -25.008  1.00  0.00    -0.322 OA
HETATM   23  C1  UNL     1      11.958 -10.776 -26.020  1.00  0.00     0.213 C 
ENDBRANCH  20  22
ENDBRANCH  16  20
ENDBRANCH  12  13
ENDBRANCH  11  12
ENDBRANCH   1  11
BRANCH   2  24
HETATM   24  C10 UNL     1       5.261  -2.582 -23.500  1.00  0.00     0.120 C 
HETATM   25 CL1  UNL     1       4.271  -3.348 -24.726  1.00  0.00    -0.130 Cl
ENDBRANCH   2  24
BRANCH   7  26
HETATM   26  N2  UNL     1       8.185  -1.627 -18.860  1.00  0.00    -0.351 N 
HETATM   27  C19 UNL     1       9.359  -2.057 -19.487  1.00  0.00     0.232 C 
HETATM   28  O4  UNL     1       9.466  -3.012 -20.292  1.00  0.00    -0.272 OA
ATOM     29  H2  UNL     1       8.216  -0.835 -18.218  1.00  0.00     0.163 HD
BRANCH  27  30
HETATM   30  C20 UNL     1      10.636  -1.326 -19.191  1.00  0.00     0.217 C 
HETATM   31 CL2  UNL     1      11.135  -0.348 -20.574  1.00  0.00    -0.121 Cl
ENDBRANCH  27  30
ENDBRANCH   7  26
BRANCH   4  32
HETATM   32  N1  UNL     1       2.580  -1.588 -19.758  1.00  0.00    -0.356 N 
HETATM   33  C13 UNL     1       1.546  -2.281 -20.410  1.00  0.00     0.213 C 
HETATM   34  C14 UNL     1       0.097  -1.929 -20.210  1.00  0.00     0.117 C 
HETATM   35  O3  UNL     1       1.803  -3.227 -21.190  1.00  0.00    -0.274 OA
ATOM     36  H1  UNL     1       2.357  -0.819 -19.126  1.00  0.00     0.162 HD
ENDBRANCH   4  32
TORSDOF 9
ENDMDL
MODEL 5
REMARK VINA RESULT: -7.649932233      3.421      4.251
REMARK  9 active torsions:
REMARK  status: ('A' for Active; 'I' for Inactive)
REMARK    1  A    between atoms: O1_2  and  C2_3 
REMARK    2  A    between atoms: C2_3  and  C3_5 
REMARK    3  A    between atoms: C6_8  and  S1_9 
REMARK    4  A    between atoms: S1_9  and  C7_10 
REMARK    5  A    between atoms: C7_10  and  C8_11 
REMARK    6  A    between atoms: C9_12  and  C10_13 
REMARK    7  A    between atoms: C12_16  and  N1_17 
REMARK       I    between atoms: N1_17  and  C13_19 
REMARK    8  A    between atoms: C17_24  and  N2_26 
REMARK       I    between atoms: N2_26  and  C19_28 
REMARK    9  A    between atoms: C19_28  and  C20_30 
ROOT
HETATM    1  C8  UNL     1       6.903  -3.518 -21.328  1.00  0.00     0.007 C 
HETATM    2  C9  UNL     1       8.134  -4.167 -20.720  1.00  0.00     0.011 C 
HETATM    3  C11 UNL     1       8.134  -3.676 -19.304  1.00  0.00     0.019 C 
HETATM    4  C12 UNL     1       8.301  -2.175 -19.218  1.00  0.00     0.093 C 
HETATM    5  C15 UNL     1       7.029  -2.173 -18.379  1.00  0.00     0.016 C 
HETATM    6  C16 UNL     1       5.975  -1.250 -18.883  1.00  0.00     0.038 C 
HETATM    7  C17 UNL     1       5.337  -1.942 -20.073  1.00  0.00     0.034 C 
HETATM    8  C18 UNL     1       5.294  -1.011 -21.218  1.00  0.00     0.039 C 
HETATM    9  C21 UNL     1       5.926  -3.277 -20.249  1.00  0.00     0.023 C 
HETATM   10  C22 UNL     1       6.671  -3.535 -18.954  1.00  0.00     0.005 C 
ENDROOT
BRANCH   1  11
HETATM   11  C7  UNL     1       6.387  -4.349 -22.487  1.00  0.00     0.086 C 
BRANCH  11  12
HETATM   12  S1  UNL     1       6.138  -3.423 -24.003  1.00  0.00    -0.112 SA
BRANCH  12  13
HETATM   13  C6  UNL     1       4.546  -3.882 -24.682  1.00  0.00     0.069 A 
HETATM   14  C5  UNL     1       4.040  -3.235 -25.788  1.00  0.00     0.038 A 
HETATM   15  C4  UNL     1       2.824  -3.583 -26.310  1.00  0.00     0.022 A 
HETATM   16  C3  UNL     1       2.119  -4.591 -25.709  1.00  0.00     0.054 A 
HETATM   17  C23 UNL     1       2.610  -5.249 -24.604  1.00  0.00     0.106 A 
HETATM   18  N3  UNL     1       3.800  -4.879 -24.124  1.00  0.00    -0.360 N 
ATOM     19  H3  UNL     1       4.167  -5.363 -23.305  1.00  0.00     0.166 HD
BRANCH  16  20
HETATM   20  C2  UNL     1       0.820  -4.986 -26.242  1.00  0.00     0.294 C 
HETATM   21  O2  UNL     1      -0.139  -4.167 -26.295  1.00  0.00    -0.259 OA
BRANCH  20  22
HETATM   22  O1  UNL     1       0.564  -6.263 -26.717  1.00  0.00    -0.322 OA
HETATM   23  C1  UNL     1       1.319  -6.868 -27.750  1.00  0.00     0.213 C 
ENDBRANCH  20  22
ENDBRANCH  16  20
ENDBRANCH  12  13
ENDBRANCH  11  12
ENDBRANCH   1  11
BRANCH   2  24
HETATM   24  C10 UNL     1       8.095  -5.671 -20.722  1.00  0.00     0.120 C 
HETATM   25 CL1  UNL     1       9.219  -6.434 -21.831  1.00  0.00    -0.130 Cl
ENDBRANCH   2  24
BRANCH   7  26
HETATM   26  N2  UNL     1       3.927  -2.137 -19.660  1.00  0.00    -0.351 N 
HETATM   27  C19 UNL     1       2.966  -2.555 -20.585  1.00  0.00     0.232 C 
HETATM   28  O4  UNL     1       3.159  -2.800 -21.799  1.00  0.00    -0.272 OA
ATOM     29  H2  UNL     1       3.656  -1.965 -18.692  1.00  0.00     0.163 HD
BRANCH  27  30
HETATM   30  C20 UNL     1       1.554  -2.740 -20.113  1.00  0.00     0.217 C 
HETATM   31 CL2  UNL     1       0.650  -1.227 -20.222  1.00  0.00    -0.121 Cl
ENDBRANCH  27  30
ENDBRANCH   7  26
BRANCH   4  32
HETATM   32  N1  UNL     1       9.475  -1.743 -18.520  1.00  0.00    -0.356 N 
HETATM   33  C13 UNL     1      10.625  -1.366 -19.234  1.00  0.00     0.213 C 
HETATM   34  C14 UNL     1      11.881  -0.906 -18.544  1.00  0.00     0.117 C 
HETATM   35  O3  UNL     1      10.640  -1.401 -20.486  1.00  0.00    -0.274 OA
ATOM     36  H1  UNL     1       9.476  -1.710 -17.500  1.00  0.00     0.162 HD
ENDBRANCH   4  32
TORSDOF 9
ENDMDL
