MODEL 1
REMARK VINA RESULT: -9.206914738      0.000      0.000
REMARK  14 active torsions:
REMARK  status: ('A' for Active; 'I' for Inactive)
REMARK    1  A    between atoms: N1_1  and  C1_4 
REMARK    2  A    between atoms: N4_9  and  C2_10 
REMARK    3  A    between atoms: C3_12  and  C4_13 
REMARK    4  A    between atoms: C4_13  and  O2_14 
REMARK    5  A    between atoms: C4_13  and  C10_29 
REMARK    6  A    between atoms: O2_14  and  C5_15 
REMARK    7  A    between atoms: C5_15  and  C6_17 
REMARK    8  A    between atoms: C9_23  and  N6_24 
REMARK    9  A    between atoms: C10_29  and  N8_30 
REMARK   10  A    between atoms: C10_29  and  C11_34 
REMARK   11  A    between atoms: C11_34  and  O5_35 
REMARK   12  A    between atoms: C11_34  and  C12_37 
REMARK   13  A    between atoms: C12_37  and  O6_38 
REMARK   14  A    between atoms: C14_41  and  O7_42 
ROOT
HETATM    1  C4  UNL     1      27.702 -11.405  27.682  1.00  0.00     0.194 C 
ENDROOT
BRANCH   1   2
HETATM    2  C3  UNL     1      27.000 -11.684  26.371  1.00  0.00     0.158 C 
HETATM    3  O1  UNL     1      27.142 -12.986  26.024  1.00  0.00    -0.353 OA
HETATM    4  C2  UNL     1      28.036 -13.079  24.967  1.00  0.00     0.293 C 
HETATM    5  C14 UNL     1      27.590 -11.879  24.122  1.00  0.00     0.172 C 
HETATM    6  C13 UNL     1      27.508 -10.827  25.239  1.00  0.00     0.071 C 
BRANCH   4   7
HETATM    7  N4  UNL     1      27.904 -14.303  24.232  1.00  0.00    -0.172 N 
HETATM    8  N3  UNL     1      28.873 -14.742  23.412  1.00  0.00    -0.209 N 
HETATM    9  N2  UNL     1      28.489 -15.871  22.877  1.00  0.00    -0.115 N 
ATOM     10  H3  UNL     1      29.761 -14.274  23.236  1.00  0.00     0.210 HD
HETATM   11  C1  UNL     1      27.267 -16.131  23.374  1.00  0.00     0.707 A 
ATOM     12  H2  UNL     1      29.012 -16.442  22.214  1.00  0.00     0.207 HD
HETATM   13  N9  UNL     1      26.894 -15.152  24.223  1.00  0.00    -0.111 N 
ATOM     14  H9  UNL     1      26.021 -15.083  24.746  1.00  0.00     0.207 HD
BRANCH  11  15
HETATM   15  N1  UNL     1      26.554 -17.178  23.071  1.00  0.00    -0.232 N 
ATOM     16  H12 UNL     1      26.927 -18.084  22.788  1.00  0.00     0.174 HD
ATOM     17  H11 UNL     1      25.534 -17.209  23.086  1.00  0.00     0.174 HD
ENDBRANCH  11  15
ENDBRANCH   4   7
BRANCH   5  18
HETATM   18  O7  UNL     1      26.335 -12.186  23.623  1.00  0.00    -0.391 OA
ATOM     19  H7  UNL     1      26.194 -11.624  22.872  1.00  0.00     0.210 HD
ENDBRANCH   5  18
ENDBRANCH   1   2
BRANCH   1  20
HETATM   20  O2  UNL     1      28.342 -10.130  27.614  1.00  0.00    -0.306 OA
BRANCH  20  21
HETATM   21  C5  UNL     1      29.720 -10.029  27.456  1.00  0.00     0.311 C 
HETATM   22  O3  UNL     1      30.346 -11.115  27.345  1.00  0.00    -0.258 OA
BRANCH  21  23
HETATM   23  C6  UNL     1      30.421  -8.766  27.416  1.00  0.00     0.129 A 
HETATM   24  C7  UNL     1      29.976  -7.707  26.654  1.00  0.00     0.111 A 
HETATM   25  C8  UNL     1      30.726  -6.527  26.685  1.00  0.00     0.261 A 
HETATM   26  O4  UNL     1      30.344  -5.544  25.999  1.00  0.00    -0.268 OA
HETATM   27  N5  UNL     1      31.841  -6.411  27.424  1.00  0.00    -0.156 N 
HETATM   28  C9  UNL     1      32.245  -7.464  28.155  1.00  0.00     0.679 A 
ATOM     29  H5  UNL     1      32.370  -5.540  27.431  1.00  0.00     0.187 HD
HETATM   30  N7  UNL     1      31.538  -8.610  28.140  1.00  0.00    -0.186 N 
ATOM     31  H7  UNL     1      31.868  -9.394  28.704  1.00  0.00     0.184 HD
BRANCH  28  32
HETATM   32  N6  UNL     1      33.325  -7.358  28.873  1.00  0.00    -0.234 N 
ATOM     33  H62 UNL     1      34.080  -8.037  28.781  1.00  0.00     0.174 HD
ATOM     34  H61 UNL     1      33.409  -6.583  29.531  1.00  0.00     0.174 HD
ENDBRANCH  28  32
ENDBRANCH  21  23
ENDBRANCH  20  21
ENDBRANCH   1  20
BRANCH   1  35
HETATM   35  C10 UNL     1      26.696 -11.466  28.778  1.00  0.00     0.245 C 
BRANCH  35  36
HETATM   36  N8  UNL     1      25.410 -10.978  28.400  1.00  0.00    -0.070 N 
ATOM     37  H83 UNL     1      25.455 -10.500  27.500  1.00  0.00     0.274 HD
ATOM     38  H82 UNL     1      24.790 -11.749  28.152  1.00  0.00     0.274 HD
ATOM     39  H81 UNL     1      24.977 -10.380  29.103  1.00  0.00     0.274 HD
ENDBRANCH  35  36
BRANCH  35  40
HETATM   40  C11 UNL     1      26.554 -12.823  29.425  1.00  0.00     0.174 C 
BRANCH  40  41
HETATM   41  O5  UNL     1      27.493 -13.736  29.030  1.00  0.00    -0.391 OA
ATOM     42  H5  UNL     1      27.137 -14.579  28.775  1.00  0.00     0.210 HD
ENDBRANCH  40  41
BRANCH  40  43
HETATM   43  C12 UNL     1      25.126 -13.356  29.286  1.00  0.00     0.198 C 
BRANCH  43  44
HETATM   44  O6  UNL     1      25.044 -13.966  28.029  1.00  0.00    -0.398 OA
ATOM     45  H6  UNL     1      24.158 -14.298  27.944  1.00  0.00     0.209 HD
ENDBRANCH  43  44
ENDBRANCH  40  43
ENDBRANCH  35  40
ENDBRANCH   1  35
TORSDOF 14
ENDMDL
MODEL 2
REMARK VINA RESULT: -9.019257539      2.351      4.481
REMARK  14 active torsions:
REMARK  status: ('A' for Active; 'I' for Inactive)
REMARK    1  A    between atoms: N1_1  and  C1_4 
REMARK    2  A    between atoms: N4_9  and  C2_10 
REMARK    3  A    between atoms: C3_12  and  C4_13 
REMARK    4  A    between atoms: C4_13  and  O2_14 
REMARK    5  A    between atoms: C4_13  and  C10_29 
REMARK    6  A    between atoms: O2_14  and  C5_15 
REMARK    7  A    between atoms: C5_15  and  C6_17 
REMARK    8  A    between atoms: C9_23  and  N6_24 
REMARK    9  A    between atoms: C10_29  and  N8_30 
REMARK   10  A    between atoms: C10_29  and  C11_34 
REMARK   11  A    between atoms: C11_34  and  O5_35 
REMARK   12  A    between atoms: C11_34  and  C12_37 
REMARK   13  A    between atoms: C12_37  and  O6_38 
REMARK   14  A    between atoms: C14_41  and  O7_42 
ROOT
HETATM    1  C4  UNL     1      28.327 -11.070  24.833  1.00  0.00     0.194 C 
ENDROOT
BRANCH   1   2
HETATM    2  C3  UNL     1      27.111 -10.792  25.691  1.00  0.00     0.158 C 
HETATM    3  O1  UNL     1      27.182 -11.485  26.853  1.00  0.00    -0.353 OA
HETATM    4  C2  UNL     1      26.270 -12.530  26.814  1.00  0.00     0.293 C 
HETATM    5  C14 UNL     1      25.074 -11.829  26.157  1.00  0.00     0.172 C 
HETATM    6  C13 UNL     1      25.816 -11.139  25.002  1.00  0.00     0.071 C 
BRANCH   4   7
HETATM    7  N4  UNL     1      25.927 -13.020  28.117  1.00  0.00    -0.172 N 
HETATM    8  N3  UNL     1      24.669 -13.365  28.433  1.00  0.00    -0.209 N 
HETATM    9  N2  UNL     1      24.646 -13.773  29.674  1.00  0.00    -0.115 N 
ATOM     10  H3  UNL     1      23.864 -13.318  27.809  1.00  0.00     0.210 HD
HETATM   11  C1  UNL     1      25.907 -13.678  30.129  1.00  0.00     0.707 A 
ATOM     12  H2  UNL     1      23.832 -14.100  30.196  1.00  0.00     0.207 HD
HETATM   13  N9  UNL     1      26.715 -13.206  29.159  1.00  0.00    -0.111 N 
ATOM     14  H9  UNL     1      27.719 -13.031  29.217  1.00  0.00     0.207 HD
BRANCH  11  15
HETATM   15  N1  UNL     1      26.283 -13.997  31.335  1.00  0.00    -0.232 N 
ATOM     16  H12 UNL     1      27.161 -14.456  31.578  1.00  0.00     0.174 HD
ATOM     17  H11 UNL     1      25.736 -13.820  32.178  1.00  0.00     0.174 HD
ENDBRANCH  11  15
ENDBRANCH   4   7
BRANCH   5  18
HETATM   18  O7  UNL     1      24.599 -10.906  27.076  1.00  0.00    -0.391 OA
ATOM     19  H7  UNL     1      23.656 -11.010  27.105  1.00  0.00     0.210 HD
ENDBRANCH   5  18
ENDBRANCH   1   2
BRANCH   1  20
HETATM   20  O2  UNL     1      29.467 -11.255  25.674  1.00  0.00    -0.306 OA
BRANCH  20  21
HETATM   21  C5  UNL     1      30.694 -10.684  25.353  1.00  0.00     0.311 C 
HETATM   22  O3  UNL     1      31.349 -11.255  24.444  1.00  0.00    -0.258 OA
BRANCH  21  23
HETATM   23  C6  UNL     1      31.212  -9.504  26.008  1.00  0.00     0.129 A 
HETATM   24  C7  UNL     1      30.834  -9.152  27.285  1.00  0.00     0.111 A 
HETATM   25  C8  UNL     1      31.392  -7.991  27.829  1.00  0.00     0.261 A 
HETATM   26  O4  UNL     1      31.066  -7.645  28.994  1.00  0.00    -0.268 OA
HETATM   27  N5  UNL     1      32.267  -7.235  27.146  1.00  0.00    -0.156 N 
HETATM   28  C9  UNL     1      32.613  -7.608  25.902  1.00  0.00     0.679 A 
ATOM     29  H5  UNL     1      32.662  -6.393  27.564  1.00  0.00     0.187 HD
HETATM   30  N7  UNL     1      32.087  -8.723  25.359  1.00  0.00    -0.186 N 
ATOM     31  H7  UNL     1      32.366  -8.984  24.413  1.00  0.00     0.184 HD
BRANCH  28  32
HETATM   32  N6  UNL     1      33.459  -6.880  25.235  1.00  0.00    -0.234 N 
ATOM     33  H62 UNL     1      34.212  -6.386  25.714  1.00  0.00     0.174 HD
ATOM     34  H61 UNL     1      33.362  -6.807  24.222  1.00  0.00     0.174 HD
ENDBRANCH  28  32
ENDBRANCH  21  23
ENDBRANCH  20  21
ENDBRANCH   1  20
BRANCH   1  35
HETATM   35  C10 UNL     1      28.050 -12.270  23.997  1.00  0.00     0.245 C 
BRANCH  35  36
HETATM   36  N8  UNL     1      28.779 -12.292  22.771  1.00  0.00    -0.070 N 
ATOM     37  H83 UNL     1      29.774 -12.149  22.940  1.00  0.00     0.274 HD
ATOM     38  H82 UNL     1      28.806 -13.235  22.384  1.00  0.00     0.274 HD
ATOM     39  H81 UNL     1      28.433 -11.628  22.078  1.00  0.00     0.274 HD
ENDBRANCH  35  36
BRANCH  35  40
HETATM   40  C11 UNL     1      28.220 -13.587  24.714  1.00  0.00     0.174 C 
BRANCH  40  41
HETATM   41  O5  UNL     1      29.511 -13.877  25.062  1.00  0.00    -0.391 OA
ATOM     42  H5  UNL     1      29.710 -14.805  25.090  1.00  0.00     0.210 HD
ENDBRANCH  40  41
BRANCH  40  43
HETATM   43  C12 UNL     1      27.553 -14.728  23.942  1.00  0.00     0.198 C 
BRANCH  43  44
HETATM   44  O6  UNL     1      28.583 -15.484  23.371  1.00  0.00    -0.398 OA
ATOM     45  H6  UNL     1      28.532 -16.351  23.758  1.00  0.00     0.209 HD
ENDBRANCH  43  44
ENDBRANCH  40  43
ENDBRANCH  35  40
ENDBRANCH   1  35
TORSDOF 14
ENDMDL
MODEL 3
REMARK VINA RESULT: -8.835689284      1.623      2.070
REMARK  14 active torsions:
REMARK  status: ('A' for Active; 'I' for Inactive)
REMARK    1  A    between atoms: N1_1  and  C1_4 
REMARK    2  A    between atoms: N4_9  and  C2_10 
REMARK    3  A    between atoms: C3_12  and  C4_13 
REMARK    4  A    between atoms: C4_13  and  O2_14 
REMARK    5  A    between atoms: C4_13  and  C10_29 
REMARK    6  A    between atoms: O2_14  and  C5_15 
REMARK    7  A    between atoms: C5_15  and  C6_17 
REMARK    8  A    between atoms: C9_23  and  N6_24 
REMARK    9  A    between atoms: C10_29  and  N8_30 
REMARK   10  A    between atoms: C10_29  and  C11_34 
REMARK   11  A    between atoms: C11_34  and  O5_35 
REMARK   12  A    between atoms: C11_34  and  C12_37 
REMARK   13  A    between atoms: C12_37  and  O6_38 
REMARK   14  A    between atoms: C14_41  and  O7_42 
ROOT
HETATM    1  C4  UNL     1      27.875 -11.071  27.208  1.00  0.00     0.194 C 
ENDROOT
BRANCH   1   2
HETATM    2  C3  UNL     1      27.075 -11.501  25.997  1.00  0.00     0.158 C 
HETATM    3  O1  UNL     1      27.257 -12.821  25.752  1.00  0.00    -0.353 OA
HETATM    4  C2  UNL     1      28.057 -12.968  24.628  1.00  0.00     0.293 C 
HETATM    5  C14 UNL     1      27.473 -11.872  23.728  1.00  0.00     0.172 C 
HETATM    6  C13 UNL     1      27.433 -10.728  24.752  1.00  0.00     0.071 C 
BRANCH   4   7
HETATM    7  N4  UNL     1      27.928 -14.258  24.016  1.00  0.00    -0.172 N 
HETATM    8  N3  UNL     1      28.891 -14.768  23.232  1.00  0.00    -0.209 N 
HETATM    9  N2  UNL     1      28.511 -15.946  22.814  1.00  0.00    -0.115 N 
ATOM     10  H3  UNL     1      29.774 -14.312  23.001  1.00  0.00     0.210 HD
HETATM   11  C1  UNL     1      27.297 -16.166  23.348  1.00  0.00     0.707 A 
ATOM     12  H2  UNL     1      29.033 -16.576  22.203  1.00  0.00     0.207 HD
HETATM   13  N9  UNL     1      26.925 -15.112  24.102  1.00  0.00    -0.111 N 
ATOM     14  H9  UNL     1      26.058 -14.999  24.626  1.00  0.00     0.207 HD
BRANCH  11  15
HETATM   15  N1  UNL     1      26.590 -17.244  23.157  1.00  0.00    -0.232 N 
ATOM     16  H12 UNL     1      26.422 -17.970  23.853  1.00  0.00     0.174 HD
ATOM     17  H11 UNL     1      26.122 -17.481  22.282  1.00  0.00     0.174 HD
ENDBRANCH  11  15
ENDBRANCH   4   7
BRANCH   5  18
HETATM   18  O7  UNL     1      26.197 -12.282  23.377  1.00  0.00    -0.391 OA
ATOM     19  H7  UNL     1      26.168 -13.223  23.505  1.00  0.00     0.210 HD
ENDBRANCH   5  18
ENDBRANCH   1   2
BRANCH   1  20
HETATM   20  O2  UNL     1      28.368  -9.746  27.003  1.00  0.00    -0.306 OA
BRANCH  20  21
HETATM   21  C5  UNL     1      29.667  -9.403  27.361  1.00  0.00     0.311 C 
HETATM   22  O3  UNL     1      29.861  -9.171  28.583  1.00  0.00    -0.258 OA
BRANCH  21  23
HETATM   23  C6  UNL     1      30.751  -9.309  26.410  1.00  0.00     0.129 A 
HETATM   24  C7  UNL     1      31.065 -10.344  25.556  1.00  0.00     0.111 A 
HETATM   25  C8  UNL     1      32.132 -10.154  24.673  1.00  0.00     0.261 A 
HETATM   26  O4  UNL     1      32.441 -11.082  23.881  1.00  0.00    -0.268 OA
HETATM   27  N5  UNL     1      32.837  -9.012  24.644  1.00  0.00    -0.156 N 
HETATM   28  C9  UNL     1      32.504  -8.023  25.491  1.00  0.00     0.679 A 
ATOM     29  H5  UNL     1      33.611  -8.897  23.991  1.00  0.00     0.187 HD
HETATM   30  N7  UNL     1      31.479  -8.185  26.350  1.00  0.00    -0.186 N 
ATOM     31  H7  UNL     1      31.247  -7.420  26.983  1.00  0.00     0.184 HD
BRANCH  28  32
HETATM   32  N6  UNL     1      33.184  -6.915  25.469  1.00  0.00    -0.234 N 
ATOM     33  H62 UNL     1      32.736  -6.034  25.217  1.00  0.00     0.174 HD
ATOM     34  H61 UNL     1      34.175  -6.936  25.708  1.00  0.00     0.174 HD
ENDBRANCH  28  32
ENDBRANCH  21  23
ENDBRANCH  20  21
ENDBRANCH   1  20
BRANCH   1  35
HETATM   35  C10 UNL     1      26.998 -11.161  28.407  1.00  0.00     0.245 C 
BRANCH  35  36
HETATM   36  N8  UNL     1      25.626 -11.395  28.095  1.00  0.00    -0.070 N 
ATOM     37  H83 UNL     1      25.510 -11.591  27.101  1.00  0.00     0.274 HD
ATOM     38  H82 UNL     1      25.315 -12.286  28.482  1.00  0.00     0.274 HD
ATOM     39  H81 UNL     1      25.006 -10.640  28.388  1.00  0.00     0.274 HD
ENDBRANCH  35  36
BRANCH  35  40
HETATM   40  C11 UNL     1      27.459 -12.153  29.448  1.00  0.00     0.174 C 
BRANCH  40  41
HETATM   41  O5  UNL     1      28.805 -12.397  29.437  1.00  0.00    -0.391 OA
ATOM     42  H5  UNL     1      29.227 -12.224  28.604  1.00  0.00     0.210 HD
ENDBRANCH  40  41
BRANCH  40  43
HETATM   43  C12 UNL     1      26.632 -13.440  29.391  1.00  0.00     0.198 C 
BRANCH  43  44
HETATM   44  O6  UNL     1      27.256 -14.279  28.461  1.00  0.00    -0.398 OA
ATOM     45  H6  UNL     1      26.565 -14.762  28.023  1.00  0.00     0.209 HD
ENDBRANCH  43  44
ENDBRANCH  40  43
ENDBRANCH  35  40
ENDBRANCH   1  35
TORSDOF 14
ENDMDL
MODEL 4
REMARK VINA RESULT: -8.786813482      2.979      4.744
REMARK  14 active torsions:
REMARK  status: ('A' for Active; 'I' for Inactive)
REMARK    1  A    between atoms: N1_1  and  C1_4 
REMARK    2  A    between atoms: N4_9  and  C2_10 
REMARK    3  A    between atoms: C3_12  and  C4_13 
REMARK    4  A    between atoms: C4_13  and  O2_14 
REMARK    5  A    between atoms: C4_13  and  C10_29 
REMARK    6  A    between atoms: O2_14  and  C5_15 
REMARK    7  A    between atoms: C5_15  and  C6_17 
REMARK    8  A    between atoms: C9_23  and  N6_24 
REMARK    9  A    between atoms: C10_29  and  N8_30 
REMARK   10  A    between atoms: C10_29  and  C11_34 
REMARK   11  A    between atoms: C11_34  and  O5_35 
REMARK   12  A    between atoms: C11_34  and  C12_37 
REMARK   13  A    between atoms: C12_37  and  O6_38 
REMARK   14  A    between atoms: C14_41  and  O7_42 
ROOT
HETATM    1  C4  UNL     1      28.258 -10.163  25.654  1.00  0.00     0.194 C 
ENDROOT
BRANCH   1   2
HETATM    2  C3  UNL     1      26.944 -10.222  26.402  1.00  0.00     0.158 C 
HETATM    3  O1  UNL     1      27.073 -10.956  27.533  1.00  0.00    -0.353 OA
HETATM    4  C2  UNL     1      26.433 -12.175  27.360  1.00  0.00     0.293 C 
HETATM    5  C14 UNL     1      25.167 -11.718  26.623  1.00  0.00     0.172 C 
HETATM    6  C13 UNL     1      25.825 -10.805  25.576  1.00  0.00     0.071 C 
BRANCH   4   7
HETATM    7  N4  UNL     1      26.103 -12.813  28.600  1.00  0.00    -0.172 N 
HETATM    8  N3  UNL     1      24.927 -13.433  28.786  1.00  0.00    -0.209 N 
HETATM    9  N2  UNL     1      24.897 -13.921  29.997  1.00  0.00    -0.115 N 
ATOM     10  H3  UNL     1      24.180 -13.510  28.095  1.00  0.00     0.210 HD
HETATM   11  C1  UNL     1      26.071 -13.598  30.567  1.00  0.00     0.707 A 
ATOM     12  H2  UNL     1      24.133 -14.443  30.426  1.00  0.00     0.207 HD
HETATM   13  N9  UNL     1      26.832 -12.904  29.697  1.00  0.00    -0.111 N 
ATOM     14  H9  UNL     1      27.768 -12.529  29.852  1.00  0.00     0.207 HD
BRANCH  11  15
HETATM   15  N1  UNL     1      26.413 -13.915  31.783  1.00  0.00    -0.232 N 
ATOM     16  H12 UNL     1      27.362 -13.885  32.156  1.00  0.00     0.174 HD
ATOM     17  H11 UNL     1      25.764 -14.230  32.504  1.00  0.00     0.174 HD
ENDBRANCH  11  15
ENDBRANCH   4   7
BRANCH   5  18
HETATM   18  O7  UNL     1      24.418 -10.988  27.532  1.00  0.00    -0.391 OA
ATOM     19  H7  UNL     1      24.309 -10.121  27.161  1.00  0.00     0.210 HD
ENDBRANCH   5  18
ENDBRANCH   1   2
BRANCH   1  20
HETATM   20  O2  UNL     1      29.337 -10.232  26.588  1.00  0.00    -0.306 OA
BRANCH  20  21
HETATM   21  C5  UNL     1      30.192  -9.150  26.775  1.00  0.00     0.311 C 
HETATM   22  O3  UNL     1      29.885  -8.355  27.700  1.00  0.00    -0.258 OA
BRANCH  21  23
HETATM   23  C6  UNL     1      31.371  -8.926  25.969  1.00  0.00     0.129 A 
HETATM   24  C7  UNL     1      32.135  -7.787  26.094  1.00  0.00     0.111 A 
HETATM   25  C8  UNL     1      33.257  -7.665  25.269  1.00  0.00     0.261 A 
HETATM   26  O4  UNL     1      33.974  -6.635  25.361  1.00  0.00    -0.268 OA
HETATM   27  N5  UNL     1      33.593  -8.615  24.380  1.00  0.00    -0.156 N 
HETATM   28  C9  UNL     1      32.825  -9.713  24.285  1.00  0.00     0.679 A 
ATOM     29  H5  UNL     1      34.416  -8.504  23.789  1.00  0.00     0.187 HD
HETATM   30  N7  UNL     1      31.739  -9.850  25.071  1.00  0.00    -0.186 N 
ATOM     31  H7  UNL     1      31.173 -10.694  24.978  1.00  0.00     0.184 HD
BRANCH  28  32
HETATM   32  N6  UNL     1      33.144 -10.636  23.426  1.00  0.00    -0.234 N 
ATOM     33  H62 UNL     1      33.992 -10.554  22.865  1.00  0.00     0.174 HD
ATOM     34  H61 UNL     1      32.535 -11.447  23.319  1.00  0.00     0.174 HD
ENDBRANCH  28  32
ENDBRANCH  21  23
ENDBRANCH  20  21
ENDBRANCH   1  20
BRANCH   1  35
HETATM   35  C10 UNL     1      28.295 -11.285  24.676  1.00  0.00     0.245 C 
BRANCH  35  36
HETATM   36  N8  UNL     1      28.870 -10.928  23.420  1.00  0.00    -0.070 N 
ATOM     37  H83 UNL     1      29.809 -11.315  23.330  1.00  0.00     0.274 HD
ATOM     38  H82 UNL     1      28.408 -11.424  22.658  1.00  0.00     0.274 HD
ATOM     39  H81 UNL     1      28.876  -9.923  23.244  1.00  0.00     0.274 HD
ENDBRANCH  35  36
BRANCH  35  40
HETATM   40  C11 UNL     1      28.944 -12.546  25.192  1.00  0.00     0.174 C 
BRANCH  40  41
HETATM   41  O5  UNL     1      30.311 -12.520  25.187  1.00  0.00    -0.391 OA
ATOM     42  H5  UNL     1      30.707 -12.587  26.048  1.00  0.00     0.210 HD
ENDBRANCH  40  41
BRANCH  40  43
HETATM   43  C12 UNL     1      28.380 -13.785  24.491  1.00  0.00     0.198 C 
BRANCH  43  44
HETATM   44  O6  UNL     1      29.047 -14.891  25.031  1.00  0.00    -0.398 OA
ATOM     45  H6  UNL     1      28.588 -15.123  25.831  1.00  0.00     0.209 HD
ENDBRANCH  43  44
ENDBRANCH  40  43
ENDBRANCH  35  40
ENDBRANCH   1  35
TORSDOF 14
ENDMDL
MODEL 5
REMARK VINA RESULT: -8.711656081      2.647      5.119
REMARK  14 active torsions:
REMARK  status: ('A' for Active; 'I' for Inactive)
REMARK    1  A    between atoms: N1_1  and  C1_4 
REMARK    2  A    between atoms: N4_9  and  C2_10 
REMARK    3  A    between atoms: C3_12  and  C4_13 
REMARK    4  A    between atoms: C4_13  and  O2_14 
REMARK    5  A    between atoms: C4_13  and  C10_29 
REMARK    6  A    between atoms: O2_14  and  C5_15 
REMARK    7  A    between atoms: C5_15  and  C6_17 
REMARK    8  A    between atoms: C9_23  and  N6_24 
REMARK    9  A    between atoms: C10_29  and  N8_30 
REMARK   10  A    between atoms: C10_29  and  C11_34 
REMARK   11  A    between atoms: C11_34  and  O5_35 
REMARK   12  A    between atoms: C11_34  and  C12_37 
REMARK   13  A    between atoms: C12_37  and  O6_38 
REMARK   14  A    between atoms: C14_41  and  O7_42 
ROOT
HETATM    1  C4  UNL     1      27.423 -11.235  26.173  1.00  0.00     0.194 C 
ENDROOT
BRANCH   1   2
HETATM    2  C3  UNL     1      26.245 -11.519  27.079  1.00  0.00     0.158 C 
HETATM    3  O1  UNL     1      26.659 -11.694  28.356  1.00  0.00    -0.353 OA
HETATM    4  C2  UNL     1      26.569 -13.039  28.683  1.00  0.00     0.293 C 
HETATM    5  C14 UNL     1      25.228 -13.394  28.026  1.00  0.00     0.172 C 
HETATM    6  C13 UNL     1      25.461 -12.736  26.657  1.00  0.00     0.071 C 
BRANCH   4   7
HETATM    7  N4  UNL     1      26.525 -13.269  30.097  1.00  0.00    -0.172 N 
HETATM    8  N3  UNL     1      27.240 -12.525  30.957  1.00  0.00    -0.209 N 
HETATM    9  N2  UNL     1      27.010 -12.951  32.171  1.00  0.00    -0.115 N 
ATOM     10  H3  UNL     1      27.860 -11.755  30.705  1.00  0.00     0.210 HD
HETATM   11  C1  UNL     1      26.141 -13.971  32.058  1.00  0.00     0.707 A 
ATOM     12  H2  UNL     1      27.410 -12.582  33.033  1.00  0.00     0.207 HD
HETATM   13  N9  UNL     1      25.833 -14.176  30.761  1.00  0.00    -0.111 N 
ATOM     14  H9  UNL     1      25.202 -14.879  30.377  1.00  0.00     0.207 HD
BRANCH  11  15
HETATM   15  N1  UNL     1      25.672 -14.655  33.062  1.00  0.00    -0.232 N 
ATOM     16  H12 UNL     1      24.691 -14.705  33.336  1.00  0.00     0.174 HD
ATOM     17  H11 UNL     1      26.240 -15.223  33.691  1.00  0.00     0.174 HD
ENDBRANCH  11  15
ENDBRANCH   4   7
BRANCH   5  18
HETATM   18  O7  UNL     1      24.246 -12.732  28.745  1.00  0.00    -0.391 OA
ATOM     19  H7  UNL     1      23.501 -12.634  28.163  1.00  0.00     0.210 HD
ENDBRANCH   5  18
ENDBRANCH   1   2
BRANCH   1  20
HETATM   20  O2  UNL     1      28.637 -11.471  26.888  1.00  0.00    -0.306 OA
BRANCH  20  21
HETATM   21  C5  UNL     1      29.447 -10.416  27.292  1.00  0.00     0.311 C 
HETATM   22  O3  UNL     1      29.186  -9.916  28.417  1.00  0.00    -0.258 OA
BRANCH  21  23
HETATM   23  C6  UNL     1      30.533  -9.900  26.489  1.00  0.00     0.129 A 
HETATM   24  C7  UNL     1      31.167 -10.670  25.538  1.00  0.00     0.111 A 
HETATM   25  C8  UNL     1      32.206 -10.078  24.814  1.00  0.00     0.261 A 
HETATM   26  O4  UNL     1      32.803 -10.757  23.938  1.00  0.00    -0.268 OA
HETATM   27  N5  UNL     1      32.587  -8.808  25.024  1.00  0.00    -0.156 N 
HETATM   28  C9  UNL     1      31.947  -8.086  25.960  1.00  0.00     0.679 A 
ATOM     29  H5  UNL     1      33.348  -8.398  24.483  1.00  0.00     0.187 HD
HETATM   30  N7  UNL     1      30.943  -8.637  26.669  1.00  0.00    -0.186 N 
ATOM     31  H7  UNL     1      30.474  -8.068  27.374  1.00  0.00     0.184 HD
BRANCH  28  32
HETATM   32  N6  UNL     1      32.312  -6.856  26.169  1.00  0.00    -0.234 N 
ATOM     33  H62 UNL     1      31.789  -6.081  25.762  1.00  0.00     0.174 HD
ATOM     34  H61 UNL     1      33.131  -6.672  26.749  1.00  0.00     0.174 HD
ENDBRANCH  28  32
ENDBRANCH  21  23
ENDBRANCH  20  21
ENDBRANCH   1  20
BRANCH   1  35
HETATM   35  C10 UNL     1      27.309 -12.098  24.966  1.00  0.00     0.245 C 
BRANCH  35  36
HETATM   36  N8  UNL     1      26.964 -11.380  23.782  1.00  0.00    -0.070 N 
ATOM     37  H83 UNL     1      26.694 -10.423  24.006  1.00  0.00     0.274 HD
ATOM     38  H82 UNL     1      27.794 -11.195  23.218  1.00  0.00     0.274 HD
ATOM     39  H81 UNL     1      26.244 -11.837  23.223  1.00  0.00     0.274 HD
ENDBRANCH  35  36
BRANCH  35  40
HETATM   40  C11 UNL     1      28.514 -12.968  24.701  1.00  0.00     0.174 C 
BRANCH  40  41
HETATM   41  O5  UNL     1      29.266 -12.577  23.627  1.00  0.00    -0.391 OA
ATOM     42  H5  UNL     1      28.766 -12.418  22.836  1.00  0.00     0.210 HD
ENDBRANCH  40  41
BRANCH  40  43
HETATM   43  C12 UNL     1      28.125 -14.447  24.635  1.00  0.00     0.198 C 
BRANCH  43  44
HETATM   44  O6  UNL     1      29.251 -15.178  25.028  1.00  0.00    -0.398 OA
ATOM     45  H6  UNL     1      29.888 -15.096  24.328  1.00  0.00     0.209 HD
ENDBRANCH  43  44
ENDBRANCH  40  43
ENDBRANCH  35  40
ENDBRANCH   1  35
TORSDOF 14
ENDMDL
