MODEL 1
REMARK VINA RESULT: -9.441357019      0.000      0.000
REMARK  10 active torsions:
REMARK  status: ('A' for Active; 'I' for Inactive)
REMARK       I    between atoms: C1_2  and  N1_3 
REMARK    1  A    between atoms: C1_2  and  C6_17 
REMARK    2  A    between atoms: N1_3  and  N2_5 
REMARK    3  A    between atoms: N2_5  and  C2_7 
REMARK    4  A    between atoms: C7_20  and  C8_21 
REMARK    5  A    between atoms: C8_21  and  O4_22 
REMARK    6  A    between atoms: C8_21  and  O5_24 
REMARK    7  A    between atoms: C10_29  and  C11_30 
REMARK    8  A    between atoms: C11_30  and  O8_31 
REMARK    9  A    between atoms: C13_37  and  O9_38 
REMARK   10  A    between atoms: C14_40  and  O10_41 
ROOT
HETATM    1  C6  UNL     1      27.324 -12.023  27.807  1.00  0.00     0.121 A 
HETATM    2  N5  UNL     1      26.995 -12.181  29.140  1.00  0.00    -0.331 N 
ATOM      3  H5  UNL     1      27.294 -11.479  29.818  1.00  0.00     0.168 HD
HETATM    4  C7  UNL     1      26.301 -13.225  29.551  1.00  0.00     0.183 A 
HETATM    5  O6  UNL     1      25.935 -14.102  28.664  1.00  0.00    -0.256 OA
HETATM    6  C9  UNL     1      26.223 -14.002  27.362  1.00  0.00     0.303 A 
HETATM    7  O7  UNL     1      25.801 -14.928  26.632  1.00  0.00    -0.259 OA
HETATM    8  C10 UNL     1      26.950 -12.928  26.859  1.00  0.00     0.115 A 
ENDROOT
BRANCH   1   9
HETATM    9  C1  UNL     1      28.045 -10.817  27.532  1.00  0.00     0.287 C 
HETATM   10  O1  UNL     1      27.533  -9.980  26.756  1.00  0.00    -0.264 OA
HETATM   11  N1  UNL     1      29.287 -10.529  28.096  1.00  0.00    -0.263 N 
ATOM     12  H1  UNL     1      29.664 -11.229  28.735  1.00  0.00     0.190 HD
BRANCH  11  13
HETATM   13  N2  UNL     1      30.065  -9.412  27.892  1.00  0.00    -0.282 N 
ATOM     14  H2  UNL     1      30.005  -8.641  28.556  1.00  0.00     0.188 HD
BRANCH  13  15
HETATM   15  C2  UNL     1      30.936  -9.300  26.799  1.00  0.00     0.129 A 
HETATM   16  C3  UNL     1      31.656  -8.151  26.614  1.00  0.00     0.124 A 
HETATM   17  C4  UNL     1      32.502  -8.060  25.541  1.00  0.00     0.252 A 
HETATM   18  O2  UNL     1      33.174  -6.990  25.366  1.00  0.00    -0.268 OA
HETATM   19  N3  UNL     1      32.618  -9.081  24.688  1.00  0.00    -0.275 N 
HETATM   20  C5  UNL     1      31.907 -10.204  24.879  1.00  0.00     0.328 A 
ATOM     21  H3  UNL     1      33.249  -9.008  23.890  1.00  0.00     0.173 HD
HETATM   22  O3  UNL     1      32.031 -11.159  24.062  1.00  0.00    -0.247 OA
HETATM   23  N4  UNL     1      31.073 -10.305  25.931  1.00  0.00    -0.293 N 
ATOM     24  H4  UNL     1      30.537 -11.162  26.068  1.00  0.00     0.172 HD
ENDBRANCH  13  15
ENDBRANCH  11  13
ENDBRANCH   1   9
BRANCH   8  25
HETATM   25  C11 UNL     1      27.246 -12.798  25.469  1.00  0.00     0.289 C 
HETATM   26  N6  UNL     1      27.354 -14.017  24.684  1.00  0.00    -0.033 N 
HETATM   27  C12 UNL     1      27.769 -13.519  23.368  1.00  0.00     0.270 C 
ATOM     28  H62 UNL     1      27.965 -14.730  25.083  1.00  0.00     0.281 HD
ATOM     29  H61 UNL     1      26.515 -14.597  24.676  1.00  0.00     0.281 HD
HETATM   30  C13 UNL     1      28.335 -12.153  23.544  1.00  0.00     0.177 C 
HETATM   31  C14 UNL     1      28.594 -12.191  25.089  1.00  0.00     0.217 C 
BRANCH  25  32
HETATM   32  O8  UNL     1      26.326 -12.010  24.729  1.00  0.00    -0.359 OA
ATOM     33  H8  UNL     1      25.411 -12.228  24.864  1.00  0.00     0.213 HD
ENDBRANCH  25  32
BRANCH  30  34
HETATM   34  O9  UNL     1      29.520 -11.930  22.882  1.00  0.00    -0.391 OA
ATOM     35  H9  UNL     1      30.121 -11.346  23.328  1.00  0.00     0.210 HD
ENDBRANCH  30  34
BRANCH  31  36
HETATM   36  O10 UNL     1      29.651 -13.067  25.201  1.00  0.00    -0.388 OA
ATOM     37  H10 UNL     1      30.101 -13.233  24.382  1.00  0.00     0.210 HD
ENDBRANCH  31  36
ENDBRANCH   8  25
BRANCH   4  38
HETATM   38  C8  UNL     1      25.931 -13.416  31.004  1.00  0.00     0.331 C 
BRANCH  38  39
HETATM   39  O4  UNL     1      25.894 -14.788  31.236  1.00  0.00    -0.364 OA
ATOM     40  H4  UNL     1      26.771 -15.049  31.493  1.00  0.00     0.213 HD
ENDBRANCH  38  39
BRANCH  38  41
HETATM   41  O5  UNL     1      26.971 -12.901  31.761  1.00  0.00    -0.364 OA
ATOM     42  H5  UNL     1      27.780 -13.228  31.385  1.00  0.00     0.213 HD
ENDBRANCH  38  41
ENDBRANCH   4  38
TORSDOF 10
ENDMDL
MODEL 2
REMARK VINA RESULT: -9.376489037      2.350      5.105
REMARK  10 active torsions:
REMARK  status: ('A' for Active; 'I' for Inactive)
REMARK       I    between atoms: C1_2  and  N1_3 
REMARK    1  A    between atoms: C1_2  and  C6_17 
REMARK    2  A    between atoms: N1_3  and  N2_5 
REMARK    3  A    between atoms: N2_5  and  C2_7 
REMARK    4  A    between atoms: C7_20  and  C8_21 
REMARK    5  A    between atoms: C8_21  and  O4_22 
REMARK    6  A    between atoms: C8_21  and  O5_24 
REMARK    7  A    between atoms: C10_29  and  C11_30 
REMARK    8  A    between atoms: C11_30  and  O8_31 
REMARK    9  A    between atoms: C13_37  and  O9_38 
REMARK   10  A    between atoms: C14_40  and  O10_41 
ROOT
HETATM    1  C6  UNL     1      27.067 -10.827  25.632  1.00  0.00     0.121 A 
HETATM    2  N5  UNL     1      26.976 -10.428  24.312  1.00  0.00    -0.331 N 
ATOM      3  H5  UNL     1      27.793 -10.029  23.849  1.00  0.00     0.168 HD
HETATM    4  C7  UNL     1      25.847 -10.556  23.639  1.00  0.00     0.183 A 
HETATM    5  O6  UNL     1      24.824 -11.067  24.256  1.00  0.00    -0.256 OA
HETATM    6  C9  UNL     1      24.854 -11.470  25.530  1.00  0.00     0.303 A 
HETATM    7  O7  UNL     1      23.786 -11.942  25.984  1.00  0.00    -0.259 OA
HETATM    8  C10 UNL     1      26.008 -11.367  26.299  1.00  0.00     0.115 A 
ENDROOT
BRANCH   1   9
HETATM    9  C1  UNL     1      28.372 -10.652  26.195  1.00  0.00     0.287 C 
HETATM   10  O1  UNL     1      29.073 -11.668  26.401  1.00  0.00    -0.264 OA
HETATM   11  N1  UNL     1      28.900  -9.403  26.516  1.00  0.00    -0.263 N 
ATOM     12  H1  UNL     1      28.305  -8.599  26.319  1.00  0.00     0.190 HD
BRANCH  11  13
HETATM   13  N2  UNL     1      30.131  -9.126  27.068  1.00  0.00    -0.282 N 
ATOM     14  H2  UNL     1      30.508  -9.758  27.774  1.00  0.00     0.188 HD
BRANCH  13  15
HETATM   15  C2  UNL     1      30.882  -8.005  26.690  1.00  0.00     0.129 A 
HETATM   16  C3  UNL     1      32.200  -8.147  26.349  1.00  0.00     0.124 A 
HETATM   17  C4  UNL     1      32.917  -7.040  25.983  1.00  0.00     0.252 A 
HETATM   18  O2  UNL     1      34.146  -7.170  25.665  1.00  0.00    -0.268 OA
HETATM   19  N3  UNL     1      32.335  -5.838  25.962  1.00  0.00    -0.275 N 
HETATM   20  C5  UNL     1      31.040  -5.709  26.298  1.00  0.00     0.328 A 
ATOM     21  H3  UNL     1      32.874  -5.016  25.690  1.00  0.00     0.173 HD
HETATM   22  O3  UNL     1      30.508  -4.565  26.271  1.00  0.00    -0.247 OA
HETATM   23  N4  UNL     1      30.326  -6.791  26.659  1.00  0.00    -0.293 N 
ATOM     24  H4  UNL     1      29.343  -6.683  26.912  1.00  0.00     0.172 HD
ENDBRANCH  13  15
ENDBRANCH  11  13
ENDBRANCH   1   9
BRANCH   8  25
HETATM   25  C11 UNL     1      26.060 -11.812  27.653  1.00  0.00     0.289 C 
HETATM   26  N6  UNL     1      27.239 -11.469  28.433  1.00  0.00    -0.033 N 
HETATM   27  C12 UNL     1      27.005 -12.169  29.701  1.00  0.00     0.270 C 
ATOM     28  H62 UNL     1      28.128 -11.687  27.982  1.00  0.00     0.281 HD
ATOM     29  H61 UNL     1      27.415 -10.468  28.524  1.00  0.00     0.281 HD
HETATM   30  C13 UNL     1      25.994 -13.237  29.463  1.00  0.00     0.177 C 
HETATM   31  C14 UNL     1      26.084 -13.318  27.901  1.00  0.00     0.217 C 
BRANCH  25  32
HETATM   32  O8  UNL     1      24.986 -11.376  28.472  1.00  0.00    -0.359 OA
ATOM     33  H8  UNL     1      25.045 -11.632  29.385  1.00  0.00     0.213 HD
ENDBRANCH  25  32
BRANCH  30  34
HETATM   34  O9  UNL     1      26.309 -14.460  30.008  1.00  0.00    -0.391 OA
ATOM     35  H9  UNL     1      26.031 -15.208  29.494  1.00  0.00     0.210 HD
ENDBRANCH  30  34
BRANCH  31  36
HETATM   36  O10 UNL     1      27.317 -13.896  27.694  1.00  0.00    -0.388 OA
ATOM     37  H10 UNL     1      27.274 -14.801  27.408  1.00  0.00     0.210 HD
ENDBRANCH  31  36
ENDBRANCH   8  25
BRANCH   4  38
HETATM   38  C8  UNL     1      25.726 -10.127  22.195  1.00  0.00     0.331 C 
BRANCH  38  39
HETATM   39  O4  UNL     1      24.435 -10.445  21.785  1.00  0.00    -0.364 OA
ATOM     40  H4  UNL     1      24.511 -10.876  20.941  1.00  0.00     0.213 HD
ENDBRANCH  38  39
BRANCH  38  41
HETATM   41  O5  UNL     1      25.835  -8.746  22.169  1.00  0.00    -0.364 OA
ATOM     42  H5  UNL     1      26.547  -8.532  21.578  1.00  0.00     0.213 HD
ENDBRANCH  38  41
ENDBRANCH   4  38
TORSDOF 10
ENDMDL
MODEL 3
REMARK VINA RESULT: -9.371933271      1.519      2.317
REMARK  10 active torsions:
REMARK  status: ('A' for Active; 'I' for Inactive)
REMARK       I    between atoms: C1_2  and  N1_3 
REMARK    1  A    between atoms: C1_2  and  C6_17 
REMARK    2  A    between atoms: N1_3  and  N2_5 
REMARK    3  A    between atoms: N2_5  and  C2_7 
REMARK    4  A    between atoms: C7_20  and  C8_21 
REMARK    5  A    between atoms: C8_21  and  O4_22 
REMARK    6  A    between atoms: C8_21  and  O5_24 
REMARK    7  A    between atoms: C10_29  and  C11_30 
REMARK    8  A    between atoms: C11_30  and  O8_31 
REMARK    9  A    between atoms: C13_37  and  O9_38 
REMARK   10  A    between atoms: C14_40  and  O10_41 
ROOT
HETATM    1  C6  UNL     1      26.974 -12.146  29.140  1.00  0.00     0.121 A 
HETATM    2  N5  UNL     1      26.906 -12.781  30.366  1.00  0.00    -0.331 N 
ATOM      3  H5  UNL     1      27.504 -12.465  31.130  1.00  0.00     0.168 HD
HETATM    4  C7  UNL     1      26.080 -13.791  30.564  1.00  0.00     0.183 A 
HETATM    5  O6  UNL     1      25.332 -14.171  29.572  1.00  0.00    -0.256 OA
HETATM    6  C9  UNL     1      25.353 -13.594  28.366  1.00  0.00     0.303 A 
HETATM    7  O7  UNL     1      24.573 -14.074  27.512  1.00  0.00    -0.259 OA
HETATM    8  C10 UNL     1      26.199 -12.526  28.085  1.00  0.00     0.115 A 
ENDROOT
BRANCH   1   9
HETATM    9  C1  UNL     1      27.895 -11.050  29.112  1.00  0.00     0.287 C 
HETATM   10  O1  UNL     1      27.652 -10.049  29.824  1.00  0.00    -0.264 OA
HETATM   11  N1  UNL     1      29.052 -11.048  28.335  1.00  0.00    -0.263 N 
ATOM     12  H1  UNL     1      29.223 -11.887  27.781  1.00  0.00     0.190 HD
BRANCH  11  13
HETATM   13  N2  UNL     1      29.991 -10.048  28.228  1.00  0.00    -0.282 N 
ATOM     14  H2  UNL     1      30.169  -9.450  29.034  1.00  0.00     0.188 HD
BRANCH  13  15
HETATM   15  C2  UNL     1      30.712  -9.826  27.046  1.00  0.00     0.129 A 
HETATM   16  C3  UNL     1      30.698 -10.763  26.049  1.00  0.00     0.124 A 
HETATM   17  C4  UNL     1      31.408 -10.528  24.902  1.00  0.00     0.252 A 
HETATM   18  O2  UNL     1      31.396 -11.400  23.972  1.00  0.00    -0.268 OA
HETATM   19  N3  UNL     1      32.104  -9.397  24.763  1.00  0.00    -0.275 N 
HETATM   20  C5  UNL     1      32.111  -8.483  25.748  1.00  0.00     0.328 A 
ATOM     21  H3  UNL     1      32.632  -9.227  23.907  1.00  0.00     0.173 HD
HETATM   22  O3  UNL     1      32.776  -7.421  25.596  1.00  0.00    -0.247 OA
HETATM   23  N4  UNL     1      31.416  -8.704  26.879  1.00  0.00    -0.293 N 
ATOM     24  H4  UNL     1      31.428  -8.004  27.621  1.00  0.00     0.172 HD
ENDBRANCH  13  15
ENDBRANCH  11  13
ENDBRANCH   1   9
BRANCH   8  25
HETATM   25  C11 UNL     1      26.217 -11.888  26.809  1.00  0.00     0.289 C 
HETATM   26  N6  UNL     1      25.005 -11.943  26.008  1.00  0.00    -0.033 N 
HETATM   27  C12 UNL     1      25.416 -11.305  24.753  1.00  0.00     0.270 C 
ATOM     28  H62 UNL     1      24.605 -12.876  25.902  1.00  0.00     0.281 HD
ATOM     29  H61 UNL     1      24.182 -11.530  26.448  1.00  0.00     0.281 HD
HETATM   30  C13 UNL     1      26.904 -11.336  24.680  1.00  0.00     0.177 C 
HETATM   31  C14 UNL     1      27.180 -12.437  25.760  1.00  0.00     0.217 C 
BRANCH  25  32
HETATM   32  O8  UNL     1      26.534 -10.504  26.833  1.00  0.00    -0.359 OA
ATOM     33  H8  UNL     1      25.834  -9.937  27.134  1.00  0.00     0.213 HD
ENDBRANCH  25  32
BRANCH  30  34
HETATM   34  O9  UNL     1      27.413 -11.739  23.468  1.00  0.00    -0.391 OA
ATOM     35  H9  UNL     1      27.422 -12.679  23.333  1.00  0.00     0.210 HD
ENDBRANCH  30  34
BRANCH  31  36
HETATM   36  O10 UNL     1      26.736 -13.588  25.145  1.00  0.00    -0.388 OA
ATOM     37  H10 UNL     1      26.339 -13.440  24.295  1.00  0.00     0.210 HD
ENDBRANCH  31  36
ENDBRANCH   8  25
BRANCH   4  38
HETATM   38  C8  UNL     1      25.990 -14.498  31.897  1.00  0.00     0.331 C 
BRANCH  38  39
HETATM   39  O4  UNL     1      26.561 -13.652  32.843  1.00  0.00    -0.364 OA
ATOM     40  H4  UNL     1      26.075 -13.772  33.651  1.00  0.00     0.213 HD
ENDBRANCH  38  39
BRANCH  38  41
HETATM   41  O5  UNL     1      24.645 -14.613  32.209  1.00  0.00    -0.364 OA
ATOM     42  H5  UNL     1      24.188 -14.827  31.404  1.00  0.00     0.213 HD
ENDBRANCH  38  41
ENDBRANCH   4  38
TORSDOF 10
ENDMDL
MODEL 4
REMARK VINA RESULT: -9.327969175      1.984      6.378
REMARK  10 active torsions:
REMARK  status: ('A' for Active; 'I' for Inactive)
REMARK       I    between atoms: C1_2  and  N1_3 
REMARK    1  A    between atoms: C1_2  and  C6_17 
REMARK    2  A    between atoms: N1_3  and  N2_5 
REMARK    3  A    between atoms: N2_5  and  C2_7 
REMARK    4  A    between atoms: C7_20  and  C8_21 
REMARK    5  A    between atoms: C8_21  and  O4_22 
REMARK    6  A    between atoms: C8_21  and  O5_24 
REMARK    7  A    between atoms: C10_29  and  C11_30 
REMARK    8  A    between atoms: C11_30  and  O8_31 
REMARK    9  A    between atoms: C13_37  and  O9_38 
REMARK   10  A    between atoms: C14_40  and  O10_41 
ROOT
HETATM    1  C6  UNL     1      30.034  -9.917  27.354  1.00  0.00     0.121 A 
HETATM    2  N5  UNL     1      30.620  -8.943  28.141  1.00  0.00    -0.331 N 
ATOM      3  H5  UNL     1      30.268  -8.780  29.084  1.00  0.00     0.168 HD
HETATM    4  C7  UNL     1      31.628  -8.220  27.690  1.00  0.00     0.183 A 
HETATM    5  O6  UNL     1      32.054  -8.450  26.485  1.00  0.00    -0.256 OA
HETATM    6  C9  UNL     1      31.528  -9.379  25.679  1.00  0.00     0.303 A 
HETATM    7  O7  UNL     1      32.048  -9.482  24.544  1.00  0.00    -0.259 OA
HETATM    8  C10 UNL     1      30.465 -10.178  26.087  1.00  0.00     0.115 A 
ENDROOT
BRANCH   1   9
HETATM    9  C1  UNL     1      28.981 -10.630  28.012  1.00  0.00     0.287 C 
HETATM   10  O1  UNL     1      27.818 -10.172  27.944  1.00  0.00    -0.264 OA
HETATM   11  N1  UNL     1      29.190 -11.813  28.718  1.00  0.00    -0.263 N 
ATOM     12  H1  UNL     1      30.148 -12.162  28.737  1.00  0.00     0.190 HD
BRANCH  11  13
HETATM   13  N2  UNL     1      28.256 -12.567  29.392  1.00  0.00    -0.282 N 
ATOM     14  H2  UNL     1      28.463 -12.874  30.342  1.00  0.00     0.188 HD
BRANCH  13  15
HETATM   15  C2  UNL     1      27.030 -12.925  28.815  1.00  0.00     0.129 A 
HETATM   16  C3  UNL     1      25.868 -12.368  29.276  1.00  0.00     0.124 A 
HETATM   17  C4  UNL     1      24.680 -12.731  28.700  1.00  0.00     0.252 A 
HETATM   18  O2  UNL     1      23.596 -12.213  29.128  1.00  0.00    -0.268 OA
HETATM   19  N3  UNL     1      24.661 -13.617  27.701  1.00  0.00    -0.275 N 
HETATM   20  C5  UNL     1      25.807 -14.158  27.256  1.00  0.00     0.328 A 
ATOM     21  H3  UNL     1      23.773 -13.885  27.276  1.00  0.00     0.173 HD
HETATM   22  O3  UNL     1      25.767 -14.994  26.311  1.00  0.00    -0.247 OA
HETATM   23  N4  UNL     1      26.980 -13.808  27.815  1.00  0.00    -0.293 N 
ATOM     24  H4  UNL     1      27.846 -14.224  27.469  1.00  0.00     0.172 HD
ENDBRANCH  13  15
ENDBRANCH  11  13
ENDBRANCH   1   9
BRANCH   8  25
HETATM   25  C11 UNL     1      29.907 -11.187  25.246  1.00  0.00     0.289 C 
HETATM   26  N6  UNL     1      29.824 -10.908  23.821  1.00  0.00    -0.033 N 
HETATM   27  C12 UNL     1      29.115 -12.083  23.302  1.00  0.00     0.270 C 
ATOM     28  H62 UNL     1      29.397 -10.013  23.585  1.00  0.00     0.281 HD
ATOM     29  H61 UNL     1      30.718 -10.716  23.370  1.00  0.00     0.281 HD
HETATM   30  C13 UNL     1      28.411 -12.742  24.438  1.00  0.00     0.177 C 
HETATM   31  C14 UNL     1      28.444 -11.560  25.466  1.00  0.00     0.217 C 
BRANCH  25  32
HETATM   32  O8  UNL     1      30.564 -12.444  25.299  1.00  0.00    -0.359 OA
ATOM     33  H8  UNL     1      30.508 -12.961  24.503  1.00  0.00     0.213 HD
ENDBRANCH  25  32
BRANCH  30  34
HETATM   34  O9  UNL     1      27.107 -13.096  24.181  1.00  0.00    -0.391 OA
ATOM     35  H9  UNL     1      26.944 -13.398  23.296  1.00  0.00     0.210 HD
ENDBRANCH  30  34
BRANCH  31  36
HETATM   36  O10 UNL     1      27.552 -10.659  24.926  1.00  0.00    -0.388 OA
ATOM     37  H10 UNL     1      27.494  -9.842  25.407  1.00  0.00     0.210 HD
ENDBRANCH  31  36
ENDBRANCH   8  25
BRANCH   4  38
HETATM   38  C8  UNL     1      32.282  -7.150  28.535  1.00  0.00     0.331 C 
BRANCH  38  39
HETATM   39  O4  UNL     1      31.404  -6.864  29.576  1.00  0.00    -0.364 OA
ATOM     40  H4  UNL     1      30.996  -7.684  29.827  1.00  0.00     0.213 HD
ENDBRANCH  38  39
BRANCH  38  41
HETATM   41  O5  UNL     1      33.416  -7.712  29.098  1.00  0.00    -0.364 OA
ATOM     42  H5  UNL     1      33.311  -7.667  30.041  1.00  0.00     0.213 HD
ENDBRANCH  38  41
ENDBRANCH   4  38
TORSDOF 10
ENDMDL
MODEL 5
REMARK VINA RESULT: -9.323282859      2.348      5.032
REMARK  10 active torsions:
REMARK  status: ('A' for Active; 'I' for Inactive)
REMARK       I    between atoms: C1_2  and  N1_3 
REMARK    1  A    between atoms: C1_2  and  C6_17 
REMARK    2  A    between atoms: N1_3  and  N2_5 
REMARK    3  A    between atoms: N2_5  and  C2_7 
REMARK    4  A    between atoms: C7_20  and  C8_21 
REMARK    5  A    between atoms: C8_21  and  O4_22 
REMARK    6  A    between atoms: C8_21  and  O5_24 
REMARK    7  A    between atoms: C10_29  and  C11_30 
REMARK    8  A    between atoms: C11_30  and  O8_31 
REMARK    9  A    between atoms: C13_37  and  O9_38 
REMARK   10  A    between atoms: C14_40  and  O10_41 
ROOT
HETATM    1  C6  UNL     1      27.149 -10.834  25.534  1.00  0.00     0.121 A 
HETATM    2  N5  UNL     1      27.018 -10.450  24.212  1.00  0.00    -0.331 N 
ATOM      3  H5  UNL     1      27.827 -10.079  23.714  1.00  0.00     0.168 HD
HETATM    4  C7  UNL     1      25.861 -10.555  23.585  1.00  0.00     0.183 A 
HETATM    5  O6  UNL     1      24.849 -11.031  24.247  1.00  0.00    -0.256 OA
HETATM    6  C9  UNL     1      24.917 -11.419  25.524  1.00  0.00     0.303 A 
HETATM    7  O7  UNL     1      23.855 -11.856  26.024  1.00  0.00    -0.259 OA
HETATM    8  C10 UNL     1      26.102 -11.337  26.248  1.00  0.00     0.115 A 
ENDROOT
BRANCH   1   9
HETATM    9  C1  UNL     1      28.479 -10.688  26.044  1.00  0.00     0.287 C 
HETATM   10  O1  UNL     1      29.160 -11.720  26.238  1.00  0.00    -0.264 OA
HETATM   11  N1  UNL     1      29.052  -9.450  26.328  1.00  0.00    -0.263 N 
ATOM     12  H1  UNL     1      28.471  -8.632  26.143  1.00  0.00     0.190 HD
BRANCH  11  13
HETATM   13  N2  UNL     1      30.310  -9.200  26.829  1.00  0.00    -0.282 N 
ATOM     14  H2  UNL     1      30.743  -9.890  27.442  1.00  0.00     0.188 HD
BRANCH  13  15
HETATM   15  C2  UNL     1      31.015  -8.027  26.524  1.00  0.00     0.129 A 
HETATM   16  C3  UNL     1      30.433  -6.806  26.731  1.00  0.00     0.124 A 
HETATM   17  C4  UNL     1      31.137  -5.672  26.426  1.00  0.00     0.252 A 
HETATM   18  O2  UNL     1      30.597  -4.532  26.619  1.00  0.00    -0.268 OA
HETATM   19  N3  UNL     1      32.375  -5.762  25.934  1.00  0.00    -0.275 N 
HETATM   20  C5  UNL     1      32.937  -6.965  25.735  1.00  0.00     0.328 A 
ATOM     21  H3  UNL     1      32.895  -4.914  25.708  1.00  0.00     0.173 HD
HETATM   22  O3  UNL     1      34.108  -7.029  25.269  1.00  0.00    -0.247 OA
HETATM   23  N4  UNL     1      32.254  -8.087  26.031  1.00  0.00    -0.293 N 
ATOM     24  H4  UNL     1      32.689  -8.996  25.876  1.00  0.00     0.172 HD
ENDBRANCH  13  15
ENDBRANCH  11  13
ENDBRANCH   1   9
BRANCH   8  25
HETATM   25  C11 UNL     1      26.194 -11.767  27.605  1.00  0.00     0.289 C 
HETATM   26  N6  UNL     1      27.406 -11.437  28.338  1.00  0.00    -0.033 N 
HETATM   27  C12 UNL     1      27.204 -12.117  29.622  1.00  0.00     0.270 C 
ATOM     28  H62 UNL     1      28.274 -11.677  27.859  1.00  0.00     0.281 HD
ATOM     29  H61 UNL     1      27.604 -10.439  28.410  1.00  0.00     0.281 HD
HETATM   30  C13 UNL     1      26.166 -13.169  29.433  1.00  0.00     0.177 C 
HETATM   31  C14 UNL     1      26.199 -13.270  27.870  1.00  0.00     0.217 C 
BRANCH  25  32
HETATM   32  O8  UNL     1      25.157 -11.300  28.455  1.00  0.00    -0.359 OA
ATOM     33  H8  UNL     1      25.121 -11.713  29.310  1.00  0.00     0.213 HD
ENDBRANCH  25  32
BRANCH  30  34
HETATM   34  O9  UNL     1      26.477 -14.390  29.983  1.00  0.00    -0.391 OA
ATOM     35  H9  UNL     1      27.341 -14.443  30.373  1.00  0.00     0.210 HD
ENDBRANCH  30  34
BRANCH  31  36
HETATM   36  O10 UNL     1      27.413 -13.874  27.628  1.00  0.00    -0.388 OA
ATOM     37  H10 UNL     1      27.597 -14.610  28.199  1.00  0.00     0.210 HD
ENDBRANCH  31  36
ENDBRANCH   8  25
BRANCH   4  38
HETATM   38  C8  UNL     1      25.697 -10.141  22.141  1.00  0.00     0.331 C 
BRANCH  38  39
HETATM   39  O4  UNL     1      24.393 -10.460  21.774  1.00  0.00    -0.364 OA
ATOM     40  H4  UNL     1      23.825 -10.139  22.465  1.00  0.00     0.213 HD
ENDBRANCH  38  39
BRANCH  38  41
HETATM   41  O5  UNL     1      25.808  -8.760  22.097  1.00  0.00    -0.364 OA
ATOM     42  H5  UNL     1      25.280  -8.460  21.367  1.00  0.00     0.213 HD
ENDBRANCH  38  41
ENDBRANCH   4  38
TORSDOF 10
ENDMDL
