MODEL 1
REMARK VINA RESULT: -6.994703339      0.000      0.000
REMARK  4 active torsions:
REMARK  status: ('A' for Active; 'I' for Inactive)
REMARK    1  A    between atoms: C7_9  and  C8_10 
REMARK    2  A    between atoms: C9_11  and  O2_12 
REMARK    3  A    between atoms: C11_15  and  O3_16 
REMARK    4  A    between atoms: C14_21  and  C15_22 
ROOT
HETATM    1  C1  UNL     1      19.207  30.639 -16.979  1.00  0.00     0.309 C 
HETATM    2  N1  UNL     1      19.860  29.535 -17.639  1.00  0.00     0.084 N 
HETATM    3  C2  UNL     1      20.598  28.661 -16.789  1.00  0.00     0.272 C 
HETATM    4  C3  UNL     1      19.730  27.565 -16.144  1.00  0.00     0.036 C 
HETATM    5  C4  UNL     1      19.096  26.840 -17.254  1.00  0.00     0.008 C 
HETATM    6  C5  UNL     1      18.254  27.735 -18.088  1.00  0.00     0.043 C 
HETATM    7  C6  UNL     1      17.799  26.927 -19.302  1.00  0.00     0.175 C 
HETATM    8  O1  UNL     1      18.238  25.588 -19.137  1.00  0.00    -0.380 OA
HETATM    9  C7  UNL     1      17.603  25.076 -17.976  1.00  0.00     0.169 C 
HETATM   10  C14 UNL     1      18.243  25.612 -16.768  1.00  0.00     0.085 C 
HETATM   11  C16 UNL     1      19.049  28.888 -18.607  1.00  0.00     0.279 C 
ENDROOT
BRANCH   9  12
HETATM   12  C8  UNL     1      17.346  23.667 -18.143  1.00  0.00     0.026 A 
HETATM   13  C9  UNL     1      16.003  23.214 -18.307  1.00  0.00     0.078 A 
HETATM   14  C10 UNL     1      15.657  21.900 -18.262  1.00  0.00     0.073 A 
HETATM   15  C11 UNL     1      16.588  20.933 -18.060  1.00  0.00     0.070 A 
HETATM   16  C12 UNL     1      17.895  21.298 -17.902  1.00  0.00     0.061 A 
HETATM   17  C13 UNL     1      18.259  22.658 -17.946  1.00  0.00     0.048 A 
HETATM   18 CL1  UNL     1      19.931  22.968 -17.692  1.00  0.00    -0.084 Cl
BRANCH  13  19
HETATM   19  O2  UNL     1      15.079  24.233 -18.533  1.00  0.00    -0.360 OA
ATOM     20  H2  UNL     1      14.789  24.303 -19.435  1.00  0.00     0.217 HD
ENDBRANCH  13  19
BRANCH  15  21
HETATM   21  O3  UNL     1      16.210  19.576 -18.024  1.00  0.00    -0.361 OA
ATOM     22  H3  UNL     1      15.725  19.231 -17.284  1.00  0.00     0.217 HD
ENDBRANCH  15  21
ENDBRANCH   9  12
BRANCH  10  23
HETATM   23  C15 UNL     1      17.503  26.040 -15.608  1.00  0.00     0.238 C 
HETATM   24  O4  UNL     1      17.757  25.692 -14.446  1.00  0.00    -0.306 OA
ENDBRANCH  10  23
TORSDOF 4
ENDMDL
MODEL 2
REMARK VINA RESULT: -6.310692489      1.451      1.723
REMARK  4 active torsions:
REMARK  status: ('A' for Active; 'I' for Inactive)
REMARK    1  A    between atoms: C7_9  and  C8_10 
REMARK    2  A    between atoms: C9_11  and  O2_12 
REMARK    3  A    between atoms: C11_15  and  O3_16 
REMARK    4  A    between atoms: C14_21  and  C15_22 
ROOT
HETATM    1  C1  UNL     1      20.121  31.491 -16.583  1.00  0.00     0.309 C 
HETATM    2  N1  UNL     1      20.576  30.481 -17.507  1.00  0.00     0.084 N 
HETATM    3  C2  UNL     1      21.252  29.372 -16.920  1.00  0.00     0.272 C 
HETATM    4  C3  UNL     1      20.296  28.272 -16.423  1.00  0.00     0.036 C 
HETATM    5  C4  UNL     1      19.496  27.870 -17.588  1.00  0.00     0.008 C 
HETATM    6  C5  UNL     1      18.721  29.008 -18.146  1.00  0.00     0.043 C 
HETATM    7  C6  UNL     1      18.080  28.525 -19.446  1.00  0.00     0.175 C 
HETATM    8  O1  UNL     1      18.351  27.140 -19.590  1.00  0.00    -0.380 OA
HETATM    9  C7  UNL     1      17.738  26.475 -18.497  1.00  0.00     0.169 C 
HETATM   10  C14 UNL     1      18.526  26.672 -17.274  1.00  0.00     0.085 C 
HETATM   11  C16 UNL     1      19.621  30.145 -18.501  1.00  0.00     0.279 C 
ENDROOT
BRANCH   9  12
HETATM   12  C8  UNL     1      17.287  25.169 -18.912  1.00  0.00     0.026 A 
HETATM   13  C9  UNL     1      16.161  25.059 -19.780  1.00  0.00     0.078 A 
HETATM   14  C10 UNL     1      15.550  23.874 -20.049  1.00  0.00     0.073 A 
HETATM   15  C11 UNL     1      15.991  22.714 -19.501  1.00  0.00     0.070 A 
HETATM   16  C12 UNL     1      17.071  22.748 -18.665  1.00  0.00     0.061 A 
HETATM   17  C13 UNL     1      17.707  23.972 -18.382  1.00  0.00     0.048 A 
HETATM   18 CL1  UNL     1      19.026  23.865 -17.284  1.00  0.00    -0.084 Cl
BRANCH  13  19
HETATM   19  O2  UNL     1      15.749  26.268 -20.341  1.00  0.00    -0.360 OA
ATOM     20  H2  UNL     1      15.178  26.782 -19.782  1.00  0.00     0.217 HD
ENDBRANCH  13  19
BRANCH  15  21
HETATM   21  O3  UNL     1      15.348  21.495 -19.799  1.00  0.00    -0.361 OA
ATOM     22  H3  UNL     1      15.378  21.138 -20.678  1.00  0.00     0.217 HD
ENDBRANCH  15  21
ENDBRANCH   9  12
BRANCH  10  23
HETATM   23  C15 UNL     1      17.931  26.933 -15.987  1.00  0.00     0.238 C 
HETATM   24  O4  UNL     1      17.301  26.096 -15.324  1.00  0.00    -0.306 OA
ENDBRANCH  10  23
TORSDOF 4
ENDMDL
MODEL 3
REMARK VINA RESULT: -6.299779519      2.350      4.157
REMARK  4 active torsions:
REMARK  status: ('A' for Active; 'I' for Inactive)
REMARK    1  A    between atoms: C7_9  and  C8_10 
REMARK    2  A    between atoms: C9_11  and  O2_12 
REMARK    3  A    between atoms: C11_15  and  O3_16 
REMARK    4  A    between atoms: C14_21  and  C15_22 
ROOT
HETATM    1  C1  UNL     1      20.464  33.824 -16.527  1.00  0.00     0.309 C 
HETATM    2  N1  UNL     1      20.305  32.676 -15.668  1.00  0.00     0.084 N 
HETATM    3  C2  UNL     1      18.982  32.445 -15.191  1.00  0.00     0.272 C 
HETATM    4  C3  UNL     1      18.113  31.641 -16.175  1.00  0.00     0.036 C 
HETATM    5  C4  UNL     1      18.832  30.384 -16.422  1.00  0.00     0.008 C 
HETATM    6  C5  UNL     1      20.177  30.622 -17.004  1.00  0.00     0.043 C 
HETATM    7  C6  UNL     1      20.897  29.274 -17.046  1.00  0.00     0.175 C 
HETATM    8  O1  UNL     1      19.986  28.269 -16.631  1.00  0.00    -0.380 OA
HETATM    9  C7  UNL     1      18.921  28.253 -17.568  1.00  0.00     0.169 C 
HETATM   10  C14 UNL     1      18.025  29.393 -17.339  1.00  0.00     0.085 C 
HETATM   11  C16 UNL     1      20.988  31.521 -16.129  1.00  0.00     0.279 C 
ENDROOT
BRANCH   9  12
HETATM   12  C8  UNL     1      18.422  26.908 -17.716  1.00  0.00     0.026 A 
HETATM   13  C9  UNL     1      17.973  26.463 -18.995  1.00  0.00     0.078 A 
HETATM   14  C10 UNL     1      17.302  25.294 -19.176  1.00  0.00     0.073 A 
HETATM   15  C11 UNL     1      17.025  24.472 -18.132  1.00  0.00     0.070 A 
HETATM   16  C12 UNL     1      17.433  24.836 -16.880  1.00  0.00     0.061 A 
HETATM   17  C13 UNL     1      18.126  26.046 -16.686  1.00  0.00     0.048 A 
HETATM   18 CL1  UNL     1      18.542  26.389 -15.053  1.00  0.00    -0.084 Cl
BRANCH  13  19
HETATM   19  O2  UNL     1      18.295  27.322 -20.045  1.00  0.00    -0.360 OA
ATOM     20  H2  UNL     1      17.545  27.752 -20.440  1.00  0.00     0.217 HD
ENDBRANCH  13  19
BRANCH  15  21
HETATM   21  O3  UNL     1      16.335  23.262 -18.342  1.00  0.00    -0.361 OA
ATOM     22  H3  UNL     1      16.672  22.448 -17.986  1.00  0.00     0.217 HD
ENDBRANCH  15  21
ENDBRANCH   9  12
BRANCH  10  23
HETATM   23  C15 UNL     1      17.454  30.174 -18.408  1.00  0.00     0.238 C 
HETATM   24  O4  UNL     1      17.825  30.121 -19.590  1.00  0.00    -0.306 OA
ENDBRANCH  10  23
TORSDOF 4
ENDMDL
MODEL 4
REMARK VINA RESULT: -6.132965716      2.182      2.850
REMARK  4 active torsions:
REMARK  status: ('A' for Active; 'I' for Inactive)
REMARK    1  A    between atoms: C7_9  and  C8_10 
REMARK    2  A    between atoms: C9_11  and  O2_12 
REMARK    3  A    between atoms: C11_15  and  O3_16 
REMARK    4  A    between atoms: C14_21  and  C15_22 
ROOT
HETATM    1  C1  UNL     1      15.822  29.273 -20.508  1.00  0.00     0.309 C 
HETATM    2  N1  UNL     1      16.589  28.174 -21.041  1.00  0.00     0.084 N 
HETATM    3  C2  UNL     1      17.926  28.067 -20.556  1.00  0.00     0.272 C 
HETATM    4  C3  UNL     1      18.030  27.299 -19.226  1.00  0.00     0.036 C 
HETATM    5  C4  UNL     1      17.430  25.980 -19.468  1.00  0.00     0.008 C 
HETATM    6  C5  UNL     1      16.009  26.088 -19.887  1.00  0.00     0.043 C 
HETATM    7  C6  UNL     1      15.546  24.687 -20.284  1.00  0.00     0.175 C 
HETATM    8  O1  UNL     1      16.593  23.774 -19.998  1.00  0.00    -0.380 OA
HETATM    9  C7  UNL     1      16.810  23.808 -18.597  1.00  0.00     0.169 C 
HETATM   10  C14 UNL     1      17.545  25.023 -18.225  1.00  0.00     0.085 C 
HETATM   11  C16 UNL     1      15.871  26.952 -21.097  1.00  0.00     0.279 C 
ENDROOT
BRANCH   9  12
HETATM   12  C8  UNL     1      17.212  22.502 -18.134  1.00  0.00     0.026 A 
HETATM   13  C9  UNL     1      16.217  21.517 -17.863  1.00  0.00     0.078 A 
HETATM   14  C10 UNL     1      16.491  20.344 -17.232  1.00  0.00     0.073 A 
HETATM   15  C11 UNL     1      17.750  20.041 -16.825  1.00  0.00     0.070 A 
HETATM   16  C12 UNL     1      18.753  20.939 -17.060  1.00  0.00     0.061 A 
HETATM   17  C13 UNL     1      18.474  22.156 -17.711  1.00  0.00     0.048 A 
HETATM   18 CL1  UNL     1      19.826  23.202 -17.902  1.00  0.00    -0.084 Cl
BRANCH  13  19
HETATM   19  O2  UNL     1      14.940  21.853 -18.314  1.00  0.00    -0.360 OA
ATOM     20  H2  UNL     1      14.548  21.208 -18.890  1.00  0.00     0.217 HD
ENDBRANCH  13  19
BRANCH  15  21
HETATM   21  O3  UNL     1      18.016  18.817 -16.180  1.00  0.00    -0.361 OA
ATOM     22  H3  UNL     1      17.453  18.511 -15.479  1.00  0.00     0.217 HD
ENDBRANCH  15  21
ENDBRANCH   9  12
BRANCH  10  23
HETATM   23  C15 UNL     1      17.232  25.806 -17.056  1.00  0.00     0.238 C 
HETATM   24  O4  UNL     1      17.703  25.601 -15.928  1.00  0.00    -0.306 OA
ENDBRANCH  10  23
TORSDOF 4
ENDMDL
MODEL 5
REMARK VINA RESULT: -5.889015111      6.102      8.949
REMARK  4 active torsions:
REMARK  status: ('A' for Active; 'I' for Inactive)
REMARK    1  A    between atoms: C7_9  and  C8_10 
REMARK    2  A    between atoms: C9_11  and  O2_12 
REMARK    3  A    between atoms: C11_15  and  O3_16 
REMARK    4  A    between atoms: C14_21  and  C15_22 
ROOT
HETATM    1  C1  UNL     1      10.375  21.784 -26.207  1.00  0.00     0.309 C 
HETATM    2  N1  UNL     1      10.796  21.426 -24.875  1.00  0.00     0.084 N 
HETATM    3  C2  UNL     1      12.045  20.744 -24.789  1.00  0.00     0.272 C 
HETATM    4  C3  UNL     1      13.256  21.694 -24.755  1.00  0.00     0.036 C 
HETATM    5  C4  UNL     1      13.041  22.587 -23.607  1.00  0.00     0.008 C 
HETATM    6  C5  UNL     1      11.783  23.365 -23.740  1.00  0.00     0.043 C 
HETATM    7  C6  UNL     1      11.571  24.111 -22.424  1.00  0.00     0.175 C 
HETATM    8  O1  UNL     1      12.704  23.891 -21.599  1.00  0.00    -0.380 OA
HETATM    9  C7  UNL     1      13.826  24.445 -22.268  1.00  0.00     0.169 C 
HETATM   10  C14 UNL     1      14.247  23.567 -23.367  1.00  0.00     0.085 C 
HETATM   11  C16 UNL     1      10.610  22.459 -23.921  1.00  0.00     0.279 C 
ENDROOT
BRANCH   9  12
HETATM   12  C8  UNL     1      14.763  24.963 -21.303  1.00  0.00     0.026 A 
HETATM   13  C9  UNL     1      15.212  26.312 -21.414  1.00  0.00     0.078 A 
HETATM   14  C10 UNL     1      16.242  26.811 -20.678  1.00  0.00     0.073 A 
HETATM   15  C11 UNL     1      16.904  26.039 -19.779  1.00  0.00     0.070 A 
HETATM   16  C12 UNL     1      16.519  24.738 -19.618  1.00  0.00     0.061 A 
HETATM   17  C13 UNL     1      15.455  24.215 -20.379  1.00  0.00     0.048 A 
HETATM   18 CL1  UNL     1      15.110  22.555 -20.096  1.00  0.00    -0.084 Cl
BRANCH  13  19
HETATM   19  O2  UNL     1      14.496  27.080 -22.331  1.00  0.00    -0.360 OA
ATOM     20  H2  UNL     1      14.796  26.996 -23.228  1.00  0.00     0.217 HD
ENDBRANCH  13  19
BRANCH  15  21
HETATM   21  O3  UNL     1      17.963  26.576 -19.021  1.00  0.00    -0.361 OA
ATOM     22  H3  UNL     1      18.728  26.049 -18.823  1.00  0.00     0.217 HD
ENDBRANCH  15  21
ENDBRANCH   9  12
BRANCH  10  23
HETATM   23  C15 UNL     1      14.658  24.061 -24.658  1.00  0.00     0.238 C 
HETATM   24  O4  UNL     1      14.854  25.256 -24.921  1.00  0.00    -0.306 OA
ENDBRANCH  10  23
TORSDOF 4
ENDMDL
