MODEL 1
REMARK VINA RESULT: -6.076865458      0.000      0.000
REMARK  6 active torsions:
REMARK  status: ('A' for Active; 'I' for Inactive)
REMARK    1  A    between atoms: C2_2  and  C3_3 
REMARK    2  A    between atoms: C4_6  and  N2_7 
REMARK    3  A    between atoms: N2_7  and  N3_9 
REMARK    4  A    between atoms: C5_11  and  O1_12 
REMARK    5  A    between atoms: C5_11  and  N4_17 
REMARK    6  A    between atoms: O1_12  and  C6_13 
ROOT
HETATM    1  N3  UNL     1      16.751  25.546 -18.736  1.00  0.00    -0.251 N 
ATOM      2  H3  UNL     1      16.300  26.374 -18.349  1.00  0.00     0.191 HD
HETATM    3  C5  UNL     1      17.161  24.682 -17.897  1.00  0.00     0.240 C 
ENDROOT
BRANCH   1   4
HETATM    4  N2  UNL     1      16.849  25.487 -20.121  1.00  0.00    -0.128 N 
ATOM      5  H2  UNL     1      17.742  25.475 -20.614  1.00  0.00     0.205 HD
BRANCH   4   6
HETATM    6  C4  UNL     1      15.686  25.449 -20.744  1.00  0.00     0.712 A 
HETATM    7  N1  UNL     1      14.866  24.428 -20.961  1.00  0.00    -0.177 N 
HETATM    8  C3  UNL     1      13.785  24.827 -21.636  1.00  0.00     0.112 A 
ATOM      9  H1  UNL     1      15.038  23.470 -20.656  1.00  0.00     0.185 HD
HETATM   10  N6  UNL     1      13.962  26.164 -21.836  1.00  0.00    -0.274 N 
HETATM   11  N5  UNL     1      15.098  26.523 -21.300  1.00  0.00    -0.129 N 
ATOM     12  H6  UNL     1      13.314  26.783 -22.324  1.00  0.00     0.189 HD
ATOM     13  H5  UNL     1      15.479  27.470 -21.302  1.00  0.00     0.205 HD
BRANCH   8  14
HETATM   14  C2  UNL     1      12.621  23.997 -22.085  1.00  0.00     0.074 C 
HETATM   15  C1  UNL     1      13.129  23.071 -23.195  1.00  0.00     0.013 C 
ENDBRANCH   8  14
ENDBRANCH   4   6
ENDBRANCH   1   4
BRANCH   3  16
HETATM   16  O1  UNL     1      16.942  24.980 -16.542  1.00  0.00    -0.311 OA
BRANCH  16  17
HETATM   17  C6  UNL     1      17.797  25.793 -15.789  1.00  0.00     0.060 C 
HETATM   18  C7  UNL     1      18.614  24.919 -14.850  1.00  0.00     0.046 C 
HETATM   19  C8  UNL     1      16.965  26.706 -14.888  1.00  0.00     0.046 C 
HETATM   20  C9  UNL     1      18.746  26.602 -16.616  1.00  0.00     0.046 C 
ENDBRANCH  16  17
ENDBRANCH   3  16
BRANCH   3  21
HETATM   21  N4  UNL     1      17.804  23.477 -18.231  1.00  0.00    -0.310 N 
HETATM   22  C10 UNL     1      19.250  23.459 -18.299  1.00  0.00     0.130 C 
HETATM   23  C11 UNL     1      19.792  22.148 -17.825  1.00  0.00     0.020 C 
HETATM   24  C12 UNL     1      18.788  21.480 -16.951  1.00  0.00     0.007 C 
HETATM   25  C13 UNL     1      17.520  21.119 -17.689  1.00  0.00     0.066 C 
HETATM   26  C14 UNL     1      16.999  22.301 -18.482  1.00  0.00     0.177 C 
HETATM   27  C15 UNL     1      15.572  22.607 -18.117  1.00  0.00     0.077 C 
HETATM   28  F1  UNL     1      17.041  21.932 -19.811  1.00  0.00    -0.219 F 
ENDBRANCH   3  21
TORSDOF 6
ENDMDL
MODEL 2
REMARK VINA RESULT: -5.932559888      3.283      8.123
REMARK  6 active torsions:
REMARK  status: ('A' for Active; 'I' for Inactive)
REMARK    1  A    between atoms: C2_2  and  C3_3 
REMARK    2  A    between atoms: C4_6  and  N2_7 
REMARK    3  A    between atoms: N2_7  and  N3_9 
REMARK    4  A    between atoms: C5_11  and  O1_12 
REMARK    5  A    between atoms: C5_11  and  N4_17 
REMARK    6  A    between atoms: O1_12  and  C6_13 
ROOT
HETATM    1  N3  UNL     1      14.092  23.247 -21.984  1.00  0.00    -0.251 N 
ATOM      2  H3  UNL     1      14.179  22.265 -21.722  1.00  0.00     0.191 HD
HETATM    3  C5  UNL     1      13.458  23.490 -23.060  1.00  0.00     0.240 C 
ENDROOT
BRANCH   1   4
HETATM    4  N2  UNL     1      14.680  24.169 -21.126  1.00  0.00    -0.128 N 
ATOM      5  H2  UNL     1      14.477  25.168 -21.163  1.00  0.00     0.205 HD
BRANCH   4   6
HETATM    6  C4  UNL     1      15.523  23.640 -20.260  1.00  0.00     0.712 A 
HETATM    7  N1  UNL     1      16.578  24.175 -19.657  1.00  0.00    -0.177 N 
HETATM    8  C3  UNL     1      17.160  23.287 -18.848  1.00  0.00     0.112 A 
ATOM      9  H1  UNL     1      16.899  25.133 -19.793  1.00  0.00     0.185 HD
HETATM   10  N6  UNL     1      16.414  22.152 -18.969  1.00  0.00    -0.274 N 
HETATM   11  N5  UNL     1      15.442  22.374 -19.812  1.00  0.00    -0.129 N 
ATOM     12  H6  UNL     1      16.587  21.273 -18.481  1.00  0.00     0.189 HD
ATOM     13  H5  UNL     1      14.732  21.695 -20.088  1.00  0.00     0.205 HD
BRANCH   8  14
HETATM   14  C2  UNL     1      18.371  23.479 -17.988  1.00  0.00     0.074 C 
HETATM   15  C1  UNL     1      19.131  22.149 -17.975  1.00  0.00     0.013 C 
ENDBRANCH   8  14
ENDBRANCH   4   6
ENDBRANCH   1   4
BRANCH   3  16
HETATM   16  O1  UNL     1      12.959  22.374 -23.752  1.00  0.00    -0.311 OA
BRANCH  16  17
HETATM   17  C6  UNL     1      13.555  21.862 -24.910  1.00  0.00     0.060 C 
HETATM   18  C7  UNL     1      12.773  22.339 -26.123  1.00  0.00     0.046 C 
HETATM   19  C8  UNL     1      13.434  20.338 -24.910  1.00  0.00     0.046 C 
HETATM   20  C9  UNL     1      14.984  22.271 -25.085  1.00  0.00     0.046 C 
ENDBRANCH  16  17
ENDBRANCH   3  16
BRANCH   3  21
HETATM   21  N4  UNL     1      13.229  24.774 -23.587  1.00  0.00    -0.310 N 
HETATM   22  C10 UNL     1      14.347  25.498 -24.155  1.00  0.00     0.130 C 
HETATM   23  C11 UNL     1      13.913  26.318 -25.328  1.00  0.00     0.020 C 
HETATM   24  C12 UNL     1      12.649  25.761 -25.886  1.00  0.00     0.007 C 
HETATM   25  C13 UNL     1      11.494  25.850 -24.915  1.00  0.00     0.066 C 
HETATM   26  C14 UNL     1      11.887  25.316 -23.553  1.00  0.00     0.177 C 
HETATM   27  C15 UNL     1      10.942  24.234 -23.106  1.00  0.00     0.077 C 
HETATM   28  F1  UNL     1      11.791  26.373 -22.673  1.00  0.00    -0.219 F 
ENDBRANCH   3  21
TORSDOF 6
ENDMDL
MODEL 3
REMARK VINA RESULT: -5.842775017      3.518      8.362
REMARK  6 active torsions:
REMARK  status: ('A' for Active; 'I' for Inactive)
REMARK    1  A    between atoms: C2_2  and  C3_3 
REMARK    2  A    between atoms: C4_6  and  N2_7 
REMARK    3  A    between atoms: N2_7  and  N3_9 
REMARK    4  A    between atoms: C5_11  and  O1_12 
REMARK    5  A    between atoms: C5_11  and  N4_17 
REMARK    6  A    between atoms: O1_12  and  C6_13 
ROOT
HETATM    1  N3  UNL     1      14.012  22.889 -22.619  1.00  0.00    -0.251 N 
ATOM      2  H3  UNL     1      14.471  22.000 -22.421  1.00  0.00     0.191 HD
HETATM    3  C5  UNL     1      13.484  23.007 -23.771  1.00  0.00     0.240 C 
ENDROOT
BRANCH   1   4
HETATM    4  N2  UNL     1      14.034  23.835 -21.601  1.00  0.00    -0.128 N 
ATOM      5  H2  UNL     1      13.356  24.594 -21.535  1.00  0.00     0.205 HD
BRANCH   4   6
HETATM    6  C4  UNL     1      15.010  23.668 -20.729  1.00  0.00     0.712 A 
HETATM    7  N1  UNL     1      15.443  22.564 -20.132  1.00  0.00    -0.177 N 
HETATM    8  C3  UNL     1      16.462  22.839 -19.314  1.00  0.00     0.112 A 
ATOM      9  H1  UNL     1      15.051  21.634 -20.277  1.00  0.00     0.185 HD
HETATM   10  N6  UNL     1      16.655  24.184 -19.425  1.00  0.00    -0.274 N 
HETATM   11  N5  UNL     1      15.785  24.667 -20.271  1.00  0.00    -0.129 N 
ATOM     12  H6  UNL     1      17.363  24.725 -18.928  1.00  0.00     0.189 HD
ATOM     13  H5  UNL     1      15.706  25.648 -20.541  1.00  0.00     0.205 HD
BRANCH   8  14
HETATM   14  C2  UNL     1      17.235  21.887 -18.453  1.00  0.00     0.074 C 
HETATM   15  C1  UNL     1      18.537  22.591 -18.058  1.00  0.00     0.013 C 
ENDBRANCH   8  14
ENDBRANCH   4   6
ENDBRANCH   1   4
BRANCH   3  16
HETATM   16  O1  UNL     1      13.601  21.898 -24.624  1.00  0.00    -0.311 OA
BRANCH  16  17
HETATM   17  C6  UNL     1      12.522  21.071 -24.957  1.00  0.00     0.060 C 
HETATM   18  C7  UNL     1      13.047  19.688 -25.309  1.00  0.00     0.046 C 
HETATM   19  C8  UNL     1      11.854  21.597 -26.228  1.00  0.00     0.046 C 
HETATM   20  C9  UNL     1      11.514  20.922 -23.862  1.00  0.00     0.046 C 
ENDBRANCH  16  17
ENDBRANCH   3  16
BRANCH   3  21
HETATM   21  N4  UNL     1      12.805  24.150 -24.232  1.00  0.00    -0.310 N 
HETATM   22  C10 UNL     1      11.493  24.440 -23.694  1.00  0.00     0.130 C 
HETATM   23  C11 UNL     1      11.281  25.915 -23.566  1.00  0.00     0.020 C 
HETATM   24  C12 UNL     1      12.599  26.605 -23.508  1.00  0.00     0.007 C 
HETATM   25  C13 UNL     1      13.397  26.448 -24.782  1.00  0.00     0.066 C 
HETATM   26  C14 UNL     1      13.448  24.997 -25.214  1.00  0.00     0.177 C 
HETATM   27  C15 UNL     1      14.870  24.537 -25.389  1.00  0.00     0.077 C 
HETATM   28  F1  UNL     1      12.812  24.927 -26.436  1.00  0.00    -0.219 F 
ENDBRANCH   3  21
TORSDOF 6
ENDMDL
MODEL 4
REMARK VINA RESULT: -5.811449881      2.862      7.268
REMARK  6 active torsions:
REMARK  status: ('A' for Active; 'I' for Inactive)
REMARK    1  A    between atoms: C2_2  and  C3_3 
REMARK    2  A    between atoms: C4_6  and  N2_7 
REMARK    3  A    between atoms: N2_7  and  N3_9 
REMARK    4  A    between atoms: C5_11  and  O1_12 
REMARK    5  A    between atoms: C5_11  and  N4_17 
REMARK    6  A    between atoms: O1_12  and  C6_13 
ROOT
HETATM    1  N3  UNL     1      14.846  24.015 -21.660  1.00  0.00    -0.251 N 
ATOM      2  H3  UNL     1      15.705  24.541 -21.500  1.00  0.00     0.191 HD
HETATM    3  C5  UNL     1      14.186  24.317 -22.704  1.00  0.00     0.240 C 
ENDROOT
BRANCH   1   4
HETATM    4  N2  UNL     1      14.530  23.048 -20.713  1.00  0.00    -0.128 N 
ATOM      5  H2  UNL     1      13.657  22.520 -20.730  1.00  0.00     0.205 HD
BRANCH   4   6
HETATM    6  C4  UNL     1      15.455  22.874 -19.788  1.00  0.00     0.712 A 
HETATM    7  N1  UNL     1      16.586  23.535 -19.575  1.00  0.00    -0.177 N 
HETATM    8  C3  UNL     1      17.237  23.030 -18.524  1.00  0.00     0.112 A 
ATOM      9  H1  UNL     1      16.914  24.320 -20.137  1.00  0.00     0.185 HD
HETATM   10  N6  UNL     1      16.453  22.007 -18.077  1.00  0.00    -0.274 N 
HETATM   11  N5  UNL     1      15.395  21.924 -18.838  1.00  0.00    -0.129 N 
ATOM     12  H6  UNL     1      16.660  21.406 -17.280  1.00  0.00     0.189 HD
ATOM     13  H5  UNL     1      14.641  21.245 -18.728  1.00  0.00     0.205 HD
BRANCH   8  14
HETATM   14  C2  UNL     1      18.545  23.478 -17.948  1.00  0.00     0.074 C 
HETATM   15  C1  UNL     1      19.469  22.256 -17.922  1.00  0.00     0.013 C 
ENDBRANCH   8  14
ENDBRANCH   4   6
ENDBRANCH   1   4
BRANCH   3  16
HETATM   16  O1  UNL     1      14.722  25.340 -23.504  1.00  0.00    -0.311 OA
BRANCH  16  17
HETATM   17  C6  UNL     1      14.611  26.698 -23.186  1.00  0.00     0.060 C 
HETATM   18  C7  UNL     1      15.419  27.509 -24.187  1.00  0.00     0.046 C 
HETATM   19  C8  UNL     1      15.260  26.954 -21.825  1.00  0.00     0.046 C 
HETATM   20  C9  UNL     1      13.206  27.210 -23.197  1.00  0.00     0.046 C 
ENDBRANCH  16  17
ENDBRANCH   3  16
BRANCH   3  21
HETATM   21  N4  UNL     1      12.981  23.707 -23.099  1.00  0.00    -0.310 N 
HETATM   22  C10 UNL     1      11.744  24.169 -22.506  1.00  0.00     0.130 C 
HETATM   23  C11 UNL     1      10.624  24.119 -23.496  1.00  0.00     0.020 C 
HETATM   24  C12 UNL     1      11.179  24.135 -24.878  1.00  0.00     0.007 C 
HETATM   25  C13 UNL     1      12.012  22.912 -25.187  1.00  0.00     0.066 C 
HETATM   26  C14 UNL     1      13.023  22.652 -24.089  1.00  0.00     0.177 C 
HETATM   27  C15 UNL     1      14.417  22.574 -24.650  1.00  0.00     0.077 C 
HETATM   28  F1  UNL     1      12.702  21.429 -23.540  1.00  0.00    -0.219 F 
ENDBRANCH   3  21
TORSDOF 6
ENDMDL
MODEL 5
REMARK VINA RESULT: -5.794814765      3.669      8.364
REMARK  6 active torsions:
REMARK  status: ('A' for Active; 'I' for Inactive)
REMARK    1  A    between atoms: C2_2  and  C3_3 
REMARK    2  A    between atoms: C4_6  and  N2_7 
REMARK    3  A    between atoms: N2_7  and  N3_9 
REMARK    4  A    between atoms: C5_11  and  O1_12 
REMARK    5  A    between atoms: C5_11  and  N4_17 
REMARK    6  A    between atoms: O1_12  and  C6_13 
ROOT
HETATM    1  N3  UNL     1      12.272  23.784 -22.160  1.00  0.00    -0.251 N 
ATOM      2  H3  UNL     1      11.819  23.236 -21.430  1.00  0.00     0.191 HD
HETATM    3  C5  UNL     1      11.970  23.485 -23.359  1.00  0.00     0.240 C 
ENDROOT
BRANCH   1   4
HETATM    4  N2  UNL     1      13.150  24.774 -21.734  1.00  0.00    -0.128 N 
ATOM      5  H2  UNL     1      12.997  25.767 -21.916  1.00  0.00     0.205 HD
BRANCH   4   6
HETATM    6  C4  UNL     1      14.199  24.320 -21.076  1.00  0.00     0.712 A 
HETATM    7  N1  UNL     1      15.087  24.967 -20.332  1.00  0.00    -0.177 N 
HETATM    8  C3  UNL     1      15.997  24.121 -19.841  1.00  0.00     0.112 A 
ATOM      9  H1  UNL     1      15.078  25.972 -20.159  1.00  0.00     0.185 HD
HETATM   10  N6  UNL     1      15.635  22.895 -20.314  1.00  0.00    -0.274 N 
HETATM   11  N5  UNL     1      14.563  23.025 -21.048  1.00  0.00    -0.129 N 
ATOM     12  H6  UNL     1      16.122  22.018 -20.126  1.00  0.00     0.189 HD
ATOM     13  H5  UNL     1      14.077  22.265 -21.525  1.00  0.00     0.205 HD
BRANCH   8  14
HETATM   14  C2  UNL     1      17.167  24.436 -18.960  1.00  0.00     0.074 C 
HETATM   15  C1  UNL     1      17.660  23.109 -18.373  1.00  0.00     0.013 C 
ENDBRANCH   8  14
ENDBRANCH   4   6
ENDBRANCH   1   4
BRANCH   3  16
HETATM   16  O1  UNL     1      11.052  22.435 -23.525  1.00  0.00    -0.311 OA
BRANCH  16  17
HETATM   17  C6  UNL     1       9.757  22.622 -24.021  1.00  0.00     0.060 C 
HETATM   18  C7  UNL     1       8.904  21.420 -23.648  1.00  0.00     0.046 C 
HETATM   19  C8  UNL     1       9.798  22.643 -25.550  1.00  0.00     0.046 C 
HETATM   20  C9  UNL     1       9.082  23.852 -23.501  1.00  0.00     0.046 C 
ENDBRANCH  16  17
ENDBRANCH   3  16
BRANCH   3  21
HETATM   21  N4  UNL     1      12.485  24.124 -24.502  1.00  0.00    -0.310 N 
HETATM   22  C10 UNL     1      11.997  25.446 -24.835  1.00  0.00     0.130 C 
HETATM   23  C11 UNL     1      13.085  26.285 -25.426  1.00  0.00     0.020 C 
HETATM   24  C12 UNL     1      14.410  25.743 -25.017  1.00  0.00     0.007 C 
HETATM   25  C13 UNL     1      14.666  24.356 -25.559  1.00  0.00     0.066 C 
HETATM   26  C14 UNL     1      13.487  23.442 -25.293  1.00  0.00     0.177 C 
HETATM   27  C15 UNL     1      13.921  22.204 -24.557  1.00  0.00     0.077 C 
HETATM   28  F1  UNL     1      12.993  23.069 -26.525  1.00  0.00    -0.219 F 
ENDBRANCH   3  21
TORSDOF 6
ENDMDL
