MODEL 1
REMARK VINA RESULT: -6.259893372      0.000      0.000
REMARK  5 active torsions:
REMARK  status: ('A' for Active; 'I' for Inactive)
REMARK    1  A    between atoms: C2_2  and  O1_3 
REMARK    2  A    between atoms: O1_3  and  C3_4 
REMARK       I    between atoms: C3_4  and  N1_6 
REMARK    3  A    between atoms: N1_6  and  C4_7 
REMARK    4  A    between atoms: C10_18  and  C12_20 
REMARK    5  A    between atoms: C12_20  and  O3_21 
ROOT
HETATM    1  C4  UNL     1      15.181  23.818 -20.330  1.00  0.00     0.185 C 
HETATM    2  N2  UNL     1      15.815  25.009 -20.321  1.00  0.00    -0.339 N 
ATOM      3  H2  UNL     1      16.610  25.087 -19.685  1.00  0.00     0.168 HD
HETATM    4  C5  UNL     1      15.518  26.150 -21.073  1.00  0.00     0.120 C 
HETATM    5  C6  UNL     1      14.757  25.807 -22.313  1.00  0.00     0.051 C 
HETATM    6  N3  UNL     1      14.825  26.576 -23.351  1.00  0.00    -0.386 N 
ATOM      7  H3  UNL     1      15.397  27.420 -23.307  1.00  0.00     0.159 HD
HETATM    8  C7  UNL     1      14.123  26.277 -24.550  1.00  0.00     0.146 C 
HETATM    9  C8  UNL     1      13.485  24.916 -24.633  1.00  0.00     0.063 C 
HETATM   10  C9  UNL     1      14.570  23.953 -25.105  1.00  0.00     0.035 C 
HETATM   11 CL1  UNL     1      12.187  24.892 -25.847  1.00  0.00    -0.117 Cl
HETATM   12  C10 UNL     1      12.941  24.447 -23.335  1.00  0.00     0.029 C 
HETATM   13  C11 UNL     1      11.885  25.505 -22.929  1.00  0.00     0.025 C 
HETATM   14  C13 UNL     1      14.004  24.573 -22.303  1.00  0.00    -0.013 C 
HETATM   15  C14 UNL     1      14.217  23.643 -21.388  1.00  0.00     0.074 C 
ENDROOT
BRANCH   1  16
HETATM   16  N1  UNL     1      15.722  22.892 -19.445  1.00  0.00    -0.327 NA
HETATM   17  C3  UNL     1      16.232  22.020 -18.611  1.00  0.00     0.441 C 
HETATM   18  O2  UNL     1      15.793  20.839 -18.308  1.00  0.00    -0.221 OA
BRANCH  17  19
HETATM   19  O1  UNL     1      17.437  22.368 -17.919  1.00  0.00    -0.293 OA
BRANCH  19  20
HETATM   20  C2  UNL     1      18.512  21.468 -17.950  1.00  0.00     0.177 C 
HETATM   21  C1  UNL     1      19.782  22.295 -17.976  1.00  0.00     0.034 C 
ENDBRANCH  19  20
ENDBRANCH  17  19
ENDBRANCH   1  16
BRANCH  12  22
HETATM   22  C12 UNL     1      12.217  23.149 -23.347  1.00  0.00     0.180 C 
BRANCH  22  23
HETATM   23  O3  UNL     1      10.862  23.350 -22.976  1.00  0.00    -0.400 OA
ATOM     24  H3  UNL     1      10.753  23.175 -22.048  1.00  0.00     0.209 HD
ENDBRANCH  22  23
ENDBRANCH  12  22
TORSDOF 5
ENDMDL
MODEL 2
REMARK VINA RESULT: -5.871392337      0.855      1.234
REMARK  5 active torsions:
REMARK  status: ('A' for Active; 'I' for Inactive)
REMARK    1  A    between atoms: C2_2  and  O1_3 
REMARK    2  A    between atoms: O1_3  and  C3_4 
REMARK       I    between atoms: C3_4  and  N1_6 
REMARK    3  A    between atoms: N1_6  and  C4_7 
REMARK    4  A    between atoms: C10_18  and  C12_20 
REMARK    5  A    between atoms: C12_20  and  O3_21 
ROOT
HETATM    1  C4  UNL     1      15.577  24.315 -20.401  1.00  0.00     0.185 C 
HETATM    2  N2  UNL     1      15.952  25.607 -20.509  1.00  0.00    -0.339 N 
ATOM      3  H2  UNL     1      16.747  25.890 -19.937  1.00  0.00     0.168 HD
HETATM    4  C5  UNL     1      15.385  26.604 -21.309  1.00  0.00     0.120 C 
HETATM    5  C6  UNL     1      14.643  26.024 -22.469  1.00  0.00     0.051 C 
HETATM    6  N3  UNL     1      14.493  26.711 -23.554  1.00  0.00    -0.386 N 
ATOM      7  H3  UNL     1      14.881  27.653 -23.603  1.00  0.00     0.159 HD
HETATM    8  C7  UNL     1      13.803  26.188 -24.681  1.00  0.00     0.146 C 
HETATM    9  C8  UNL     1      13.454  24.723 -24.634  1.00  0.00     0.063 C 
HETATM   10  C9  UNL     1      14.686  23.966 -25.120  1.00  0.00     0.035 C 
HETATM   11 CL1  UNL     1      12.123  24.348 -25.751  1.00  0.00    -0.117 Cl
HETATM   12  C10 UNL     1      13.091  24.253 -23.275  1.00  0.00     0.029 C 
HETATM   13  C11 UNL     1      11.864  25.105 -22.863  1.00  0.00     0.025 C 
HETATM   14  C13 UNL     1      14.161  24.668 -22.329  1.00  0.00    -0.013 C 
HETATM   15  C14 UNL     1      14.611  23.871 -21.376  1.00  0.00     0.074 C 
ENDROOT
BRANCH   1  16
HETATM   16  N1  UNL     1      16.345  23.586 -19.499  1.00  0.00    -0.327 NA
HETATM   17  C3  UNL     1      17.068  22.900 -18.650  1.00  0.00     0.441 C 
HETATM   18  O2  UNL     1      17.841  23.339 -17.708  1.00  0.00    -0.221 OA
BRANCH  17  19
HETATM   19  O1  UNL     1      17.031  21.471 -18.729  1.00  0.00    -0.293 OA
BRANCH  19  20
HETATM   20  C2  UNL     1      17.955  20.733 -17.974  1.00  0.00     0.177 C 
HETATM   21  C1  UNL     1      17.168  20.000 -16.905  1.00  0.00     0.034 C 
ENDBRANCH  19  20
ENDBRANCH  17  19
ENDBRANCH   1  16
BRANCH  12  22
HETATM   22  C12 UNL     1      12.649  22.839 -23.156  1.00  0.00     0.180 C 
BRANCH  22  23
HETATM   23  O3  UNL     1      11.233  22.781 -23.101  1.00  0.00    -0.400 OA
ATOM     24  H3  UNL     1      10.861  23.463 -23.648  1.00  0.00     0.209 HD
ENDBRANCH  22  23
ENDBRANCH  12  22
TORSDOF 5
ENDMDL
MODEL 3
REMARK VINA RESULT: -5.683760387      1.333      1.424
REMARK  5 active torsions:
REMARK  status: ('A' for Active; 'I' for Inactive)
REMARK    1  A    between atoms: C2_2  and  O1_3 
REMARK    2  A    between atoms: O1_3  and  C3_4 
REMARK       I    between atoms: C3_4  and  N1_6 
REMARK    3  A    between atoms: N1_6  and  C4_7 
REMARK    4  A    between atoms: C10_18  and  C12_20 
REMARK    5  A    between atoms: C12_20  and  O3_21 
ROOT
HETATM    1  C4  UNL     1      15.624  24.736 -20.424  1.00  0.00     0.185 C 
HETATM    2  N2  UNL     1      16.119  25.982 -20.580  1.00  0.00    -0.339 N 
ATOM      3  H2  UNL     1      16.943  26.208 -20.022  1.00  0.00     0.168 HD
HETATM    4  C5  UNL     1      15.641  27.001 -21.410  1.00  0.00     0.120 C 
HETATM    5  C6  UNL     1      14.838  26.455 -22.544  1.00  0.00     0.051 C 
HETATM    6  N3  UNL     1      14.743  27.116 -23.652  1.00  0.00    -0.386 N 
ATOM      7  H3  UNL     1      15.218  28.015 -23.735  1.00  0.00     0.159 HD
HETATM    8  C7  UNL     1      13.996  26.623 -24.755  1.00  0.00     0.146 C 
HETATM    9  C8  UNL     1      13.511  25.201 -24.657  1.00  0.00     0.063 C 
HETATM   10  C9  UNL     1      14.661  24.314 -25.124  1.00  0.00     0.035 C 
HETATM   11 CL1  UNL     1      12.141  24.916 -25.752  1.00  0.00    -0.117 Cl
HETATM   12  C10 UNL     1      13.118  24.813 -23.280  1.00  0.00     0.029 C 
HETATM   13  C11 UNL     1      11.981  25.790 -22.891  1.00  0.00     0.025 C 
HETATM   14  C13 UNL     1      14.231  25.156 -22.355  1.00  0.00    -0.013 C 
HETATM   15  C14 UNL     1      14.612  24.353 -21.378  1.00  0.00     0.074 C 
ENDROOT
BRANCH   1  16
HETATM   16  N1  UNL     1      16.328  23.968 -19.503  1.00  0.00    -0.327 NA
HETATM   17  C3  UNL     1      16.992  23.245 -18.635  1.00  0.00     0.441 C 
HETATM   18  O2  UNL     1      16.635  22.138 -18.065  1.00  0.00    -0.221 OA
BRANCH  17  19
HETATM   19  O1  UNL     1      18.292  23.692 -18.234  1.00  0.00    -0.293 OA
BRANCH  19  20
HETATM   20  C2  UNL     1      18.485  25.060 -17.993  1.00  0.00     0.177 C 
HETATM   21  C1  UNL     1      17.878  25.361 -16.636  1.00  0.00     0.034 C 
ENDBRANCH  19  20
ENDBRANCH  17  19
ENDBRANCH   1  16
BRANCH  12  22
HETATM   22  C12 UNL     1      12.546  23.452 -23.110  1.00  0.00     0.180 C 
BRANCH  22  23
HETATM   23  O3  UNL     1      11.250  23.542 -22.539  1.00  0.00    -0.400 OA
ATOM     24  H3  UNL     1      10.909  24.423 -22.652  1.00  0.00     0.209 HD
ENDBRANCH  22  23
ENDBRANCH  12  22
TORSDOF 5
ENDMDL
MODEL 4
REMARK VINA RESULT: -5.593284315      2.501      3.533
REMARK  5 active torsions:
REMARK  status: ('A' for Active; 'I' for Inactive)
REMARK    1  A    between atoms: C2_2  and  O1_3 
REMARK    2  A    between atoms: O1_3  and  C3_4 
REMARK       I    between atoms: C3_4  and  N1_6 
REMARK    3  A    between atoms: N1_6  and  C4_7 
REMARK    4  A    between atoms: C10_18  and  C12_20 
REMARK    5  A    between atoms: C12_20  and  O3_21 
ROOT
HETATM    1  C4  UNL     1      13.714  24.352 -21.941  1.00  0.00     0.185 C 
HETATM    2  N2  UNL     1      12.865  25.382 -22.133  1.00  0.00    -0.339 N 
ATOM      3  H2  UNL     1      13.097  26.249 -21.648  1.00  0.00     0.168 HD
HETATM    4  C5  UNL     1      11.705  25.409 -22.915  1.00  0.00     0.120 C 
HETATM    5  C6  UNL     1      11.735  24.360 -23.978  1.00  0.00     0.051 C 
HETATM    6  N3  UNL     1      11.062  24.522 -25.071  1.00  0.00    -0.386 N 
ATOM      7  H3  UNL     1      10.508  25.370 -25.191  1.00  0.00     0.159 HD
HETATM    8  C7  UNL     1      11.075  23.550 -26.108  1.00  0.00     0.146 C 
HETATM    9  C8  UNL     1      12.080  22.437 -25.973  1.00  0.00     0.063 C 
HETATM   10  C9  UNL     1      13.394  22.965 -26.542  1.00  0.00     0.035 C 
HETATM   11 CL1  UNL     1      11.607  21.028 -26.947  1.00  0.00    -0.117 Cl
HETATM   12  C10 UNL     1      12.289  22.006 -24.569  1.00  0.00     0.029 C 
HETATM   13  C11 UNL     1      10.899  21.529 -24.079  1.00  0.00     0.025 C 
HETATM   14  C13 UNL     1      12.578  23.208 -23.743  1.00  0.00    -0.013 C 
HETATM   15  C14 UNL     1      13.508  23.216 -22.806  1.00  0.00     0.074 C 
ENDROOT
BRANCH   1  16
HETATM   16  N1  UNL     1      14.770  24.653 -21.087  1.00  0.00    -0.327 NA
HETATM   17  C3  UNL     1      15.764  24.936 -20.283  1.00  0.00     0.441 C 
HETATM   18  O2  UNL     1      16.550  25.966 -20.302  1.00  0.00    -0.221 OA
BRANCH  17  19
HETATM   19  O1  UNL     1      16.059  24.021 -19.222  1.00  0.00    -0.293 OA
BRANCH  19  20
HETATM   20  C2  UNL     1      16.214  22.662 -19.534  1.00  0.00     0.177 C 
HETATM   21  C1  UNL     1      15.443  21.878 -18.490  1.00  0.00     0.034 C 
ENDBRANCH  19  20
ENDBRANCH  17  19
ENDBRANCH   1  16
BRANCH  12  22
HETATM   22  C12 UNL     1      13.202  20.853 -24.356  1.00  0.00     0.180 C 
BRANCH  22  23
HETATM   23  O3  UNL     1      12.550  19.861 -23.578  1.00  0.00    -0.400 OA
ATOM     24  H3  UNL     1      11.608  19.944 -23.674  1.00  0.00     0.209 HD
ENDBRANCH  22  23
ENDBRANCH  12  22
TORSDOF 5
ENDMDL
MODEL 5
REMARK VINA RESULT: -5.551580545      1.489      1.563
REMARK  5 active torsions:
REMARK  status: ('A' for Active; 'I' for Inactive)
REMARK    1  A    between atoms: C2_2  and  O1_3 
REMARK    2  A    between atoms: O1_3  and  C3_4 
REMARK       I    between atoms: C3_4  and  N1_6 
REMARK    3  A    between atoms: N1_6  and  C4_7 
REMARK    4  A    between atoms: C10_18  and  C12_20 
REMARK    5  A    between atoms: C12_20  and  O3_21 
ROOT
HETATM    1  C4  UNL     1      15.020  24.159 -20.984  1.00  0.00     0.185 C 
HETATM    2  N2  UNL     1      15.354  25.447 -21.205  1.00  0.00    -0.339 N 
ATOM      3  H2  UNL     1      16.118  25.814 -20.638  1.00  0.00     0.168 HD
HETATM    4  C5  UNL     1      14.781  26.342 -22.115  1.00  0.00     0.120 C 
HETATM    5  C6  UNL     1      14.101  25.626 -23.236  1.00  0.00     0.051 C 
HETATM    6  N3  UNL     1      13.966  26.200 -24.387  1.00  0.00    -0.386 N 
ATOM      7  H3  UNL     1      14.323  27.147 -24.515  1.00  0.00     0.159 HD
HETATM    8  C7  UNL     1      13.334  25.546 -25.479  1.00  0.00     0.146 C 
HETATM    9  C8  UNL     1      13.035  24.081 -25.303  1.00  0.00     0.063 C 
HETATM   10  C9  UNL     1      14.308  23.327 -25.674  1.00  0.00     0.035 C 
HETATM   11 CL1  UNL     1      11.758  23.551 -26.419  1.00  0.00    -0.117 Cl
HETATM   12  C10 UNL     1      12.640  23.729 -23.916  1.00  0.00     0.029 C 
HETATM   13  C11 UNL     1      11.371  24.570 -23.628  1.00  0.00     0.025 C 
HETATM   14  C13 UNL     1      13.662  24.272 -22.982  1.00  0.00    -0.013 C 
HETATM   15  C14 UNL     1      14.105  23.588 -21.942  1.00  0.00     0.074 C 
ENDROOT
BRANCH   1  16
HETATM   16  N1  UNL     1      15.780  23.549 -19.993  1.00  0.00    -0.327 NA
HETATM   17  C3  UNL     1      16.497  22.975 -19.059  1.00  0.00     0.441 C 
HETATM   18  O2  UNL     1      17.007  21.784 -19.050  1.00  0.00    -0.221 OA
BRANCH  17  19
HETATM   19  O1  UNL     1      16.788  23.721 -17.872  1.00  0.00    -0.293 OA
BRANCH  19  20
HETATM   20  C2  UNL     1      17.860  24.626 -17.895  1.00  0.00     0.177 C 
HETATM   21  C1  UNL     1      17.878  25.325 -16.549  1.00  0.00     0.034 C 
ENDBRANCH  19  20
ENDBRANCH  17  19
ENDBRANCH   1  16
BRANCH  12  22
HETATM   22  C12 UNL     1      12.244  22.317 -23.675  1.00  0.00     0.180 C 
BRANCH  22  23
HETATM   23  O3  UNL     1      10.849  22.245 -23.427  1.00  0.00    -0.400 OA
ATOM     24  H3  UNL     1      10.560  21.341 -23.467  1.00  0.00     0.209 HD
ENDBRANCH  22  23
ENDBRANCH  12  22
TORSDOF 5
ENDMDL
