MODEL 1
REMARK VINA RESULT: -6.023946391      0.000      0.000
REMARK  4 active torsions:
REMARK  status: ('A' for Active; 'I' for Inactive)
REMARK    1  A    between atoms: N2_7  and  N3_8 
REMARK    2  A    between atoms: N3_8  and  C5_10 
REMARK    3  A    between atoms: C5_10  and  N4_12 
REMARK       I    between atoms: N4_12  and  C6_14 
REMARK    4  A    between atoms: C6_14  and  C7_16 
ROOT
HETATM    1  C5  UNL     1      18.422  26.244 -15.970  1.00  0.00     0.193 C 
HETATM    2  S1  UNL     1      18.445  26.041 -14.327  1.00  0.00    -0.039 SA
ENDROOT
BRANCH   1   3
HETATM    3  N3  UNL     1      19.467  27.032 -16.541  1.00  0.00    -0.272 N 
ATOM      4  H3  UNL     1      20.389  26.616 -16.671  1.00  0.00     0.189 HD
BRANCH   3   5
HETATM    5  N2  UNL     1      19.258  28.349 -16.923  1.00  0.00    -0.277 N 
HETATM    6  C2  UNL     1      20.139  29.451 -16.888  1.00  0.00     0.090 C 
HETATM    7  C1  UNL     1      21.624  29.315 -16.720  1.00  0.00     0.090 C 
HETATM    8  N1  UNL     1      19.556  30.560 -17.013  1.00  0.00    -0.377 N 
HETATM    9  C3  UNL     1      18.152  30.373 -17.154  1.00  0.00     0.143 C 
ATOM     10  H1  UNL     1      20.025  31.466 -17.012  1.00  0.00     0.160 HD
HETATM   11  C4  UNL     1      18.004  28.889 -17.472  1.00  0.00     0.170 C 
ENDBRANCH   3   5
ENDBRANCH   1   3
BRANCH   1  12
HETATM   12  N4  UNL     1      17.419  25.669 -16.789  1.00  0.00    -0.298 N 
HETATM   13  C6  UNL     1      17.730  24.871 -17.894  1.00  0.00     0.266 C 
HETATM   14  O1  UNL     1      18.989  24.700 -18.109  1.00  0.00    -0.267 OA
ATOM     15  H4  UNL     1      16.438  25.842 -16.565  1.00  0.00     0.171 HD
BRANCH  13  16
HETATM   16  C7  UNL     1      16.788  24.235 -18.795  1.00  0.00     0.095 A 
HETATM   17  S2  UNL     1      16.325  22.573 -18.615  1.00  0.00    -0.094 SA
HETATM   18  C8  UNL     1      15.243  22.438 -19.924  1.00  0.00     0.059 A 
HETATM   19  C9  UNL     1      15.276  23.696 -20.463  1.00  0.00    -0.032 A 
HETATM   20  C10 UNL     1      14.411  23.965 -21.678  1.00  0.00     0.050 C 
HETATM   21  C11 UNL     1      16.067  24.606 -19.879  1.00  0.00     0.063 A 
HETATM   22 CL1  UNL     1      16.188  26.279 -20.496  1.00  0.00    -0.082 Cl
ENDBRANCH  13  16
ENDBRANCH   1  12
TORSDOF 4
ENDMDL
MODEL 2
REMARK VINA RESULT: -5.980376618      3.750      6.739
REMARK  4 active torsions:
REMARK  status: ('A' for Active; 'I' for Inactive)
REMARK    1  A    between atoms: N2_7  and  N3_8 
REMARK    2  A    between atoms: N3_8  and  C5_10 
REMARK    3  A    between atoms: C5_10  and  N4_12 
REMARK       I    between atoms: N4_12  and  C6_14 
REMARK    4  A    between atoms: C6_14  and  C7_16 
ROOT
HETATM    1  C5  UNL     1      18.802  22.592 -17.472  1.00  0.00     0.193 C 
HETATM    2  S1  UNL     1      17.625  21.670 -18.182  1.00  0.00    -0.039 SA
ENDROOT
BRANCH   1   3
HETATM    3  N3  UNL     1      19.587  21.971 -16.454  1.00  0.00    -0.272 N 
ATOM      4  H3  UNL     1      20.567  22.235 -16.351  1.00  0.00     0.189 HD
BRANCH   3   5
HETATM    5  N2  UNL     1      19.048  21.018 -15.601  1.00  0.00    -0.277 N 
HETATM    6  C2  UNL     1      19.200  20.865 -14.206  1.00  0.00     0.090 C 
HETATM    7  C1  UNL     1      19.740  21.942 -13.312  1.00  0.00     0.090 C 
HETATM    8  N1  UNL     1      18.838  19.735 -13.786  1.00  0.00    -0.377 N 
HETATM    9  C3  UNL     1      18.372  18.928 -14.862  1.00  0.00     0.143 C 
ATOM     10  H1  UNL     1      18.872  19.440 -12.811  1.00  0.00     0.160 HD
HETATM   11  C4  UNL     1      18.163  19.916 -16.005  1.00  0.00     0.170 C 
ENDBRANCH   3   5
ENDBRANCH   1   3
BRANCH   1  12
HETATM   12  N4  UNL     1      19.036  23.939 -17.846  1.00  0.00    -0.298 N 
HETATM   13  C6  UNL     1      18.424  25.009 -17.185  1.00  0.00     0.266 C 
HETATM   14  O1  UNL     1      17.640  24.679 -16.218  1.00  0.00    -0.267 OA
ATOM     15  H4  UNL     1      19.669  24.135 -18.621  1.00  0.00     0.171 HD
BRANCH  13  16
HETATM   16  C7  UNL     1      18.592  26.419 -17.482  1.00  0.00     0.095 A 
HETATM   17  S2  UNL     1      19.449  27.486 -16.416  1.00  0.00    -0.094 SA
HETATM   18  C8  UNL     1      19.298  28.940 -17.292  1.00  0.00     0.059 A 
HETATM   19  C9  UNL     1      18.584  28.548 -18.391  1.00  0.00    -0.032 A 
HETATM   20  C10 UNL     1      18.250  29.602 -19.428  1.00  0.00     0.050 C 
HETATM   21  C11 UNL     1      18.228  27.259 -18.479  1.00  0.00     0.063 A 
HETATM   22 CL1  UNL     1      17.294  26.635 -19.869  1.00  0.00    -0.082 Cl
ENDBRANCH  13  16
ENDBRANCH   1  12
TORSDOF 4
ENDMDL
MODEL 3
REMARK VINA RESULT: -5.919755944      5.723      9.734
REMARK  4 active torsions:
REMARK  status: ('A' for Active; 'I' for Inactive)
REMARK    1  A    between atoms: N2_7  and  N3_8 
REMARK    2  A    between atoms: N3_8  and  C5_10 
REMARK    3  A    between atoms: C5_10  and  N4_12 
REMARK       I    between atoms: N4_12  and  C6_14 
REMARK    4  A    between atoms: C6_14  and  C7_16 
ROOT
HETATM    1  C5  UNL     1      13.255  23.216 -23.678  1.00  0.00     0.193 C 
HETATM    2  S1  UNL     1      13.254  24.306 -24.924  1.00  0.00    -0.039 SA
ENDROOT
BRANCH   1   3
HETATM    3  N3  UNL     1      12.144  22.322 -23.598  1.00  0.00    -0.272 N 
ATOM      4  H3  UNL     1      11.352  22.566 -23.003  1.00  0.00     0.189 HD
BRANCH   3   5
HETATM    5  N2  UNL     1      12.116  21.131 -24.309  1.00  0.00    -0.277 N 
HETATM    6  C2  UNL     1      11.271  20.011 -24.162  1.00  0.00     0.090 C 
HETATM    7  C1  UNL     1       9.989  20.040 -23.383  1.00  0.00     0.090 C 
HETATM    8  N1  UNL     1      11.698  18.982 -24.750  1.00  0.00    -0.377 N 
HETATM    9  C3  UNL     1      12.933  19.258 -25.402  1.00  0.00     0.143 C 
ATOM     10  H1  UNL     1      11.226  18.079 -24.757  1.00  0.00     0.160 HD
HETATM   11  C4  UNL     1      13.013  20.781 -25.420  1.00  0.00     0.170 C 
ENDBRANCH   3   5
ENDBRANCH   1   3
BRANCH   1  12
HETATM   12  N4  UNL     1      14.302  23.157 -22.726  1.00  0.00    -0.298 N 
HETATM   13  C6  UNL     1      14.243  23.851 -21.513  1.00  0.00     0.266 C 
HETATM   14  O1  UNL     1      13.171  24.541 -21.330  1.00  0.00    -0.267 OA
ATOM     15  H4  UNL     1      15.126  22.590 -22.931  1.00  0.00     0.171 HD
BRANCH  13  16
HETATM   16  C7  UNL     1      15.252  23.860 -20.472  1.00  0.00     0.095 A 
HETATM   17  S2  UNL     1      15.587  22.459 -19.505  1.00  0.00    -0.094 SA
HETATM   18  C8  UNL     1      16.817  23.090 -18.509  1.00  0.00     0.059 A 
HETATM   19  C9  UNL     1      16.930  24.377 -18.962  1.00  0.00    -0.032 A 
HETATM   20  C10 UNL     1      17.957  25.271 -18.297  1.00  0.00     0.050 C 
HETATM   21  C11 UNL     1      16.126  24.760 -19.964  1.00  0.00     0.063 A 
HETATM   22 CL1  UNL     1      16.187  26.415 -20.636  1.00  0.00    -0.082 Cl
ENDBRANCH  13  16
ENDBRANCH   1  12
TORSDOF 4
ENDMDL
MODEL 4
REMARK VINA RESULT: -5.850604577      5.571      9.558
REMARK  4 active torsions:
REMARK  status: ('A' for Active; 'I' for Inactive)
REMARK    1  A    between atoms: N2_7  and  N3_8 
REMARK    2  A    between atoms: N3_8  and  C5_10 
REMARK    3  A    between atoms: C5_10  and  N4_12 
REMARK       I    between atoms: N4_12  and  C6_14 
REMARK    4  A    between atoms: C6_14  and  C7_16 
ROOT
HETATM    1  C5  UNL     1      13.323  23.226 -23.409  1.00  0.00     0.193 C 
HETATM    2  S1  UNL     1      13.725  23.668 -24.953  1.00  0.00    -0.039 SA
ENDROOT
BRANCH   1   3
HETATM    3  N3  UNL     1      11.934  23.059 -23.124  1.00  0.00    -0.272 N 
ATOM      4  H3  UNL     1      11.464  23.738 -22.524  1.00  0.00     0.189 HD
BRANCH   3   5
HETATM    5  N2  UNL     1      11.208  21.996 -23.642  1.00  0.00    -0.277 N 
HETATM    6  C2  UNL     1       9.835  21.905 -23.951  1.00  0.00     0.090 C 
HETATM    7  C1  UNL     1       8.937  23.100 -24.078  1.00  0.00     0.090 C 
HETATM    8  N1  UNL     1       9.436  20.721 -24.112  1.00  0.00    -0.377 N 
HETATM    9  C3  UNL     1      10.510  19.805 -23.929  1.00  0.00     0.143 C 
ATOM     10  H1  UNL     1       8.478  20.457 -24.341  1.00  0.00     0.160 HD
HETATM   11  C4  UNL     1      11.759  20.677 -23.989  1.00  0.00     0.170 C 
ENDBRANCH   3   5
ENDBRANCH   1   3
BRANCH   1  12
HETATM   12  N4  UNL     1      14.299  23.019 -22.404  1.00  0.00    -0.298 N 
HETATM   13  C6  UNL     1      14.457  23.900 -21.329  1.00  0.00     0.266 C 
HETATM   14  O1  UNL     1      13.652  24.906 -21.323  1.00  0.00    -0.267 OA
ATOM     15  H4  UNL     1      14.907  22.201 -22.465  1.00  0.00     0.171 HD
BRANCH  13  16
HETATM   16  C7  UNL     1      15.418  23.784 -20.249  1.00  0.00     0.095 A 
HETATM   17  S2  UNL     1      15.578  22.331 -19.315  1.00  0.00    -0.094 SA
HETATM   18  C8  UNL     1      16.820  22.813 -18.253  1.00  0.00     0.059 A 
HETATM   19  C9  UNL     1      17.072  24.095 -18.660  1.00  0.00    -0.032 A 
HETATM   20  C10 UNL     1      18.151  24.868 -17.927  1.00  0.00     0.050 C 
HETATM   21  C11 UNL     1      16.351  24.581 -19.680  1.00  0.00     0.063 A 
HETATM   22 CL1  UNL     1      16.596  26.241 -20.296  1.00  0.00    -0.082 Cl
ENDBRANCH  13  16
ENDBRANCH   1  12
TORSDOF 4
ENDMDL
MODEL 5
REMARK VINA RESULT: -5.775520820      5.569      9.458
REMARK  4 active torsions:
REMARK  status: ('A' for Active; 'I' for Inactive)
REMARK    1  A    between atoms: N2_7  and  N3_8 
REMARK    2  A    between atoms: N3_8  and  C5_10 
REMARK    3  A    between atoms: C5_10  and  N4_12 
REMARK       I    between atoms: N4_12  and  C6_14 
REMARK    4  A    between atoms: C6_14  and  C7_16 
ROOT
HETATM    1  C5  UNL     1      13.302  23.254 -23.323  1.00  0.00     0.193 C 
HETATM    2  S1  UNL     1      13.616  23.802 -24.853  1.00  0.00    -0.039 SA
ENDROOT
BRANCH   1   3
HETATM    3  N3  UNL     1      11.939  22.973 -23.001  1.00  0.00    -0.272 N 
ATOM      4  H3  UNL     1      11.562  23.297 -22.110  1.00  0.00     0.189 HD
BRANCH   3   5
HETATM    5  N2  UNL     1      11.116  22.273 -23.871  1.00  0.00    -0.277 N 
HETATM    6  C2  UNL     1      11.298  21.006 -24.465  1.00  0.00     0.090 C 
HETATM    7  C1  UNL     1      12.314  20.010 -23.988  1.00  0.00     0.090 C 
HETATM    8  N1  UNL     1      10.524  20.793 -25.434  1.00  0.00    -0.377 N 
HETATM    9  C3  UNL     1       9.675  21.915 -25.651  1.00  0.00     0.143 C 
ATOM     10  H1  UNL     1      10.506  19.936 -25.986  1.00  0.00     0.160 HD
HETATM   11  C4  UNL     1       9.816  22.741 -24.376  1.00  0.00     0.170 C 
ENDBRANCH   3   5
ENDBRANCH   1   3
BRANCH   1  12
HETATM   12  N4  UNL     1      14.327  23.065 -22.363  1.00  0.00    -0.298 N 
HETATM   13  C6  UNL     1      14.494  23.929 -21.276  1.00  0.00     0.266 C 
HETATM   14  O1  UNL     1      13.652  24.902 -21.215  1.00  0.00    -0.267 OA
ATOM     15  H4  UNL     1      14.963  22.274 -22.467  1.00  0.00     0.171 HD
BRANCH  13  16
HETATM   16  C7  UNL     1      15.503  23.830 -20.240  1.00  0.00     0.095 A 
HETATM   17  S2  UNL     1      15.747  22.371 -19.333  1.00  0.00    -0.094 SA
HETATM   18  C8  UNL     1      17.017  22.878 -18.317  1.00  0.00     0.059 A 
HETATM   19  C9  UNL     1      17.213  24.173 -18.717  1.00  0.00    -0.032 A 
HETATM   20  C10 UNL     1      18.297  24.969 -18.019  1.00  0.00     0.050 C 
HETATM   21  C11 UNL     1      16.435  24.648 -19.699  1.00  0.00     0.063 A 
HETATM   22 CL1  UNL     1      16.603  26.323 -20.301  1.00  0.00    -0.082 Cl
ENDBRANCH  13  16
ENDBRANCH   1  12
TORSDOF 4
ENDMDL
