MODEL 1
REMARK VINA RESULT: -5.302905301      0.000      0.000
REMARK  3 active torsions:
REMARK  status: ('A' for Active; 'I' for Inactive)
REMARK    1  A    between atoms: C1_2  and  C2_4 
REMARK    2  A    between atoms: C3_5  and  C4_6 
REMARK    3  A    between atoms: C13_20  and  O2_21 
ROOT
HETATM    1  C4  UNL     1      18.458  26.445 -17.468  1.00  0.00    -0.009 C 
HETATM    2  C5  UNL     1      17.355  26.196 -16.781  1.00  0.00    -0.014 C 
HETATM    3  C6  UNL     1      17.005  24.745 -16.812  1.00  0.00     0.040 C 
HETATM    4  C7  UNL     1      17.554  24.368 -18.178  1.00  0.00     0.001 C 
HETATM    5  C8  UNL     1      17.923  22.929 -18.172  1.00  0.00     0.032 C 
HETATM    6  C9  UNL     1      16.682  22.122 -18.483  1.00  0.00     0.114 C 
HETATM    7  N2  UNL     1      16.113  22.510 -19.740  1.00  0.00    -0.421 N 
ATOM      8  H2  UNL     1      15.974  21.844 -20.500  1.00  0.00     0.153 HD
HETATM    9  C10 UNL     1      15.756  23.870 -19.861  1.00  0.00     0.114 C 
HETATM   10  C11 UNL     1      16.757  24.851 -19.322  1.00  0.00     0.032 C 
HETATM   11  C12 UNL     1      18.880  25.183 -18.090  1.00  0.00     0.213 C 
HETATM   12  F1  UNL     1      19.282  25.360 -19.417  1.00  0.00    -0.243 F 
ENDROOT
BRANCH   1  13
HETATM   13  C3  UNL     1      19.044  27.827 -17.610  1.00  0.00     0.039 A 
HETATM   14  C2  UNL     1      18.656  28.813 -18.447  1.00  0.00     0.088 A 
HETATM   15  C13 UNL     1      19.208  30.065 -18.297  1.00  0.00     0.130 A 
HETATM   16  S2  UNL     1      20.347  30.269 -17.066  1.00  0.00    -0.026 SA
HETATM   17  S1  UNL     1      20.239  28.323 -16.435  1.00  0.00    -0.049 SA
BRANCH  14  18
HETATM   18  C1  UNL     1      17.783  28.630 -19.664  1.00  0.00     0.269 C 
HETATM   19  N1  UNL     1      16.605  29.382 -19.764  1.00  0.00    -0.057 NA
HETATM   20  O1  UNL     1      18.049  27.846 -20.587  1.00  0.00    -0.271 OA
ENDBRANCH  14  18
BRANCH  15  21
HETATM   21  O2  UNL     1      18.916  31.098 -19.032  1.00  0.00    -0.353 OA
ATOM     22  H2  UNL     1      18.049  31.480 -19.109  1.00  0.00     0.218 HD
ENDBRANCH  15  21
ENDBRANCH   1  13
TORSDOF 3
ENDMDL
MODEL 2
REMARK VINA RESULT: -5.128972043      1.561      2.134
REMARK  3 active torsions:
REMARK  status: ('A' for Active; 'I' for Inactive)
REMARK    1  A    between atoms: C1_2  and  C2_4 
REMARK    2  A    between atoms: C3_5  and  C4_6 
REMARK    3  A    between atoms: C13_20  and  O2_21 
ROOT
HETATM    1  C4  UNL     1      17.780  25.874 -18.296  1.00  0.00    -0.009 C 
HETATM    2  C5  UNL     1      17.634  25.325 -19.490  1.00  0.00    -0.014 C 
HETATM    3  C6  UNL     1      16.986  23.984 -19.403  1.00  0.00     0.040 C 
HETATM    4  C7  UNL     1      17.492  23.531 -18.043  1.00  0.00     0.001 C 
HETATM    5  C8  UNL     1      16.513  22.584 -17.452  1.00  0.00     0.032 C 
HETATM    6  C9  UNL     1      16.811  21.201 -17.988  1.00  0.00     0.114 C 
HETATM    7  N2  UNL     1      18.159  20.810 -17.694  1.00  0.00    -0.421 N 
ATOM      8  H2  UNL     1      18.374  19.967 -17.163  1.00  0.00     0.153 HD
HETATM    9  C10 UNL     1      19.169  21.665 -18.186  1.00  0.00     0.114 C 
HETATM   10  C11 UNL     1      18.913  23.134 -18.011  1.00  0.00     0.032 C 
HETATM   11  C12 UNL     1      17.318  24.892 -17.304  1.00  0.00     0.213 C 
HETATM   12  F1  UNL     1      18.175  24.816 -16.203  1.00  0.00    -0.243 F 
ENDROOT
BRANCH   1  13
HETATM   13  C3  UNL     1      18.409  27.228 -18.083  1.00  0.00     0.039 A 
HETATM   14  C2  UNL     1      18.221  28.355 -18.803  1.00  0.00     0.088 A 
HETATM   15  C13 UNL     1      18.753  29.535 -18.336  1.00  0.00     0.130 A 
HETATM   16  S2  UNL     1      19.615  29.479 -16.885  1.00  0.00    -0.026 SA
HETATM   17  S1  UNL     1      19.342  27.465 -16.625  1.00  0.00    -0.049 SA
BRANCH  14  18
HETATM   18  C1  UNL     1      17.616  28.416 -20.184  1.00  0.00     0.269 C 
HETATM   19  N1  UNL     1      18.470  28.581 -21.283  1.00  0.00    -0.057 NA
HETATM   20  O1  UNL     1      16.400  28.327 -20.404  1.00  0.00    -0.271 OA
ENDBRANCH  14  18
BRANCH  15  21
HETATM   21  O2  UNL     1      18.639  30.687 -18.931  1.00  0.00    -0.353 OA
ATOM     22  H2  UNL     1      18.058  30.864 -19.662  1.00  0.00     0.218 HD
ENDBRANCH  15  21
ENDBRANCH   1  13
TORSDOF 3
ENDMDL
MODEL 3
REMARK VINA RESULT: -4.960915886      3.374      6.303
REMARK  3 active torsions:
REMARK  status: ('A' for Active; 'I' for Inactive)
REMARK    1  A    between atoms: C1_2  and  C2_4 
REMARK    2  A    between atoms: C3_5  and  C4_6 
REMARK    3  A    between atoms: C13_20  and  O2_21 
ROOT
HETATM    1  C4  UNL     1      17.990  27.681 -19.367  1.00  0.00    -0.009 C 
HETATM    2  C5  UNL     1      18.221  28.623 -20.266  1.00  0.00    -0.014 C 
HETATM    3  C6  UNL     1      19.068  29.719 -19.710  1.00  0.00     0.040 C 
HETATM    4  C7  UNL     1      18.634  29.677 -18.254  1.00  0.00     0.001 C 
HETATM    5  C8  UNL     1      19.746  30.170 -17.402  1.00  0.00     0.032 C 
HETATM    6  C9  UNL     1      19.666  31.681 -17.349  1.00  0.00     0.114 C 
HETATM    7  N2  UNL     1      18.394  32.115 -16.851  1.00  0.00    -0.421 N 
ATOM      8  H2  UNL     1      18.310  32.709 -16.026  1.00  0.00     0.153 HD
HETATM    9  C10 UNL     1      17.266  31.671 -17.574  1.00  0.00     0.114 C 
HETATM   10  C11 UNL     1      17.292  30.229 -17.990  1.00  0.00     0.032 C 
HETATM   11  C12 UNL     1      18.595  28.126 -18.103  1.00  0.00     0.213 C 
HETATM   12  F1  UNL     1      17.758  27.892 -17.009  1.00  0.00    -0.243 F 
ENDROOT
BRANCH   1  13
HETATM   13  C3  UNL     1      17.160  26.455 -19.652  1.00  0.00     0.039 A 
HETATM   14  C2  UNL     1      17.139  25.287 -18.975  1.00  0.00     0.088 A 
HETATM   15  C13 UNL     1      16.178  24.355 -19.291  1.00  0.00     0.130 A 
HETATM   16  S2  UNL     1      15.090  24.747 -20.522  1.00  0.00    -0.026 SA
HETATM   17  S1  UNL     1      15.917  26.588 -20.874  1.00  0.00    -0.049 SA
BRANCH  14  18
HETATM   18  C1  UNL     1      18.195  24.828 -18.000  1.00  0.00     0.269 C 
HETATM   19  N1  UNL     1      17.884  24.807 -16.634  1.00  0.00    -0.057 NA
HETATM   20  O1  UNL     1      19.331  24.466 -18.340  1.00  0.00    -0.271 OA
ENDBRANCH  14  18
BRANCH  15  21
HETATM   21  O2  UNL     1      16.048  23.197 -18.711  1.00  0.00    -0.353 OA
ATOM     22  H2  UNL     1      15.226  22.731 -18.612  1.00  0.00     0.218 HD
ENDBRANCH  15  21
ENDBRANCH   1  13
TORSDOF 3
ENDMDL
MODEL 4
REMARK VINA RESULT: -4.899716678      3.505      4.236
REMARK  3 active torsions:
REMARK  status: ('A' for Active; 'I' for Inactive)
REMARK    1  A    between atoms: C1_2  and  C2_4 
REMARK    2  A    between atoms: C3_5  and  C4_6 
REMARK    3  A    between atoms: C13_20  and  O2_21 
ROOT
HETATM    1  C4  UNL     1      16.264  24.221 -19.539  1.00  0.00    -0.009 C 
HETATM    2  C5  UNL     1      16.179  23.150 -20.310  1.00  0.00    -0.014 C 
HETATM    3  C6  UNL     1      16.042  21.901 -19.504  1.00  0.00     0.040 C 
HETATM    4  C7  UNL     1      16.826  22.300 -18.263  1.00  0.00     0.001 C 
HETATM    5  C8  UNL     1      16.304  21.543 -17.096  1.00  0.00     0.032 C 
HETATM    6  C9  UNL     1      16.994  20.196 -17.061  1.00  0.00     0.114 C 
HETATM    7  N2  UNL     1      18.418  20.344 -16.993  1.00  0.00    -0.421 N 
ATOM      8  H2  UNL     1      18.968  19.943 -16.234  1.00  0.00     0.153 HD
HETATM    9  C10 UNL     1      19.011  21.079 -18.042  1.00  0.00     0.114 C 
HETATM   10  C11 UNL     1      18.290  22.335 -18.439  1.00  0.00     0.032 C 
HETATM   11  C12 UNL     1      16.283  23.756 -18.145  1.00  0.00     0.213 C 
HETATM   12  F1  UNL     1      17.235  24.433 -17.379  1.00  0.00    -0.243 F 
ENDROOT
BRANCH   1  13
HETATM   13  C3  UNL     1      16.412  25.619 -20.085  1.00  0.00     0.039 A 
HETATM   14  C2  UNL     1      15.601  26.264 -20.950  1.00  0.00     0.088 A 
HETATM   15  C13 UNL     1      15.815  27.603 -21.186  1.00  0.00     0.130 A 
HETATM   16  S2  UNL     1      17.098  28.340 -20.371  1.00  0.00    -0.026 SA
HETATM   17  S1  UNL     1      17.657  26.629 -19.390  1.00  0.00    -0.049 SA
BRANCH  14  18
HETATM   18  C1  UNL     1      14.565  25.607 -21.828  1.00  0.00     0.269 C 
HETATM   19  N1  UNL     1      14.716  25.689 -23.220  1.00  0.00    -0.057 NA
HETATM   20  O1  UNL     1      13.581  24.995 -21.388  1.00  0.00    -0.271 OA
ENDBRANCH  14  18
BRANCH  15  21
HETATM   21  O2  UNL     1      15.103  28.338 -21.990  1.00  0.00    -0.353 OA
ATOM     22  H2  UNL     1      14.881  29.250 -21.836  1.00  0.00     0.218 HD
ENDBRANCH  15  21
ENDBRANCH   1  13
TORSDOF 3
ENDMDL
MODEL 5
REMARK VINA RESULT: -4.868245074      2.837      3.775
REMARK  3 active torsions:
REMARK  status: ('A' for Active; 'I' for Inactive)
REMARK    1  A    between atoms: C1_2  and  C2_4 
REMARK    2  A    between atoms: C3_5  and  C4_6 
REMARK    3  A    between atoms: C13_20  and  O2_21 
ROOT
HETATM    1  C4  UNL     1      16.176  24.531 -19.554  1.00  0.00    -0.009 C 
HETATM    2  C5  UNL     1      16.184  23.549 -20.439  1.00  0.00    -0.014 C 
HETATM    3  C6  UNL     1      15.924  22.227 -19.796  1.00  0.00     0.040 C 
HETATM    4  C7  UNL     1      16.535  22.473 -18.426  1.00  0.00     0.001 C 
HETATM    5  C8  UNL     1      15.850  21.613 -17.428  1.00  0.00     0.032 C 
HETATM    6  C9  UNL     1      16.511  20.252 -17.443  1.00  0.00     0.114 C 
HETATM    7  N2  UNL     1      17.915  20.355 -17.169  1.00  0.00    -0.421 N 
ATOM      8  H2  UNL     1      18.351  19.862 -16.389  1.00  0.00     0.153 HD
HETATM    9  C10 UNL     1      18.654  21.179 -18.044  1.00  0.00     0.114 C 
HETATM   10  C11 UNL     1      18.010  22.488 -18.398  1.00  0.00     0.032 C 
HETATM   11  C12 UNL     1      15.999  23.923 -18.228  1.00  0.00     0.213 C 
HETATM   12  F1  UNL     1      16.845  24.492 -17.272  1.00  0.00    -0.243 F 
ENDROOT
BRANCH   1  13
HETATM   13  C3  UNL     1      16.415  25.974 -19.922  1.00  0.00     0.039 A 
HETATM   14  C2  UNL     1      17.439  26.770 -19.547  1.00  0.00     0.088 A 
HETATM   15  C13 UNL     1      17.568  28.006 -20.138  1.00  0.00     0.130 A 
HETATM   16  S2  UNL     1      16.416  28.438 -21.296  1.00  0.00    -0.026 SA
HETATM   17  S1  UNL     1      15.377  26.679 -21.138  1.00  0.00    -0.049 SA
BRANCH  14  18
HETATM   18  C1  UNL     1      18.377  26.498 -18.397  1.00  0.00     0.269 C 
HETATM   19  N1  UNL     1      18.357  27.364 -17.295  1.00  0.00    -0.057 NA
HETATM   20  O1  UNL     1      19.171  25.546 -18.370  1.00  0.00    -0.271 OA
ENDBRANCH  14  18
BRANCH  15  21
HETATM   21  O2  UNL     1      18.510  28.862 -19.869  1.00  0.00    -0.353 OA
ATOM     22  H2  UNL     1      19.433  28.728 -20.053  1.00  0.00     0.218 HD
ENDBRANCH  15  21
ENDBRANCH   1  13
TORSDOF 3
ENDMDL
