MODEL 1
REMARK VINA RESULT: -6.124950282      0.000      0.000
REMARK  3 active torsions:
REMARK  status: ('A' for Active; 'I' for Inactive)
REMARK    1  A    between atoms: C2_2  and  N1_4 
REMARK    2  A    between atoms: C10_12  and  N2_13 
REMARK    3  A    between atoms: N3_21  and  O1_23 
ROOT
HETATM    1  N1  UNL     1      -6.602  14.563  -0.783  1.00  0.00     0.093 N 
HETATM    2  C4  UNL     1      -6.061  15.015  -2.006  1.00  0.00     0.276 C 
HETATM    3  C5  UNL     1      -6.943  15.793  -2.906  1.00  0.00     0.076 C 
HETATM    4  C6  UNL     1      -8.419  15.469  -2.872  1.00  0.00     0.137 C 
HETATM    5  F1  UNL     1      -9.158  16.487  -2.320  1.00  0.00    -0.240 F 
HETATM    6  C7  UNL     1      -8.833  15.318  -4.351  1.00  0.00     0.051 C 
HETATM    7  C8  UNL     1      -8.157  16.426  -5.085  1.00  0.00     0.026 C 
HETATM    8  C9  UNL     1      -8.981  17.224  -6.036  1.00  0.00     0.034 C 
HETATM    9  C10 UNL     1      -9.972  16.382  -6.781  1.00  0.00     0.183 C 
HETATM   10  C11 UNL     1     -10.912  15.876  -5.740  1.00  0.00     0.034 C 
HETATM   11  C12 UNL     1     -10.288  15.201  -4.566  1.00  0.00     0.026 C 
HETATM   12  S1  UNL     1      -7.998  13.711  -4.610  1.00  0.00    -0.100 SA
HETATM   13  C13 UNL     1      -8.032  13.088  -2.936  1.00  0.00     0.082 C 
HETATM   14  N3  UNL     1      -7.652  12.039  -2.428  1.00  0.00    -0.266 N 
ATOM     15  H3  UNL     1      -7.845  12.035  -1.427  1.00  0.00     0.194 HD
HETATM   16  C14 UNL     1      -8.651  14.218  -2.165  1.00  0.00     0.071 C 
HETATM   17  C15 UNL     1     -10.054  13.847  -1.786  1.00  0.00     0.028 C 
HETATM   18  C16 UNL     1      -7.986  14.350  -0.788  1.00  0.00     0.292 C 
ENDROOT
BRANCH   9  19
HETATM   19  N2  UNL     1      -9.399  15.407  -7.641  1.00  0.00    -0.075 N 
ATOM     20  H23 UNL     1      -8.440  15.664  -7.876  1.00  0.00     0.274 HD
ATOM     21  H22 UNL     1      -9.230  14.541  -7.130  1.00  0.00     0.274 HD
ATOM     22  H21 UNL     1      -9.933  15.218  -8.489  1.00  0.00     0.274 HD
ENDBRANCH   9  19
BRANCH  14  23
HETATM   23  O1  UNL     1      -7.068  10.919  -2.791  1.00  0.00    -0.289 OA
ATOM     24  H1  UNL     1      -7.178  10.231  -3.437  1.00  0.00     0.244 HD
ENDBRANCH  14  23
BRANCH   1  25
HETATM   25  C2  UNL     1      -6.138  15.386   0.323  1.00  0.00     0.215 C 
HETATM   26  C1  UNL     1      -4.924  16.192   0.016  1.00  0.00     0.042 C 
HETATM   27  C3  UNL     1      -7.263  16.335   0.666  1.00  0.00     0.042 C 
ENDBRANCH   1  25
TORSDOF 3
ENDMDL
MODEL 2
REMARK VINA RESULT: -5.924812840      2.926      4.102
REMARK  3 active torsions:
REMARK  status: ('A' for Active; 'I' for Inactive)
REMARK    1  A    between atoms: C2_2  and  N1_4 
REMARK    2  A    between atoms: C10_12  and  N2_13 
REMARK    3  A    between atoms: N3_21  and  O1_23 
ROOT
HETATM    1  N1  UNL     1      -9.226  15.049  -0.977  1.00  0.00     0.093 N 
HETATM    2  C4  UNL     1      -8.771  16.101  -1.802  1.00  0.00     0.276 C 
HETATM    3  C5  UNL     1      -8.230  15.747  -3.134  1.00  0.00     0.076 C 
HETATM    4  C6  UNL     1      -7.543  14.408  -3.266  1.00  0.00     0.137 C 
HETATM    5  F1  UNL     1      -8.265  13.530  -4.038  1.00  0.00    -0.240 F 
HETATM    6  C7  UNL     1      -6.212  14.706  -3.989  1.00  0.00     0.051 C 
HETATM    7  C8  UNL     1      -6.539  15.675  -5.074  1.00  0.00     0.026 C 
HETATM    8  C9  UNL     1      -5.992  15.398  -6.432  1.00  0.00     0.034 C 
HETATM    9  C10 UNL     1      -4.607  14.827  -6.386  1.00  0.00     0.183 C 
HETATM   10  C11 UNL     1      -4.755  13.501  -5.719  1.00  0.00     0.034 C 
HETATM   11  C12 UNL     1      -5.465  13.503  -4.408  1.00  0.00     0.026 C 
HETATM   12  S1  UNL     1      -5.407  15.516  -2.560  1.00  0.00    -0.100 SA
HETATM   13  C13 UNL     1      -6.282  14.707  -1.230  1.00  0.00     0.082 C 
HETATM   14  N3  UNL     1      -6.198  14.783  -0.010  1.00  0.00    -0.266 N 
ATOM     15  H3  UNL     1      -6.869  14.155   0.435  1.00  0.00     0.194 HD
HETATM   16  C14 UNL     1      -7.273  13.841  -1.952  1.00  0.00     0.071 C 
HETATM   17  C15 UNL     1      -6.841  12.408  -1.854  1.00  0.00     0.028 C 
HETATM   18  C16 UNL     1      -8.606  13.812  -1.193  1.00  0.00     0.292 C 
ENDROOT
BRANCH   9  19
HETATM   19  N2  UNL     1      -3.622  15.697  -5.848  1.00  0.00    -0.075 N 
ATOM     20  H23 UNL     1      -3.633  15.657  -4.829  1.00  0.00     0.274 HD
ATOM     21  H22 UNL     1      -2.688  15.328  -6.029  1.00  0.00     0.274 HD
ATOM     22  H21 UNL     1      -3.687  16.664  -6.166  1.00  0.00     0.274 HD
ENDBRANCH   9  19
BRANCH  14  23
HETATM   23  O1  UNL     1      -5.502  15.432   0.897  1.00  0.00    -0.289 OA
ATOM     24  H1  UNL     1      -4.765  16.029   0.939  1.00  0.00     0.244 HD
ENDBRANCH  14  23
BRANCH   1  25
HETATM   25  C2  UNL     1     -10.680  14.987  -0.977  1.00  0.00     0.215 C 
HETATM   26  C1  UNL     1     -11.237  13.747  -1.584  1.00  0.00     0.042 C 
HETATM   27  C3  UNL     1     -11.122  15.049   0.467  1.00  0.00     0.042 C 
ENDBRANCH   1  25
TORSDOF 3
ENDMDL
MODEL 3
REMARK VINA RESULT: -5.761516972      1.296      1.409
REMARK  3 active torsions:
REMARK  status: ('A' for Active; 'I' for Inactive)
REMARK    1  A    between atoms: C2_2  and  N1_4 
REMARK    2  A    between atoms: C10_12  and  N2_13 
REMARK    3  A    between atoms: N3_21  and  O1_23 
ROOT
HETATM    1  N1  UNL     1      -6.571  14.353  -0.985  1.00  0.00     0.093 N 
HETATM    2  C4  UNL     1      -5.631  14.506  -2.028  1.00  0.00     0.276 C 
HETATM    3  C5  UNL     1      -6.031  15.311  -3.204  1.00  0.00     0.076 C 
HETATM    4  C6  UNL     1      -7.495  15.303  -3.579  1.00  0.00     0.137 C 
HETATM    5  F1  UNL     1      -8.093  16.519  -3.349  1.00  0.00    -0.240 F 
HETATM    6  C7  UNL     1      -7.522  15.030  -5.097  1.00  0.00     0.051 C 
HETATM    7  C8  UNL     1      -6.433  15.861  -5.687  1.00  0.00     0.026 C 
HETATM    8  C9  UNL     1      -6.760  16.666  -6.897  1.00  0.00     0.034 C 
HETATM    9  C10 UNL     1      -7.686  15.947  -7.831  1.00  0.00     0.183 C 
HETATM   10  C11 UNL     1      -8.962  15.797  -7.074  1.00  0.00     0.034 C 
HETATM   11  C12 UNL     1      -8.852  15.184  -5.720  1.00  0.00     0.026 C 
HETATM   12  S1  UNL     1      -7.054  13.267  -4.973  1.00  0.00    -0.100 SA
HETATM   13  C13 UNL     1      -7.680  12.910  -3.339  1.00  0.00     0.082 C 
HETATM   14  N3  UNL     1      -7.708  11.889  -2.662  1.00  0.00    -0.266 N 
ATOM     15  H3  UNL     1      -8.158  12.066  -1.763  1.00  0.00     0.194 HD
HETATM   16  C14 UNL     1      -8.197  14.240  -2.875  1.00  0.00     0.071 C 
HETATM   17  C15 UNL     1      -9.697  14.222  -2.895  1.00  0.00     0.028 C 
HETATM   18  C16 UNL     1      -7.914  14.428  -1.378  1.00  0.00     0.292 C 
ENDROOT
BRANCH   9  19
HETATM   19  N2  UNL     1      -7.151  14.763  -8.405  1.00  0.00    -0.075 N 
ATOM     20  H23 UNL     1      -6.131  14.802  -8.411  1.00  0.00     0.274 HD
ATOM     21  H22 UNL     1      -7.294  13.971  -7.779  1.00  0.00     0.274 HD
ATOM     22  H21 UNL     1      -7.502  14.544  -9.338  1.00  0.00     0.274 HD
ENDBRANCH   9  19
BRANCH  14  23
HETATM   23  O1  UNL     1      -7.331  10.632  -2.748  1.00  0.00    -0.289 OA
ATOM     24  H1  UNL     1      -6.818  10.004  -2.254  1.00  0.00     0.244 HD
ENDBRANCH  14  23
BRANCH   1  25
HETATM   25  C2  UNL     1      -6.238  15.214   0.140  1.00  0.00     0.215 C 
HETATM   26  C1  UNL     1      -4.874  15.804   0.073  1.00  0.00     0.042 C 
HETATM   27  C3  UNL     1      -7.245  16.342   0.141  1.00  0.00     0.042 C 
ENDBRANCH   1  25
TORSDOF 3
ENDMDL
MODEL 4
REMARK VINA RESULT: -5.698045546      2.940      5.495
REMARK  3 active torsions:
REMARK  status: ('A' for Active; 'I' for Inactive)
REMARK    1  A    between atoms: C2_2  and  N1_4 
REMARK    2  A    between atoms: C10_12  and  N2_13 
REMARK    3  A    between atoms: N3_21  and  O1_23 
ROOT
HETATM    1  N1  UNL     1      -6.183  13.432  -5.607  1.00  0.00     0.093 N 
HETATM    2  C4  UNL     1      -5.996  14.797  -5.296  1.00  0.00     0.276 C 
HETATM    3  C5  UNL     1      -5.464  15.133  -3.956  1.00  0.00     0.076 C 
HETATM    4  C6  UNL     1      -5.818  14.200  -2.821  1.00  0.00     0.137 C 
HETATM    5  F1  UNL     1      -4.727  13.498  -2.371  1.00  0.00    -0.240 F 
HETATM    6  C7  UNL     1      -6.306  15.119  -1.681  1.00  0.00     0.051 C 
HETATM    7  C8  UNL     1      -5.367  16.278  -1.653  1.00  0.00     0.026 C 
HETATM    8  C9  UNL     1      -4.825  16.692  -0.328  1.00  0.00     0.034 C 
HETATM    9  C10 UNL     1      -5.842  16.577   0.768  1.00  0.00     0.183 C 
HETATM   10  C11 UNL     1      -6.134  15.119   0.876  1.00  0.00     0.034 C 
HETATM   11  C12 UNL     1      -6.512  14.431  -0.391  1.00  0.00     0.026 C 
HETATM   12  S1  UNL     1      -7.904  15.546  -2.462  1.00  0.00    -0.100 SA
HETATM   13  C13 UNL     1      -8.141  14.086  -3.464  1.00  0.00     0.082 C 
HETATM   14  N3  UNL     1      -9.039  13.729  -4.218  1.00  0.00    -0.266 N 
ATOM     15  H3  UNL     1      -8.828  12.816  -4.620  1.00  0.00     0.194 HD
HETATM   16  C14 UNL     1      -6.888  13.296  -3.217  1.00  0.00     0.071 C 
HETATM   17  C15 UNL     1      -7.209  12.122  -2.341  1.00  0.00     0.028 C 
HETATM   18  C16 UNL     1      -6.434  12.601  -4.508  1.00  0.00     0.292 C 
ENDROOT
BRANCH   9  19
HETATM   19  N2  UNL     1      -6.964  17.437   0.631  1.00  0.00    -0.075 N 
ATOM     20  H23 UNL     1      -7.760  16.922   0.254  1.00  0.00     0.274 HD
ATOM     21  H22 UNL     1      -7.333  17.685   1.549  1.00  0.00     0.274 HD
ATOM     22  H21 UNL     1      -6.794  18.278   0.080  1.00  0.00     0.274 HD
ENDBRANCH   9  19
BRANCH  14  23
HETATM   23  O1  UNL     1     -10.194  14.174  -4.662  1.00  0.00    -0.289 OA
ATOM     24  H1  UNL     1     -10.670  14.232  -5.482  1.00  0.00     0.244 HD
ENDBRANCH  14  23
BRANCH   1  25
HETATM   25  C2  UNL     1      -5.121  12.951  -6.477  1.00  0.00     0.215 C 
HETATM   26  C1  UNL     1      -4.332  14.030  -7.132  1.00  0.00     0.042 C 
HETATM   27  C3  UNL     1      -4.185  12.134  -5.616  1.00  0.00     0.042 C 
ENDBRANCH   1  25
TORSDOF 3
ENDMDL
MODEL 5
REMARK VINA RESULT: -5.582837661      3.000      4.468
REMARK  3 active torsions:
REMARK  status: ('A' for Active; 'I' for Inactive)
REMARK    1  A    between atoms: C2_2  and  N1_4 
REMARK    2  A    between atoms: C10_12  and  N2_13 
REMARK    3  A    between atoms: N3_21  and  O1_23 
ROOT
HETATM    1  N1  UNL     1      -6.464  15.597  -1.150  1.00  0.00     0.093 N 
HETATM    2  C4  UNL     1      -7.201  14.394  -1.088  1.00  0.00     0.276 C 
HETATM    3  C5  UNL     1      -6.692  13.233  -1.852  1.00  0.00     0.076 C 
HETATM    4  C6  UNL     1      -5.937  13.525  -3.128  1.00  0.00     0.137 C 
HETATM    5  F1  UNL     1      -4.601  13.223  -3.019  1.00  0.00    -0.240 F 
HETATM    6  C7  UNL     1      -6.558  12.591  -4.188  1.00  0.00     0.051 C 
HETATM    7  C8  UNL     1      -6.744  11.271  -3.518  1.00  0.00     0.026 C 
HETATM    8  C9  UNL     1      -6.288  10.057  -4.251  1.00  0.00     0.034 C 
HETATM    9  C10 UNL     1      -6.547  10.146  -5.725  1.00  0.00     0.183 C 
HETATM   10  C11 UNL     1      -5.690  11.268  -6.203  1.00  0.00     0.034 C 
HETATM   11  C12 UNL     1      -5.832  12.560  -5.473  1.00  0.00     0.026 C 
HETATM   12  S1  UNL     1      -8.131  13.512  -4.343  1.00  0.00    -0.100 SA
HETATM   13  C13 UNL     1      -7.565  15.141  -3.877  1.00  0.00     0.082 C 
HETATM   14  N3  UNL     1      -8.126  16.228  -3.799  1.00  0.00    -0.266 N 
ATOM     15  H3  UNL     1      -7.470  16.949  -3.498  1.00  0.00     0.194 HD
HETATM   16  C14 UNL     1      -6.123  14.913  -3.526  1.00  0.00     0.071 C 
HETATM   17  C15 UNL     1      -5.255  15.482  -4.609  1.00  0.00     0.028 C 
HETATM   18  C16 UNL     1      -5.724  15.781  -2.325  1.00  0.00     0.292 C 
ENDROOT
BRANCH   9  19
HETATM   19  N2  UNL     1      -7.920  10.203  -6.085  1.00  0.00    -0.075 N 
ATOM     20  H23 UNL     1      -8.133   9.488  -6.780  1.00  0.00     0.274 HD
ATOM     21  H22 UNL     1      -8.502   9.879  -5.313  1.00  0.00     0.274 HD
ATOM     22  H21 UNL     1      -8.239  11.117  -6.408  1.00  0.00     0.274 HD
ENDBRANCH   9  19
BRANCH  14  23
HETATM   23  O1  UNL     1      -9.322  16.741  -3.988  1.00  0.00    -0.289 OA
ATOM     24  H1  UNL     1      -9.915  16.925  -4.707  1.00  0.00     0.244 HD
ENDBRANCH  14  23
BRANCH   1  25
HETATM   25  C2  UNL     1      -5.693  15.792   0.068  1.00  0.00     0.215 C 
HETATM   26  C1  UNL     1      -4.220  15.825  -0.143  1.00  0.00     0.042 C 
HETATM   27  C3  UNL     1      -6.119  17.121   0.649  1.00  0.00     0.042 C 
ENDBRANCH   1  25
TORSDOF 3
ENDMDL
