MODEL 1
REMARK VINA RESULT: -6.495115185      0.000      0.000
REMARK  4 active torsions:
REMARK  status: ('A' for Active; 'I' for Inactive)
REMARK    1  A    between atoms: O1_2  and  C2_3 
REMARK    2  A    between atoms: C2_3  and  C3_5 
REMARK    3  A    between atoms: C4_6  and  O3_7 
REMARK    4  A    between atoms: C5_9  and  O4_10 
ROOT
HETATM    1  C3  UNL     1      -7.454  15.899  -0.152  1.00  0.00     0.083 A 
HETATM    2  C4  UNL     1      -6.567  16.824   0.423  1.00  0.00     0.115 A 
HETATM    3  C5  UNL     1      -5.333  17.059  -0.157  1.00  0.00     0.100 A 
HETATM    4  C6  UNL     1      -4.963  16.389  -1.302  1.00  0.00     0.047 A 
HETATM    5  C7  UNL     1      -5.826  15.465  -1.892  1.00  0.00    -0.041 A 
HETATM    6  C8  UNL     1      -7.073  15.240  -1.291  1.00  0.00    -0.013 A 
HETATM    7  C9  UNL     1      -7.817  14.228  -2.116  1.00  0.00     0.133 C 
HETATM    8 CL1  UNL     1      -7.289  12.624  -1.625  1.00  0.00    -0.119 Cl
HETATM    9  C10 UNL     1      -7.220  14.564  -3.481  1.00  0.00     0.045 C 
HETATM   10  C11 UNL     1      -7.667  15.921  -3.935  1.00  0.00     0.026 C 
HETATM   11  C12 UNL     1      -7.362  13.517  -4.482  1.00  0.00     0.137 C 
HETATM   12  O5  UNL     1      -8.188  12.629  -4.383  1.00  0.00    -0.297 OA
HETATM   13  C13 UNL     1      -6.424  13.589  -5.664  1.00  0.00     0.079 C 
HETATM   14  C14 UNL     1      -5.029  13.931  -5.246  1.00  0.00     0.008 C 
HETATM   15  C15 UNL     1      -4.979  15.079  -4.225  1.00  0.00     0.011 C 
HETATM   16  C16 UNL     1      -5.768  14.592  -3.055  1.00  0.00     0.036 C 
ENDROOT
BRANCH   1  17
HETATM   17  C2  UNL     1      -8.732  15.680   0.501  1.00  0.00     0.296 C 
HETATM   18  O2  UNL     1      -8.779  15.480   1.766  1.00  0.00    -0.259 OA
BRANCH  17  19
HETATM   19  O1  UNL     1      -9.936  15.669  -0.145  1.00  0.00    -0.322 OA
HETATM   20  C1  UNL     1     -10.995  14.781   0.141  1.00  0.00     0.213 C 
ENDBRANCH  17  19
ENDBRANCH   1  17
BRANCH   2  21
HETATM   21  O3  UNL     1      -6.981  17.473   1.574  1.00  0.00    -0.357 OA
ATOM     22  H3  UNL     1      -6.382  18.102   1.961  1.00  0.00     0.217 HD
ENDBRANCH   2  21
BRANCH   3  23
HETATM   23  O4  UNL     1      -4.461  17.984   0.430  1.00  0.00    -0.358 OA
ATOM     24  H4  UNL     1      -4.708  18.410   1.243  1.00  0.00     0.217 HD
ENDBRANCH   3  23
TORSDOF 4
ENDMDL
MODEL 2
REMARK VINA RESULT: -6.479164551      1.031      1.286
REMARK  4 active torsions:
REMARK  status: ('A' for Active; 'I' for Inactive)
REMARK    1  A    between atoms: O1_2  and  C2_3 
REMARK    2  A    between atoms: C2_3  and  C3_5 
REMARK    3  A    between atoms: C4_6  and  O3_7 
REMARK    4  A    between atoms: C5_9  and  O4_10 
ROOT
HETATM    1  C3  UNL     1      -7.396  15.640  -0.686  1.00  0.00     0.083 A 
HETATM    2  C4  UNL     1      -6.640  16.475   0.154  1.00  0.00     0.115 A 
HETATM    3  C5  UNL     1      -5.261  16.495   0.058  1.00  0.00     0.100 A 
HETATM    4  C6  UNL     1      -4.615  15.697  -0.861  1.00  0.00     0.047 A 
HETATM    5  C7  UNL     1      -5.343  14.858  -1.706  1.00  0.00    -0.041 A 
HETATM    6  C8  UNL     1      -6.740  14.852  -1.596  1.00  0.00    -0.013 A 
HETATM    7  C9  UNL     1      -7.289  13.893  -2.614  1.00  0.00     0.133 C 
HETATM    8 CL1  UNL     1      -7.225  12.272  -1.933  1.00  0.00    -0.119 Cl
HETATM    9  C10 UNL     1      -6.200  14.041  -3.675  1.00  0.00     0.045 C 
HETATM   10  C11 UNL     1      -6.240  15.409  -4.287  1.00  0.00     0.026 C 
HETATM   11  C12 UNL     1      -6.137  12.952  -4.638  1.00  0.00     0.137 C 
HETATM   12  O5  UNL     1      -7.070  12.196  -4.828  1.00  0.00    -0.297 OA
HETATM   13  C13 UNL     1      -4.840  12.806  -5.400  1.00  0.00     0.079 C 
HETATM   14  C14 UNL     1      -3.651  12.984  -4.510  1.00  0.00     0.008 C 
HETATM   15  C15 UNL     1      -3.791  14.187  -3.563  1.00  0.00     0.011 C 
HETATM   16  C16 UNL     1      -5.010  13.901  -2.751  1.00  0.00     0.036 C 
ENDROOT
BRANCH   1  17
HETATM   17  C2  UNL     1      -8.840  15.648  -0.538  1.00  0.00     0.296 C 
HETATM   18  O2  UNL     1      -9.583  15.963  -1.535  1.00  0.00    -0.259 OA
BRANCH  17  19
HETATM   19  O1  UNL     1      -9.500  15.339   0.618  1.00  0.00    -0.322 OA
HETATM   20  C1  UNL     1     -10.871  15.017   0.701  1.00  0.00     0.213 C 
ENDBRANCH  17  19
ENDBRANCH   1  17
BRANCH   2  21
HETATM   21  O3  UNL     1      -7.331  17.259   1.062  1.00  0.00    -0.357 OA
ATOM     22  H3  UNL     1      -6.819  17.818   1.635  1.00  0.00     0.217 HD
ENDBRANCH   2  21
BRANCH   3  23
HETATM   23  O4  UNL     1      -4.523  17.332   0.903  1.00  0.00    -0.358 OA
ATOM     24  H4  UNL     1      -4.979  17.898   1.515  1.00  0.00     0.217 HD
ENDBRANCH   3  23
TORSDOF 4
ENDMDL
MODEL 3
REMARK VINA RESULT: -6.387018505      1.688      3.778
REMARK  4 active torsions:
REMARK  status: ('A' for Active; 'I' for Inactive)
REMARK    1  A    between atoms: O1_2  and  C2_3 
REMARK    2  A    between atoms: C2_3  and  C3_5 
REMARK    3  A    between atoms: C4_6  and  O3_7 
REMARK    4  A    between atoms: C5_9  and  O4_10 
ROOT
HETATM    1  C3  UNL     1      -7.020  15.807  -0.010  1.00  0.00     0.083 A 
HETATM    2  C4  UNL     1      -7.994  16.009   0.982  1.00  0.00     0.115 A 
HETATM    3  C5  UNL     1      -9.280  15.535   0.802  1.00  0.00     0.100 A 
HETATM    4  C6  UNL     1      -9.619  14.860  -0.350  1.00  0.00     0.047 A 
HETATM    5  C7  UNL     1      -8.670  14.646  -1.351  1.00  0.00    -0.041 A 
HETATM    6  C8  UNL     1      -7.371  15.133  -1.151  1.00  0.00    -0.013 A 
HETATM    7  C9  UNL     1      -6.541  14.765  -2.348  1.00  0.00     0.133 C 
HETATM    8 CL1  UNL     1      -6.806  15.977  -3.595  1.00  0.00    -0.119 Cl
HETATM    9  C10 UNL     1      -7.260  13.474  -2.734  1.00  0.00     0.045 C 
HETATM   10  C11 UNL     1      -7.038  12.414  -1.697  1.00  0.00     0.026 C 
HETATM   11  C12 UNL     1      -7.030  13.035  -4.102  1.00  0.00     0.137 C 
HETATM   12  O5  UNL     1      -6.082  13.421  -4.760  1.00  0.00    -0.297 OA
HETATM   13  C13 UNL     1      -8.038  12.063  -4.673  1.00  0.00     0.079 C 
HETATM   14  C14 UNL     1      -9.440  12.446  -4.318  1.00  0.00     0.008 C 
HETATM   15  C15 UNL     1      -9.592  12.847  -2.842  1.00  0.00     0.011 C 
HETATM   16  C16 UNL     1      -8.673  14.010  -2.660  1.00  0.00     0.036 C 
ENDROOT
BRANCH   1  17
HETATM   17  C2  UNL     1      -5.687  16.333   0.222  1.00  0.00     0.296 C 
HETATM   18  O2  UNL     1      -4.725  15.535   0.508  1.00  0.00    -0.259 OA
BRANCH  17  19
HETATM   19  O1  UNL     1      -5.359  17.658   0.161  1.00  0.00    -0.322 OA
HETATM   20  C1  UNL     1      -4.500  18.317   1.065  1.00  0.00     0.213 C 
ENDBRANCH  17  19
ENDBRANCH   1  17
BRANCH   2  21
HETATM   21  O3  UNL     1      -7.608  16.692   2.123  1.00  0.00    -0.357 OA
ATOM     22  H3  UNL     1      -8.172  16.624   2.885  1.00  0.00     0.217 HD
ENDBRANCH   2  21
BRANCH   3  23
HETATM   23  O4  UNL     1     -10.238  15.746   1.801  1.00  0.00    -0.358 OA
ATOM     24  H4  UNL     1     -10.982  16.311   1.624  1.00  0.00     0.217 HD
ENDBRANCH   3  23
TORSDOF 4
ENDMDL
MODEL 4
REMARK VINA RESULT: -6.332012389      2.026      2.790
REMARK  4 active torsions:
REMARK  status: ('A' for Active; 'I' for Inactive)
REMARK    1  A    between atoms: O1_2  and  C2_3 
REMARK    2  A    between atoms: C2_3  and  C3_5 
REMARK    3  A    between atoms: C4_6  and  O3_7 
REMARK    4  A    between atoms: C5_9  and  O4_10 
ROOT
HETATM    1  C3  UNL     1      -9.852  15.266  -0.024  1.00  0.00     0.083 A 
HETATM    2  C4  UNL     1      -8.849  15.745   0.836  1.00  0.00     0.115 A 
HETATM    3  C5  UNL     1      -7.593  16.045   0.341  1.00  0.00     0.100 A 
HETATM    4  C6  UNL     1      -7.313  15.878  -0.998  1.00  0.00     0.047 A 
HETATM    5  C7  UNL     1      -8.292  15.404  -1.872  1.00  0.00    -0.041 A 
HETATM    6  C8  UNL     1      -9.560  15.106  -1.353  1.00  0.00    -0.013 A 
HETATM    7  C9  UNL     1     -10.432  14.636  -2.483  1.00  0.00     0.133 C 
HETATM    8 CL1  UNL     1     -10.130  12.922  -2.735  1.00  0.00    -0.119 Cl
HETATM    9  C10 UNL     1      -9.790  15.438  -3.613  1.00  0.00     0.045 C 
HETATM   10  C11 UNL     1     -10.046  16.904  -3.435  1.00  0.00     0.026 C 
HETATM   11  C12 UNL     1     -10.070  14.936  -4.951  1.00  0.00     0.137 C 
HETATM   12  O5  UNL     1     -11.009  14.199  -5.186  1.00  0.00    -0.297 OA
HETATM   13  C13 UNL     1      -9.126  15.379  -6.044  1.00  0.00     0.079 C 
HETATM   14  C14 UNL     1      -7.699  15.336  -5.597  1.00  0.00     0.008 C 
HETATM   15  C15 UNL     1      -7.497  15.932  -4.195  1.00  0.00     0.011 C 
HETATM   16  C16 UNL     1      -8.349  15.101  -3.294  1.00  0.00     0.036 C 
ENDROOT
BRANCH   1  17
HETATM   17  C2  UNL     1     -11.151  14.956   0.546  1.00  0.00     0.296 C 
HETATM   18  O2  UNL     1     -11.642  13.779   0.416  1.00  0.00    -0.259 OA
BRANCH  17  19
HETATM   19  O1  UNL     1     -11.924  15.848   1.235  1.00  0.00    -0.322 OA
HETATM   20  C1  UNL     1     -12.697  15.533   2.372  1.00  0.00     0.213 C 
ENDBRANCH  17  19
ENDBRANCH   1  17
BRANCH   2  21
HETATM   21  O3  UNL     1      -9.175  15.896   2.173  1.00  0.00    -0.357 OA
ATOM     22  H3  UNL     1      -8.549  16.347   2.727  1.00  0.00     0.217 HD
ENDBRANCH   2  21
BRANCH   3  23
HETATM   23  O4  UNL     1      -6.605  16.520   1.212  1.00  0.00    -0.358 OA
ATOM     24  H4  UNL     1      -6.552  17.450   1.396  1.00  0.00     0.217 HD
ENDBRANCH   3  23
TORSDOF 4
ENDMDL
MODEL 5
REMARK VINA RESULT: -6.319338313      2.320      4.392
REMARK  4 active torsions:
REMARK  status: ('A' for Active; 'I' for Inactive)
REMARK    1  A    between atoms: O1_2  and  C2_3 
REMARK    2  A    between atoms: C2_3  and  C3_5 
REMARK    3  A    between atoms: C4_6  and  O3_7 
REMARK    4  A    between atoms: C5_9  and  O4_10 
ROOT
HETATM    1  C3  UNL     1      -8.388  15.854   0.251  1.00  0.00     0.083 A 
HETATM    2  C4  UNL     1      -9.069  15.676   1.467  1.00  0.00     0.115 A 
HETATM    3  C5  UNL     1     -10.328  15.105   1.481  1.00  0.00     0.100 A 
HETATM    4  C6  UNL     1     -10.926  14.705   0.306  1.00  0.00     0.047 A 
HETATM    5  C7  UNL     1     -10.270  14.872  -0.914  1.00  0.00    -0.041 A 
HETATM    6  C8  UNL     1      -8.994  15.451  -0.910  1.00  0.00    -0.013 A 
HETATM    7  C9  UNL     1      -8.496  15.504  -2.327  1.00  0.00     0.133 C 
HETATM    8 CL1  UNL     1      -9.152  16.948  -3.087  1.00  0.00    -0.119 Cl
HETATM    9  C10 UNL     1      -9.219  14.272  -2.867  1.00  0.00     0.045 C 
HETATM   10  C11 UNL     1      -8.669  13.022  -2.250  1.00  0.00     0.026 C 
HETATM   11  C12 UNL     1      -9.341  14.225  -4.317  1.00  0.00     0.137 C 
HETATM   12  O5  UNL     1      -8.627  14.880  -5.052  1.00  0.00    -0.297 OA
HETATM   13  C13 UNL     1     -10.409  13.310  -4.870  1.00  0.00     0.079 C 
HETATM   14  C14 UNL     1     -11.683  13.412  -4.093  1.00  0.00     0.008 C 
HETATM   15  C15 UNL     1     -11.456  13.405  -2.573  1.00  0.00     0.011 C 
HETATM   16  C16 UNL     1     -10.588  14.590  -2.306  1.00  0.00     0.036 C 
ENDROOT
BRANCH   1  17
HETATM   17  C2  UNL     1      -7.072  16.468   0.288  1.00  0.00     0.296 C 
HETATM   18  O2  UNL     1      -6.946  17.688   0.661  1.00  0.00    -0.259 OA
BRANCH  17  19
HETATM   19  O1  UNL     1      -5.913  15.830  -0.055  1.00  0.00    -0.322 OA
HETATM   20  C1  UNL     1      -5.056  16.229  -1.102  1.00  0.00     0.213 C 
ENDBRANCH  17  19
ENDBRANCH   1  17
BRANCH   2  21
HETATM   21  O3  UNL     1      -8.431  16.092   2.622  1.00  0.00    -0.357 OA
ATOM     22  H3  UNL     1      -8.947  16.127   3.419  1.00  0.00     0.217 HD
ENDBRANCH   2  21
BRANCH   3  23
HETATM   23  O4  UNL     1     -10.994  14.935   2.701  1.00  0.00    -0.358 OA
ATOM     24  H4  UNL     1     -11.940  15.026   2.735  1.00  0.00     0.217 HD
ENDBRANCH   3  23
TORSDOF 4
ENDMDL
