MODEL 1
REMARK VINA RESULT: -5.750610117      0.000      0.000
REMARK  2 active torsions:
REMARK  status: ('A' for Active; 'I' for Inactive)
REMARK    1  A    between atoms: C2_2  and  N1_5 
REMARK    2  A    between atoms: N2_7  and  C5_9 
ROOT
HETATM    1  C5  UNL     1      -1.257  13.783  -5.928  1.00  0.00     0.130 A 
HETATM    2  S1  UNL     1      -0.522  13.307  -7.388  1.00  0.00    -0.050 SA
HETATM    3  C6  UNL     1       0.011  11.736  -6.928  1.00  0.00     0.090 A 
HETATM    4  C7  UNL     1      -0.401  11.630  -5.646  1.00  0.00     0.045 A 
HETATM    5  C8  UNL     1      -1.071  12.706  -5.116  1.00  0.00     0.162 A 
HETATM    6  F1  UNL     1      -1.563  12.764  -3.812  1.00  0.00    -0.202 F 
HETATM    7  C9  UNL     1       0.027  10.264  -5.148  1.00  0.00     0.154 A 
HETATM    8  C10 UNL     1      -1.158   9.422  -4.783  1.00  0.00     0.036 C 
HETATM    9  C11 UNL     1      -1.051   8.707  -3.483  1.00  0.00     0.022 C 
HETATM   10  C12 UNL     1       0.339   8.229  -3.153  1.00  0.00     0.122 C 
HETATM   11  N3  UNL     1       1.316   9.300  -3.255  1.00  0.00    -0.360 N 
ATOM     12  H3  UNL     1       2.205   9.243  -2.760  1.00  0.00     0.162 HD
HETATM   13  C13 UNL     1       1.009  10.412  -4.048  1.00  0.00     0.240 C 
HETATM   14  O1  UNL     1       1.592  11.511  -3.786  1.00  0.00    -0.272 OA
HETATM   15  C14 UNL     1       0.705   9.660  -6.288  1.00  0.00     0.245 A 
HETATM   16  O2  UNL     1       1.241   8.483  -6.324  1.00  0.00    -0.271 OA
HETATM   17  N4  UNL     1       0.692  10.557  -7.365  1.00  0.00    -0.319 N 
ATOM     18  H4  UNL     1       1.094  10.399  -8.288  1.00  0.00     0.169 HD
ENDROOT
BRANCH   1  19
HETATM   19  N2  UNL     1      -1.908  15.024  -5.635  1.00  0.00    -0.295 N 
HETATM   20  N1  UNL     1      -3.123  15.243  -5.722  1.00  0.00    -0.327 N 
ATOM     21  H1  UNL     1      -3.398  16.193  -5.471  1.00  0.00     0.181 HD
ATOM     22  H2  UNL     1      -1.317  15.797  -5.327  1.00  0.00     0.187 HD
BRANCH  20  23
HETATM   23  C2  UNL     1      -4.200  14.404  -6.110  1.00  0.00     0.035 C 
HETATM   24  C1  UNL     1      -5.443  15.276  -6.300  1.00  0.00     0.039 C 
HETATM   25  C3  UNL     1      -4.545  13.412  -4.991  1.00  0.00     0.039 C 
HETATM   26  C4  UNL     1      -3.953  13.577  -7.343  1.00  0.00     0.039 C 
ENDBRANCH  20  23
ENDBRANCH   1  19
TORSDOF 2
ENDMDL
MODEL 2
REMARK VINA RESULT: -5.582739080      5.015      8.233
REMARK  2 active torsions:
REMARK  status: ('A' for Active; 'I' for Inactive)
REMARK    1  A    between atoms: C2_2  and  N1_5 
REMARK    2  A    between atoms: N2_7  and  C5_9 
ROOT
HETATM    1  C5  UNL     1      -5.033  15.456  -5.871  1.00  0.00     0.130 A 
HETATM    2  S1  UNL     1      -5.938  15.070  -7.260  1.00  0.00    -0.050 SA
HETATM    3  C6  UNL     1      -7.484  14.862  -6.532  1.00  0.00     0.090 A 
HETATM    4  C7  UNL     1      -7.247  15.101  -5.224  1.00  0.00     0.045 A 
HETATM    5  C8  UNL     1      -5.956  15.415  -4.872  1.00  0.00     0.162 A 
HETATM    6  F1  UNL     1      -5.539  15.689  -3.569  1.00  0.00    -0.202 F 
HETATM    7  C9  UNL     1      -8.564  14.940  -4.492  1.00  0.00     0.154 A 
HETATM    8  C10 UNL     1      -8.990  16.226  -3.850  1.00  0.00     0.036 C 
HETATM    9  C11 UNL     1      -9.462  16.106  -2.445  1.00  0.00     0.022 C 
HETATM   10  C12 UNL     1     -10.217  14.836  -2.151  1.00  0.00     0.122 C 
HETATM   11  N3  UNL     1      -9.472  13.659  -2.567  1.00  0.00    -0.360 N 
ATOM     12  H3  UNL     1      -9.668  12.747  -2.155  1.00  0.00     0.162 HD
HETATM   13  C13 UNL     1      -8.480  13.804  -3.543  1.00  0.00     0.240 C 
HETATM   14  O1  UNL     1      -7.542  12.948  -3.574  1.00  0.00    -0.272 OA
HETATM   15  C14 UNL     1      -9.519  14.594  -5.538  1.00  0.00     0.245 A 
HETATM   16  O2  UNL     1     -10.781  14.360  -5.376  1.00  0.00    -0.271 OA
HETATM   17  N4  UNL     1      -8.857  14.548  -6.773  1.00  0.00    -0.319 N 
ATOM     18  H4  UNL     1      -9.279  14.330  -7.676  1.00  0.00     0.169 HD
ENDROOT
BRANCH   1  19
HETATM   19  N2  UNL     1      -3.634  15.747  -5.787  1.00  0.00    -0.295 N 
HETATM   20  N1  UNL     1      -2.737  14.930  -5.539  1.00  0.00    -0.327 N 
ATOM     21  H1  UNL     1      -1.798  15.328  -5.521  1.00  0.00     0.181 HD
ATOM     22  H2  UNL     1      -3.350  16.714  -5.945  1.00  0.00     0.187 HD
BRANCH  20  23
HETATM   23  C2  UNL     1      -2.788  13.536  -5.277  1.00  0.00     0.035 C 
HETATM   24  C1  UNL     1      -3.374  13.333  -3.878  1.00  0.00     0.039 C 
HETATM   25  C3  UNL     1      -1.375  12.939  -5.236  1.00  0.00     0.039 C 
HETATM   26  C4  UNL     1      -3.558  12.725  -6.285  1.00  0.00     0.039 C 
ENDBRANCH  20  23
ENDBRANCH   1  19
TORSDOF 2
ENDMDL
MODEL 3
REMARK VINA RESULT: -5.509041683      5.096      7.163
REMARK  2 active torsions:
REMARK  status: ('A' for Active; 'I' for Inactive)
REMARK    1  A    between atoms: C2_2  and  N1_5 
REMARK    2  A    between atoms: N2_7  and  C5_9 
ROOT
HETATM    1  C5  UNL     1      -8.441  15.568  -4.118  1.00  0.00     0.130 A 
HETATM    2  S1  UNL     1      -8.996  14.562  -5.375  1.00  0.00    -0.050 SA
HETATM    3  C6  UNL     1      -7.497  13.852  -5.840  1.00  0.00     0.090 A 
HETATM    4  C7  UNL     1      -6.608  14.423  -4.999  1.00  0.00     0.045 A 
HETATM    5  C8  UNL     1      -7.102  15.327  -4.090  1.00  0.00     0.162 A 
HETATM    6  F1  UNL     1      -6.324  16.007  -3.152  1.00  0.00    -0.202 F 
HETATM    7  C9  UNL     1      -5.244  13.855  -5.334  1.00  0.00     0.154 A 
HETATM    8  C10 UNL     1      -4.672  13.091  -4.177  1.00  0.00     0.036 C 
HETATM    9  C11 UNL     1      -3.249  13.387  -3.865  1.00  0.00     0.022 C 
HETATM   10  C12 UNL     1      -2.395  13.665  -5.074  1.00  0.00     0.122 C 
HETATM   11  N3  UNL     1      -2.979  14.691  -5.922  1.00  0.00    -0.360 N 
ATOM     12  H3  UNL     1      -2.399  15.223  -6.570  1.00  0.00     0.162 HD
HETATM   13  C13 UNL     1      -4.355  14.932  -5.830  1.00  0.00     0.240 C 
HETATM   14  O1  UNL     1      -4.785  16.076  -6.177  1.00  0.00    -0.272 OA
HETATM   15  C14 UNL     1      -5.498  12.930  -6.432  1.00  0.00     0.245 A 
HETATM   16  O2  UNL     1      -4.615  12.210  -7.047  1.00  0.00    -0.271 OA
HETATM   17  N4  UNL     1      -6.866  12.933  -6.734  1.00  0.00    -0.319 N 
ATOM     18  H4  UNL     1      -7.326  12.382  -7.458  1.00  0.00     0.169 HD
ENDROOT
BRANCH   1  19
HETATM   19  N2  UNL     1      -9.210  16.455  -3.299  1.00  0.00    -0.295 N 
HETATM   20  N1  UNL     1      -9.768  16.158  -2.235  1.00  0.00    -0.327 N 
ATOM     21  H1  UNL     1     -10.272  16.927  -1.794  1.00  0.00     0.181 HD
ATOM     22  H2  UNL     1      -9.306  17.418  -3.621  1.00  0.00     0.187 HD
BRANCH  20  23
HETATM   23  C2  UNL     1      -9.830  14.932  -1.521  1.00  0.00     0.035 C 
HETATM   24  C1  UNL     1     -10.713  13.963  -2.310  1.00  0.00     0.039 C 
HETATM   25  C3  UNL     1     -10.521  15.128  -0.165  1.00  0.00     0.039 C 
HETATM   26  C4  UNL     1      -8.497  14.298  -1.226  1.00  0.00     0.039 C 
ENDBRANCH  20  23
ENDBRANCH   1  19
TORSDOF 2
ENDMDL
MODEL 4
REMARK VINA RESULT: -5.483677020     10.522     13.059
REMARK  2 active torsions:
REMARK  status: ('A' for Active; 'I' for Inactive)
REMARK    1  A    between atoms: C2_2  and  N1_5 
REMARK    2  A    between atoms: N2_7  and  C5_9 
ROOT
HETATM    1  C5  UNL     1      -9.078  15.956   1.431  1.00  0.00     0.130 A 
HETATM    2  S1  UNL     1      -8.854  15.239   2.959  1.00  0.00    -0.050 SA
HETATM    3  C6  UNL     1     -10.305  14.315   3.045  1.00  0.00     0.090 A 
HETATM    4  C7  UNL     1     -10.921  14.595   1.876  1.00  0.00     0.045 A 
HETATM    5  C8  UNL     1     -10.278  15.458   1.023  1.00  0.00     0.162 A 
HETATM    6  F1  UNL     1     -10.772  15.853  -0.220  1.00  0.00    -0.202 F 
HETATM    7  C9  UNL     1     -12.222  13.819   1.858  1.00  0.00     0.154 A 
HETATM    8  C10 UNL     1     -12.247  12.822   0.738  1.00  0.00     0.036 C 
HETATM    9  C11 UNL     1     -13.502  12.796  -0.058  1.00  0.00     0.022 C 
HETATM   10  C12 UNL     1     -14.751  13.050   0.745  1.00  0.00     0.122 C 
HETATM   11  N3  UNL     1     -14.645  14.266   1.534  1.00  0.00    -0.360 N 
ATOM     12  H3  UNL     1     -15.481  14.751   1.857  1.00  0.00     0.162 HD
HETATM   13  C13 UNL     1     -13.371  14.756   1.841  1.00  0.00     0.240 C 
HETATM   14  O1  UNL     1     -13.253  15.996   2.093  1.00  0.00    -0.272 OA
HETATM   15  C14 UNL     1     -12.234  13.104   3.128  1.00  0.00     0.245 A 
HETATM   16  O2  UNL     1     -13.163  12.308   3.550  1.00  0.00    -0.271 OA
HETATM   17  N4  UNL     1     -11.068  13.409   3.843  1.00  0.00    -0.319 N 
ATOM     18  H4  UNL     1     -10.813  13.051   4.763  1.00  0.00     0.169 HD
ENDROOT
BRANCH   1  19
HETATM   19  N2  UNL     1      -8.208  16.867   0.752  1.00  0.00    -0.295 N 
HETATM   20  N1  UNL     1      -7.265  16.554   0.013  1.00  0.00    -0.327 N 
ATOM     21  H1  UNL     1      -6.758  17.347  -0.381  1.00  0.00     0.181 HD
ATOM     22  H2  UNL     1      -8.380  17.863   0.889  1.00  0.00     0.187 HD
BRANCH  20  23
HETATM   23  C2  UNL     1      -6.767  15.285  -0.382  1.00  0.00     0.035 C 
HETATM   24  C1  UNL     1      -5.977  14.696   0.789  1.00  0.00     0.039 C 
HETATM   25  C3  UNL     1      -5.768  15.429  -1.537  1.00  0.00     0.039 C 
HETATM   26  C4  UNL     1      -7.811  14.306  -0.848  1.00  0.00     0.039 C 
ENDBRANCH  20  23
ENDBRANCH   1  19
TORSDOF 2
ENDMDL
MODEL 5
REMARK VINA RESULT: -5.473265320      6.109      8.347
REMARK  2 active torsions:
REMARK  status: ('A' for Active; 'I' for Inactive)
REMARK    1  A    between atoms: C2_2  and  N1_5 
REMARK    2  A    between atoms: N2_7  and  C5_9 
ROOT
HETATM    1  C5  UNL     1      -6.134  16.583  -0.158  1.00  0.00     0.130 A 
HETATM    2  S1  UNL     1      -4.516  16.056  -0.096  1.00  0.00    -0.050 SA
HETATM    3  C6  UNL     1      -4.477  15.118  -1.540  1.00  0.00     0.090 A 
HETATM    4  C7  UNL     1      -5.730  15.245  -2.027  1.00  0.00     0.045 A 
HETATM    5  C8  UNL     1      -6.606  16.016  -1.302  1.00  0.00     0.162 A 
HETATM    6  F1  UNL     1      -7.933  16.251  -1.661  1.00  0.00    -0.202 F 
HETATM    7  C9  UNL     1      -5.794  14.445  -3.313  1.00  0.00     0.154 A 
HETATM    8  C10 UNL     1      -6.081  15.328  -4.490  1.00  0.00     0.036 C 
HETATM    9  C11 UNL     1      -7.125  14.823  -5.421  1.00  0.00     0.022 C 
HETATM   10  C12 UNL     1      -7.133  13.326  -5.588  1.00  0.00     0.122 C 
HETATM   11  N3  UNL     1      -7.184  12.641  -4.308  1.00  0.00    -0.360 N 
ATOM     12  H3  UNL     1      -7.524  11.682  -4.243  1.00  0.00     0.162 HD
HETATM   13  C13 UNL     1      -6.755  13.326  -3.164  1.00  0.00     0.240 C 
HETATM   14  O1  UNL     1      -7.213  12.955  -2.039  1.00  0.00    -0.272 OA
HETATM   15  C14 UNL     1      -4.457  13.884  -3.457  1.00  0.00     0.245 A 
HETATM   16  O2  UNL     1      -4.045  13.124  -4.419  1.00  0.00    -0.271 OA
HETATM   17  N4  UNL     1      -3.662  14.296  -2.378  1.00  0.00    -0.319 N 
ATOM     18  H4  UNL     1      -2.685  14.053  -2.221  1.00  0.00     0.169 HD
ENDROOT
BRANCH   1  19
HETATM   19  N2  UNL     1      -6.822  17.417   0.779  1.00  0.00    -0.295 N 
HETATM   20  N1  UNL     1      -7.686  17.044   1.584  1.00  0.00    -0.327 N 
ATOM     21  H1  UNL     1      -8.063  17.787   2.171  1.00  0.00     0.181 HD
ATOM     22  H2  UNL     1      -6.579  18.408   0.785  1.00  0.00     0.187 HD
BRANCH  20  23
HETATM   23  C2  UNL     1      -8.242  15.762   1.832  1.00  0.00     0.035 C 
HETATM   24  C1  UNL     1      -9.460  15.585   0.922  1.00  0.00     0.039 C 
HETATM   25  C3  UNL     1      -8.769  15.667   3.270  1.00  0.00     0.039 C 
HETATM   26  C4  UNL     1      -7.291  14.609   1.656  1.00  0.00     0.039 C 
ENDBRANCH  20  23
ENDBRANCH   1  19
TORSDOF 2
ENDMDL
