MODEL 1
REMARK VINA RESULT: -4.889374170      0.000      0.000
REMARK  0 active torsions:
REMARK  status: ('A' for Active; 'I' for Inactive)
ROOT
HETATM    1  C1  UNL     1       3.570   0.220  15.633  1.00  0.00    -0.003 C 
HETATM    2  C2  UNL     1       4.372  -0.790  15.946  1.00  0.00    -0.003 C 
HETATM    3  C3  UNL     1       3.827  -1.381  17.195  1.00  0.00     0.195 C 
HETATM    4  O1  UNL     1       3.180  -0.318  17.777  1.00  0.00    -0.384 OA
HETATM    5  C4  UNL     1       2.505   0.263  16.702  1.00  0.00     0.195 C 
ENDROOT
TORSDOF 0
ENDMDL
MODEL 2
REMARK VINA RESULT: -4.846652747      0.877      1.674
REMARK  0 active torsions:
REMARK  status: ('A' for Active; 'I' for Inactive)
ROOT
HETATM    1  C1  UNL     1       4.362  -0.890  16.113  1.00  0.00    -0.003 C 
HETATM    2  C2  UNL     1       3.613  -1.132  17.181  1.00  0.00    -0.003 C 
HETATM    3  C3  UNL     1       2.513  -0.134  17.153  1.00  0.00     0.195 C 
HETATM    4  O1  UNL     1       3.073   0.914  16.463  1.00  0.00    -0.384 OA
HETATM    5  C4  UNL     1       3.722   0.279  15.403  1.00  0.00     0.195 C 
ENDROOT
TORSDOF 0
ENDMDL
MODEL 3
REMARK VINA RESULT: -4.746081471      1.321      1.784
REMARK  0 active torsions:
REMARK  status: ('A' for Active; 'I' for Inactive)
ROOT
HETATM    1  C1  UNL     1       2.800   0.177  16.810  1.00  0.00    -0.003 C 
HETATM    2  C2  UNL     1       3.321  -0.897  17.391  1.00  0.00    -0.003 C 
HETATM    3  C3  UNL     1       4.371  -1.400  16.468  1.00  0.00     0.195 C 
HETATM    4  O1  UNL     1       3.931  -0.963  15.242  1.00  0.00    -0.384 OA
HETATM    5  C4  UNL     1       3.534   0.350  15.502  1.00  0.00     0.195 C 
ENDROOT
TORSDOF 0
ENDMDL
MODEL 4
REMARK VINA RESULT: -4.662057746      1.237      2.334
REMARK  0 active torsions:
REMARK  status: ('A' for Active; 'I' for Inactive)
ROOT
HETATM    1  C1  UNL     1       3.279  -0.940  17.374  1.00  0.00    -0.003 C 
HETATM    2  C2  UNL     1       2.760   0.148  16.818  1.00  0.00    -0.003 C 
HETATM    3  C3  UNL     1       3.466   0.330  15.524  1.00  0.00     0.195 C 
HETATM    4  O1  UNL     1       4.681  -0.269  15.754  1.00  0.00    -0.384 OA
HETATM    5  C4  UNL     1       4.327  -1.448  16.414  1.00  0.00     0.195 C 
ENDROOT
TORSDOF 0
ENDMDL
MODEL 5
REMARK VINA RESULT: -4.568841869      0.507      1.679
REMARK  0 active torsions:
REMARK  status: ('A' for Active; 'I' for Inactive)
ROOT
HETATM    1  C1  UNL     1       3.928  -1.237  15.657  1.00  0.00    -0.003 C 
HETATM    2  C2  UNL     1       3.254  -0.137  15.344  1.00  0.00    -0.003 C 
HETATM    3  C3  UNL     1       2.884   0.503  16.633  1.00  0.00     0.195 C 
HETATM    4  O1  UNL     1       2.836  -0.562  17.498  1.00  0.00    -0.384 OA
HETATM    5  C4  UNL     1       3.982  -1.287  17.165  1.00  0.00     0.195 C 
ENDROOT
TORSDOF 0
ENDMDL
