MODEL 1
REMARK VINA RESULT: -4.692498997      0.000      0.000
REMARK  0 active torsions:
REMARK  status: ('A' for Active; 'I' for Inactive)
ROOT
HETATM    1  C1  UNL     1       4.649  -1.694  16.357  1.00  0.00     0.019 C 
HETATM    2  C2  UNL     1       3.758  -0.724  16.325  1.00  0.00    -0.042 C 
HETATM    3  C3  UNL     1       2.477  -0.313  16.952  1.00  0.00     0.203 C 
HETATM    4  O1  UNL     1       2.840   1.015  16.713  1.00  0.00    -0.383 OA
HETATM    5  C4  UNL     1       3.550   0.550  15.597  1.00  0.00     0.203 C 
ENDROOT
TORSDOF 0
ENDMDL
MODEL 2
REMARK VINA RESULT: -4.330873527      1.676      2.360
REMARK  0 active torsions:
REMARK  status: ('A' for Active; 'I' for Inactive)
ROOT
HETATM    1  C1  UNL     1       2.399   0.414  17.269  1.00  0.00     0.019 C 
HETATM    2  C2  UNL     1       3.186  -0.312  16.501  1.00  0.00    -0.042 C 
HETATM    3  C3  UNL     1       4.321  -1.265  16.586  1.00  0.00     0.203 C 
HETATM    4  O1  UNL     1       3.866  -1.841  15.397  1.00  0.00    -0.383 OA
HETATM    5  C4  UNL     1       3.366  -0.577  15.055  1.00  0.00     0.203 C 
ENDROOT
TORSDOF 0
ENDMDL
MODEL 3
REMARK VINA RESULT: -4.258642838      0.536      1.309
REMARK  0 active torsions:
REMARK  status: ('A' for Active; 'I' for Inactive)
ROOT
HETATM    1  C1  UNL     1       4.405  -2.098  15.964  1.00  0.00     0.019 C 
HETATM    2  C2  UNL     1       3.866  -0.920  16.202  1.00  0.00    -0.042 C 
HETATM    3  C3  UNL     1       3.714   0.424  15.591  1.00  0.00     0.203 C 
HETATM    4  O1  UNL     1       2.515   0.559  16.295  1.00  0.00    -0.383 OA
HETATM    5  C4  UNL     1       3.076  -0.272  17.276  1.00  0.00     0.203 C 
ENDROOT
TORSDOF 0
ENDMDL
MODEL 4
REMARK VINA RESULT: -4.243812063      1.961      2.653
REMARK  0 active torsions:
REMARK  status: ('A' for Active; 'I' for Inactive)
ROOT
HETATM    1  C1  UNL     1       3.770   0.691  15.441  1.00  0.00     0.019 C 
HETATM    2  C2  UNL     1       3.810  -0.576  15.802  1.00  0.00    -0.042 C 
HETATM    3  C3  UNL     1       3.604  -1.939  15.253  1.00  0.00     0.203 C 
HETATM    4  O1  UNL     1       4.520  -2.409  16.197  1.00  0.00    -0.383 OA
HETATM    5  C4  UNL     1       4.101  -1.358  17.026  1.00  0.00     0.203 C 
ENDROOT
TORSDOF 0
ENDMDL
MODEL 5
REMARK VINA RESULT: -4.166314859      1.233      2.151
REMARK  0 active torsions:
REMARK  status: ('A' for Active; 'I' for Inactive)
ROOT
HETATM    1  C1  UNL     1       3.922   0.809  15.253  1.00  0.00     0.019 C 
HETATM    2  C2  UNL     1       3.625  -0.134  16.124  1.00  0.00    -0.042 C 
HETATM    3  C3  UNL     1       4.126  -1.435  16.632  1.00  0.00     0.203 C 
HETATM    4  O1  UNL     1       3.509  -1.146  17.851  1.00  0.00    -0.383 OA
HETATM    5  C4  UNL     1       2.564  -0.411  17.120  1.00  0.00     0.203 C 
ENDROOT
TORSDOF 0
ENDMDL
