MODEL 1
REMARK VINA RESULT: -4.350054875      0.000      0.000
REMARK  0 active torsions:
REMARK  status: ('A' for Active; 'I' for Inactive)
ROOT
HETATM    1  C1  UNL     1       4.214  -0.721  15.736  1.00  0.00     0.017 C 
HETATM    2  C2  UNL     1       4.088  -1.383  16.867  1.00  0.00     0.159 C 
HETATM    3  O1  UNL     1       3.217  -0.645  17.694  1.00  0.00    -0.257 OA
HETATM    4  N1  UNL     1       2.377   0.059  16.822  1.00  0.00    -0.092 NA
HETATM    5  C3  UNL     1       3.378   0.494  15.864  1.00  0.00     0.172 C 
ENDROOT
TORSDOF 0
ENDMDL
MODEL 2
REMARK VINA RESULT: -4.331811260      1.218      1.731
REMARK  0 active torsions:
REMARK  status: ('A' for Active; 'I' for Inactive)
ROOT
HETATM    1  C1  UNL     1       3.443   0.063  15.444  1.00  0.00     0.017 C 
HETATM    2  C2  UNL     1       2.897   0.470  16.570  1.00  0.00     0.159 C 
HETATM    3  O1  UNL     1       2.988  -0.592  17.493  1.00  0.00    -0.257 OA
HETATM    4  N1  UNL     1       4.118  -1.326  17.110  1.00  0.00    -0.092 NA
HETATM    5  C3  UNL     1       3.899  -1.327  15.675  1.00  0.00     0.172 C 
ENDROOT
TORSDOF 0
ENDMDL
MODEL 3
REMARK VINA RESULT: -4.239846996      1.018      1.662
REMARK  0 active torsions:
REMARK  status: ('A' for Active; 'I' for Inactive)
ROOT
HETATM    1  C1  UNL     1       4.372  -0.796  16.035  1.00  0.00     0.017 C 
HETATM    2  C2  UNL     1       3.610   0.099  15.442  1.00  0.00     0.159 C 
HETATM    3  O1  UNL     1       2.460   0.271  16.240  1.00  0.00    -0.257 OA
HETATM    4  N1  UNL     1       2.864  -0.024  17.549  1.00  0.00    -0.092 NA
HETATM    5  C3  UNL     1       3.660  -1.205  17.268  1.00  0.00     0.172 C 
ENDROOT
TORSDOF 0
ENDMDL
MODEL 4
REMARK VINA RESULT: -4.133413790      1.741      2.280
REMARK  0 active torsions:
REMARK  status: ('A' for Active; 'I' for Inactive)
ROOT
HETATM    1  C1  UNL     1       2.717   0.035  16.735  1.00  0.00     0.017 C 
HETATM    2  C2  UNL     1       3.452   0.410  15.709  1.00  0.00     0.159 C 
HETATM    3  O1  UNL     1       4.632  -0.363  15.729  1.00  0.00    -0.257 OA
HETATM    4  N1  UNL     1       4.281  -1.568  16.351  1.00  0.00    -0.092 NA
HETATM    5  C3  UNL     1       3.478  -1.027  17.432  1.00  0.00     0.172 C 
ENDROOT
TORSDOF 0
ENDMDL
MODEL 5
REMARK VINA RESULT: -4.092692949      1.545      1.690
REMARK  0 active torsions:
REMARK  status: ('A' for Active; 'I' for Inactive)
ROOT
HETATM    1  C1  UNL     1       3.558  -0.992  17.368  1.00  0.00     0.017 C 
HETATM    2  C2  UNL     1       4.255  -1.408  16.331  1.00  0.00     0.159 C 
HETATM    3  O1  UNL     1       3.862  -0.635  15.219  1.00  0.00    -0.257 OA
HETATM    4  N1  UNL     1       3.445   0.594  15.746  1.00  0.00    -0.092 NA
HETATM    5  C3  UNL     1       2.683   0.097  16.877  1.00  0.00     0.172 C 
ENDROOT
TORSDOF 0
ENDMDL
