MODEL 1
REMARK VINA RESULT: -5.368020838      0.000      0.000
REMARK  0 active torsions:
REMARK  status: ('A' for Active; 'I' for Inactive)
ROOT
HETATM    1  C1  UNL     1       2.236   0.585  17.298  1.00  0.00     0.013 C 
HETATM    2  C2  UNL     1       3.016   0.034  16.560  1.00  0.00    -0.105 C 
HETATM    3  C3  UNL     1       3.957  -0.657  15.649  1.00  0.00     0.109 A 
HETATM    4  C4  UNL     1       3.757  -2.044  15.362  1.00  0.00    -0.008 A 
HETATM    5  C5  UNL     1       4.728  -1.774  16.292  1.00  0.00    -0.008 A 
ENDROOT
TORSDOF 0
ENDMDL
MODEL 2
REMARK VINA RESULT: -5.231822821      0.741      2.861
REMARK  0 active torsions:
REMARK  status: ('A' for Active; 'I' for Inactive)
ROOT
HETATM    1  C1  UNL     1       4.971  -1.990  16.279  1.00  0.00     0.013 C 
HETATM    2  C2  UNL     1       4.170  -1.097  16.150  1.00  0.00    -0.105 C 
HETATM    3  C3  UNL     1       3.189   0.005  16.015  1.00  0.00     0.109 A 
HETATM    4  C4  UNL     1       2.500   0.471  17.178  1.00  0.00    -0.008 A 
HETATM    5  C5  UNL     1       1.782  -0.375  16.374  1.00  0.00    -0.008 A 
ENDROOT
TORSDOF 0
ENDMDL
MODEL 3
REMARK VINA RESULT: -5.211968190      0.787      2.836
REMARK  0 active torsions:
REMARK  status: ('A' for Active; 'I' for Inactive)
ROOT
HETATM    1  C1  UNL     1       3.649  -2.978  14.965  1.00  0.00     0.013 C 
HETATM    2  C2  UNL     1       3.843  -1.946  15.560  1.00  0.00    -0.105 C 
HETATM    3  C3  UNL     1       4.060  -0.679  16.296  1.00  0.00     0.109 A 
HETATM    4  C4  UNL     1       2.940   0.168  16.570  1.00  0.00    -0.008 A 
HETATM    5  C5  UNL     1       3.720   0.555  15.512  1.00  0.00    -0.008 A 
ENDROOT
TORSDOF 0
ENDMDL
MODEL 4
REMARK VINA RESULT: -5.135655314      0.907      2.804
REMARK  0 active torsions:
REMARK  status: ('A' for Active; 'I' for Inactive)
ROOT
HETATM    1  C1  UNL     1       4.594  -2.721  16.057  1.00  0.00     0.013 C 
HETATM    2  C2  UNL     1       3.932  -1.751  15.776  1.00  0.00    -0.105 C 
HETATM    3  C3  UNL     1       3.141  -0.548  15.428  1.00  0.00     0.109 A 
HETATM    4  C4  UNL     1       3.736   0.744  15.573  1.00  0.00    -0.008 A 
HETATM    5  C5  UNL     1       2.885   0.376  16.583  1.00  0.00    -0.008 A 
ENDROOT
TORSDOF 0
ENDMDL
MODEL 5
REMARK VINA RESULT: -4.503701555      0.742      1.178
REMARK  0 active torsions:
REMARK  status: ('A' for Active; 'I' for Inactive)
ROOT
HETATM    1  C1  UNL     1       2.320   0.691  17.214  1.00  0.00     0.013 C 
HETATM    2  C2  UNL     1       2.959  -0.329  17.122  1.00  0.00    -0.105 C 
HETATM    3  C3  UNL     1       3.761  -1.568  17.004  1.00  0.00     0.109 A 
HETATM    4  C4  UNL     1       4.963  -1.549  16.229  1.00  0.00    -0.008 A 
HETATM    5  C5  UNL     1       3.874  -2.099  15.605  1.00  0.00    -0.008 A 
ENDROOT
TORSDOF 0
ENDMDL
