MODEL 1
REMARK VINA RESULT: -4.905266975      0.000      0.000
REMARK  0 active torsions:
REMARK  status: ('A' for Active; 'I' for Inactive)
ROOT
HETATM    1  C1  UNL     1       2.809   0.373  16.527  1.00  0.00     0.085 A 
HETATM    2  N1  UNL     1       2.726  -0.578  17.373  1.00  0.00    -0.316 N 
ATOM      3  H1  UNL     1       2.016  -0.638  18.103  1.00  0.00     0.185 HD
HETATM    4  N2  UNL     1       3.742  -1.535  17.167  1.00  0.00    -0.316 N 
ATOM      5  H2  UNL     1       3.861  -2.377  17.730  1.00  0.00     0.185 HD
HETATM    6  C2  UNL     1       4.497  -1.210  16.180  1.00  0.00     0.085 A 
HETATM    7  C3  UNL     1       3.963   0.069  15.663  1.00  0.00     0.092 A 
ENDROOT
TORSDOF 0
ENDMDL
MODEL 2
REMARK VINA RESULT: -4.884941056      0.051      1.728
REMARK  0 active torsions:
REMARK  status: ('A' for Active; 'I' for Inactive)
ROOT
HETATM    1  C1  UNL     1       4.469  -1.204  16.119  1.00  0.00     0.085 A 
HETATM    2  N1  UNL     1       3.732  -1.565  17.095  1.00  0.00    -0.316 N 
ATOM      3  H1  UNL     1       3.855  -2.431  17.620  1.00  0.00     0.185 HD
HETATM    4  N2  UNL     1       2.726  -0.610  17.355  1.00  0.00    -0.316 N 
ATOM      5  H2  UNL     1       2.027  -0.698  18.093  1.00  0.00     0.185 HD
HETATM    6  C2  UNL     1       2.804   0.383  16.544  1.00  0.00     0.085 A 
HETATM    7  C3  UNL     1       3.951   0.094  15.655  1.00  0.00     0.092 A 
ENDROOT
TORSDOF 0
ENDMDL
MODEL 3
REMARK VINA RESULT: -4.345049235      0.920      1.703
REMARK  0 active torsions:
REMARK  status: ('A' for Active; 'I' for Inactive)
ROOT
HETATM    1  C1  UNL     1       3.731  -1.329  17.197  1.00  0.00     0.085 A 
HETATM    2  N1  UNL     1       2.813  -0.464  17.387  1.00  0.00    -0.316 N 
ATOM      3  H1  UNL     1       2.147  -0.490  18.160  1.00  0.00     0.185 HD
HETATM    4  N2  UNL     1       2.839   0.534  16.390  1.00  0.00    -0.316 N 
ATOM      5  H2  UNL     1       2.193   1.323  16.350  1.00  0.00     0.185 HD
HETATM    6  C2  UNL     1       3.779   0.323  15.541  1.00  0.00     0.085 A 
HETATM    7  C3  UNL     1       4.456  -0.916  15.983  1.00  0.00     0.092 A 
ENDROOT
TORSDOF 0
ENDMDL
MODEL 4
REMARK VINA RESULT: -4.336666237      0.910      1.334
REMARK  0 active torsions:
REMARK  status: ('A' for Active; 'I' for Inactive)
ROOT
HETATM    1  C1  UNL     1       3.749   0.314  15.538  1.00  0.00     0.085 A 
HETATM    2  N1  UNL     1       2.826   0.516  16.393  1.00  0.00    -0.316 N 
ATOM      3  H1  UNL     1       2.169   1.296  16.360  1.00  0.00     0.185 HD
HETATM    4  N2  UNL     1       2.830  -0.480  17.393  1.00  0.00    -0.316 N 
ATOM      5  H2  UNL     1       2.176  -0.513  18.175  1.00  0.00     0.185 HD
HETATM    6  C2  UNL     1       3.762  -1.341  17.192  1.00  0.00     0.085 A 
HETATM    7  C3  UNL     1       4.457  -0.907  15.960  1.00  0.00     0.092 A 
ENDROOT
TORSDOF 0
ENDMDL
MODEL 5
REMARK VINA RESULT: -4.089303182      1.219      1.826
REMARK  0 active torsions:
REMARK  status: ('A' for Active; 'I' for Inactive)
ROOT
HETATM    1  C1  UNL     1       3.192  -1.001  17.456  1.00  0.00     0.085 A 
HETATM    2  N1  UNL     1       4.174  -1.399  16.746  1.00  0.00    -0.316 N 
ATOM      3  H1  UNL     1       4.728  -2.233  16.943  1.00  0.00     0.185 HD
HETATM    4  N2  UNL     1       4.394  -0.536  15.651  1.00  0.00    -0.316 N 
ATOM      5  H2  UNL     1       5.129  -0.666  14.955  1.00  0.00     0.185 HD
HETATM    6  C2  UNL     1       3.552   0.434  15.643  1.00  0.00     0.085 A 
HETATM    7  C3  UNL     1       2.682   0.227  16.822  1.00  0.00     0.092 A 
ENDROOT
TORSDOF 0
ENDMDL
