MODEL 1
REMARK VINA RESULT: -5.640194193      0.000      0.000
REMARK  1 active torsions:
REMARK  status: ('A' for Active; 'I' for Inactive)
REMARK    1  A    between atoms: C3_7  and  N3_8 
ROOT
HETATM    1  C1  UNL     1       1.908  15.298  12.041  1.00  0.00     0.147 C 
HETATM    2  N1  UNL     1       1.333  14.355  12.873  1.00  0.00    -0.378 N 
ATOM      3  H1  UNL     1       1.152  13.472  12.396  1.00  0.00     0.160 HD
HETATM    4  C2  UNL     1       0.985  14.329  14.068  1.00  0.00     0.147 A 
HETATM    5  N2  UNL     1       0.427  13.203  14.609  1.00  0.00    -0.175 N 
ATOM      6  H2  UNL     1       0.302  12.386  14.011  1.00  0.00     0.186 HD
HETATM    7  C3  UNL     1       0.038  13.127  15.883  1.00  0.00     0.679 A 
HETATM    8  N4  UNL     1       0.186  14.179  16.697  1.00  0.00    -0.174 N 
ATOM      9  H4  UNL     1      -0.114  14.109  17.669  1.00  0.00     0.186 HD
HETATM   10  C4  UNL     1       0.725  15.327  16.250  1.00  0.00     0.152 A 
HETATM   11  N5  UNL     1       0.972  16.493  16.861  1.00  0.00    -0.336 N 
ATOM     12  H5  UNL     1       0.771  16.703  17.839  1.00  0.00     0.168 HD
HETATM   13  C5  UNL     1       1.523  17.336  15.985  1.00  0.00     0.182 A 
HETATM   14  N6  UNL     1       1.614  16.657  14.802  1.00  0.00    -0.346 N 
ATOM     15  H6  UNL     1       1.997  17.045  13.940  1.00  0.00     0.167 HD
HETATM   16  C6  UNL     1       1.130  15.409  14.924  1.00  0.00     0.123 A 
ENDROOT
BRANCH   7  17
HETATM   17  N3  UNL     1      -0.485  12.054  16.367  1.00  0.00    -0.234 N 
ATOM     18  H32 UNL     1      -1.491  11.921  16.261  1.00  0.00     0.174 HD
ATOM     19  H31 UNL     1       0.080  11.352  16.845  1.00  0.00     0.174 HD
ENDBRANCH   7  17
TORSDOF 1
ENDMDL
MODEL 2
REMARK VINA RESULT: -5.627256030      7.241      8.273
REMARK  1 active torsions:
REMARK  status: ('A' for Active; 'I' for Inactive)
REMARK    1  A    between atoms: C3_7  and  N3_8 
ROOT
HETATM    1  C1  UNL     1       4.790  13.624  20.191  1.00  0.00     0.147 C 
HETATM    2  N1  UNL     1       4.146  12.403  20.105  1.00  0.00    -0.378 N 
ATOM      3  H1  UNL     1       3.134  12.488  20.190  1.00  0.00     0.160 HD
HETATM    4  C2  UNL     1       4.513  11.223  19.948  1.00  0.00     0.147 A 
HETATM    5  N2  UNL     1       3.596  10.208  19.905  1.00  0.00    -0.175 N 
ATOM      6  H2  UNL     1       2.608  10.438  20.005  1.00  0.00     0.186 HD
HETATM    7  C3  UNL     1       3.940   8.929  19.739  1.00  0.00     0.679 A 
HETATM    8  N4  UNL     1       5.227   8.588  19.605  1.00  0.00    -0.174 N 
ATOM      9  H4  UNL     1       5.477   7.607  19.478  1.00  0.00     0.186 HD
HETATM   10  C4  UNL     1       6.194   9.520  19.635  1.00  0.00     0.152 A 
HETATM   11  N5  UNL     1       7.527   9.428  19.524  1.00  0.00    -0.336 N 
ATOM     12  H5  UNL     1       8.050   8.563  19.389  1.00  0.00     0.168 HD
HETATM   13  C5  UNL     1       8.058  10.648  19.619  1.00  0.00     0.182 A 
HETATM   14  N6  UNL     1       7.011  11.512  19.793  1.00  0.00    -0.346 N 
ATOM     15  H6  UNL     1       7.107  12.522  19.897  1.00  0.00     0.167 HD
HETATM   16  C6  UNL     1       5.840  10.853  19.808  1.00  0.00     0.123 A 
ENDROOT
BRANCH   7  17
HETATM   17  N3  UNL     1       3.057   7.991  19.703  1.00  0.00    -0.234 N 
ATOM     18  H32 UNL     1       3.281   7.104  20.153  1.00  0.00     0.174 HD
ATOM     19  H31 UNL     1       2.156   8.121  19.241  1.00  0.00     0.174 HD
ENDBRANCH   7  17
TORSDOF 1
ENDMDL
MODEL 3
REMARK VINA RESULT: -5.396119965      0.546      2.954
REMARK  1 active torsions:
REMARK  status: ('A' for Active; 'I' for Inactive)
REMARK    1  A    between atoms: C3_7  and  N3_8 
ROOT
HETATM    1  C1  UNL     1       2.001  17.424  16.471  1.00  0.00     0.147 C 
HETATM    2  N1  UNL     1       1.421  16.190  16.707  1.00  0.00    -0.378 N 
ATOM      3  H1  UNL     1       1.257  16.020  17.699  1.00  0.00     0.160 HD
HETATM    4  C2  UNL     1       1.052  15.239  15.994  1.00  0.00     0.147 A 
HETATM    5  N2  UNL     1       0.498  14.120  16.555  1.00  0.00    -0.175 N 
ATOM      6  H2  UNL     1       0.393  14.084  17.568  1.00  0.00     0.186 HD
HETATM    7  C3  UNL     1       0.088  13.076  15.833  1.00  0.00     0.679 A 
HETATM    8  N4  UNL     1       0.208  13.088  14.500  1.00  0.00    -0.174 N 
ATOM      9  H4  UNL     1      -0.110  12.284  13.959  1.00  0.00     0.186 HD
HETATM   10  C4  UNL     1       0.743  14.145  13.865  1.00  0.00     0.152 A 
HETATM   11  N5  UNL     1       0.965  14.387  12.566  1.00  0.00    -0.336 N 
ATOM     12  H5  UNL     1       0.743  13.751  11.799  1.00  0.00     0.168 HD
HETATM   13  C5  UNL     1       1.523  15.593  12.436  1.00  0.00     0.182 A 
HETATM   14  N6  UNL     1       1.643  16.100  13.700  1.00  0.00    -0.346 N 
ATOM     15  H6  UNL     1       2.038  17.014  13.921  1.00  0.00     0.167 HD
HETATM   16  C6  UNL     1       1.171  15.234  14.614  1.00  0.00     0.123 A 
ENDROOT
BRANCH   7  17
HETATM   17  N3  UNL     1      -0.432  12.035  16.385  1.00  0.00    -0.234 N 
ATOM     18  H32 UNL     1      -0.803  11.304  15.778  1.00  0.00     0.174 HD
ATOM     19  H31 UNL     1      -0.477  11.933  17.400  1.00  0.00     0.174 HD
ENDBRANCH   7  17
TORSDOF 1
ENDMDL
MODEL 4
REMARK VINA RESULT: -5.346326839      1.004      3.042
REMARK  1 active torsions:
REMARK  status: ('A' for Active; 'I' for Inactive)
REMARK    1  A    between atoms: C3_7  and  N3_8 
ROOT
HETATM    1  C1  UNL     1       0.567  17.737  17.610  1.00  0.00     0.147 C 
HETATM    2  N1  UNL     1       0.380  16.371  17.494  1.00  0.00    -0.378 N 
ATOM      3  H1  UNL     1       0.059  15.946  18.363  1.00  0.00     0.160 HD
HETATM    4  C2  UNL     1       0.513  15.539  16.578  1.00  0.00     0.147 A 
HETATM    5  N2  UNL     1       0.238  14.216  16.792  1.00  0.00    -0.175 N 
ATOM      6  H2  UNL     1      -0.078  13.927  17.718  1.00  0.00     0.186 HD
HETATM    7  C3  UNL     1       0.364  13.287  15.843  1.00  0.00     0.679 A 
HETATM    8  N4  UNL     1       0.776  13.628  14.616  1.00  0.00    -0.174 N 
ATOM      9  H4  UNL     1       0.867  12.909  13.898  1.00  0.00     0.186 HD
HETATM   10  C4  UNL     1       1.068  14.905  14.316  1.00  0.00     0.152 A 
HETATM   11  N5  UNL     1       1.490  15.482  13.183  1.00  0.00    -0.336 N 
ATOM     12  H5  UNL     1       1.667  14.997  12.303  1.00  0.00     0.168 HD
HETATM   13  C5  UNL     1       1.641  16.791  13.390  1.00  0.00     0.182 A 
HETATM   14  N6  UNL     1       1.299  17.017  14.694  1.00  0.00    -0.346 N 
ATOM     15  H6  UNL     1       1.315  17.931  15.146  1.00  0.00     0.167 HD
HETATM   16  C6  UNL     1       0.938  15.874  15.303  1.00  0.00     0.123 A 
ENDROOT
BRANCH   7  17
HETATM   17  N3  UNL     1       0.099  12.047  16.071  1.00  0.00    -0.234 N 
ATOM     18  H32 UNL     1      -0.398  11.812  16.931  1.00  0.00     0.174 HD
ATOM     19  H31 UNL     1       0.372  11.312  15.417  1.00  0.00     0.174 HD
ENDBRANCH   7  17
TORSDOF 1
ENDMDL
MODEL 5
REMARK VINA RESULT: -5.343107644      7.129      8.389
REMARK  1 active torsions:
REMARK  status: ('A' for Active; 'I' for Inactive)
REMARK    1  A    between atoms: C3_7  and  N3_8 
ROOT
HETATM    1  C1  UNL     1       3.428   8.518  19.660  1.00  0.00     0.147 C 
HETATM    2  N1  UNL     1       3.451   9.884  19.876  1.00  0.00    -0.378 N 
ATOM      3  H1  UNL     1       2.522  10.268  20.045  1.00  0.00     0.160 HD
HETATM    4  C2  UNL     1       4.340  10.755  19.914  1.00  0.00     0.147 A 
HETATM    5  N2  UNL     1       4.024  12.064  20.159  1.00  0.00    -0.175 N 
ATOM      6  H2  UNL     1       3.046  12.309  20.310  1.00  0.00     0.186 HD
HETATM    7  C3  UNL     1       4.940  13.032  20.209  1.00  0.00     0.679 A 
HETATM    8  N4  UNL     1       6.234  12.749  20.016  1.00  0.00    -0.174 N 
ATOM      9  H4  UNL     1       6.925  13.498  20.057  1.00  0.00     0.186 HD
HETATM   10  C4  UNL     1       6.634  11.490  19.768  1.00  0.00     0.152 A 
HETATM   11  N5  UNL     1       7.848  10.967  19.546  1.00  0.00    -0.336 N 
ATOM     12  H5  UNL     1       8.724  11.490  19.530  1.00  0.00     0.168 HD
HETATM   13  C5  UNL     1       7.727   9.652  19.349  1.00  0.00     0.182 A 
HETATM   14  N6  UNL     1       6.394   9.368  19.456  1.00  0.00    -0.346 N 
ATOM     15  H6  UNL     1       5.991   8.436  19.352  1.00  0.00     0.167 HD
HETATM   16  C6  UNL     1       5.683  10.479  19.715  1.00  0.00     0.123 A 
ENDROOT
BRANCH   7  17
HETATM   17  N3  UNL     1       4.617  14.258  20.442  1.00  0.00    -0.234 N 
ATOM     18  H32 UNL     1       3.740  14.437  20.933  1.00  0.00     0.174 HD
ATOM     19  H31 UNL     1       5.211  15.033  20.149  1.00  0.00     0.174 HD
ENDBRANCH   7  17
TORSDOF 1
ENDMDL
