MODEL 1
REMARK VINA RESULT: -5.869365621      0.000      0.000
REMARK  2 active torsions:
REMARK  status: ('A' for Active; 'I' for Inactive)
REMARK    1  A    between atoms: C3_7  and  N3_8 
REMARK    2  A    between atoms: C4_13  and  O1_14 
ROOT
HETATM    1  C1  UNL     1       1.279  17.097  18.091  1.00  0.00     0.147 C 
HETATM    2  N1  UNL     1       0.646  15.868  17.811  1.00  0.00    -0.379 N 
ATOM      3  H1  UNL     1       0.086  15.497  18.579  1.00  0.00     0.160 HD
HETATM    4  C2  UNL     1       0.652  15.139  16.766  1.00  0.00     0.145 A 
HETATM    5  N2  UNL     1      -0.067  13.973  16.774  1.00  0.00    -0.175 N 
ATOM      6  H2  UNL     1      -0.594  13.696  17.601  1.00  0.00     0.186 HD
HETATM    7  C3  UNL     1      -0.066  13.205  15.682  1.00  0.00     0.679 A 
HETATM    8  N4  UNL     1       0.625  13.537  14.558  1.00  0.00    -0.169 N 
ATOM      9  H4  UNL     1       0.595  12.916  13.749  1.00  0.00     0.186 HD
HETATM   10  C4  UNL     1       1.345  14.666  14.497  1.00  0.00     0.185 A 
HETATM   11  C6  UNL     1       1.353  15.479  15.631  1.00  0.00     0.141 A 
HETATM   12  N5  UNL     1       2.126  16.660  15.520  1.00  0.00    -0.094 NA
ENDROOT
BRANCH   7  13
HETATM   13  N3  UNL     1      -0.748  12.093  15.679  1.00  0.00    -0.234 N 
ATOM     14  H32 UNL     1      -1.474  11.972  16.386  1.00  0.00     0.174 HD
ATOM     15  H31 UNL     1      -0.541  11.379  14.980  1.00  0.00     0.174 HD
ENDBRANCH   7  13
BRANCH  10  16
HETATM   16  O1  UNL     1       2.057  15.027  13.369  1.00  0.00    -0.339 OA
HETATM   17  C5  UNL     1       2.096  14.326  12.163  1.00  0.00     0.211 C 
ENDBRANCH  10  16
TORSDOF 2
ENDMDL
MODEL 2
REMARK VINA RESULT: -5.656421462      1.479      3.589
REMARK  2 active torsions:
REMARK  status: ('A' for Active; 'I' for Inactive)
REMARK    1  A    between atoms: C3_7  and  N3_8 
REMARK    2  A    between atoms: C4_13  and  O1_14 
ROOT
HETATM    1  C1  UNL     1       1.989  15.384  12.108  1.00  0.00     0.147 C 
HETATM    2  N1  UNL     1       1.366  14.374  12.870  1.00  0.00    -0.379 N 
ATOM      3  H1  UNL     1       1.163  13.519  12.351  1.00  0.00     0.160 HD
HETATM    4  C2  UNL     1       1.012  14.343  14.093  1.00  0.00     0.145 A 
HETATM    5  N2  UNL     1       0.416  13.209  14.576  1.00  0.00    -0.175 N 
ATOM      6  H2  UNL     1       0.259  12.406  13.966  1.00  0.00     0.186 HD
HETATM    7  C3  UNL     1       0.043  13.169  15.857  1.00  0.00     0.679 A 
HETATM    8  N4  UNL     1       0.231  14.216  16.705  1.00  0.00    -0.169 N 
ATOM      9  H4  UNL     1      -0.072  14.137  17.675  1.00  0.00     0.186 HD
HETATM   10  C4  UNL     1       0.809  15.350  16.283  1.00  0.00     0.185 A 
HETATM   11  C6  UNL     1       1.204  15.406  14.947  1.00  0.00     0.141 A 
HETATM   12  N5  UNL     1       1.809  16.622  14.547  1.00  0.00    -0.094 NA
ENDROOT
BRANCH   7  13
HETATM   13  N3  UNL     1      -0.525  12.092  16.327  1.00  0.00    -0.234 N 
ATOM     14  H32 UNL     1      -0.357  11.846  17.303  1.00  0.00     0.174 HD
ATOM     15  H31 UNL     1      -1.117  11.530  15.716  1.00  0.00     0.174 HD
ENDBRANCH   7  13
BRANCH  10  16
HETATM   16  O1  UNL     1       1.012  16.430  17.121  1.00  0.00    -0.339 OA
HETATM   17  C5  UNL     1       0.844  16.438  18.506  1.00  0.00     0.211 C 
ENDBRANCH  10  16
TORSDOF 2
ENDMDL
MODEL 3
REMARK VINA RESULT: -5.164995165      7.277      7.470
REMARK  2 active torsions:
REMARK  status: ('A' for Active; 'I' for Inactive)
REMARK    1  A    between atoms: C3_7  and  N3_8 
REMARK    2  A    between atoms: C4_13  and  O1_14 
ROOT
HETATM    1  C1  UNL     1       5.180  13.451  20.392  1.00  0.00     0.147 C 
HETATM    2  N1  UNL     1       4.319  12.335  20.388  1.00  0.00    -0.379 N 
ATOM      3  H1  UNL     1       3.390  12.517  20.770  1.00  0.00     0.160 HD
HETATM    4  C2  UNL     1       4.498  11.138  19.989  1.00  0.00     0.145 A 
HETATM    5  N2  UNL     1       3.467  10.244  20.108  1.00  0.00    -0.175 N 
ATOM      6  H2  UNL     1       2.575  10.534  20.509  1.00  0.00     0.186 HD
HETATM    7  C3  UNL     1       3.647   8.989  19.692  1.00  0.00     0.679 A 
HETATM    8  N4  UNL     1       4.820   8.561  19.153  1.00  0.00    -0.169 N 
ATOM      9  H4  UNL     1       4.909   7.590  18.851  1.00  0.00     0.186 HD
HETATM   10  C4  UNL     1       5.861   9.394  19.015  1.00  0.00     0.185 A 
HETATM   11  C6  UNL     1       5.688  10.709  19.445  1.00  0.00     0.141 A 
HETATM   12  N5  UNL     1       6.813  11.551  19.279  1.00  0.00    -0.094 NA
ENDROOT
BRANCH   7  13
HETATM   13  N3  UNL     1       2.670   8.131  19.800  1.00  0.00    -0.234 N 
ATOM     14  H32 UNL     1       1.907   8.348  20.442  1.00  0.00     0.174 HD
ATOM     15  H31 UNL     1       2.692   7.273  19.248  1.00  0.00     0.174 HD
ENDBRANCH   7  13
BRANCH  10  16
HETATM   16  O1  UNL     1       7.066   8.986  18.472  1.00  0.00    -0.339 OA
HETATM   17  C5  UNL     1       7.234   8.014  17.485  1.00  0.00     0.211 C 
ENDBRANCH  10  16
TORSDOF 2
ENDMDL
MODEL 4
REMARK VINA RESULT: -5.040070293      6.426      7.146
REMARK  2 active torsions:
REMARK  status: ('A' for Active; 'I' for Inactive)
REMARK    1  A    between atoms: C3_7  and  N3_8 
REMARK    2  A    between atoms: C4_13  and  O1_14 
ROOT
HETATM    1  C1  UNL     1       5.930   8.369  20.719  1.00  0.00     0.147 C 
HETATM    2  N1  UNL     1       5.791   9.763  20.880  1.00  0.00    -0.379 N 
ATOM      3  H1  UNL     1       6.084  10.114  21.792  1.00  0.00     0.160 HD
HETATM    4  C2  UNL     1       5.363  10.661  20.084  1.00  0.00     0.145 A 
HETATM    5  N2  UNL     1       5.338  11.962  20.513  1.00  0.00    -0.175 N 
ATOM      6  H2  UNL     1       5.655  12.203  21.451  1.00  0.00     0.186 HD
HETATM    7  C3  UNL     1       4.892  12.908  19.684  1.00  0.00     0.679 A 
HETATM    8  N4  UNL     1       4.458  12.630  18.425  1.00  0.00    -0.169 N 
ATOM      9  H4  UNL     1       4.125  13.388  17.829  1.00  0.00     0.186 HD
HETATM   10  C4  UNL     1       4.461  11.374  17.956  1.00  0.00     0.185 A 
HETATM   11  C6  UNL     1       4.925  10.374  18.810  1.00  0.00     0.141 A 
HETATM   12  N5  UNL     1       4.909   9.066  18.272  1.00  0.00    -0.094 NA
ENDROOT
BRANCH   7  13
HETATM   13  N3  UNL     1       4.865  14.150  20.083  1.00  0.00    -0.234 N 
ATOM     14  H32 UNL     1       5.673  14.510  20.591  1.00  0.00     0.174 HD
ATOM     15  H31 UNL     1       4.046  14.724  19.881  1.00  0.00     0.174 HD
ENDBRANCH   7  13
BRANCH  10  16
HETATM   16  O1  UNL     1       4.025  11.062  16.681  1.00  0.00    -0.339 OA
HETATM   17  C5  UNL     1       2.912  11.603  16.039  1.00  0.00     0.211 C 
ENDBRANCH  10  16
TORSDOF 2
ENDMDL
MODEL 5
REMARK VINA RESULT: -4.851641810      1.913      3.675
REMARK  2 active torsions:
REMARK  status: ('A' for Active; 'I' for Inactive)
REMARK    1  A    between atoms: C3_7  and  N3_8 
REMARK    2  A    between atoms: C4_13  and  O1_14 
ROOT
HETATM    1  C1  UNL     1       1.475  16.081  11.858  1.00  0.00     0.147 C 
HETATM    2  N1  UNL     1       1.155  16.379  13.199  1.00  0.00    -0.379 N 
ATOM      3  H1  UNL     1       0.900  17.353  13.365  1.00  0.00     0.160 HD
HETATM    4  C2  UNL     1       1.129  15.643  14.239  1.00  0.00     0.145 A 
HETATM    5  N2  UNL     1       0.775  16.209  15.435  1.00  0.00    -0.175 N 
ATOM      6  H2  UNL     1       0.538  17.199  15.489  1.00  0.00     0.186 HD
HETATM    7  C3  UNL     1       0.744  15.444  16.528  1.00  0.00     0.679 A 
HETATM    8  N4  UNL     1       1.054  14.120  16.501  1.00  0.00    -0.169 N 
ATOM      9  H4  UNL     1       1.017  13.578  17.365  1.00  0.00     0.186 HD
HETATM   10  C4  UNL     1       1.408  13.517  15.358  1.00  0.00     0.185 A 
HETATM   11  C6  UNL     1       1.444  14.303  14.206  1.00  0.00     0.141 A 
HETATM   12  N5  UNL     1       1.822  13.624  13.024  1.00  0.00    -0.094 NA
ENDROOT
BRANCH   7  13
HETATM   13  N3  UNL     1       0.408  15.974  17.673  1.00  0.00    -0.234 N 
ATOM     14  H32 UNL     1      -0.561  16.266  17.801  1.00  0.00     0.174 HD
ATOM     15  H31 UNL     1       1.112  16.082  18.402  1.00  0.00     0.174 HD
ENDBRANCH   7  13
BRANCH  10  16
HETATM   16  O1  UNL     1       1.729  12.173  15.301  1.00  0.00    -0.339 OA
HETATM   17  C5  UNL     1       2.846  11.571  15.879  1.00  0.00     0.211 C 
ENDBRANCH  10  16
TORSDOF 2
ENDMDL
