MODEL 1
REMARK VINA RESULT: -5.672601085      0.000      0.000
REMARK  3 active torsions:
REMARK  status: ('A' for Active; 'I' for Inactive)
REMARK    1  A    between atoms: S1_2  and  C2_4 
REMARK    2  A    between atoms: C3_7  and  N2_8 
REMARK    3  A    between atoms: C4_13  and  N4_14 
ROOT
HETATM    1  C2  UNL     1       1.005  14.840  14.361  1.00  0.00     0.203 A 
HETATM    2  N1  UNL     1       0.993  15.759  15.364  1.00  0.00    -0.167 N 
ATOM      3  H1  UNL     1       1.314  16.707  15.165  1.00  0.00     0.186 HD
HETATM    4  C3  UNL     1       0.574  15.468  16.605  1.00  0.00     0.692 A 
HETATM    5  N3  UNL     1       0.156  14.214  16.849  1.00  0.00    -0.023 N 
ATOM      6  H3  UNL     1      -0.165  13.971  17.786  1.00  0.00     0.203 HD
HETATM    7  C4  UNL     1       0.150  13.267  15.885  1.00  0.00     0.692 A 
HETATM    8  N5  UNL     1       0.579  13.618  14.666  1.00  0.00    -0.167 N 
ATOM      9  H5  UNL     1       0.578  12.910  13.932  1.00  0.00     0.186 HD
ENDROOT
BRANCH   1  10
HETATM   10  S1  UNL     1       1.567  15.326  12.786  1.00  0.00     0.081 S 
HETATM   11  C1  UNL     1       2.325  13.926  11.990  1.00  0.00     0.136 C 
HETATM   12  O1  UNL     1       0.246  15.777  11.848  1.00  0.00    -0.250 OA
ENDBRANCH   1  10
BRANCH   4  13
HETATM   13  N2  UNL     1       0.599  16.403  17.490  1.00  0.00    -0.234 N 
ATOM     14  H22 UNL     1       1.428  16.952  17.718  1.00  0.00     0.174 HD
ATOM     15  H21 UNL     1      -0.263  16.611  17.995  1.00  0.00     0.174 HD
ENDBRANCH   4  13
BRANCH   7  16
HETATM   16  N4  UNL     1      -0.265  12.087  16.195  1.00  0.00    -0.234 N 
ATOM     17  H42 UNL     1      -0.169  11.670  17.120  1.00  0.00     0.174 HD
ATOM     18  H41 UNL     1      -0.721  11.532  15.470  1.00  0.00     0.174 HD
ENDBRANCH   7  16
TORSDOF 3
ENDMDL
MODEL 2
REMARK VINA RESULT: -5.660110617      1.356      1.356
REMARK  3 active torsions:
REMARK  status: ('A' for Active; 'I' for Inactive)
REMARK    1  A    between atoms: S1_2  and  C2_4 
REMARK    2  A    between atoms: C3_7  and  N2_8 
REMARK    3  A    between atoms: C4_13  and  N4_14 
ROOT
HETATM    1  C2  UNL     1       1.065  14.425  13.781  1.00  0.00     0.203 A 
HETATM    2  N1  UNL     1       1.427  15.424  14.631  1.00  0.00    -0.167 N 
ATOM      3  H1  UNL     1       1.856  16.265  14.245  1.00  0.00     0.186 HD
HETATM    4  C3  UNL     1       1.242  15.346  15.958  1.00  0.00     0.692 A 
HETATM    5  N3  UNL     1       0.676  14.230  16.449  1.00  0.00    -0.023 N 
ATOM      6  H3  UNL     1       0.527  14.149  17.455  1.00  0.00     0.203 HD
HETATM    7  C4  UNL     1       0.300  13.211  15.644  1.00  0.00     0.692 A 
HETATM    8  N5  UNL     1       0.511  13.347  14.328  1.00  0.00    -0.167 N 
ATOM      9  H5  UNL     1       0.231  12.584  13.713  1.00  0.00     0.186 HD
ENDROOT
BRANCH   1  10
HETATM   10  S1  UNL     1       1.351  14.631  12.076  1.00  0.00     0.081 S 
HETATM   11  C1  UNL     1       2.407  16.043  11.837  1.00  0.00     0.136 C 
HETATM   12  O1  UNL     1       2.177  13.287  11.493  1.00  0.00    -0.250 OA
ENDBRANCH   1  10
BRANCH   4  13
HETATM   13  N2  UNL     1       1.616  16.342  16.684  1.00  0.00    -0.234 N 
ATOM     14  H22 UNL     1       1.989  17.213  16.307  1.00  0.00     0.174 HD
ATOM     15  H21 UNL     1       1.534  16.257  17.696  1.00  0.00     0.174 HD
ENDBRANCH   4  13
BRANCH   7  16
HETATM   16  N4  UNL     1      -0.236  12.173  16.188  1.00  0.00    -0.234 N 
ATOM     17  H42 UNL     1      -0.602  12.149  17.140  1.00  0.00     0.174 HD
ATOM     18  H41 UNL     1      -0.300  11.319  15.634  1.00  0.00     0.174 HD
ENDBRANCH   7  16
TORSDOF 3
ENDMDL
MODEL 3
REMARK VINA RESULT: -5.617317102      1.361      2.729
REMARK  3 active torsions:
REMARK  status: ('A' for Active; 'I' for Inactive)
REMARK    1  A    between atoms: S1_2  and  C2_4 
REMARK    2  A    between atoms: C3_7  and  N2_8 
REMARK    3  A    between atoms: C4_13  and  N4_14 
ROOT
HETATM    1  C2  UNL     1       1.136  14.435  13.995  1.00  0.00     0.203 A 
HETATM    2  N1  UNL     1       0.512  13.349  14.525  1.00  0.00    -0.167 N 
ATOM      3  H1  UNL     1       0.263  12.577  13.906  1.00  0.00     0.186 HD
HETATM    4  C3  UNL     1       0.211  13.254  15.829  1.00  0.00     0.692 A 
HETATM    5  N3  UNL     1       0.546  14.282  16.627  1.00  0.00    -0.023 N 
ATOM      6  H3  UNL     1       0.325  14.231  17.622  1.00  0.00     0.203 HD
HETATM    7  C4  UNL     1       1.166  15.383  16.147  1.00  0.00     0.692 A 
HETATM    8  N5  UNL     1       1.441  15.419  14.837  1.00  0.00    -0.167 N 
ATOM      9  H5  UNL     1       1.909  16.245  14.465  1.00  0.00     0.186 HD
ENDROOT
BRANCH   1  10
HETATM   10  S1  UNL     1       1.480  14.455  12.288  1.00  0.00     0.081 S 
HETATM   11  C1  UNL     1       2.127  16.054  11.850  1.00  0.00     0.136 C 
HETATM   12  O1  UNL     1       2.683  13.325  11.959  1.00  0.00    -0.250 OA
ENDBRANCH   1  10
BRANCH   4  13
HETATM   13  N2  UNL     1      -0.381  12.187  16.240  1.00  0.00    -0.234 N 
ATOM     14  H22 UNL     1      -0.962  11.593  15.649  1.00  0.00     0.174 HD
ATOM     15  H21 UNL     1      -0.261  11.915  17.216  1.00  0.00     0.174 HD
ENDBRANCH   4  13
BRANCH   7  16
HETATM   16  N4  UNL     1       1.456  16.327  16.974  1.00  0.00    -0.234 N 
ATOM     17  H42 UNL     1       1.169  16.340  17.953  1.00  0.00     0.174 HD
ATOM     18  H41 UNL     1       2.008  17.114  16.632  1.00  0.00     0.174 HD
ENDBRANCH   7  16
TORSDOF 3
ENDMDL
MODEL 4
REMARK VINA RESULT: -5.597868891      0.178      2.411
REMARK  3 active torsions:
REMARK  status: ('A' for Active; 'I' for Inactive)
REMARK    1  A    between atoms: S1_2  and  C2_4 
REMARK    2  A    between atoms: C3_7  and  N2_8 
REMARK    3  A    between atoms: C4_13  and  N4_14 
ROOT
HETATM    1  C2  UNL     1       1.080  15.041  14.457  1.00  0.00     0.203 A 
HETATM    2  N1  UNL     1       0.650  13.782  14.740  1.00  0.00    -0.167 N 
ATOM      3  H1  UNL     1       0.659  13.082  13.998  1.00  0.00     0.186 HD
HETATM    4  C3  UNL     1       0.215  13.424  15.958  1.00  0.00     0.692 A 
HETATM    5  N3  UNL     1       0.209  14.359  16.923  1.00  0.00    -0.023 N 
ATOM      6  H3  UNL     1      -0.118  14.108  17.856  1.00  0.00     0.203 HD
HETATM    7  C4  UNL     1       0.626  15.624  16.690  1.00  0.00     0.692 A 
HETATM    8  N5  UNL     1       1.049  15.920  15.454  1.00  0.00    -0.167 N 
ATOM      9  H5  UNL     1       1.366  16.872  15.268  1.00  0.00     0.186 HD
ENDROOT
BRANCH   1  10
HETATM   10  S1  UNL     1       1.624  15.397  12.842  1.00  0.00     0.081 S 
HETATM   11  C1  UNL     1       2.419  13.953  12.172  1.00  0.00     0.136 C 
HETATM   12  O1  UNL     1       0.288  15.724  11.874  1.00  0.00    -0.250 OA
ENDBRANCH   1  10
BRANCH   4  13
HETATM   13  N2  UNL     1      -0.172  12.208  16.132  1.00  0.00    -0.234 N 
ATOM     14  H22 UNL     1      -1.125  11.884  15.967  1.00  0.00     0.174 HD
ATOM     15  H21 UNL     1       0.514  11.525  16.454  1.00  0.00     0.174 HD
ENDBRANCH   4  13
BRANCH   7  16
HETATM   16  N4  UNL     1       0.592  16.465  17.665  1.00  0.00    -0.234 N 
ATOM     17  H42 UNL     1      -0.143  17.160  17.798  1.00  0.00     0.174 HD
ATOM     18  H41 UNL     1       1.346  16.436  18.352  1.00  0.00     0.174 HD
ENDBRANCH   7  16
TORSDOF 3
ENDMDL
MODEL 5
REMARK VINA RESULT: -4.938853505      2.352      3.583
REMARK  3 active torsions:
REMARK  status: ('A' for Active; 'I' for Inactive)
REMARK    1  A    between atoms: S1_2  and  C2_4 
REMARK    2  A    between atoms: C3_7  and  N2_8 
REMARK    3  A    between atoms: C4_13  and  N4_14 
ROOT
HETATM    1  C2  UNL     1       1.179  15.280  16.023  1.00  0.00     0.203 A 
HETATM    2  N1  UNL     1       1.378  15.260  14.677  1.00  0.00    -0.167 N 
ATOM      3  H1  UNL     1       1.848  16.053  14.240  1.00  0.00     0.186 HD
HETATM    4  C3  UNL     1       0.979  14.239  13.903  1.00  0.00     0.692 A 
HETATM    5  N3  UNL     1       0.359  13.205  14.497  1.00  0.00    -0.023 N 
ATOM      6  H3  UNL     1       0.047  12.419  13.927  1.00  0.00     0.203 HD
HETATM    7  C4  UNL     1       0.139  13.179  15.831  1.00  0.00     0.692 A 
HETATM    8  N5  UNL     1       0.561  14.227  16.551  1.00  0.00    -0.167 N 
ATOM      9  H5  UNL     1       0.399  14.217  17.557  1.00  0.00     0.186 HD
ENDROOT
BRANCH   1  10
HETATM   10  S1  UNL     1       1.738  16.655  16.933  1.00  0.00     0.081 S 
HETATM   11  C1  UNL     1       2.756  16.080  18.275  1.00  0.00     0.136 C 
HETATM   12  O1  UNL     1       2.709  17.608  15.944  1.00  0.00    -0.250 OA
ENDBRANCH   1  10
BRANCH   4  13
HETATM   13  N2  UNL     1       1.210  14.309  12.638  1.00  0.00    -0.234 N 
ATOM     14  H22 UNL     1       0.556  13.997  11.921  1.00  0.00     0.174 HD
ATOM     15  H21 UNL     1       2.101  14.701  12.333  1.00  0.00     0.174 HD
ENDBRANCH   4  13
BRANCH   7  16
HETATM   16  N4  UNL     1      -0.460  12.152  16.327  1.00  0.00    -0.234 N 
ATOM     17  H42 UNL     1      -0.059  11.543  17.040  1.00  0.00     0.174 HD
ATOM     18  H41 UNL     1      -1.397  11.932  15.989  1.00  0.00     0.174 HD
ENDBRANCH   7  16
TORSDOF 3
ENDMDL
