MODEL 1
REMARK VINA RESULT: -7.104510869      0.000      0.000
REMARK  15 active torsions:
REMARK  status: ('A' for Active; 'I' for Inactive)
REMARK    1  A    between atoms: O1_2  and  C2_3 
REMARK    2  A    between atoms: C2_3  and  C3_5 
REMARK    3  A    between atoms: C3_5  and  O3_7 
REMARK    4  A    between atoms: O3_7  and  C5_8 
REMARK    5  A    between atoms: C5_8  and  C6_9 
REMARK    6  A    between atoms: C5_8  and  C12_32 
REMARK       I    between atoms: C6_9  and  N1_11 
REMARK       I    between atoms: N1_11  and  C7_13 
REMARK    7  A    between atoms: C7_13  and  C8_15 
REMARK    8  A    between atoms: C9_18  and  N3_19 
REMARK    9  A    between atoms: N3_19  and  N4_21 
REMARK   10  A    between atoms: C10_26  and  N6_27 
REMARK   11  A    between atoms: C13_33  and  O6_34 
REMARK   12  A    between atoms: C16_38  and  O7_39 
REMARK   13  A    between atoms: O7_39  and  C17_40 
REMARK   14  A    between atoms: C19_43  and  O9_44 
REMARK   15  A    between atoms: C22_47  and  O10_48 
ROOT
HETATM    1  C5  UNL     1      23.477  -6.817 -16.468  1.00  0.00     0.251 C 
ENDROOT
BRANCH   1   2
HETATM    2  O3  UNL     1      22.315  -7.528 -16.640  1.00  0.00    -0.357 OA
BRANCH   2   3
HETATM    3  C3  UNL     1      22.410  -8.642 -17.461  1.00  0.00     0.218 C 
HETATM    4  C4  UNL     1      22.150  -9.952 -16.776  1.00  0.00     0.050 C 
BRANCH   3   5
HETATM    5  C2  UNL     1      21.434  -8.492 -18.611  1.00  0.00     0.287 C 
HETATM    6  O2  UNL     1      20.200  -8.476 -18.414  1.00  0.00    -0.262 OA
BRANCH   5   7
HETATM    7  O1  UNL     1      21.907  -8.372 -19.895  1.00  0.00    -0.324 OA
HETATM    8  C1  UNL     1      23.189  -7.941 -20.243  1.00  0.00     0.213 C 
ENDBRANCH   5   7
ENDBRANCH   3   5
ENDBRANCH   2   3
ENDBRANCH   1   2
BRANCH   1   9
HETATM    9  C6  UNL     1      23.950  -6.771 -15.032  1.00  0.00     0.258 C 
HETATM   10  O4  UNL     1      25.121  -7.126 -14.876  1.00  0.00    -0.270 OA
HETATM   11  N1  UNL     1      23.108  -6.362 -14.002  1.00  0.00    -0.290 N 
HETATM   12  C7  UNL     1      23.302  -6.245 -12.644  1.00  0.00     0.277 C 
ATOM     13  H1  UNL     1      22.171  -6.100 -14.311  1.00  0.00     0.172 HD
HETATM   14  O5  UNL     1      22.381  -5.665 -11.943  1.00  0.00    -0.266 OA
BRANCH  12  15
HETATM   15  C8  UNL     1      24.419  -6.684 -11.843  1.00  0.00     0.142 A 
HETATM   16  N2  UNL     1      25.252  -5.867 -11.230  1.00  0.00    -0.183 N 
HETATM   17  C9  UNL     1      26.270  -6.284 -10.434  1.00  0.00     0.698 A 
ATOM     18  H2  UNL     1      25.124  -4.863 -11.361  1.00  0.00     0.184 HD
HETATM   19  N5  UNL     1      26.440  -7.592 -10.265  1.00  0.00    -0.174 N 
HETATM   20  C10 UNL     1      25.632  -8.477 -10.859  1.00  0.00     0.139 A 
ATOM     21  H5  UNL     1      27.199  -7.926  -9.671  1.00  0.00     0.186 HD
HETATM   22  C11 UNL     1      24.605  -8.060 -11.661  1.00  0.00     0.111 A 
HETATM   23 CL1  UNL     1      23.545  -9.198 -12.442  1.00  0.00    -0.078 Cl
BRANCH  17  24
HETATM   24  N3  UNL     1      27.054  -5.419  -9.857  1.00  0.00    -0.138 N 
ATOM     25  H3  UNL     1      28.043  -5.396 -10.104  1.00  0.00     0.205 HD
BRANCH  24  26
HETATM   26  N4  UNL     1      26.563  -4.522  -8.906  1.00  0.00    -0.331 N 
ATOM     27  H42 UNL     1      25.753  -3.952  -9.148  1.00  0.00     0.177 HD
ATOM     28  H41 UNL     1      27.001  -4.435  -7.989  1.00  0.00     0.177 HD
ENDBRANCH  24  26
ENDBRANCH  17  24
BRANCH  20  29
HETATM   29  N6  UNL     1      25.857  -9.745 -10.650  1.00  0.00    -0.384 N 
ATOM     30  H62 UNL     1      26.642 -10.224 -11.092  1.00  0.00     0.157 HD
ATOM     31  H61 UNL     1      25.223 -10.245 -10.028  1.00  0.00     0.157 HD
ENDBRANCH  20  29
ENDBRANCH  12  15
ENDBRANCH   1   9
BRANCH   1  32
HETATM   32  C12 UNL     1      23.544  -5.518 -17.129  1.00  0.00     0.023 C 
HETATM   33  C13 UNL     1      22.604  -4.543 -16.777  1.00  0.00     0.076 C 
HETATM   34  C14 UNL     1      22.539  -3.188 -17.128  1.00  0.00     0.052 C 
HETATM   35  C15 UNL     1      23.017  -2.615 -18.269  1.00  0.00     0.020 A 
HETATM   36  C16 UNL     1      22.482  -1.365 -18.492  1.00  0.00     0.123 A 
HETATM   37  C23 UNL     1      23.939  -3.133 -19.184  1.00  0.00     0.061 A 
HETATM   38  C19 UNL     1      22.839  -0.623 -19.596  1.00  0.00     0.105 A 
HETATM   39  C21 UNL     1      23.755  -1.171 -20.478  1.00  0.00     0.077 A 
HETATM   40  C22 UNL     1      24.316  -2.412 -20.300  1.00  0.00     0.083 A 
HETATM   41  C24 UNL     1      24.557  -4.366 -19.089  1.00  0.00     0.192 C 
HETATM   42  O11 UNL     1      25.244  -4.647 -20.105  1.00  0.00    -0.287 OA
HETATM   43  C25 UNL     1      24.526  -5.311 -18.059  1.00  0.00     0.001 C 
HETATM   44  C26 UNL     1      25.704  -6.161 -17.988  1.00  0.00     0.053 C 
BRANCH  33  45
HETATM   45  O6  UNL     1      21.587  -4.993 -15.959  1.00  0.00    -0.360 OA
ATOM     46  H6  UNL     1      20.741  -5.065 -16.383  1.00  0.00     0.217 HD
ENDBRANCH  33  45
BRANCH  36  47
HETATM   47  O7  UNL     1      21.572  -0.876 -17.572  1.00  0.00    -0.275 OA
BRANCH  47  48
HETATM   48  C17 UNL     1      20.259  -1.359 -17.543  1.00  0.00     0.260 C 
HETATM   49  C18 UNL     1      19.523  -1.367 -18.834  1.00  0.00     0.126 C 
HETATM   50  O8  UNL     1      19.796  -1.745 -16.458  1.00  0.00    -0.265 OA
ENDBRANCH  47  48
ENDBRANCH  36  47
BRANCH  38  51
HETATM   51  O9  UNL     1      22.280   0.629 -19.786  1.00  0.00    -0.353 OA
HETATM   52  C20 UNL     1      21.508   0.873 -20.948  1.00  0.00     0.210 C 
ENDBRANCH  38  51
BRANCH  40  53
HETATM   53  O10 UNL     1      25.228  -2.970 -21.168  1.00  0.00    -0.360 OA
ATOM     54  H10 UNL     1      25.775  -2.462 -21.754  1.00  0.00     0.217 HD
ENDBRANCH  40  53
ENDBRANCH   1  32
TORSDOF 15
ENDMDL
MODEL 2
REMARK VINA RESULT: -7.037462007      3.283      5.778
REMARK  15 active torsions:
REMARK  status: ('A' for Active; 'I' for Inactive)
REMARK    1  A    between atoms: O1_2  and  C2_3 
REMARK    2  A    between atoms: C2_3  and  C3_5 
REMARK    3  A    between atoms: C3_5  and  O3_7 
REMARK    4  A    between atoms: O3_7  and  C5_8 
REMARK    5  A    between atoms: C5_8  and  C6_9 
REMARK    6  A    between atoms: C5_8  and  C12_32 
REMARK       I    between atoms: C6_9  and  N1_11 
REMARK       I    between atoms: N1_11  and  C7_13 
REMARK    7  A    between atoms: C7_13  and  C8_15 
REMARK    8  A    between atoms: C9_18  and  N3_19 
REMARK    9  A    between atoms: N3_19  and  N4_21 
REMARK   10  A    between atoms: C10_26  and  N6_27 
REMARK   11  A    between atoms: C13_33  and  O6_34 
REMARK   12  A    between atoms: C16_38  and  O7_39 
REMARK   13  A    between atoms: O7_39  and  C17_40 
REMARK   14  A    between atoms: C19_43  and  O9_44 
REMARK   15  A    between atoms: C22_47  and  O10_48 
ROOT
HETATM    1  C5  UNL     1      22.887  -6.995 -14.802  1.00  0.00     0.251 C 
ENDROOT
BRANCH   1   2
HETATM    2  O3  UNL     1      23.737  -7.111 -13.729  1.00  0.00    -0.357 OA
BRANCH   2   3
HETATM    3  C3  UNL     1      23.250  -6.628 -12.524  1.00  0.00     0.218 C 
HETATM    4  C4  UNL     1      23.473  -7.533 -11.347  1.00  0.00     0.050 C 
BRANCH   3   5
HETATM    5  C2  UNL     1      23.894  -5.287 -12.234  1.00  0.00     0.287 C 
HETATM    6  O2  UNL     1      23.204  -4.285 -11.952  1.00  0.00    -0.262 OA
BRANCH   5   7
HETATM    7  O1  UNL     1      25.262  -5.164 -12.284  1.00  0.00    -0.324 OA
HETATM    8  C1  UNL     1      26.088  -4.913 -11.187  1.00  0.00     0.213 C 
ENDBRANCH   5   7
ENDBRANCH   3   5
ENDBRANCH   2   3
ENDBRANCH   1   2
BRANCH   1   9
HETATM    9  C6  UNL     1      22.561  -8.317 -15.460  1.00  0.00     0.258 C 
HETATM   10  O4  UNL     1      22.960  -9.302 -14.834  1.00  0.00    -0.270 OA
HETATM   11  N1  UNL     1      21.873  -8.378 -16.668  1.00  0.00    -0.290 N 
HETATM   12  C7  UNL     1      21.473  -9.439 -17.449  1.00  0.00     0.277 C 
ATOM     13  H1  UNL     1      21.615  -7.466 -17.046  1.00  0.00     0.172 HD
HETATM   14  O5  UNL     1      20.685  -9.201 -18.448  1.00  0.00    -0.266 OA
BRANCH  12  15
HETATM   15  C8  UNL     1      21.808 -10.837 -17.325  1.00  0.00     0.142 A 
HETATM   16  N2  UNL     1      21.051 -11.723 -16.708  1.00  0.00    -0.183 N 
HETATM   17  C9  UNL     1      21.344 -13.048 -16.638  1.00  0.00     0.698 A 
ATOM     18  H2  UNL     1      20.197 -11.395 -16.257  1.00  0.00     0.184 HD
HETATM   19  N5  UNL     1      22.458 -13.477 -17.223  1.00  0.00    -0.174 N 
HETATM   20  C10 UNL     1      23.273 -12.631 -17.864  1.00  0.00     0.139 A 
ATOM     21  H5  UNL     1      22.696 -14.468 -17.183  1.00  0.00     0.186 HD
HETATM   22  C11 UNL     1      22.981 -11.297 -17.936  1.00  0.00     0.111 A 
HETATM   23 CL1  UNL     1      24.030 -10.182 -18.766  1.00  0.00    -0.078 Cl
BRANCH  17  24
HETATM   24  N3  UNL     1      20.548 -13.868 -16.014  1.00  0.00    -0.138 N 
ATOM     25  H3  UNL     1      19.547 -13.675 -15.991  1.00  0.00     0.205 HD
BRANCH  24  26
HETATM   26  N4  UNL     1      21.042 -15.007 -15.375  1.00  0.00    -0.331 N 
ATOM     27  H42 UNL     1      22.011 -15.004 -15.059  1.00  0.00     0.177 HD
ATOM     28  H41 UNL     1      20.452 -15.825 -15.225  1.00  0.00     0.177 HD
ENDBRANCH  24  26
ENDBRANCH  17  24
BRANCH  20  29
HETATM   29  N6  UNL     1      24.350 -13.119 -18.414  1.00  0.00    -0.384 N 
ATOM     30  H62 UNL     1      24.539 -14.122 -18.411  1.00  0.00     0.157 HD
ATOM     31  H61 UNL     1      25.000 -12.467 -18.851  1.00  0.00     0.157 HD
ENDBRANCH  20  29
ENDBRANCH  12  15
ENDBRANCH   1   9
BRANCH   1  32
HETATM   32  C12 UNL     1      23.201  -5.943 -15.764  1.00  0.00     0.023 C 
HETATM   33  C13 UNL     1      22.417  -4.784 -15.762  1.00  0.00     0.076 C 
HETATM   34  C14 UNL     1      22.594  -3.577 -16.452  1.00  0.00     0.052 C 
HETATM   35  C15 UNL     1      23.218  -3.406 -17.652  1.00  0.00     0.020 A 
HETATM   36  C16 UNL     1      22.908  -2.197 -18.236  1.00  0.00     0.123 A 
HETATM   37  C23 UNL     1      24.089  -4.277 -18.313  1.00  0.00     0.061 A 
HETATM   38  C19 UNL     1      23.440  -1.836 -19.454  1.00  0.00     0.105 A 
HETATM   39  C21 UNL     1      24.298  -2.727 -20.077  1.00  0.00     0.077 A 
HETATM   40  C22 UNL     1      24.637  -3.943 -19.536  1.00  0.00     0.083 A 
HETATM   41  C24 UNL     1      24.490  -5.516 -17.849  1.00  0.00     0.192 C 
HETATM   42  O11 UNL     1      25.173  -6.154 -18.691  1.00  0.00    -0.287 OA
HETATM   43  C25 UNL     1      24.251  -6.137 -16.619  1.00  0.00     0.001 C 
HETATM   44  C26 UNL     1      25.267  -7.099 -16.224  1.00  0.00     0.053 C 
BRANCH  33  45
HETATM   45  O6  UNL     1      21.299  -4.847 -14.955  1.00  0.00    -0.360 OA
ATOM     46  H6  UNL     1      20.641  -4.188 -15.138  1.00  0.00     0.217 HD
ENDBRANCH  33  45
BRANCH  36  47
HETATM   47  O7  UNL     1      22.045  -1.353 -17.560  1.00  0.00    -0.275 OA
BRANCH  47  48
HETATM   48  C17 UNL     1      20.660  -1.478 -17.716  1.00  0.00     0.260 C 
HETATM   49  C18 UNL     1      20.108  -1.152 -19.057  1.00  0.00     0.126 C 
HETATM   50  O8  UNL     1      19.987  -1.847 -16.740  1.00  0.00    -0.265 OA
ENDBRANCH  47  48
ENDBRANCH  36  47
BRANCH  38  51
HETATM   51  O9  UNL     1      23.104  -0.613 -20.009  1.00  0.00    -0.353 OA
HETATM   52  C20 UNL     1      24.001   0.475 -19.880  1.00  0.00     0.210 C 
ENDBRANCH  38  51
BRANCH  40  53
HETATM   53  O10 UNL     1      25.488  -4.838 -20.144  1.00  0.00    -0.360 OA
ATOM     54  H10 UNL     1      25.192  -5.593 -20.639  1.00  0.00     0.217 HD
ENDBRANCH  40  53
ENDBRANCH   1  32
TORSDOF 15
ENDMDL
MODEL 3
REMARK VINA RESULT: -6.932236333      1.170      1.524
REMARK  15 active torsions:
REMARK  status: ('A' for Active; 'I' for Inactive)
REMARK    1  A    between atoms: O1_2  and  C2_3 
REMARK    2  A    between atoms: C2_3  and  C3_5 
REMARK    3  A    between atoms: C3_5  and  O3_7 
REMARK    4  A    between atoms: O3_7  and  C5_8 
REMARK    5  A    between atoms: C5_8  and  C6_9 
REMARK    6  A    between atoms: C5_8  and  C12_32 
REMARK       I    between atoms: C6_9  and  N1_11 
REMARK       I    between atoms: N1_11  and  C7_13 
REMARK    7  A    between atoms: C7_13  and  C8_15 
REMARK    8  A    between atoms: C9_18  and  N3_19 
REMARK    9  A    between atoms: N3_19  and  N4_21 
REMARK   10  A    between atoms: C10_26  and  N6_27 
REMARK   11  A    between atoms: C13_33  and  O6_34 
REMARK   12  A    between atoms: C16_38  and  O7_39 
REMARK   13  A    between atoms: O7_39  and  C17_40 
REMARK   14  A    between atoms: C19_43  and  O9_44 
REMARK   15  A    between atoms: C22_47  and  O10_48 
ROOT
HETATM    1  C5  UNL     1      23.263  -6.244 -16.607  1.00  0.00     0.251 C 
ENDROOT
BRANCH   1   2
HETATM    2  O3  UNL     1      21.995  -6.764 -16.703  1.00  0.00    -0.357 OA
BRANCH   2   3
HETATM    3  C3  UNL     1      21.921  -8.104 -17.051  1.00  0.00     0.218 C 
HETATM    4  C4  UNL     1      21.256  -8.983 -16.032  1.00  0.00     0.050 C 
BRANCH   3   5
HETATM    5  C2  UNL     1      21.176  -8.231 -18.364  1.00  0.00     0.287 C 
HETATM    6  O2  UNL     1      19.930  -8.319 -18.395  1.00  0.00    -0.262 OA
BRANCH   5   7
HETATM    7  O1  UNL     1      21.877  -8.253 -19.546  1.00  0.00    -0.324 OA
HETATM    8  C1  UNL     1      23.124  -8.853 -19.731  1.00  0.00     0.213 C 
ENDBRANCH   5   7
ENDBRANCH   3   5
ENDBRANCH   2   3
ENDBRANCH   1   2
BRANCH   1   9
HETATM    9  C6  UNL     1      23.817  -6.258 -15.200  1.00  0.00     0.258 C 
HETATM   10  O4  UNL     1      25.031  -6.471 -15.139  1.00  0.00    -0.270 OA
HETATM   11  N1  UNL     1      22.998  -6.050 -14.094  1.00  0.00    -0.290 N 
HETATM   12  C7  UNL     1      23.263  -6.023 -12.743  1.00  0.00     0.277 C 
ATOM     13  H1  UNL     1      22.019  -5.886 -14.328  1.00  0.00     0.172 HD
HETATM   14  O5  UNL     1      22.324  -5.628 -11.944  1.00  0.00    -0.266 OA
BRANCH  12  15
HETATM   15  C8  UNL     1      24.474  -6.380 -12.046  1.00  0.00     0.142 A 
HETATM   16  N2  UNL     1      25.360  -5.504 -11.613  1.00  0.00    -0.183 N 
HETATM   17  C9  UNL     1      26.473  -5.840 -10.911  1.00  0.00     0.698 A 
ATOM     18  H2  UNL     1      25.200  -4.518 -11.817  1.00  0.00     0.184 HD
HETATM   19  N5  UNL     1      26.685  -7.126 -10.646  1.00  0.00    -0.174 N 
HETATM   20  C10 UNL     1      25.828  -8.067 -11.058  1.00  0.00     0.139 A 
ATOM     21  H5  UNL     1      27.515  -7.399 -10.120  1.00  0.00     0.186 HD
HETATM   22  C11 UNL     1      24.706  -7.732 -11.764  1.00  0.00     0.111 A 
HETATM   23 CL1  UNL     1      23.580  -8.943 -12.308  1.00  0.00    -0.078 Cl
BRANCH  17  24
HETATM   24  N3  UNL     1      27.304  -4.921 -10.512  1.00  0.00    -0.138 N 
ATOM     25  H3  UNL     1      28.217  -5.194 -10.148  1.00  0.00     0.205 HD
BRANCH  24  26
HETATM   26  N4  UNL     1      26.968  -3.567 -10.574  1.00  0.00    -0.331 N 
ATOM     27  H42 UNL     1      27.468  -2.972 -11.234  1.00  0.00     0.177 HD
ATOM     28  H41 UNL     1      26.240  -3.177  -9.976  1.00  0.00     0.177 HD
ENDBRANCH  24  26
ENDBRANCH  17  24
BRANCH  20  29
HETATM   29  N6  UNL     1      26.098  -9.309 -10.765  1.00  0.00    -0.384 N 
ATOM     30  H62 UNL     1      27.006  -9.578 -10.386  1.00  0.00     0.157 HD
ATOM     31  H61 UNL     1      25.371 -10.006 -10.924  1.00  0.00     0.157 HD
ENDBRANCH  20  29
ENDBRANCH  12  15
ENDBRANCH   1   9
BRANCH   1  32
HETATM   32  C12 UNL     1      23.496  -4.979 -17.297  1.00  0.00     0.023 C 
HETATM   33  C13 UNL     1      22.906  -3.821 -16.780  1.00  0.00     0.076 C 
HETATM   34  C14 UNL     1      23.091  -2.479 -17.140  1.00  0.00     0.052 C 
HETATM   35  C15 UNL     1      23.446  -2.004 -18.367  1.00  0.00     0.020 A 
HETATM   36  C16 UNL     1      23.186  -0.657 -18.502  1.00  0.00     0.123 A 
HETATM   37  C23 UNL     1      24.011  -2.698 -19.440  1.00  0.00     0.061 A 
HETATM   38  C19 UNL     1      23.474   0.010 -19.672  1.00  0.00     0.105 A 
HETATM   39  C21 UNL     1      24.033  -0.713 -20.712  1.00  0.00     0.077 A 
HETATM   40  C22 UNL     1      24.310  -2.055 -20.626  1.00  0.00     0.083 A 
HETATM   41  C24 UNL     1      24.327  -4.044 -19.448  1.00  0.00     0.192 C 
HETATM   42  O11 UNL     1      24.704  -4.450 -20.578  1.00  0.00    -0.287 OA
HETATM   43  C25 UNL     1      24.287  -4.984 -18.413  1.00  0.00     0.001 C 
HETATM   44  C26 UNL     1      25.219  -6.089 -18.568  1.00  0.00     0.053 C 
BRANCH  33  45
HETATM   45  O6  UNL     1      22.003  -4.041 -15.760  1.00  0.00    -0.360 OA
ATOM     46  H6  UNL     1      21.739  -3.261 -15.288  1.00  0.00     0.217 HD
ENDBRANCH  33  45
BRANCH  36  47
HETATM   47  O7  UNL     1      22.627   0.006 -17.425  1.00  0.00    -0.275 OA
BRANCH  47  48
HETATM   48  C17 UNL     1      23.346   0.995 -16.746  1.00  0.00     0.260 C 
HETATM   49  C18 UNL     1      24.787   0.723 -16.504  1.00  0.00     0.126 C 
HETATM   50  O8  UNL     1      22.747   2.022 -16.391  1.00  0.00    -0.265 OA
ENDBRANCH  47  48
ENDBRANCH  36  47
BRANCH  38  51
HETATM   51  O9  UNL     1      23.198   1.364 -19.770  1.00  0.00    -0.353 OA
HETATM   52  C20 UNL     1      21.998   1.782 -20.393  1.00  0.00     0.210 C 
ENDBRANCH  38  51
BRANCH  40  53
HETATM   53  O10 UNL     1      24.866  -2.788 -21.651  1.00  0.00    -0.360 OA
ATOM     54  H10 UNL     1      25.241  -2.400 -22.432  1.00  0.00     0.217 HD
ENDBRANCH  40  53
ENDBRANCH   1  32
TORSDOF 15
ENDMDL
MODEL 4
REMARK VINA RESULT: -6.914008140      1.419      2.013
REMARK  15 active torsions:
REMARK  status: ('A' for Active; 'I' for Inactive)
REMARK    1  A    between atoms: O1_2  and  C2_3 
REMARK    2  A    between atoms: C2_3  and  C3_5 
REMARK    3  A    between atoms: C3_5  and  O3_7 
REMARK    4  A    between atoms: O3_7  and  C5_8 
REMARK    5  A    between atoms: C5_8  and  C6_9 
REMARK    6  A    between atoms: C5_8  and  C12_32 
REMARK       I    between atoms: C6_9  and  N1_11 
REMARK       I    between atoms: N1_11  and  C7_13 
REMARK    7  A    between atoms: C7_13  and  C8_15 
REMARK    8  A    between atoms: C9_18  and  N3_19 
REMARK    9  A    between atoms: N3_19  and  N4_21 
REMARK   10  A    between atoms: C10_26  and  N6_27 
REMARK   11  A    between atoms: C13_33  and  O6_34 
REMARK   12  A    between atoms: C16_38  and  O7_39 
REMARK   13  A    between atoms: O7_39  and  C17_40 
REMARK   14  A    between atoms: C19_43  and  O9_44 
REMARK   15  A    between atoms: C22_47  and  O10_48 
ROOT
HETATM    1  C5  UNL     1      23.488  -7.021 -16.535  1.00  0.00     0.251 C 
ENDROOT
BRANCH   1   2
HETATM    2  O3  UNL     1      22.283  -7.680 -16.563  1.00  0.00    -0.357 OA
BRANCH   2   3
HETATM    3  C3  UNL     1      22.227  -8.793 -17.388  1.00  0.00     0.218 C 
HETATM    4  C4  UNL     1      21.808 -10.062 -16.705  1.00  0.00     0.050 C 
BRANCH   3   5
HETATM    5  C2  UNL     1      21.265  -8.514 -18.526  1.00  0.00     0.287 C 
HETATM    6  O2  UNL     1      20.056  -8.288 -18.311  1.00  0.00    -0.262 OA
BRANCH   5   7
HETATM    7  O1  UNL     1      21.727  -8.509 -19.821  1.00  0.00    -0.324 OA
HETATM    8  C1  UNL     1      22.990  -8.073 -20.223  1.00  0.00     0.213 C 
ENDBRANCH   5   7
ENDBRANCH   3   5
ENDBRANCH   2   3
ENDBRANCH   1   2
BRANCH   1   9
HETATM    9  C6  UNL     1      24.151  -7.032 -15.176  1.00  0.00     0.258 C 
HETATM   10  O4  UNL     1      23.561  -6.362 -14.323  1.00  0.00    -0.270 OA
HETATM   11  N1  UNL     1      25.324  -7.744 -14.944  1.00  0.00    -0.290 N 
HETATM   12  C7  UNL     1      26.102  -7.899 -13.819  1.00  0.00     0.277 C 
ATOM     13  H1  UNL     1      25.674  -8.245 -15.761  1.00  0.00     0.172 HD
HETATM   14  O5  UNL     1      27.056  -8.772 -13.850  1.00  0.00    -0.266 OA
BRANCH  12  15
HETATM   15  C8  UNL     1      26.017  -7.212 -12.552  1.00  0.00     0.142 A 
HETATM   16  N2  UNL     1      25.354  -7.670 -11.509  1.00  0.00    -0.183 N 
HETATM   17  C9  UNL     1      25.319  -7.047 -10.303  1.00  0.00     0.698 A 
ATOM     18  H2  UNL     1      24.836  -8.543 -11.614  1.00  0.00     0.184 HD
HETATM   19  N5  UNL     1      25.991  -5.907 -10.165  1.00  0.00    -0.174 N 
HETATM   20  C10 UNL     1      26.683  -5.385 -11.184  1.00  0.00     0.139 A 
ATOM     21  H5  UNL     1      25.979  -5.423  -9.267  1.00  0.00     0.186 HD
HETATM   22  C11 UNL     1      26.720  -6.011 -12.399  1.00  0.00     0.111 A 
HETATM   23 CL1  UNL     1      27.616  -5.345 -13.736  1.00  0.00    -0.078 Cl
BRANCH  17  24
HETATM   24  N3  UNL     1      24.645  -7.559  -9.314  1.00  0.00    -0.138 N 
ATOM     25  H3  UNL     1      23.785  -8.073  -9.507  1.00  0.00     0.205 HD
BRANCH  24  26
HETATM   26  N4  UNL     1      25.078  -7.417  -7.995  1.00  0.00    -0.331 N 
ATOM     27  H42 UNL     1      25.075  -8.238  -7.391  1.00  0.00     0.177 HD
ATOM     28  H41 UNL     1      25.391  -6.514  -7.637  1.00  0.00     0.177 HD
ENDBRANCH  24  26
ENDBRANCH  17  24
BRANCH  20  29
HETATM   29  N6  UNL     1      27.318  -4.264 -10.979  1.00  0.00    -0.384 N 
ATOM     30  H62 UNL     1      28.336  -4.215 -11.025  1.00  0.00     0.157 HD
ATOM     31  H61 UNL     1      26.764  -3.433 -10.773  1.00  0.00     0.157 HD
ENDBRANCH  20  29
ENDBRANCH  12  15
ENDBRANCH   1   9
BRANCH   1  32
HETATM   32  C12 UNL     1      23.523  -5.710 -17.174  1.00  0.00     0.023 C 
HETATM   33  C13 UNL     1      22.601  -4.743 -16.757  1.00  0.00     0.076 C 
HETATM   34  C14 UNL     1      22.520  -3.381 -17.078  1.00  0.00     0.052 C 
HETATM   35  C15 UNL     1      22.942  -2.786 -18.230  1.00  0.00     0.020 A 
HETATM   36  C16 UNL     1      22.396  -1.532 -18.402  1.00  0.00     0.123 A 
HETATM   37  C23 UNL     1      23.817  -3.285 -19.198  1.00  0.00     0.061 A 
HETATM   38  C19 UNL     1      22.700  -0.769 -19.507  1.00  0.00     0.105 A 
HETATM   39  C21 UNL     1      23.571  -1.299 -20.444  1.00  0.00     0.077 A 
HETATM   40  C22 UNL     1      24.140  -2.542 -20.317  1.00  0.00     0.083 A 
HETATM   41  C24 UNL     1      24.439  -4.519 -19.157  1.00  0.00     0.192 C 
HETATM   42  O11 UNL     1      25.076  -4.780 -20.211  1.00  0.00    -0.287 OA
HETATM   43  C25 UNL     1      24.459  -5.484 -18.146  1.00  0.00     0.001 C 
HETATM   44  C26 UNL     1      25.638  -6.335 -18.149  1.00  0.00     0.053 C 
BRANCH  33  45
HETATM   45  O6  UNL     1      21.626  -5.209 -15.900  1.00  0.00    -0.360 OA
ATOM     46  H6  UNL     1      21.921  -5.363 -15.010  1.00  0.00     0.217 HD
ENDBRANCH  33  45
BRANCH  36  47
HETATM   47  O7  UNL     1      21.533  -1.062 -17.429  1.00  0.00    -0.275 OA
BRANCH  47  48
HETATM   48  C17 UNL     1      20.196  -1.475 -17.403  1.00  0.00     0.260 C 
HETATM   49  C18 UNL     1      19.472  -1.470 -18.701  1.00  0.00     0.126 C 
HETATM   50  O8  UNL     1      19.705  -1.815 -16.315  1.00  0.00    -0.265 OA
ENDBRANCH  47  48
ENDBRANCH  36  47
BRANCH  38  51
HETATM   51  O9  UNL     1      22.132   0.486 -19.645  1.00  0.00    -0.353 OA
HETATM   52  C20 UNL     1      21.481   0.822 -20.857  1.00  0.00     0.210 C 
ENDBRANCH  38  51
BRANCH  40  53
HETATM   53  O10 UNL     1      25.008  -3.083 -21.239  1.00  0.00    -0.360 OA
ATOM     54  H10 UNL     1      25.881  -2.746 -21.401  1.00  0.00     0.217 HD
ENDBRANCH  40  53
ENDBRANCH   1  32
TORSDOF 15
ENDMDL
MODEL 5
REMARK VINA RESULT: -6.867584846      1.309      1.576
REMARK  15 active torsions:
REMARK  status: ('A' for Active; 'I' for Inactive)
REMARK    1  A    between atoms: O1_2  and  C2_3 
REMARK    2  A    between atoms: C2_3  and  C3_5 
REMARK    3  A    between atoms: C3_5  and  O3_7 
REMARK    4  A    between atoms: O3_7  and  C5_8 
REMARK    5  A    between atoms: C5_8  and  C6_9 
REMARK    6  A    between atoms: C5_8  and  C12_32 
REMARK       I    between atoms: C6_9  and  N1_11 
REMARK       I    between atoms: N1_11  and  C7_13 
REMARK    7  A    between atoms: C7_13  and  C8_15 
REMARK    8  A    between atoms: C9_18  and  N3_19 
REMARK    9  A    between atoms: N3_19  and  N4_21 
REMARK   10  A    between atoms: C10_26  and  N6_27 
REMARK   11  A    between atoms: C13_33  and  O6_34 
REMARK   12  A    between atoms: C16_38  and  O7_39 
REMARK   13  A    between atoms: O7_39  and  C17_40 
REMARK   14  A    between atoms: C19_43  and  O9_44 
REMARK   15  A    between atoms: C22_47  and  O10_48 
ROOT
HETATM    1  C5  UNL     1      23.525  -6.849 -16.121  1.00  0.00     0.251 C 
ENDROOT
BRANCH   1   2
HETATM    2  O3  UNL     1      22.313  -7.491 -16.056  1.00  0.00    -0.357 OA
BRANCH   2   3
HETATM    3  C3  UNL     1      22.211  -8.658 -16.798  1.00  0.00     0.218 C 
HETATM    4  C4  UNL     1      21.619  -9.824 -16.061  1.00  0.00     0.050 C 
BRANCH   3   5
HETATM    5  C2  UNL     1      21.373  -8.386 -18.031  1.00  0.00     0.287 C 
HETATM    6  O2  UNL     1      20.126  -8.445 -17.991  1.00  0.00    -0.262 OA
BRANCH   5   7
HETATM    7  O1  UNL     1      21.990  -8.072 -19.218  1.00  0.00    -0.324 OA
HETATM    8  C1  UNL     1      23.268  -8.488 -19.596  1.00  0.00     0.213 C 
ENDBRANCH   5   7
ENDBRANCH   3   5
ENDBRANCH   2   3
ENDBRANCH   1   2
BRANCH   1   9
HETATM    9  C6  UNL     1      24.238  -6.770 -14.790  1.00  0.00     0.258 C 
HETATM   10  O4  UNL     1      25.128  -7.612 -14.644  1.00  0.00    -0.270 OA
HETATM   11  N1  UNL     1      23.892  -5.818 -13.835  1.00  0.00    -0.290 N 
HETATM   12  C7  UNL     1      24.380  -5.556 -12.575  1.00  0.00     0.277 C 
ATOM     13  H1  UNL     1      23.135  -5.197 -14.123  1.00  0.00     0.172 HD
HETATM   14  O5  UNL     1      23.978  -4.482 -11.975  1.00  0.00    -0.266 OA
BRANCH  12  15
HETATM   15  C8  UNL     1      25.310  -6.323 -11.782  1.00  0.00     0.142 A 
HETATM   16  N2  UNL     1      24.953  -7.122 -10.796  1.00  0.00    -0.183 N 
HETATM   17  C9  UNL     1      25.827  -7.881 -10.086  1.00  0.00     0.698 A 
ATOM     18  H2  UNL     1      23.964  -7.171 -10.552  1.00  0.00     0.184 HD
HETATM   19  N5  UNL     1      27.117  -7.815 -10.401  1.00  0.00    -0.174 N 
HETATM   20  C10 UNL     1      27.548  -7.024 -11.389  1.00  0.00     0.139 A 
ATOM     21  H5  UNL     1      27.790  -8.379  -9.880  1.00  0.00     0.186 HD
HETATM   22  C11 UNL     1      26.671  -6.258 -12.106  1.00  0.00     0.111 A 
HETATM   23 CL1  UNL     1      27.215  -5.222 -13.395  1.00  0.00    -0.078 Cl
BRANCH  17  24
HETATM   24  N3  UNL     1      25.403  -8.651  -9.125  1.00  0.00    -0.138 N 
ATOM     25  H3  UNL     1      25.254  -9.643  -9.306  1.00  0.00     0.205 HD
BRANCH  24  26
HETATM   26  N4  UNL     1      25.149  -8.141  -7.850  1.00  0.00    -0.331 N 
ATOM     27  H42 UNL     1      25.793  -8.376  -7.096  1.00  0.00     0.177 HD
ATOM     28  H41 UNL     1      24.339  -7.546  -7.672  1.00  0.00     0.177 HD
ENDBRANCH  24  26
ENDBRANCH  17  24
BRANCH  20  29
HETATM   29  N6  UNL     1      28.827  -7.006 -11.644  1.00  0.00    -0.384 N 
ATOM     30  H62 UNL     1      29.196  -7.351 -12.530  1.00  0.00     0.157 HD
ATOM     31  H61 UNL     1      29.451  -6.635 -10.928  1.00  0.00     0.157 HD
ENDBRANCH  20  29
ENDBRANCH  12  15
ENDBRANCH   1   9
BRANCH   1  32
HETATM   32  C12 UNL     1      23.550  -5.589 -16.856  1.00  0.00     0.023 C 
HETATM   33  C13 UNL     1      22.612  -4.606 -16.522  1.00  0.00     0.076 C 
HETATM   34  C14 UNL     1      22.517  -3.273 -16.944  1.00  0.00     0.052 C 
HETATM   35  C15 UNL     1      22.944  -2.760 -18.133  1.00  0.00     0.020 A 
HETATM   36  C16 UNL     1      22.385  -1.530 -18.404  1.00  0.00     0.123 A 
HETATM   37  C23 UNL     1      23.837  -3.318 -19.053  1.00  0.00     0.061 A 
HETATM   38  C19 UNL     1      22.692  -0.847 -19.560  1.00  0.00     0.105 A 
HETATM   39  C21 UNL     1      23.579  -1.434 -20.446  1.00  0.00     0.077 A 
HETATM   40  C22 UNL     1      24.162  -2.657 -20.221  1.00  0.00     0.083 A 
HETATM   41  C24 UNL     1      24.473  -4.538 -18.914  1.00  0.00     0.192 C 
HETATM   42  O11 UNL     1      25.124  -4.868 -19.939  1.00  0.00    -0.287 OA
HETATM   43  C25 UNL     1      24.494  -5.424 -17.832  1.00  0.00     0.001 C 
HETATM   44  C26 UNL     1      25.683  -6.257 -17.761  1.00  0.00     0.053 C 
BRANCH  33  45
HETATM   45  O6  UNL     1      21.634  -5.019 -15.642  1.00  0.00    -0.360 OA
ATOM     46  H6  UNL     1      21.737  -4.698 -14.754  1.00  0.00     0.217 HD
ENDBRANCH  33  45
BRANCH  36  47
HETATM   47  O7  UNL     1      21.505  -1.000 -17.478  1.00  0.00    -0.275 OA
BRANCH  47  48
HETATM   48  C17 UNL     1      20.177  -1.437 -17.425  1.00  0.00     0.260 C 
HETATM   49  C18 UNL     1      19.420  -1.422 -18.704  1.00  0.00     0.126 C 
HETATM   50  O8  UNL     1      19.720  -1.805 -16.332  1.00  0.00    -0.265 OA
ENDBRANCH  47  48
ENDBRANCH  36  47
BRANCH  38  51
HETATM   51  O9  UNL     1      22.109   0.387 -19.797  1.00  0.00    -0.353 OA
HETATM   52  C20 UNL     1      21.559   0.659 -21.073  1.00  0.00     0.210 C 
ENDBRANCH  38  51
BRANCH  40  53
HETATM   53  O10 UNL     1      25.047  -3.253 -21.091  1.00  0.00    -0.360 OA
ATOM     54  H10 UNL     1      24.815  -3.972 -21.667  1.00  0.00     0.217 HD
ENDBRANCH  40  53
ENDBRANCH   1  32
TORSDOF 15
ENDMDL
