MODEL 1
REMARK VINA RESULT: -6.073836340      0.000      0.000
REMARK  5 active torsions:
REMARK  status: ('A' for Active; 'I' for Inactive)
REMARK    1  A    between atoms: C2_2  and  O1_3 
REMARK    2  A    between atoms: O1_3  and  C3_4 
REMARK    3  A    between atoms: C3_4  and  C4_6 
REMARK    4  A    between atoms: C5_7  and  C6_8 
REMARK    5  A    between atoms: N2_18  and  S2_19 
ROOT
HETATM    1  C4  UNL     1     -43.530  30.453  -1.052  1.00  0.00     0.144 C 
HETATM    2  C5  UNL     1     -42.335  30.555  -1.974  1.00  0.00     0.247 C 
HETATM    3  N1  UNL     1     -41.652  31.825  -1.811  1.00  0.00    -0.039 N 
ATOM      4  H11 UNL     1     -40.787  31.845  -2.350  1.00  0.00     0.281 HD
ATOM      5  H12 UNL     1     -41.265  31.913  -0.871  1.00  0.00     0.281 HD
HETATM    6  C8  UNL     1     -42.485  32.955  -2.131  1.00  0.00     0.198 C 
HETATM    7  C9  UNL     1     -41.812  34.191  -1.592  1.00  0.00     0.071 C 
HETATM    8  C10 UNL     1     -42.471  33.091  -3.661  1.00  0.00     0.071 C 
HETATM    9  N2  UNL     1     -43.814  32.761  -1.687  1.00  0.00    -0.318 N 
HETATM   10  C12 UNL     1     -43.933  31.831  -0.609  1.00  0.00     0.106 C 
HETATM   11  C13 UNL     1     -45.261  31.844   0.068  1.00  0.00     0.034 C 
ENDROOT
BRANCH   1  12
HETATM   12  C3  UNL     1     -44.605  29.660  -1.631  1.00  0.00     0.267 C 
HETATM   13  O2  UNL     1     -44.998  29.974  -2.797  1.00  0.00    -0.265 OA
BRANCH  12  14
HETATM   14  O1  UNL     1     -45.252  28.597  -1.054  1.00  0.00    -0.321 OA
BRANCH  14  15
HETATM   15  C2  UNL     1     -45.408  27.327  -1.608  1.00  0.00     0.174 C 
HETATM   16  C1  UNL     1     -44.946  26.205  -0.740  1.00  0.00     0.034 C 
ENDBRANCH  14  15
ENDBRANCH  12  14
ENDBRANCH   1  12
BRANCH   2  17
HETATM   17  C6  UNL     1     -41.353  29.495  -1.714  1.00  0.00     0.061 A 
HETATM   18  C7  UNL     1     -40.057  29.309  -1.323  1.00  0.00     0.170 A 
HETATM   19  O3  UNL     1     -39.868  27.989  -1.316  1.00  0.00    -0.285 OA
HETATM   20  S1  UNL     1     -41.417  27.809  -1.799  1.00  0.00     0.034 SA
ENDBRANCH   2  17
BRANCH   9  21
HETATM   21  S2  UNL     1     -44.858  34.100  -1.686  1.00  0.00    -0.060 SA
HETATM   22  C11 UNL     1     -46.232  34.076  -2.802  1.00  0.00     0.115 C 
ENDBRANCH   9  21
TORSDOF 5
ENDMDL
MODEL 2
REMARK VINA RESULT: -5.945859744      2.565      3.908
REMARK  5 active torsions:
REMARK  status: ('A' for Active; 'I' for Inactive)
REMARK    1  A    between atoms: C2_2  and  O1_3 
REMARK    2  A    between atoms: O1_3  and  C3_4 
REMARK    3  A    between atoms: C3_4  and  C4_6 
REMARK    4  A    between atoms: C5_7  and  C6_8 
REMARK    5  A    between atoms: N2_18  and  S2_19 
ROOT
HETATM    1  C4  UNL     1     -44.286  28.269  -0.909  1.00  0.00     0.144 C 
HETATM    2  C5  UNL     1     -43.350  27.171  -1.364  1.00  0.00     0.247 C 
HETATM    3  N1  UNL     1     -41.978  27.463  -0.991  1.00  0.00    -0.039 N 
ATOM      4  H11 UNL     1     -41.368  26.672  -1.199  1.00  0.00     0.281 HD
ATOM      5  H12 UNL     1     -41.875  27.490   0.024  1.00  0.00     0.281 HD
HETATM    6  C8  UNL     1     -41.478  28.671  -1.592  1.00  0.00     0.198 C 
HETATM    7  C9  UNL     1     -40.213  29.056  -0.868  1.00  0.00     0.071 C 
HETATM    8  C10 UNL     1     -41.059  28.309  -3.024  1.00  0.00     0.071 C 
HETATM    9  N2  UNL     1     -42.470  29.679  -1.630  1.00  0.00    -0.318 N 
HETATM   10  C12 UNL     1     -43.495  29.519  -0.649  1.00  0.00     0.106 C 
HETATM   11  C13 UNL     1     -44.365  30.716  -0.470  1.00  0.00     0.034 C 
ENDROOT
BRANCH   1  12
HETATM   12  C3  UNL     1     -45.415  28.439  -1.815  1.00  0.00     0.267 C 
HETATM   13  O2  UNL     1     -45.158  28.521  -3.056  1.00  0.00    -0.265 OA
BRANCH  12  14
HETATM   14  O1  UNL     1     -46.741  28.523  -1.476  1.00  0.00    -0.321 OA
BRANCH  14  15
HETATM   15  C2  UNL     1     -47.789  27.817  -2.065  1.00  0.00     0.174 C 
HETATM   16  C1  UNL     1     -48.038  26.466  -1.484  1.00  0.00     0.034 C 
ENDBRANCH  14  15
ENDBRANCH  12  14
ENDBRANCH   1  12
BRANCH   2  17
HETATM   17  C6  UNL     1     -43.698  25.875  -0.770  1.00  0.00     0.061 A 
HETATM   18  C7  UNL     1     -44.777  25.114  -0.417  1.00  0.00     0.170 A 
HETATM   19  O3  UNL     1     -44.274  23.990   0.093  1.00  0.00    -0.285 OA
HETATM   20  S1  UNL     1     -42.779  24.583  -0.186  1.00  0.00     0.034 SA
ENDBRANCH   2  17
BRANCH   9  21
HETATM   21  S2  UNL     1     -41.983  31.263  -2.004  1.00  0.00    -0.060 SA
HETATM   22  C11 UNL     1     -42.227  31.830  -3.664  1.00  0.00     0.115 C 
ENDBRANCH   9  21
TORSDOF 5
ENDMDL
MODEL 3
REMARK VINA RESULT: -5.936972872      2.734      5.366
REMARK  5 active torsions:
REMARK  status: ('A' for Active; 'I' for Inactive)
REMARK    1  A    between atoms: C2_2  and  O1_3 
REMARK    2  A    between atoms: O1_3  and  C3_4 
REMARK    3  A    between atoms: C3_4  and  C4_6 
REMARK    4  A    between atoms: C5_7  and  C6_8 
REMARK    5  A    between atoms: N2_18  and  S2_19 
ROOT
HETATM    1  C4  UNL     1     -45.122  32.173  -1.644  1.00  0.00     0.144 C 
HETATM    2  C5  UNL     1     -44.038  33.164  -2.008  1.00  0.00     0.247 C 
HETATM    3  N1  UNL     1     -43.187  32.646  -3.062  1.00  0.00    -0.039 N 
ATOM      4  H11 UNL     1     -42.529  33.358  -3.382  1.00  0.00     0.281 HD
ATOM      5  H12 UNL     1     -43.716  32.510  -3.925  1.00  0.00     0.281 HD
HETATM    6  C8  UNL     1     -42.497  31.440  -2.686  1.00  0.00     0.198 C 
HETATM    7  C9  UNL     1     -41.946  30.813  -3.941  1.00  0.00     0.071 C 
HETATM    8  C10 UNL     1     -41.281  31.872  -1.852  1.00  0.00     0.071 C 
HETATM    9  N2  UNL     1     -43.323  30.592  -1.912  1.00  0.00    -0.318 N 
HETATM   10  C12 UNL     1     -44.721  30.804  -2.115  1.00  0.00     0.106 C 
HETATM   11  C13 UNL     1     -45.591  29.732  -1.554  1.00  0.00     0.034 C 
ENDROOT
BRANCH   1  12
HETATM   12  C3  UNL     1     -45.487  32.250  -0.236  1.00  0.00     0.267 C 
HETATM   13  O2  UNL     1     -46.723  32.346   0.041  1.00  0.00    -0.265 OA
BRANCH  12  14
HETATM   14  O1  UNL     1     -44.637  32.232   0.841  1.00  0.00    -0.321 OA
BRANCH  14  15
HETATM   15  C2  UNL     1     -44.318  33.315   1.659  1.00  0.00     0.174 C 
HETATM   16  C1  UNL     1     -44.757  33.178   3.078  1.00  0.00     0.034 C 
ENDBRANCH  14  15
ENDBRANCH  12  14
ENDBRANCH   1  12
BRANCH   2  17
HETATM   17  C6  UNL     1     -44.598  34.435  -2.483  1.00  0.00     0.061 A 
HETATM   18  C7  UNL     1     -45.353  35.495  -2.065  1.00  0.00     0.170 A 
HETATM   19  O3  UNL     1     -45.444  36.309  -3.117  1.00  0.00    -0.285 OA
HETATM   20  S1  UNL     1     -44.537  35.248  -3.963  1.00  0.00     0.034 SA
ENDBRANCH   2  17
BRANCH   9  21
HETATM   21  S2  UNL     1     -42.802  28.997  -1.647  1.00  0.00    -0.060 SA
HETATM   22  C11 UNL     1     -42.325  28.548  -0.002  1.00  0.00     0.115 C 
ENDBRANCH   9  21
TORSDOF 5
ENDMDL
MODEL 4
REMARK VINA RESULT: -5.866276424      2.610      5.155
REMARK  5 active torsions:
REMARK  status: ('A' for Active; 'I' for Inactive)
REMARK    1  A    between atoms: C2_2  and  O1_3 
REMARK    2  A    between atoms: O1_3  and  C3_4 
REMARK    3  A    between atoms: C3_4  and  C4_6 
REMARK    4  A    between atoms: C5_7  and  C6_8 
REMARK    5  A    between atoms: N2_18  and  S2_19 
ROOT
HETATM    1  C4  UNL     1     -45.098  31.988  -1.660  1.00  0.00     0.144 C 
HETATM    2  C5  UNL     1     -44.014  32.983  -2.013  1.00  0.00     0.247 C 
HETATM    3  N1  UNL     1     -43.185  32.494  -3.098  1.00  0.00    -0.039 N 
ATOM      4  H11 UNL     1     -42.528  33.211  -3.406  1.00  0.00     0.281 HD
ATOM      5  H12 UNL     1     -43.730  32.388  -3.954  1.00  0.00     0.281 HD
HETATM    6  C8  UNL     1     -42.497  31.272  -2.772  1.00  0.00     0.198 C 
HETATM    7  C9  UNL     1     -41.973  30.681  -4.056  1.00  0.00     0.071 C 
HETATM    8  C10 UNL     1     -41.263  31.669  -1.948  1.00  0.00     0.071 C 
HETATM    9  N2  UNL     1     -43.315  30.405  -2.011  1.00  0.00    -0.318 N 
HETATM   10  C12 UNL     1     -44.715  30.632  -2.182  1.00  0.00     0.106 C 
HETATM   11  C13 UNL     1     -45.583  29.549  -1.640  1.00  0.00     0.034 C 
ENDROOT
BRANCH   1  12
HETATM   12  C3  UNL     1     -45.438  32.023  -0.244  1.00  0.00     0.267 C 
HETATM   13  O2  UNL     1     -44.489  31.872   0.586  1.00  0.00    -0.265 OA
BRANCH  12  14
HETATM   14  O1  UNL     1     -46.682  32.203   0.304  1.00  0.00    -0.321 OA
BRANCH  14  15
HETATM   15  C2  UNL     1     -47.900  32.110  -0.368  1.00  0.00     0.174 C 
HETATM   16  C1  UNL     1     -48.855  31.117   0.203  1.00  0.00     0.034 C 
ENDBRANCH  14  15
ENDBRANCH  12  14
ENDBRANCH   1  12
BRANCH   2  17
HETATM   17  C6  UNL     1     -44.573  34.272  -2.437  1.00  0.00     0.061 A 
HETATM   18  C7  UNL     1     -45.313  35.323  -1.973  1.00  0.00     0.170 A 
HETATM   19  O3  UNL     1     -45.417  36.171  -2.996  1.00  0.00    -0.285 OA
HETATM   20  S1  UNL     1     -44.532  35.132  -3.891  1.00  0.00     0.034 SA
ENDBRANCH   2  17
BRANCH   9  21
HETATM   21  S2  UNL     1     -42.801  28.799  -1.806  1.00  0.00    -0.060 SA
HETATM   22  C11 UNL     1     -42.112  28.348  -0.239  1.00  0.00     0.115 C 
ENDBRANCH   9  21
TORSDOF 5
ENDMDL
MODEL 5
REMARK VINA RESULT: -5.847310222      2.215      4.489
REMARK  5 active torsions:
REMARK  status: ('A' for Active; 'I' for Inactive)
REMARK    1  A    between atoms: C2_2  and  O1_3 
REMARK    2  A    between atoms: O1_3  and  C3_4 
REMARK    3  A    between atoms: C3_4  and  C4_6 
REMARK    4  A    between atoms: C5_7  and  C6_8 
REMARK    5  A    between atoms: N2_18  and  S2_19 
ROOT
HETATM    1  C4  UNL     1     -44.760  29.908  -1.910  1.00  0.00     0.144 C 
HETATM    2  C5  UNL     1     -45.313  31.099  -1.160  1.00  0.00     0.247 C 
HETATM    3  N1  UNL     1     -45.084  32.332  -1.890  1.00  0.00    -0.039 N 
ATOM      4  H11 UNL     1     -45.554  33.116  -1.437  1.00  0.00     0.281 HD
ATOM      5  H12 UNL     1     -45.585  32.328  -2.779  1.00  0.00     0.281 HD
HETATM    6  C8  UNL     1     -43.686  32.615  -2.089  1.00  0.00     0.198 C 
HETATM    7  C9  UNL     1     -43.579  33.690  -3.140  1.00  0.00     0.071 C 
HETATM    8  C10 UNL     1     -43.174  33.240  -0.782  1.00  0.00     0.071 C 
HETATM    9  N2  UNL     1     -42.954  31.437  -2.368  1.00  0.00    -0.318 N 
HETATM   10  C12 UNL     1     -43.746  30.380  -2.913  1.00  0.00     0.106 C 
HETATM   11  C13 UNL     1     -42.954  29.258  -3.493  1.00  0.00     0.034 C 
ENDROOT
BRANCH   1  12
HETATM   12  C3  UNL     1     -44.288  28.863  -1.012  1.00  0.00     0.267 C 
HETATM   13  O2  UNL     1     -43.648  29.229   0.022  1.00  0.00    -0.265 OA
BRANCH  12  14
HETATM   14  O1  UNL     1     -44.457  27.509  -1.156  1.00  0.00    -0.321 OA
BRANCH  14  15
HETATM   15  C2  UNL     1     -45.671  26.840  -1.291  1.00  0.00     0.174 C 
HETATM   16  C1  UNL     1     -45.751  25.537  -0.570  1.00  0.00     0.034 C 
ENDBRANCH  14  15
ENDBRANCH  12  14
ENDBRANCH   1  12
BRANCH   2  17
HETATM   17  C6  UNL     1     -46.760  30.984  -0.941  1.00  0.00     0.061 A 
HETATM   18  C7  UNL     1     -47.838  30.221  -1.292  1.00  0.00     0.170 A 
HETATM   19  O3  UNL     1     -48.881  30.759  -0.660  1.00  0.00    -0.285 OA
HETATM   20  S1  UNL     1     -47.869  31.873  -0.028  1.00  0.00     0.034 SA
ENDBRANCH   2  17
BRANCH   9  21
HETATM   21  S2  UNL     1     -41.365  31.604  -2.943  1.00  0.00    -0.060 SA
HETATM   22  C11 UNL     1     -40.051  30.992  -1.926  1.00  0.00     0.115 C 
ENDBRANCH   9  21
TORSDOF 5
ENDMDL
