MODEL 1
REMARK VINA RESULT: -8.318704018      0.000      0.000
REMARK  4 active torsions:
REMARK  status: ('A' for Active; 'I' for Inactive)
REMARK    1  A    between atoms: C4_4  and  C5_5 
REMARK    2  A    between atoms: C5_5  and  S1_10 
REMARK    3  A    between atoms: S1_10  and  C8_11 
REMARK    4  A    between atoms: C11_14  and  N3_15 
ROOT
HETATM    1  C5  UNL     1     -43.122  32.279  -1.742  1.00  0.00     0.213 C 
HETATM    2  C6  UNL     1     -41.921  32.944  -1.272  1.00  0.00     0.101 C 
HETATM    3  N1  UNL     1     -40.969  33.483  -0.885  1.00  0.00    -0.194 NA
HETATM    4  C7  UNL     1     -43.688  31.437  -0.703  1.00  0.00     0.101 C 
HETATM    5  N2  UNL     1     -44.135  30.770   0.116  1.00  0.00    -0.194 NA
ENDROOT
BRANCH   1   6
HETATM    6  C4  UNL     1     -44.092  33.286  -2.230  1.00  0.00    -0.033 C 
HETATM    7  C3  UNL     1     -43.695  34.459  -2.680  1.00  0.00     0.012 C 
HETATM    8  C2  UNL     1     -44.759  35.393  -3.146  1.00  0.00     0.205 C 
HETATM    9  C1  UNL     1     -44.242  36.762  -3.439  1.00  0.00     0.044 C 
HETATM   10  N4  UNL     1     -45.738  35.406  -2.050  1.00  0.00    -0.068 N 
HETATM   11  C15 UNL     1     -46.449  34.150  -2.146  1.00  0.00     0.237 C 
ATOM     12  H42 UNL     1     -45.324  35.573  -1.134  1.00  0.00     0.277 HD
ATOM     13  H41 UNL     1     -46.349  36.222  -2.058  1.00  0.00     0.277 HD
HETATM   14  C14 UNL     1     -45.536  32.972  -2.221  1.00  0.00     0.065 C 
ENDBRANCH   1   6
BRANCH   1  15
HETATM   15  S1  UNL     1     -42.623  31.212  -3.146  1.00  0.00    -0.085 SA
BRANCH  15  16
HETATM   16  C8  UNL     1     -42.361  29.548  -2.621  1.00  0.00     0.003 A 
HETATM   17  C9  UNL     1     -41.153  29.199  -2.041  1.00  0.00     0.021 A 
HETATM   18  C10 UNL     1     -40.929  27.920  -1.627  1.00  0.00     0.037 A 
HETATM   19  C11 UNL     1     -41.889  26.963  -1.778  1.00  0.00     0.102 A 
HETATM   20  C12 UNL     1     -43.093  27.299  -2.353  1.00  0.00     0.037 A 
HETATM   21  C13 UNL     1     -43.349  28.597  -2.784  1.00  0.00     0.021 A 
BRANCH  19  22
HETATM   22  N3  UNL     1     -41.631  25.618  -1.333  1.00  0.00    -0.116 N 
HETATM   23  O1  UNL     1     -41.123  24.797  -2.114  1.00  0.00    -0.532 OA
HETATM   24  O2  UNL     1     -41.942  25.242  -0.056  1.00  0.00    -0.532 OA
ENDBRANCH  19  22
ENDBRANCH  15  16
ENDBRANCH   1  15
TORSDOF 4
ENDMDL
MODEL 2
REMARK VINA RESULT: -8.285067421      0.150      1.024
REMARK  4 active torsions:
REMARK  status: ('A' for Active; 'I' for Inactive)
REMARK    1  A    between atoms: C4_4  and  C5_5 
REMARK    2  A    between atoms: C5_5  and  S1_10 
REMARK    3  A    between atoms: S1_10  and  C8_11 
REMARK    4  A    between atoms: C11_14  and  N3_15 
ROOT
HETATM    1  C5  UNL     1     -43.192  32.284  -1.728  1.00  0.00     0.213 C 
HETATM    2  C6  UNL     1     -42.011  32.969  -1.236  1.00  0.00     0.101 C 
HETATM    3  N1  UNL     1     -41.076  33.524  -0.831  1.00  0.00    -0.194 NA
HETATM    4  C7  UNL     1     -43.780  31.456  -0.690  1.00  0.00     0.101 C 
HETATM    5  N2  UNL     1     -44.244  30.799   0.128  1.00  0.00    -0.194 NA
ENDROOT
BRANCH   1   6
HETATM    6  C4  UNL     1     -44.156  33.273  -2.262  1.00  0.00    -0.033 C 
HETATM    7  C3  UNL     1     -43.762  34.455  -2.689  1.00  0.00     0.012 C 
HETATM    8  C2  UNL     1     -44.819  35.368  -3.206  1.00  0.00     0.205 C 
HETATM    9  C1  UNL     1     -44.316  36.748  -3.470  1.00  0.00     0.044 C 
HETATM   10  N4  UNL     1     -45.852  35.359  -2.161  1.00  0.00    -0.068 N 
HETATM   11  C15 UNL     1     -46.531  34.088  -2.294  1.00  0.00     0.237 C 
ATOM     12  H42 UNL     1     -45.488  35.532  -1.224  1.00  0.00     0.277 HD
ATOM     13  H41 UNL     1     -46.479  36.162  -2.198  1.00  0.00     0.277 HD
HETATM   14  C14 UNL     1     -45.592  32.929  -2.325  1.00  0.00     0.065 C 
ENDBRANCH   1   6
BRANCH   1  15
HETATM   15  S1  UNL     1     -42.643  31.197  -3.097  1.00  0.00    -0.085 SA
BRANCH  15  16
HETATM   16  C8  UNL     1     -42.285  29.569  -2.516  1.00  0.00     0.003 A 
HETATM   17  C9  UNL     1     -43.201  28.553  -2.730  1.00  0.00     0.021 A 
HETATM   18  C10 UNL     1     -42.946  27.289  -2.291  1.00  0.00     0.037 A 
HETATM   19  C11 UNL     1     -41.786  27.003  -1.632  1.00  0.00     0.102 A 
HETATM   20  C12 UNL     1     -40.869  28.005  -1.415  1.00  0.00     0.037 A 
HETATM   21  C13 UNL     1     -41.104  29.305  -1.853  1.00  0.00     0.021 A 
BRANCH  19  22
HETATM   22  N3  UNL     1     -41.536  25.660  -1.177  1.00  0.00    -0.116 N 
HETATM   23  O1  UNL     1     -40.932  24.862  -1.910  1.00  0.00    -0.532 OA
HETATM   24  O2  UNL     1     -41.963  25.261   0.060  1.00  0.00    -0.532 OA
ENDBRANCH  19  22
ENDBRANCH  15  16
ENDBRANCH   1  15
TORSDOF 4
ENDMDL
MODEL 3
REMARK VINA RESULT: -8.210977309      3.942      7.566
REMARK  4 active torsions:
REMARK  status: ('A' for Active; 'I' for Inactive)
REMARK    1  A    between atoms: C4_4  and  C5_5 
REMARK    2  A    between atoms: C5_5  and  S1_10 
REMARK    3  A    between atoms: S1_10  and  C8_11 
REMARK    4  A    between atoms: C11_14  and  N3_15 
ROOT
HETATM    1  C5  UNL     1     -42.189  28.867  -1.578  1.00  0.00     0.213 C 
HETATM    2  C6  UNL     1     -40.797  29.067  -1.216  1.00  0.00     0.101 C 
HETATM    3  N1  UNL     1     -39.681  29.218  -0.940  1.00  0.00    -0.194 NA
HETATM    4  C7  UNL     1     -42.452  29.363  -2.918  1.00  0.00     0.101 C 
HETATM    5  N2  UNL     1     -42.661  29.756  -3.975  1.00  0.00    -0.194 NA
ENDROOT
BRANCH   1   6
HETATM    6  C4  UNL     1     -42.540  27.435  -1.437  1.00  0.00    -0.033 C 
HETATM    7  C3  UNL     1     -43.698  27.059  -0.935  1.00  0.00     0.012 C 
HETATM    8  C2  UNL     1     -43.944  25.593  -0.841  1.00  0.00     0.205 C 
HETATM    9  C1  UNL     1     -45.181  25.259  -0.074  1.00  0.00     0.044 C 
HETATM   10  N4  UNL     1     -42.740  25.063  -0.185  1.00  0.00    -0.068 N 
HETATM   11  C15 UNL     1     -41.705  25.079  -1.196  1.00  0.00     0.237 C 
ATOM     12  H42 UNL     1     -42.487  25.560   0.668  1.00  0.00     0.277 HD
ATOM     13  H41 UNL     1     -42.878  24.148   0.244  1.00  0.00     0.277 HD
HETATM   14  C14 UNL     1     -41.577  26.403  -1.873  1.00  0.00     0.065 C 
ENDBRANCH   1   6
BRANCH   1  15
HETATM   15  S1  UNL     1     -43.191  29.840  -0.392  1.00  0.00    -0.085 SA
BRANCH  15  16
HETATM   16  C8  UNL     1     -43.600  31.425  -1.052  1.00  0.00     0.003 A 
HETATM   17  C9  UNL     1     -44.881  31.657  -1.522  1.00  0.00     0.021 A 
HETATM   18  C10 UNL     1     -45.220  32.873  -2.035  1.00  0.00     0.037 A 
HETATM   19  C11 UNL     1     -44.303  33.882  -2.094  1.00  0.00     0.102 A 
HETATM   20  C12 UNL     1     -43.027  33.662  -1.628  1.00  0.00     0.037 A 
HETATM   21  C13 UNL     1     -42.655  32.430  -1.100  1.00  0.00     0.021 A 
BRANCH  19  22
HETATM   22  N3  UNL     1     -44.682  35.159  -2.639  1.00  0.00    -0.116 N 
HETATM   23  O1  UNL     1     -44.259  35.504  -3.754  1.00  0.00    -0.532 OA
HETATM   24  O2  UNL     1     -45.507  35.993  -1.935  1.00  0.00    -0.532 OA
ENDBRANCH  19  22
ENDBRANCH  15  16
ENDBRANCH   1  15
TORSDOF 4
ENDMDL
MODEL 4
REMARK VINA RESULT: -8.167234466      1.541      1.914
REMARK  4 active torsions:
REMARK  status: ('A' for Active; 'I' for Inactive)
REMARK    1  A    between atoms: C4_4  and  C5_5 
REMARK    2  A    between atoms: C5_5  and  S1_10 
REMARK    3  A    between atoms: S1_10  and  C8_11 
REMARK    4  A    between atoms: C11_14  and  N3_15 
ROOT
HETATM    1  C5  UNL     1     -43.227  32.065  -1.769  1.00  0.00     0.213 C 
HETATM    2  C6  UNL     1     -42.882  31.161  -2.852  1.00  0.00     0.101 C 
HETATM    3  N1  UNL     1     -42.599  30.452  -3.725  1.00  0.00    -0.194 NA
HETATM    4  C7  UNL     1     -42.040  32.711  -1.236  1.00  0.00     0.101 C 
HETATM    5  N2  UNL     1     -41.104  33.220  -0.812  1.00  0.00    -0.194 NA
ENDROOT
BRANCH   1   6
HETATM    6  C4  UNL     1     -44.230  33.047  -2.240  1.00  0.00    -0.033 C 
HETATM    7  C3  UNL     1     -43.868  34.178  -2.811  1.00  0.00     0.012 C 
HETATM    8  C2  UNL     1     -44.963  35.090  -3.245  1.00  0.00     0.205 C 
HETATM    9  C1  UNL     1     -44.465  36.427  -3.685  1.00  0.00     0.044 C 
HETATM   10  N4  UNL     1     -45.836  35.198  -2.068  1.00  0.00    -0.068 N 
HETATM   11  C15 UNL     1     -46.562  33.948  -2.004  1.00  0.00     0.237 C 
ATOM     12  H42 UNL     1     -45.338  35.426  -1.208  1.00  0.00     0.277 HD
ATOM     13  H41 UNL     1     -46.439  36.020  -2.080  1.00  0.00     0.277 HD
HETATM   14  C14 UNL     1     -45.669  32.755  -2.074  1.00  0.00     0.065 C 
ENDBRANCH   1   6
BRANCH   1  15
HETATM   15  S1  UNL     1     -43.977  31.044  -0.445  1.00  0.00    -0.085 SA
BRANCH  15  16
HETATM   16  C8  UNL     1     -43.487  29.355  -0.586  1.00  0.00     0.003 A 
HETATM   17  C9  UNL     1     -42.181  28.999  -0.296  1.00  0.00     0.021 A 
HETATM   18  C10 UNL     1     -41.780  27.700  -0.397  1.00  0.00     0.037 A 
HETATM   19  C11 UNL     1     -42.658  26.730  -0.785  1.00  0.00     0.102 A 
HETATM   20  C12 UNL     1     -43.958  27.074  -1.075  1.00  0.00     0.037 A 
HETATM   21  C13 UNL     1     -44.394  28.392  -0.980  1.00  0.00     0.021 A 
BRANCH  19  22
HETATM   22  N3  UNL     1     -42.214  25.364  -0.886  1.00  0.00    -0.116 N 
HETATM   23  O1  UNL     1     -41.139  25.106  -1.449  1.00  0.00    -0.532 OA
HETATM   24  O2  UNL     1     -42.971  24.353  -0.362  1.00  0.00    -0.532 OA
ENDBRANCH  19  22
ENDBRANCH  15  16
ENDBRANCH   1  15
TORSDOF 4
ENDMDL
MODEL 5
REMARK VINA RESULT: -8.125898044      2.309      3.331
REMARK  4 active torsions:
REMARK  status: ('A' for Active; 'I' for Inactive)
REMARK    1  A    between atoms: C4_4  and  C5_5 
REMARK    2  A    between atoms: C5_5  and  S1_10 
REMARK    3  A    between atoms: S1_10  and  C8_11 
REMARK    4  A    between atoms: C11_14  and  N3_15 
ROOT
HETATM    1  C5  UNL     1     -42.164  30.217  -1.914  1.00  0.00     0.213 C 
HETATM    2  C6  UNL     1     -42.490  29.457  -3.107  1.00  0.00     0.101 C 
HETATM    3  N1  UNL     1     -42.738  28.858  -4.069  1.00  0.00    -0.194 NA
HETATM    4  C7  UNL     1     -40.778  30.010  -1.530  1.00  0.00     0.101 C 
HETATM    5  N2  UNL     1     -39.685  29.846  -1.225  1.00  0.00    -0.194 NA
ENDROOT
BRANCH   1   6
HETATM    6  C4  UNL     1     -42.471  31.649  -2.135  1.00  0.00    -0.033 C 
HETATM    7  C3  UNL     1     -43.146  32.351  -1.248  1.00  0.00     0.012 C 
HETATM    8  C2  UNL     1     -43.396  33.782  -1.575  1.00  0.00     0.205 C 
HETATM    9  C1  UNL     1     -44.340  34.439  -0.623  1.00  0.00     0.044 C 
HETATM   10  N4  UNL     1     -43.938  33.755  -2.942  1.00  0.00    -0.068 N 
HETATM   11  C15 UNL     1     -42.807  33.494  -3.805  1.00  0.00     0.237 C 
ATOM     12  H42 UNL     1     -44.706  33.095  -3.064  1.00  0.00     0.277 HD
ATOM     13  H41 UNL     1     -44.458  34.595  -3.192  1.00  0.00     0.277 HD
HETATM   14  C14 UNL     1     -42.008  32.311  -3.372  1.00  0.00     0.065 C 
ENDBRANCH   1   6
BRANCH   1  15
HETATM   15  S1  UNL     1     -43.238  29.583  -0.571  1.00  0.00    -0.085 SA
BRANCH  15  16
HETATM   16  C8  UNL     1     -43.227  27.820  -0.523  1.00  0.00     0.003 A 
HETATM   17  C9  UNL     1     -42.027  27.151  -0.351  1.00  0.00     0.021 A 
HETATM   18  C10 UNL     1     -41.994  25.789  -0.310  1.00  0.00     0.037 A 
HETATM   19  C11 UNL     1     -43.142  25.063  -0.438  1.00  0.00     0.102 A 
HETATM   20  C12 UNL     1     -44.339  25.717  -0.609  1.00  0.00     0.037 A 
HETATM   21  C13 UNL     1     -44.402  27.107  -0.654  1.00  0.00     0.021 A 
BRANCH  19  22
HETATM   22  N3  UNL     1     -43.084  23.624  -0.392  1.00  0.00    -0.116 N 
HETATM   23  O1  UNL     1     -43.948  22.993   0.236  1.00  0.00    -0.532 OA
HETATM   24  O2  UNL     1     -42.082  22.953  -1.037  1.00  0.00    -0.532 OA
ENDBRANCH  19  22
ENDBRANCH  15  16
ENDBRANCH   1  15
TORSDOF 4
ENDMDL
