MODEL 1
REMARK VINA RESULT: -7.377277244      0.000      0.000
REMARK  4 active torsions:
REMARK  status: ('A' for Active; 'I' for Inactive)
REMARK    1  A    between atoms: O1_2  and  C2_3 
REMARK    2  A    between atoms: C2_3  and  S1_4 
REMARK    3  A    between atoms: S1_4  and  C3_5 
REMARK    4  A    between atoms: C8_16  and  C9_17 
ROOT
HETATM    1  C3  UNL     1     -42.586  26.566  -1.525  1.00  0.00     0.176 A 
HETATM    2  N1  UNL     1     -43.861  26.955  -1.342  1.00  0.00    -0.167 N 
ATOM      3  H1  UNL     1     -44.611  26.369  -0.977  1.00  0.00     0.186 HD
HETATM    4  C4  UNL     1     -43.988  28.245  -1.717  1.00  0.00     0.703 A 
HETATM    5  N2  UNL     1     -42.803  28.658  -2.134  1.00  0.00    -0.097 N 
HETATM    6  N3  UNL     1     -41.943  27.632  -2.016  1.00  0.00    -0.261 N 
ATOM      7  H3  UNL     1     -40.954  27.661  -2.263  1.00  0.00     0.190 HD
HETATM    8  C5  UNL     1     -42.500  29.956  -2.661  1.00  0.00     0.168 C 
HETATM    9  C6  UNL     1     -42.086  29.680  -4.128  1.00  0.00     0.059 C 
HETATM   10  C7  UNL     1     -41.302  30.518  -2.004  1.00  0.00     0.094 C 
HETATM   11  N4  UNL     1     -40.339  30.947  -1.496  1.00  0.00    -0.194 NA
HETATM   12  C8  UNL     1     -43.585  30.923  -2.562  1.00  0.00     0.105 C 
HETATM   13  C14 UNL     1     -44.861  30.408  -2.108  1.00  0.00     0.012 C 
HETATM   14  C15 UNL     1     -46.106  31.256  -2.046  1.00  0.00     0.064 C 
HETATM   15  N5  UNL     1     -45.034  29.206  -1.729  1.00  0.00    -0.197 N 
ATOM     16  H5  UNL     1     -45.963  28.921  -1.420  1.00  0.00     0.183 HD
ENDROOT
BRANCH  12  17
HETATM   17  C9  UNL     1     -43.207  32.189  -1.852  1.00  0.00    -0.069 C 
HETATM   18  C10 UNL     1     -43.285  32.287  -0.358  1.00  0.00     0.044 C 
HETATM   19  C11 UNL     1     -42.799  33.285  -2.473  1.00  0.00    -0.085 C 
HETATM   20  C12 UNL     1     -42.427  34.528  -1.763  1.00  0.00     0.043 C 
HETATM   21  C13 UNL     1     -42.719  33.267  -3.958  1.00  0.00     0.043 C 
ENDBRANCH  12  17
BRANCH   1  22
HETATM   22  S1  UNL     1     -41.861  24.957  -1.193  1.00  0.00    -0.066 SA
BRANCH  22  23
HETATM   23  C2  UNL     1     -42.553  24.269   0.339  1.00  0.00     0.249 C 
BRANCH  23  24
HETATM   24  O1  UNL     1     -43.487  23.252   0.037  1.00  0.00    -0.386 OA
HETATM   25  C1  UNL     1     -42.739  22.073  -0.103  1.00  0.00     0.202 C 
ENDBRANCH  23  24
ENDBRANCH  22  23
ENDBRANCH   1  22
TORSDOF 4
ENDMDL
MODEL 2
REMARK VINA RESULT: -6.992757184      1.174      1.274
REMARK  4 active torsions:
REMARK  status: ('A' for Active; 'I' for Inactive)
REMARK    1  A    between atoms: O1_2  and  C2_3 
REMARK    2  A    between atoms: C2_3  and  S1_4 
REMARK    3  A    between atoms: S1_4  and  C3_5 
REMARK    4  A    between atoms: C8_16  and  C9_17 
ROOT
HETATM    1  C3  UNL     1     -43.149  26.989  -0.931  1.00  0.00     0.176 A 
HETATM    2  N1  UNL     1     -44.350  27.555  -0.708  1.00  0.00    -0.167 N 
ATOM      3  H1  UNL     1     -45.137  27.107  -0.242  1.00  0.00     0.186 HD
HETATM    4  C4  UNL     1     -44.344  28.812  -1.200  1.00  0.00     0.703 A 
HETATM    5  N2  UNL     1     -43.150  29.028  -1.728  1.00  0.00    -0.097 N 
HETATM    6  N3  UNL     1     -42.418  27.914  -1.564  1.00  0.00    -0.261 N 
ATOM      7  H3  UNL     1     -41.454  27.791  -1.873  1.00  0.00     0.190 HD
HETATM    8  C5  UNL     1     -42.730  30.224  -2.398  1.00  0.00     0.168 C 
HETATM    9  C6  UNL     1     -42.463  29.766  -3.853  1.00  0.00     0.059 C 
HETATM   10  C7  UNL     1     -41.426  30.681  -1.875  1.00  0.00     0.094 C 
HETATM   11  N4  UNL     1     -40.382  31.025  -1.473  1.00  0.00    -0.194 NA
HETATM   12  C8  UNL     1     -43.676  31.329  -2.327  1.00  0.00     0.105 C 
HETATM   13  C14 UNL     1     -44.969  31.027  -1.746  1.00  0.00     0.012 C 
HETATM   14  C15 UNL     1     -46.092  32.032  -1.690  1.00  0.00     0.064 C 
HETATM   15  N5  UNL     1     -45.260  29.896  -1.241  1.00  0.00    -0.197 N 
ATOM     16  H5  UNL     1     -46.192  29.763  -0.848  1.00  0.00     0.183 HD
ENDROOT
BRANCH  12  17
HETATM   17  C9  UNL     1     -43.093  32.593  -1.769  1.00  0.00    -0.069 C 
HETATM   18  C10 UNL     1     -43.019  32.820  -0.289  1.00  0.00     0.044 C 
HETATM   19  C11 UNL     1     -42.624  33.578  -2.519  1.00  0.00    -0.085 C 
HETATM   20  C12 UNL     1     -42.049  34.821  -1.959  1.00  0.00     0.043 C 
HETATM   21  C13 UNL     1     -42.686  33.431  -3.998  1.00  0.00     0.043 C 
ENDBRANCH  12  17
BRANCH   1  22
HETATM   22  S1  UNL     1     -42.607  25.336  -0.488  1.00  0.00    -0.066 SA
BRANCH  22  23
HETATM   23  C2  UNL     1     -44.037  24.314  -0.034  1.00  0.00     0.249 C 
BRANCH  23  24
HETATM   24  O1  UNL     1     -45.208  24.814  -0.650  1.00  0.00    -0.386 OA
HETATM   25  C1  UNL     1     -46.233  24.671   0.297  1.00  0.00     0.202 C 
ENDBRANCH  23  24
ENDBRANCH  22  23
ENDBRANCH   1  22
TORSDOF 4
ENDMDL
MODEL 3
REMARK VINA RESULT: -6.943751528      1.376      3.115
REMARK  4 active torsions:
REMARK  status: ('A' for Active; 'I' for Inactive)
REMARK    1  A    between atoms: O1_2  and  C2_3 
REMARK    2  A    between atoms: C2_3  and  S1_4 
REMARK    3  A    between atoms: S1_4  and  C3_5 
REMARK    4  A    between atoms: C8_16  and  C9_17 
ROOT
HETATM    1  C3  UNL     1     -41.684  25.913  -1.312  1.00  0.00     0.176 A 
HETATM    2  N1  UNL     1     -40.577  26.607  -1.635  1.00  0.00    -0.167 N 
ATOM      3  H1  UNL     1     -39.678  26.200  -1.889  1.00  0.00     0.186 HD
HETATM    4  C4  UNL     1     -40.848  27.928  -1.570  1.00  0.00     0.703 A 
HETATM    5  N2  UNL     1     -42.113  28.058  -1.206  1.00  0.00    -0.097 N 
HETATM    6  N3  UNL     1     -42.626  26.826  -1.049  1.00  0.00    -0.261 N 
ATOM      7  H3  UNL     1     -43.586  26.619  -0.772  1.00  0.00     0.190 HD
HETATM    8  C5  UNL     1     -42.800  29.295  -0.976  1.00  0.00     0.168 C 
HETATM    9  C6  UNL     1     -43.152  29.255   0.532  1.00  0.00     0.059 C 
HETATM   10  C7  UNL     1     -44.093  29.311  -1.690  1.00  0.00     0.094 C 
HETATM   11  N4  UNL     1     -45.127  29.309  -2.239  1.00  0.00    -0.194 NA
HETATM   12  C8  UNL     1     -42.049  30.488  -1.341  1.00  0.00     0.105 C 
HETATM   13  C14 UNL     1     -40.666  30.281  -1.721  1.00  0.00     0.012 C 
HETATM   14  C15 UNL     1     -39.727  31.420  -2.030  1.00  0.00     0.064 C 
HETATM   15  N5  UNL     1     -40.135  29.129  -1.823  1.00  0.00    -0.197 N 
ATOM     16  H5  UNL     1     -39.155  29.067  -2.100  1.00  0.00     0.183 HD
ENDROOT
BRANCH  12  17
HETATM   17  C9  UNL     1     -42.766  31.387  -2.304  1.00  0.00    -0.069 C 
HETATM   18  C10 UNL     1     -42.728  31.123  -3.779  1.00  0.00     0.044 C 
HETATM   19  C11 UNL     1     -43.456  32.455  -1.935  1.00  0.00    -0.085 C 
HETATM   20  C12 UNL     1     -44.162  33.334  -2.893  1.00  0.00     0.043 C 
HETATM   21  C13 UNL     1     -43.518  32.791  -0.488  1.00  0.00     0.043 C 
ENDBRANCH  12  17
BRANCH   1  22
HETATM   22  S1  UNL     1     -41.890  24.132  -1.236  1.00  0.00    -0.066 SA
BRANCH  22  23
HETATM   23  C2  UNL     1     -43.185  23.707  -0.035  1.00  0.00     0.249 C 
BRANCH  23  24
HETATM   24  O1  UNL     1     -43.232  22.306   0.153  1.00  0.00    -0.386 OA
HETATM   25  C1  UNL     1     -42.451  22.044   1.289  1.00  0.00     0.202 C 
ENDBRANCH  23  24
ENDBRANCH  22  23
ENDBRANCH   1  22
TORSDOF 4
ENDMDL
MODEL 4
REMARK VINA RESULT: -6.852582710      1.312      1.427
REMARK  4 active torsions:
REMARK  status: ('A' for Active; 'I' for Inactive)
REMARK    1  A    between atoms: O1_2  and  C2_3 
REMARK    2  A    between atoms: C2_3  and  S1_4 
REMARK    3  A    between atoms: S1_4  and  C3_5 
REMARK    4  A    between atoms: C8_16  and  C9_17 
ROOT
HETATM    1  C3  UNL     1     -44.328  26.686  -1.004  1.00  0.00     0.176 A 
HETATM    2  N1  UNL     1     -45.451  27.427  -0.960  1.00  0.00    -0.167 N 
ATOM      3  H1  UNL     1     -46.358  27.106  -0.621  1.00  0.00     0.186 HD
HETATM    4  C4  UNL     1     -45.186  28.662  -1.435  1.00  0.00     0.703 A 
HETATM    5  N2  UNL     1     -43.908  28.692  -1.776  1.00  0.00    -0.097 N 
HETATM    6  N3  UNL     1     -43.382  27.484  -1.512  1.00  0.00    -0.261 N 
ATOM      7  H3  UNL     1     -42.411  27.216  -1.674  1.00  0.00     0.190 HD
HETATM    8  C5  UNL     1     -43.220  29.802  -2.366  1.00  0.00     0.168 C 
HETATM    9  C6  UNL     1     -42.809  29.289  -3.768  1.00  0.00     0.059 C 
HETATM   10  C7  UNL     1     -41.956  30.070  -1.649  1.00  0.00     0.094 C 
HETATM   11  N4  UNL     1     -40.945  30.262  -1.092  1.00  0.00    -0.194 NA
HETATM   12  C8  UNL     1     -43.992  31.035  -2.429  1.00  0.00     0.105 C 
HETATM   13  C14 UNL     1     -45.388  30.936  -2.052  1.00  0.00     0.012 C 
HETATM   14  C15 UNL     1     -46.345  32.096  -2.157  1.00  0.00     0.064 C 
HETATM   15  N5  UNL     1     -45.916  29.868  -1.605  1.00  0.00    -0.197 N 
ATOM     16  H5  UNL     1     -46.905  29.880  -1.357  1.00  0.00     0.183 HD
ENDROOT
BRANCH  12  17
HETATM   17  C9  UNL     1     -43.318  32.208  -1.780  1.00  0.00    -0.069 C 
HETATM   18  C10 UNL     1     -43.429  32.440  -0.303  1.00  0.00     0.044 C 
HETATM   19  C11 UNL     1     -42.607  33.105  -2.445  1.00  0.00    -0.085 C 
HETATM   20  C12 UNL     1     -41.945  34.258  -1.795  1.00  0.00     0.043 C 
HETATM   21  C13 UNL     1     -42.474  32.951  -3.918  1.00  0.00     0.043 C 
ENDBRANCH  12  17
BRANCH   1  22
HETATM   22  S1  UNL     1     -44.109  24.978  -0.498  1.00  0.00    -0.066 SA
BRANCH  22  23
HETATM   23  C2  UNL     1     -42.395  24.704   0.037  1.00  0.00     0.249 C 
BRANCH  23  24
HETATM   24  O1  UNL     1     -41.504  25.408  -0.808  1.00  0.00    -0.386 OA
HETATM   25  C1  UNL     1     -41.199  24.530  -1.859  1.00  0.00     0.202 C 
ENDBRANCH  23  24
ENDBRANCH  22  23
ENDBRANCH   1  22
TORSDOF 4
ENDMDL
MODEL 5
REMARK VINA RESULT: -6.697441836      1.617      2.052
REMARK  4 active torsions:
REMARK  status: ('A' for Active; 'I' for Inactive)
REMARK    1  A    between atoms: O1_2  and  C2_3 
REMARK    2  A    between atoms: C2_3  and  S1_4 
REMARK    3  A    between atoms: S1_4  and  C3_5 
REMARK    4  A    between atoms: C8_16  and  C9_17 
ROOT
HETATM    1  C3  UNL     1     -42.171  27.143  -1.345  1.00  0.00     0.176 A 
HETATM    2  N1  UNL     1     -42.486  27.658  -0.142  1.00  0.00    -0.167 N 
ATOM      3  H1  UNL     1     -42.306  27.213   0.757  1.00  0.00     0.186 HD
HETATM    4  C4  UNL     1     -43.079  28.858  -0.316  1.00  0.00     0.703 A 
HETATM    5  N2  UNL     1     -43.135  29.090  -1.618  1.00  0.00    -0.097 N 
HETATM    6  N3  UNL     1     -42.580  28.042  -2.248  1.00  0.00    -0.261 N 
ATOM      7  H3  UNL     1     -42.484  27.945  -3.259  1.00  0.00     0.190 HD
HETATM    8  C5  UNL     1     -43.727  30.236  -2.244  1.00  0.00     0.168 C 
HETATM    9  C6  UNL     1     -44.910  29.652  -3.055  1.00  0.00     0.059 C 
HETATM   10  C7  UNL     1     -42.804  30.817  -3.241  1.00  0.00     0.094 C 
HETATM   11  N4  UNL     1     -42.078  31.260  -4.044  1.00  0.00    -0.194 NA
HETATM   12  C8  UNL     1     -44.146  31.285  -1.326  1.00  0.00     0.105 C 
HETATM   13  C14 UNL     1     -44.069  30.968   0.086  1.00  0.00     0.012 C 
HETATM   14  C15 UNL     1     -44.558  31.907   1.160  1.00  0.00     0.064 C 
HETATM   15  N5  UNL     1     -43.587  29.878   0.531  1.00  0.00    -0.197 N 
ATOM     16  H5  UNL     1     -43.565  29.731   1.540  1.00  0.00     0.183 HD
ENDROOT
BRANCH  12  17
HETATM   17  C9  UNL     1     -43.557  32.631  -1.631  1.00  0.00    -0.069 C 
HETATM   18  C10 UNL     1     -42.130  32.941  -1.291  1.00  0.00     0.044 C 
HETATM   19  C11 UNL     1     -44.234  33.618  -2.196  1.00  0.00    -0.085 C 
HETATM   20  C12 UNL     1     -43.643  34.941  -2.494  1.00  0.00     0.043 C 
HETATM   21  C13 UNL     1     -45.663  33.387  -2.539  1.00  0.00     0.043 C 
ENDBRANCH  12  17
BRANCH   1  22
HETATM   22  S1  UNL     1     -41.370  25.576  -1.702  1.00  0.00    -0.066 SA
BRANCH  22  23
HETATM   23  C2  UNL     1     -42.213  24.233  -0.817  1.00  0.00     0.249 C 
BRANCH  23  24
HETATM   24  O1  UNL     1     -42.996  24.760   0.237  1.00  0.00    -0.386 OA
HETATM   25  C1  UNL     1     -44.324  24.422  -0.065  1.00  0.00     0.202 C 
ENDBRANCH  23  24
ENDBRANCH  22  23
ENDBRANCH   1  22
TORSDOF 4
ENDMDL
