MODEL 1
REMARK VINA RESULT: -8.327888926      0.000      0.000
REMARK  6 active torsions:
REMARK  status: ('A' for Active; 'I' for Inactive)
REMARK    1  A    between atoms: C2_4  and  C4_7 
REMARK    2  A    between atoms: C6_9  and  C7_10 
REMARK    3  A    between atoms: C7_10  and  O2_11 
REMARK    4  A    between atoms: C9_13  and  C11_15 
REMARK    5  A    between atoms: C13_18  and  C14_19 
REMARK    6  A    between atoms: C18_23  and  O4_24 
ROOT
HETATM    1  C1  UNL     1     -42.478  33.036  -0.808  1.00  0.00     0.148 C 
HETATM    2  N1  UNL     1     -43.214  31.820  -0.926  1.00  0.00    -0.374 N 
ATOM      3  H1  UNL     1     -44.201  31.819  -0.668  1.00  0.00     0.161 HD
HETATM    4  C2  UNL     1     -42.661  30.673  -1.363  1.00  0.00     0.150 C 
HETATM    5  O1  UNL     1     -41.416  30.870  -1.640  1.00  0.00    -0.340 OA
HETATM    6  C3  UNL     1     -40.176  31.063  -1.915  1.00  0.00     0.211 C 
ENDROOT
BRANCH   4   7
HETATM    7  C4  UNL     1     -43.573  29.532  -1.414  1.00  0.00     0.049 A 
HETATM    8  C5  UNL     1     -43.067  28.287  -1.027  1.00  0.00     0.033 A 
HETATM    9  C6  UNL     1     -43.810  27.130  -1.025  1.00  0.00    -0.001 A 
HETATM   10  C12 UNL     1     -45.145  27.231  -1.438  1.00  0.00     0.025 A 
HETATM   11  C13 UNL     1     -45.689  28.418  -1.824  1.00  0.00    -0.015 A 
HETATM   12  C18 UNL     1     -44.875  29.556  -1.802  1.00  0.00     0.087 A 
BRANCH   9  13
HETATM   13  C7  UNL     1     -43.301  25.846  -0.610  1.00  0.00     0.087 C 
HETATM   14  C9  UNL     1     -44.021  24.868  -0.157  1.00  0.00     0.010 C 
HETATM   15  C10 UNL     1     -43.252  23.594   0.230  1.00  0.00     0.054 C 
BRANCH  13  16
HETATM   16  O2  UNL     1     -41.893  25.718  -0.738  1.00  0.00    -0.354 OA
HETATM   17  C8  UNL     1     -41.315  25.327  -1.962  1.00  0.00     0.210 C 
ENDBRANCH  13  16
BRANCH  14  18
HETATM   18  C11 UNL     1     -45.447  24.789  -0.037  1.00  0.00     0.268 C 
HETATM   19  O3  UNL     1     -46.170  23.792  -0.168  1.00  0.00    -0.302 OA
ENDBRANCH  14  18
ENDBRANCH   9  13
BRANCH  11  20
HETATM   20  C14 UNL     1     -47.083  28.454  -2.244  1.00  0.00    -0.021 C 
HETATM   21  C15 UNL     1     -47.707  27.110  -1.898  1.00  0.00     0.019 C 
HETATM   22  C16 UNL     1     -47.921  29.516  -1.611  1.00  0.00     0.019 C 
HETATM   23  C17 UNL     1     -47.180  28.614  -3.737  1.00  0.00     0.019 C 
ENDBRANCH  11  20
BRANCH  12  24
HETATM   24  O4  UNL     1     -45.483  30.687  -2.197  1.00  0.00    -0.359 OA
ATOM     25  H4  UNL     1     -45.171  31.546  -1.939  1.00  0.00     0.217 HD
ENDBRANCH  12  24
ENDBRANCH   4   7
TORSDOF 6
ENDMDL
MODEL 2
REMARK VINA RESULT: -7.732191161      1.237      1.372
REMARK  6 active torsions:
REMARK  status: ('A' for Active; 'I' for Inactive)
REMARK    1  A    between atoms: C2_4  and  C4_7 
REMARK    2  A    between atoms: C6_9  and  C7_10 
REMARK    3  A    between atoms: C7_10  and  O2_11 
REMARK    4  A    between atoms: C9_13  and  C11_15 
REMARK    5  A    between atoms: C13_18  and  C14_19 
REMARK    6  A    between atoms: C18_23  and  O4_24 
ROOT
HETATM    1  C1  UNL     1     -44.228  33.354   1.149  1.00  0.00     0.148 C 
HETATM    2  N1  UNL     1     -44.661  32.124   0.568  1.00  0.00    -0.374 N 
ATOM      3  H1  UNL     1     -45.500  31.678   0.937  1.00  0.00     0.161 HD
HETATM    4  C2  UNL     1     -44.007  31.529  -0.447  1.00  0.00     0.150 C 
HETATM    5  O1  UNL     1     -42.979  32.236  -0.776  1.00  0.00    -0.340 OA
HETATM    6  C3  UNL     1     -41.955  32.939  -1.104  1.00  0.00     0.211 C 
ENDROOT
BRANCH   4   7
HETATM    7  C4  UNL     1     -44.601  30.275  -0.908  1.00  0.00     0.049 A 
HETATM    8  C5  UNL     1     -43.909  29.093  -0.623  1.00  0.00     0.033 A 
HETATM    9  C6  UNL     1     -44.349  27.845  -0.994  1.00  0.00    -0.001 A 
HETATM   10  C12 UNL     1     -45.560  27.781  -1.697  1.00  0.00     0.025 A 
HETATM   11  C13 UNL     1     -46.274  28.900  -1.999  1.00  0.00    -0.015 A 
HETATM   12  C18 UNL     1     -45.768  30.138  -1.590  1.00  0.00     0.087 A 
BRANCH   9  13
HETATM   13  C7  UNL     1     -43.652  26.620  -0.690  1.00  0.00     0.087 C 
HETATM   14  C9  UNL     1     -44.217  25.490  -0.399  1.00  0.00     0.010 C 
HETATM   15  C10 UNL     1     -43.263  24.322  -0.101  1.00  0.00     0.054 C 
BRANCH  13  16
HETATM   16  O2  UNL     1     -42.238  26.739  -0.732  1.00  0.00    -0.354 OA
HETATM   17  C8  UNL     1     -41.559  26.816  -1.965  1.00  0.00     0.210 C 
ENDBRANCH  13  16
BRANCH  14  18
HETATM   18  C11 UNL     1     -45.613  25.167  -0.388  1.00  0.00     0.268 C 
HETATM   19  O3  UNL     1     -46.147  24.100  -0.052  1.00  0.00    -0.302 OA
ENDBRANCH  14  18
ENDBRANCH   9  13
BRANCH  11  20
HETATM   20  C14 UNL     1     -47.525  28.763  -2.733  1.00  0.00    -0.021 C 
HETATM   21  C15 UNL     1     -48.013  27.332  -2.557  1.00  0.00     0.019 C 
HETATM   22  C16 UNL     1     -48.630  29.672  -2.301  1.00  0.00     0.019 C 
HETATM   23  C17 UNL     1     -47.299  28.974  -4.206  1.00  0.00     0.019 C 
ENDBRANCH  11  20
BRANCH  12  24
HETATM   24  O4  UNL     1     -46.528  31.193  -1.927  1.00  0.00    -0.359 OA
ATOM     25  H4  UNL     1     -46.195  31.909  -2.455  1.00  0.00     0.217 HD
ENDBRANCH  12  24
ENDBRANCH   4   7
TORSDOF 6
ENDMDL
MODEL 3
REMARK VINA RESULT: -7.730287048      0.752      2.020
REMARK  6 active torsions:
REMARK  status: ('A' for Active; 'I' for Inactive)
REMARK    1  A    between atoms: C2_4  and  C4_7 
REMARK    2  A    between atoms: C6_9  and  C7_10 
REMARK    3  A    between atoms: C7_10  and  O2_11 
REMARK    4  A    between atoms: C9_13  and  C11_15 
REMARK    5  A    between atoms: C13_18  and  C14_19 
REMARK    6  A    between atoms: C18_23  and  O4_24 
ROOT
HETATM    1  C1  UNL     1     -42.533  32.882  -0.788  1.00  0.00     0.148 C 
HETATM    2  N1  UNL     1     -43.383  31.745  -0.942  1.00  0.00    -0.374 N 
ATOM      3  H1  UNL     1     -44.376  31.846  -0.736  1.00  0.00     0.161 HD
HETATM    4  C2  UNL     1     -42.927  30.546  -1.347  1.00  0.00     0.150 C 
HETATM    5  O1  UNL     1     -41.655  30.613  -1.558  1.00  0.00    -0.340 OA
HETATM    6  C3  UNL     1     -40.389  30.677  -1.768  1.00  0.00     0.211 C 
ENDROOT
BRANCH   4   7
HETATM    7  C4  UNL     1     -43.946  29.503  -1.443  1.00  0.00     0.049 A 
HETATM    8  C5  UNL     1     -43.617  28.234  -0.954  1.00  0.00     0.033 A 
HETATM    9  C6  UNL     1     -44.475  27.162  -0.979  1.00  0.00    -0.001 A 
HETATM   10  C12 UNL     1     -45.745  27.376  -1.532  1.00  0.00     0.025 A 
HETATM   11  C13 UNL     1     -46.118  28.590  -2.022  1.00  0.00    -0.015 A 
HETATM   12  C18 UNL     1     -45.194  29.639  -1.964  1.00  0.00     0.087 A 
BRANCH   9  13
HETATM   13  C7  UNL     1     -44.151  25.856  -0.460  1.00  0.00     0.087 C 
HETATM   14  C9  UNL     1     -43.043  25.219  -0.679  1.00  0.00     0.010 C 
HETATM   15  C10 UNL     1     -42.928  23.832  -0.024  1.00  0.00     0.054 C 
BRANCH  13  16
HETATM   16  O2  UNL     1     -45.173  25.287   0.345  1.00  0.00    -0.354 OA
HETATM   17  C8  UNL     1     -46.269  24.626  -0.244  1.00  0.00     0.210 C 
ENDBRANCH  13  16
BRANCH  14  18
HETATM   18  C11 UNL     1     -41.881  25.665  -1.389  1.00  0.00     0.268 C 
HETATM   19  O3  UNL     1     -40.822  25.052  -1.582  1.00  0.00    -0.302 OA
ENDBRANCH  14  18
ENDBRANCH   9  13
BRANCH  11  20
HETATM   20  C14 UNL     1     -47.452  28.746  -2.585  1.00  0.00    -0.021 C 
HETATM   21  C15 UNL     1     -48.168  27.409  -2.461  1.00  0.00     0.019 C 
HETATM   22  C16 UNL     1     -48.312  29.779  -1.933  1.00  0.00     0.019 C 
HETATM   23  C17 UNL     1     -47.372  29.068  -4.053  1.00  0.00     0.019 C 
ENDBRANCH  11  20
BRANCH  12  24
HETATM   24  O4  UNL     1     -45.635  30.803  -2.468  1.00  0.00    -0.359 OA
ATOM     25  H4  UNL     1     -45.338  31.643  -2.137  1.00  0.00     0.217 HD
ENDBRANCH  12  24
ENDBRANCH   4   7
TORSDOF 6
ENDMDL
MODEL 4
REMARK VINA RESULT: -7.714464787      1.078      2.338
REMARK  6 active torsions:
REMARK  status: ('A' for Active; 'I' for Inactive)
REMARK    1  A    between atoms: C2_4  and  C4_7 
REMARK    2  A    between atoms: C6_9  and  C7_10 
REMARK    3  A    between atoms: C7_10  and  O2_11 
REMARK    4  A    between atoms: C9_13  and  C11_15 
REMARK    5  A    between atoms: C13_18  and  C14_19 
REMARK    6  A    between atoms: C18_23  and  O4_24 
ROOT
HETATM    1  C1  UNL     1     -40.166  30.050  -1.577  1.00  0.00     0.148 C 
HETATM    2  N1  UNL     1     -41.369  29.282  -1.563  1.00  0.00    -0.374 N 
ATOM      3  H1  UNL     1     -41.302  28.269  -1.658  1.00  0.00     0.161 HD
HETATM    4  C2  UNL     1     -42.587  29.838  -1.430  1.00  0.00     0.150 C 
HETATM    5  O1  UNL     1     -42.469  31.120  -1.322  1.00  0.00    -0.340 OA
HETATM    6  C3  UNL     1     -42.354  32.395  -1.216  1.00  0.00     0.211 C 
ENDROOT
BRANCH   4   7
HETATM    7  C4  UNL     1     -43.699  28.891  -1.440  1.00  0.00     0.049 A 
HETATM    8  C5  UNL     1     -43.461  27.613  -0.923  1.00  0.00     0.033 A 
HETATM    9  C6  UNL     1     -44.413  26.624  -0.869  1.00  0.00    -0.001 A 
HETATM   10  C12 UNL     1     -45.686  26.938  -1.366  1.00  0.00     0.025 A 
HETATM   11  C13 UNL     1     -45.972  28.166  -1.879  1.00  0.00    -0.015 A 
HETATM   12  C18 UNL     1     -44.955  29.126  -1.903  1.00  0.00     0.087 A 
BRANCH   9  13
HETATM   13  C7  UNL     1     -44.181  25.310  -0.321  1.00  0.00     0.087 C 
HETATM   14  C9  UNL     1     -43.102  24.611  -0.486  1.00  0.00     0.010 C 
HETATM   15  C10 UNL     1     -43.089  23.230   0.189  1.00  0.00     0.054 C 
BRANCH  13  16
HETATM   16  O2  UNL     1     -45.264  24.810   0.449  1.00  0.00    -0.354 OA
HETATM   17  C8  UNL     1     -46.494  24.490  -0.161  1.00  0.00     0.210 C 
ENDBRANCH  13  16
BRANCH  14  18
HETATM   18  C11 UNL     1     -41.890  24.983  -1.155  1.00  0.00     0.268 C 
HETATM   19  O3  UNL     1     -41.229  24.318  -1.965  1.00  0.00    -0.302 OA
ENDBRANCH  14  18
ENDBRANCH   9  13
BRANCH  11  20
HETATM   20  C14 UNL     1     -47.315  28.427  -2.380  1.00  0.00    -0.021 C 
HETATM   21  C15 UNL     1     -48.136  27.159  -2.191  1.00  0.00     0.019 C 
HETATM   22  C16 UNL     1     -48.049  29.542  -1.711  1.00  0.00     0.019 C 
HETATM   23  C17 UNL     1     -47.280  28.713  -3.857  1.00  0.00     0.019 C 
ENDBRANCH  11  20
BRANCH  12  24
HETATM   24  O4  UNL     1     -45.315  30.310  -2.425  1.00  0.00    -0.359 OA
ATOM     25  H4  UNL     1     -46.146  30.723  -2.218  1.00  0.00     0.217 HD
ENDBRANCH  12  24
ENDBRANCH   4   7
TORSDOF 6
ENDMDL
MODEL 5
REMARK VINA RESULT: -7.687477329      1.259      1.622
REMARK  6 active torsions:
REMARK  status: ('A' for Active; 'I' for Inactive)
REMARK    1  A    between atoms: C2_4  and  C4_7 
REMARK    2  A    between atoms: C6_9  and  C7_10 
REMARK    3  A    between atoms: C7_10  and  O2_11 
REMARK    4  A    between atoms: C9_13  and  C11_15 
REMARK    5  A    between atoms: C13_18  and  C14_19 
REMARK    6  A    between atoms: C18_23  and  O4_24 
ROOT
HETATM    1  C1  UNL     1     -42.022  32.976  -1.105  1.00  0.00     0.148 C 
HETATM    2  N1  UNL     1     -42.786  31.796  -1.351  1.00  0.00    -0.374 N 
ATOM      3  H1  UNL     1     -42.516  31.193  -2.128  1.00  0.00     0.161 HD
HETATM    4  C2  UNL     1     -43.847  31.446  -0.602  1.00  0.00     0.150 C 
HETATM    5  O1  UNL     1     -44.033  32.324   0.326  1.00  0.00    -0.340 OA
HETATM    6  C3  UNL     1     -44.220  33.198   1.249  1.00  0.00     0.211 C 
ENDROOT
BRANCH   4   7
HETATM    7  C4  UNL     1     -44.503  30.205  -1.008  1.00  0.00     0.049 A 
HETATM    8  C5  UNL     1     -43.861  29.003  -0.690  1.00  0.00     0.033 A 
HETATM    9  C6  UNL     1     -44.362  27.764  -1.009  1.00  0.00    -0.001 A 
HETATM   10  C12 UNL     1     -45.586  27.729  -1.692  1.00  0.00     0.025 A 
HETATM   11  C13 UNL     1     -46.254  28.868  -2.025  1.00  0.00    -0.015 A 
HETATM   12  C18 UNL     1     -45.686  30.096  -1.669  1.00  0.00     0.087 A 
BRANCH   9  13
HETATM   13  C7  UNL     1     -43.716  26.521  -0.669  1.00  0.00     0.087 C 
HETATM   14  C9  UNL     1     -44.327  25.416  -0.373  1.00  0.00     0.010 C 
HETATM   15  C10 UNL     1     -43.422  24.220  -0.036  1.00  0.00     0.054 C 
BRANCH  13  16
HETATM   16  O2  UNL     1     -42.297  26.589  -0.682  1.00  0.00    -0.354 OA
HETATM   17  C8  UNL     1     -41.585  26.524  -1.896  1.00  0.00     0.210 C 
ENDBRANCH  13  16
BRANCH  14  18
HETATM   18  C11 UNL     1     -45.733  25.142  -0.389  1.00  0.00     0.268 C 
HETATM   19  O3  UNL     1     -46.309  24.086  -0.092  1.00  0.00    -0.302 OA
ENDBRANCH  14  18
ENDBRANCH   9  13
BRANCH  11  20
HETATM   20  C14 UNL     1     -47.521  28.762  -2.736  1.00  0.00    -0.021 C 
HETATM   21  C15 UNL     1     -48.023  27.333  -2.580  1.00  0.00     0.019 C 
HETATM   22  C16 UNL     1     -48.605  29.674  -2.262  1.00  0.00     0.019 C 
HETATM   23  C17 UNL     1     -47.322  29.001  -4.208  1.00  0.00     0.019 C 
ENDBRANCH  11  20
BRANCH  12  24
HETATM   24  O4  UNL     1     -46.404  31.171  -2.033  1.00  0.00    -0.359 OA
ATOM     25  H4  UNL     1     -45.998  31.953  -2.389  1.00  0.00     0.217 HD
ENDBRANCH  12  24
ENDBRANCH   4   7
TORSDOF 6
ENDMDL
