MODEL 1
REMARK VINA RESULT: -8.376646748      0.000      0.000
REMARK  6 active torsions:
REMARK  status: ('A' for Active; 'I' for Inactive)
REMARK    1  A    between atoms: C3_3  and  C4_4 
REMARK    2  A    between atoms: C6_8  and  O3_9 
REMARK    3  A    between atoms: C7_11  and  C8_12 
REMARK    4  A    between atoms: C8_12  and  C9_13 
REMARK    5  A    between atoms: C14_18  and  O4_19 
REMARK    6  A    between atoms: O4_19  and  C15_20 
ROOT
HETATM    1  C4  UNL     1     -44.293  33.744  -2.591  1.00  0.00     0.327 C 
HETATM    2  O1  UNL     1     -45.120  33.623  -1.455  1.00  0.00    -0.198 OA
HETATM    3  O2  UNL     1     -45.855  32.502  -1.687  1.00  0.00    -0.189 OA
HETATM    4  C5  UNL     1     -45.125  31.340  -1.874  1.00  0.00     0.176 A 
HETATM    5  C6  UNL     1     -45.671  30.071  -1.673  1.00  0.00     0.111 A 
HETATM    6  C7  UNL     1     -44.934  28.928  -1.864  1.00  0.00    -0.016 A 
HETATM    7  C13 UNL     1     -43.596  29.057  -2.272  1.00  0.00     0.050 A 
HETATM    8  C14 UNL     1     -43.065  30.311  -2.468  1.00  0.00     0.116 A 
HETATM    9  C17 UNL     1     -43.816  31.427  -2.273  1.00  0.00     0.145 A 
HETATM   10  O6  UNL     1     -43.310  32.726  -2.463  1.00  0.00    -0.308 OA
ENDROOT
BRANCH   6  11
HETATM   11  C8  UNL     1     -45.490  27.560  -1.658  1.00  0.00     0.069 C 
BRANCH  11  12
HETATM   12  C9  UNL     1     -44.460  26.629  -1.164  1.00  0.00    -0.020 C 
HETATM   13  C10 UNL     1     -44.742  25.509  -0.547  1.00  0.00    -0.091 C 
HETATM   14  C11 UNL     1     -46.137  25.092  -0.296  1.00  0.00     0.042 C 
HETATM   15  C12 UNL     1     -43.633  24.601  -0.072  1.00  0.00     0.042 C 
ENDBRANCH  11  12
ENDBRANCH   6  11
BRANCH   5  16
HETATM   16  O3  UNL     1     -46.983  30.014  -1.274  1.00  0.00    -0.357 OA
ATOM     17  H3  UNL     1     -47.329  29.158  -1.051  1.00  0.00     0.217 HD
ENDBRANCH   5  16
BRANCH   8  18
HETATM   18  O4  UNL     1     -41.726  30.466  -2.877  1.00  0.00    -0.276 OA
BRANCH  18  19
HETATM   19  C15 UNL     1     -40.671  30.294  -1.988  1.00  0.00     0.260 C 
HETATM   20  C16 UNL     1     -40.271  28.999  -1.429  1.00  0.00     0.126 C 
HETATM   21  O5  UNL     1     -40.039  31.324  -1.662  1.00  0.00    -0.265 OA
ENDBRANCH  18  19
ENDBRANCH   8  18
BRANCH   1  22
HETATM   22  C3  UNL     1     -43.710  35.093  -2.569  1.00  0.00     0.032 C 
HETATM   23  C2  UNL     1     -44.280  36.052  -3.273  1.00  0.00    -0.030 C 
HETATM   24  C1  UNL     1     -45.489  35.806  -4.081  1.00  0.00     0.036 C 
ENDBRANCH   1  22
TORSDOF 6
ENDMDL
MODEL 2
REMARK VINA RESULT: -8.347790810      1.741      3.943
REMARK  6 active torsions:
REMARK  status: ('A' for Active; 'I' for Inactive)
REMARK    1  A    between atoms: C3_3  and  C4_4 
REMARK    2  A    between atoms: C6_8  and  O3_9 
REMARK    3  A    between atoms: C7_11  and  C8_12 
REMARK    4  A    between atoms: C8_12  and  C9_13 
REMARK    5  A    between atoms: C14_18  and  O4_19 
REMARK    6  A    between atoms: O4_19  and  C15_20 
ROOT
HETATM    1  C4  UNL     1     -42.483  33.041  -2.102  1.00  0.00     0.327 C 
HETATM    2  O1  UNL     1     -41.135  32.884  -2.485  1.00  0.00    -0.198 OA
HETATM    3  O2  UNL     1     -40.698  31.819  -1.761  1.00  0.00    -0.189 OA
HETATM    4  C5  UNL     1     -41.394  30.637  -1.962  1.00  0.00     0.176 A 
HETATM    5  C6  UNL     1     -40.843  29.386  -1.683  1.00  0.00     0.111 A 
HETATM    6  C7  UNL     1     -41.546  28.224  -1.886  1.00  0.00    -0.016 A 
HETATM    7  C13 UNL     1     -42.853  28.316  -2.390  1.00  0.00     0.050 A 
HETATM    8  C14 UNL     1     -43.391  29.552  -2.663  1.00  0.00     0.116 A 
HETATM    9  C17 UNL     1     -42.674  30.688  -2.452  1.00  0.00     0.145 A 
HETATM   10  O6  UNL     1     -43.187  31.971  -2.717  1.00  0.00    -0.308 OA
ENDROOT
BRANCH   6  11
HETATM   11  C8  UNL     1     -40.983  26.874  -1.597  1.00  0.00     0.069 C 
BRANCH  11  12
HETATM   12  C9  UNL     1     -41.914  26.066  -0.789  1.00  0.00    -0.020 C 
HETATM   13  C10 UNL     1     -42.025  24.766  -0.909  1.00  0.00    -0.091 C 
HETATM   14  C11 UNL     1     -41.211  24.005  -1.879  1.00  0.00     0.042 C 
HETATM   15  C12 UNL     1     -42.997  24.002  -0.044  1.00  0.00     0.042 C 
ENDBRANCH  11  12
ENDBRANCH   6  11
BRANCH   5  16
HETATM   16  O3  UNL     1     -39.560  29.366  -1.194  1.00  0.00    -0.357 OA
ATOM     17  H3  UNL     1     -39.436  29.006  -0.324  1.00  0.00     0.217 HD
ENDBRANCH   5  16
BRANCH   8  18
HETATM   18  O4  UNL     1     -44.700  29.670  -3.168  1.00  0.00    -0.276 OA
BRANCH  18  19
HETATM   19  C15 UNL     1     -45.809  29.368  -2.387  1.00  0.00     0.260 C 
HETATM   20  C16 UNL     1     -46.629  28.166  -2.554  1.00  0.00     0.126 C 
HETATM   21  O5  UNL     1     -46.102  30.191  -1.489  1.00  0.00    -0.265 OA
ENDBRANCH  18  19
ENDBRANCH   8  18
BRANCH   1  22
HETATM   22  C3  UNL     1     -42.928  34.356  -2.586  1.00  0.00     0.032 C 
HETATM   23  C2  UNL     1     -43.979  34.926  -2.028  1.00  0.00    -0.030 C 
HETATM   24  C1  UNL     1     -44.718  34.277  -0.928  1.00  0.00     0.036 C 
ENDBRANCH   1  22
TORSDOF 6
ENDMDL
MODEL 3
REMARK VINA RESULT: -8.304560385      1.113      1.223
REMARK  6 active torsions:
REMARK  status: ('A' for Active; 'I' for Inactive)
REMARK    1  A    between atoms: C3_3  and  C4_4 
REMARK    2  A    between atoms: C6_8  and  O3_9 
REMARK    3  A    between atoms: C7_11  and  C8_12 
REMARK    4  A    between atoms: C8_12  and  C9_13 
REMARK    5  A    between atoms: C14_18  and  O4_19 
REMARK    6  A    between atoms: O4_19  and  C15_20 
ROOT
HETATM    1  C4  UNL     1     -45.158  33.700  -2.049  1.00  0.00     0.327 C 
HETATM    2  O1  UNL     1     -46.344  33.276  -1.414  1.00  0.00    -0.198 OA
HETATM    3  O2  UNL     1     -46.580  32.039  -1.926  1.00  0.00    -0.189 OA
HETATM    4  C5  UNL     1     -45.573  31.109  -1.727  1.00  0.00     0.176 A 
HETATM    5  C6  UNL     1     -45.803  29.733  -1.764  1.00  0.00     0.111 A 
HETATM    6  C7  UNL     1     -44.793  28.825  -1.566  1.00  0.00    -0.016 A 
HETATM    7  C13 UNL     1     -43.498  29.310  -1.320  1.00  0.00     0.050 A 
HETATM    8  C14 UNL     1     -43.278  30.668  -1.285  1.00  0.00     0.116 A 
HETATM    9  C17 UNL     1     -44.296  31.547  -1.485  1.00  0.00     0.145 A 
HETATM   10  O6  UNL     1     -44.112  32.941  -1.458  1.00  0.00    -0.308 OA
ENDROOT
BRANCH   6  11
HETATM   11  C8  UNL     1     -45.010  27.350  -1.600  1.00  0.00     0.069 C 
BRANCH  11  12
HETATM   12  C9  UNL     1     -43.801  26.619  -1.179  1.00  0.00    -0.020 C 
HETATM   13  C10 UNL     1     -43.840  25.491  -0.515  1.00  0.00    -0.091 C 
HETATM   14  C11 UNL     1     -45.121  24.860  -0.132  1.00  0.00     0.042 C 
HETATM   15  C12 UNL     1     -42.561  24.795  -0.120  1.00  0.00     0.042 C 
ENDBRANCH  11  12
ENDBRANCH   6  11
BRANCH   5  16
HETATM   16  O3  UNL     1     -47.091  29.325  -2.008  1.00  0.00    -0.357 OA
ATOM     17  H3  UNL     1     -47.710  29.403  -1.292  1.00  0.00     0.217 HD
ENDBRANCH   5  16
BRANCH   8  18
HETATM   18  O4  UNL     1     -41.989  31.179  -1.040  1.00  0.00    -0.276 OA
BRANCH  18  19
HETATM   19  C15 UNL     1     -41.061  31.328  -2.064  1.00  0.00     0.260 C 
HETATM   20  C16 UNL     1     -41.415  31.465  -3.480  1.00  0.00     0.126 C 
HETATM   21  O5  UNL     1     -39.854  31.345  -1.730  1.00  0.00    -0.265 OA
ENDBRANCH  18  19
ENDBRANCH   8  18
BRANCH   1  22
HETATM   22  C3  UNL     1     -45.015  35.141  -1.799  1.00  0.00     0.032 C 
HETATM   23  C2  UNL     1     -44.772  35.949  -2.813  1.00  0.00    -0.030 C 
HETATM   24  C1  UNL     1     -44.641  35.443  -4.192  1.00  0.00     0.036 C 
ENDBRANCH   1  22
TORSDOF 6
ENDMDL
MODEL 4
REMARK VINA RESULT: -8.087260765      2.989      6.812
REMARK  6 active torsions:
REMARK  status: ('A' for Active; 'I' for Inactive)
REMARK    1  A    between atoms: C3_3  and  C4_4 
REMARK    2  A    between atoms: C6_8  and  O3_9 
REMARK    3  A    between atoms: C7_11  and  C8_12 
REMARK    4  A    between atoms: C8_12  and  C9_13 
REMARK    5  A    between atoms: C14_18  and  O4_19 
REMARK    6  A    between atoms: O4_19  and  C15_20 
ROOT
HETATM    1  C4  UNL     1     -41.271  31.411  -2.229  1.00  0.00     0.327 C 
HETATM    2  O1  UNL     1     -40.822  32.281  -3.245  1.00  0.00    -0.198 OA
HETATM    3  O2  UNL     1     -41.962  32.766  -3.804  1.00  0.00    -0.189 OA
HETATM    4  C5  UNL     1     -42.810  33.439  -2.939  1.00  0.00     0.176 A 
HETATM    5  C6  UNL     1     -43.755  34.365  -3.384  1.00  0.00     0.111 A 
HETATM    6  C7  UNL     1     -44.589  35.022  -2.513  1.00  0.00    -0.016 A 
HETATM    7  C13 UNL     1     -44.475  34.743  -1.142  1.00  0.00     0.050 A 
HETATM    8  C14 UNL     1     -43.541  33.830  -0.710  1.00  0.00     0.116 A 
HETATM    9  C17 UNL     1     -42.728  33.191  -1.593  1.00  0.00     0.145 A 
HETATM   10  O6  UNL     1     -41.762  32.250  -1.192  1.00  0.00    -0.308 OA
ENDROOT
BRANCH   6  11
HETATM   11  C8  UNL     1     -45.607  36.016  -2.959  1.00  0.00     0.069 C 
BRANCH  11  12
HETATM   12  C9  UNL     1     -46.951  35.665  -2.468  1.00  0.00    -0.020 C 
HETATM   13  C10 UNL     1     -47.810  34.964  -3.166  1.00  0.00    -0.091 C 
HETATM   14  C11 UNL     1     -47.487  34.467  -4.519  1.00  0.00     0.042 C 
HETATM   15  C12 UNL     1     -49.169  34.638  -2.596  1.00  0.00     0.042 C 
ENDBRANCH  11  12
ENDBRANCH   6  11
BRANCH   5  16
HETATM   16  O3  UNL     1     -43.814  34.593  -4.736  1.00  0.00    -0.357 OA
ATOM     17  H3  UNL     1     -44.571  35.065  -5.061  1.00  0.00     0.217 HD
ENDBRANCH   5  16
BRANCH   8  18
HETATM   18  O4  UNL     1     -43.408  33.533   0.660  1.00  0.00    -0.276 OA
BRANCH  18  19
HETATM   19  C15 UNL     1     -44.481  33.062   1.408  1.00  0.00     0.260 C 
HETATM   20  C16 UNL     1     -44.776  33.486   2.779  1.00  0.00     0.126 C 
HETATM   21  O5  UNL     1     -45.228  32.225   0.851  1.00  0.00    -0.265 OA
ENDBRANCH  18  19
ENDBRANCH   8  18
BRANCH   1  22
HETATM   22  C3  UNL     1     -40.119  30.605  -1.799  1.00  0.00     0.032 C 
HETATM   23  C2  UNL     1     -40.289  29.319  -1.554  1.00  0.00    -0.030 C 
HETATM   24  C1  UNL     1     -41.605  28.671  -1.703  1.00  0.00     0.036 C 
ENDBRANCH   1  22
TORSDOF 6
ENDMDL
MODEL 5
REMARK VINA RESULT: -7.983583680      2.044      4.227
REMARK  6 active torsions:
REMARK  status: ('A' for Active; 'I' for Inactive)
REMARK    1  A    between atoms: C3_3  and  C4_4 
REMARK    2  A    between atoms: C6_8  and  O3_9 
REMARK    3  A    between atoms: C7_11  and  C8_12 
REMARK    4  A    between atoms: C8_12  and  C9_13 
REMARK    5  A    between atoms: C14_18  and  O4_19 
REMARK    6  A    between atoms: O4_19  and  C15_20 
ROOT
HETATM    1  C4  UNL     1     -42.515  32.495  -1.224  1.00  0.00     0.327 C 
HETATM    2  O1  UNL     1     -41.359  32.328  -2.014  1.00  0.00    -0.198 OA
HETATM    3  O2  UNL     1     -40.803  31.172  -1.562  1.00  0.00    -0.189 OA
HETATM    4  C5  UNL     1     -41.609  30.049  -1.651  1.00  0.00     0.176 A 
HETATM    5  C6  UNL     1     -41.091  28.754  -1.673  1.00  0.00     0.111 A 
HETATM    6  C7  UNL     1     -41.904  27.651  -1.760  1.00  0.00    -0.016 A 
HETATM    7  C13 UNL     1     -43.292  27.850  -1.828  1.00  0.00     0.050 A 
HETATM    8  C14 UNL     1     -43.797  29.129  -1.806  1.00  0.00     0.116 A 
HETATM    9  C17 UNL     1     -42.970  30.205  -1.719  1.00  0.00     0.145 A 
HETATM   10  O6  UNL     1     -43.446  31.529  -1.693  1.00  0.00    -0.308 OA
ENDROOT
BRANCH   6  11
HETATM   11  C8  UNL     1     -41.379  26.255  -1.785  1.00  0.00     0.069 C 
BRANCH  11  12
HETATM   12  C9  UNL     1     -42.099  25.393  -0.831  1.00  0.00    -0.020 C 
HETATM   13  C10 UNL     1     -42.092  24.085  -0.900  1.00  0.00    -0.091 C 
HETATM   14  C11 UNL     1     -41.351  23.369  -1.959  1.00  0.00     0.042 C 
HETATM   15  C12 UNL     1     -42.849  23.265   0.115  1.00  0.00     0.042 C 
ENDBRANCH  11  12
ENDBRANCH   6  11
BRANCH   5  16
HETATM   16  O3  UNL     1     -39.725  28.628  -1.604  1.00  0.00    -0.357 OA
ATOM     17  H3  UNL     1     -39.299  28.978  -0.830  1.00  0.00     0.217 HD
ENDBRANCH   5  16
BRANCH   8  18
HETATM   18  O4  UNL     1     -45.185  29.354  -1.874  1.00  0.00    -0.276 OA
BRANCH  18  19
HETATM   19  C15 UNL     1     -46.031  28.477  -2.542  1.00  0.00     0.260 C 
HETATM   20  C16 UNL     1     -46.825  27.438  -1.882  1.00  0.00     0.126 C 
HETATM   21  O5  UNL     1     -46.101  28.604  -3.786  1.00  0.00    -0.265 OA
ENDBRANCH  18  19
ENDBRANCH   8  18
BRANCH   1  22
HETATM   22  C3  UNL     1     -42.989  33.872  -1.423  1.00  0.00     0.032 C 
HETATM   23  C2  UNL     1     -43.758  34.427  -0.505  1.00  0.00    -0.030 C 
HETATM   24  C1  UNL     1     -44.152  33.701   0.717  1.00  0.00     0.036 C 
ENDBRANCH   1  22
TORSDOF 6
ENDMDL
