MODEL 1
REMARK VINA RESULT: -4.994371408      0.000      0.000
REMARK  3 active torsions:
REMARK  status: ('A' for Active; 'I' for Inactive)
REMARK    1  A    between atoms: C1_2  and  C2_3 
REMARK       I    between atoms: C1_2  and  N1_5 
REMARK    2  A    between atoms: C3_7  and  C4_9 
REMARK    3  A    between atoms: C4_9  and  O2_10 
ROOT
HETATM    1  O1  UNL     1     -13.615  -8.548  76.354  1.00  0.00    -0.272 OA
HETATM    2  C1  UNL     1     -13.730  -9.407  75.417  1.00  0.00     0.236 C 
HETATM    3  N1  UNL     1     -14.789 -10.355  75.553  1.00  0.00    -0.322 N 
ATOM      4  H1  UNL     1     -14.584 -11.349  75.648  1.00  0.00     0.169 HD
HETATM    5  C3  UNL     1     -15.996  -9.940  75.553  1.00  0.00     0.082 C 
HETATM    6 BR1  UNL     1     -16.467  -8.107  75.373  1.00  0.00    -0.034 Br
ENDROOT
BRANCH   2   7
HETATM    7  C2  UNL     1     -12.825  -9.432  74.262  1.00  0.00     0.217 C 
HETATM    8 CL1  UNL     1     -13.188  -8.181  73.055  1.00  0.00    -0.121 Cl
ENDBRANCH   2   7
BRANCH   5   9
HETATM    9  C4  UNL     1     -17.132 -10.922  75.714  1.00  0.00     0.229 C 
BRANCH   9  10
HETATM   10  O2  UNL     1     -18.227 -10.258  76.305  1.00  0.00    -0.394 OA
ATOM     11  H2  UNL     1     -18.763 -10.897  76.761  1.00  0.00     0.209 HD
ENDBRANCH   9  10
ENDBRANCH   5   9
TORSDOF 3
ENDMDL
MODEL 2
REMARK VINA RESULT: -4.859776353      6.639      6.778
REMARK  3 active torsions:
REMARK  status: ('A' for Active; 'I' for Inactive)
REMARK    1  A    between atoms: C1_2  and  C2_3 
REMARK       I    between atoms: C1_2  and  N1_5 
REMARK    2  A    between atoms: C3_7  and  C4_9 
REMARK    3  A    between atoms: C4_9  and  O2_10 
ROOT
HETATM    1  O1  UNL     1     -16.329  -8.622  70.665  1.00  0.00    -0.272 OA
HETATM    2  C1  UNL     1     -16.911  -9.736  70.886  1.00  0.00     0.236 C 
HETATM    3  N1  UNL     1     -17.942 -10.104  69.969  1.00  0.00    -0.322 N 
ATOM      4  H1  UNL     1     -18.906 -10.203  70.287  1.00  0.00     0.169 HD
HETATM    5  C3  UNL     1     -17.640 -10.309  68.746  1.00  0.00     0.082 C 
HETATM    6 BR1  UNL     1     -15.870 -10.155  68.072  1.00  0.00    -0.034 Br
ENDROOT
BRANCH   2   7
HETATM    7  C2  UNL     1     -16.554 -10.596  72.020  1.00  0.00     0.217 C 
HETATM    8 CL1  UNL     1     -17.113 -12.272  71.837  1.00  0.00    -0.121 Cl
ENDBRANCH   2   7
BRANCH   5   9
HETATM    9  C4  UNL     1     -18.716 -10.681  67.755  1.00  0.00     0.229 C 
BRANCH   9  10
HETATM   10  O2  UNL     1     -19.733  -9.705  67.798  1.00  0.00    -0.394 OA
ATOM     11  H2  UNL     1     -19.726  -9.217  66.983  1.00  0.00     0.209 HD
ENDBRANCH   9  10
ENDBRANCH   5   9
TORSDOF 3
ENDMDL
MODEL 3
REMARK VINA RESULT: -4.790070555      2.631      3.042
REMARK  3 active torsions:
REMARK  status: ('A' for Active; 'I' for Inactive)
REMARK    1  A    between atoms: C1_2  and  C2_3 
REMARK       I    between atoms: C1_2  and  N1_5 
REMARK    2  A    between atoms: C3_7  and  C4_9 
REMARK    3  A    between atoms: C4_9  and  O2_10 
ROOT
HETATM    1  O1  UNL     1     -17.471  -9.582  73.176  1.00  0.00    -0.272 OA
HETATM    2  C1  UNL     1     -16.364  -9.038  73.504  1.00  0.00     0.236 C 
HETATM    3  N1  UNL     1     -16.409  -8.121  74.597  1.00  0.00    -0.322 N 
ATOM      4  H1  UNL     1     -16.181  -7.137  74.457  1.00  0.00     0.169 HD
HETATM    5  C3  UNL     1     -16.738  -8.550  75.754  1.00  0.00     0.082 C 
HETATM    6 BR1  UNL     1     -17.170 -10.367  76.105  1.00  0.00    -0.034 Br
ENDROOT
BRANCH   2   7
HETATM    7  C2  UNL     1     -15.109  -9.326  72.800  1.00  0.00     0.217 C 
HETATM    8 CL1  UNL     1     -13.916  -8.017  72.922  1.00  0.00    -0.121 Cl
ENDBRANCH   2   7
BRANCH   5   9
HETATM    9  C4  UNL     1     -16.812  -7.595  76.921  1.00  0.00     0.229 C 
BRANCH   9  10
HETATM   10  O2  UNL     1     -16.891  -8.340  78.115  1.00  0.00    -0.394 OA
ATOM     11  H2  UNL     1     -16.553  -7.813  78.829  1.00  0.00     0.209 HD
ENDBRANCH   9  10
ENDBRANCH   5   9
TORSDOF 3
ENDMDL
MODEL 4
REMARK VINA RESULT: -4.751608494      2.579      2.784
REMARK  3 active torsions:
REMARK  status: ('A' for Active; 'I' for Inactive)
REMARK    1  A    between atoms: C1_2  and  C2_3 
REMARK       I    between atoms: C1_2  and  N1_5 
REMARK    2  A    between atoms: C3_7  and  C4_9 
REMARK    3  A    between atoms: C4_9  and  O2_10 
ROOT
HETATM    1  O1  UNL     1     -13.658  -9.499  74.743  1.00  0.00    -0.272 OA
HETATM    2  C1  UNL     1     -14.859  -9.922  74.820  1.00  0.00     0.236 C 
HETATM    3  N1  UNL     1     -15.657  -9.374  75.870  1.00  0.00    -0.322 N 
ATOM      4  H1  UNL     1     -16.016  -9.973  76.614  1.00  0.00     0.169 HD
HETATM    5  C3  UNL     1     -15.917  -8.124  75.864  1.00  0.00     0.082 C 
HETATM    6 BR1  UNL     1     -15.297  -6.939  74.513  1.00  0.00    -0.034 Br
ENDROOT
BRANCH   2   7
HETATM    7  C2  UNL     1     -15.400 -10.921  73.892  1.00  0.00     0.217 C 
HETATM    8 CL1  UNL     1     -17.141 -11.207  74.100  1.00  0.00    -0.121 Cl
ENDBRANCH   2   7
BRANCH   5   9
HETATM    9  C4  UNL     1     -16.743  -7.519  76.974  1.00  0.00     0.229 C 
BRANCH   9  10
HETATM   10  O2  UNL     1     -16.959  -8.497  77.966  1.00  0.00    -0.394 OA
ATOM     11  H2  UNL     1     -16.200  -8.529  78.536  1.00  0.00     0.209 HD
ENDBRANCH   9  10
ENDBRANCH   5   9
TORSDOF 3
ENDMDL
MODEL 5
REMARK VINA RESULT: -4.733494556      8.511      8.983
REMARK  3 active torsions:
REMARK  status: ('A' for Active; 'I' for Inactive)
REMARK    1  A    between atoms: C1_2  and  C2_3 
REMARK       I    between atoms: C1_2  and  N1_5 
REMARK    2  A    between atoms: C3_7  and  C4_9 
REMARK    3  A    between atoms: C4_9  and  O2_10 
ROOT
HETATM    1  O1  UNL     1     -18.966 -11.672  68.294  1.00  0.00    -0.272 OA
HETATM    2  C1  UNL     1     -17.902 -11.747  67.594  1.00  0.00     0.236 C 
HETATM    3  N1  UNL     1     -17.479 -10.544  66.952  1.00  0.00    -0.322 N 
ATOM      4  H1  UNL     1     -17.448 -10.485  65.934  1.00  0.00     0.169 HD
HETATM    5  C3  UNL     1     -17.141  -9.544  67.669  1.00  0.00     0.082 C 
HETATM    6 BR1  UNL     1     -17.161  -9.572  69.569  1.00  0.00    -0.034 Br
ENDROOT
BRANCH   2   7
HETATM    7  C2  UNL     1     -17.149 -12.998  67.445  1.00  0.00     0.217 C 
HETATM    8 CL1  UNL     1     -17.701 -14.287  68.535  1.00  0.00    -0.121 Cl
ENDBRANCH   2   7
BRANCH   5   9
HETATM    9  C4  UNL     1     -16.709  -8.255  67.011  1.00  0.00     0.229 C 
BRANCH   9  10
HETATM   10  O2  UNL     1     -17.100  -8.282  65.657  1.00  0.00    -0.394 OA
ATOM     11  H2  UNL     1     -17.395  -7.414  65.405  1.00  0.00     0.209 HD
ENDBRANCH   9  10
ENDBRANCH   5   9
TORSDOF 3
ENDMDL
