MODEL 1
REMARK VINA RESULT: -4.481102243      0.000      0.000
REMARK  2 active torsions:
REMARK  status: ('A' for Active; 'I' for Inactive)
REMARK    1  A    between atoms: C1_2  and  N1_3 
REMARK    2  A    between atoms: N1_3  and  C2_5 
ROOT
HETATM    1  C2  UNL     1      -0.575   2.475  10.500  1.00  0.00     0.286 C 
HETATM    2  C3  UNL     1      -1.882   3.172  10.898  1.00  0.00     0.056 C 
HETATM    3  C4  UNL     1      -2.506   2.015  11.655  1.00  0.00     0.031 C 
HETATM    4  C5  UNL     1      -2.035   0.815  10.902  1.00  0.00     0.235 C 
HETATM    5  N2  UNL     1      -1.136   1.299   9.849  1.00  0.00    -0.054 N 
ATOM      6  H21 UNL     1      -0.458   0.622   9.501  1.00  0.00     0.279 HD
ATOM      7  H22 UNL     1      -1.569   1.462   8.940  1.00  0.00     0.279 HD
ENDROOT
BRANCH   1   8
HETATM    8  N1  UNL     1       0.260   3.255   9.685  1.00  0.00    -0.341 N 
ATOM      9  H1  UNL     1       1.025   2.825   9.165  1.00  0.00     0.163 HD
BRANCH   8  10
HETATM   10  C1  UNL     1       0.024   4.648   9.595  1.00  0.00     0.350 C 
HETATM   11  O1  UNL     1       0.219   5.303   8.538  1.00  0.00    -0.284 OA
ENDBRANCH   8  10
ENDBRANCH   1   8
TORSDOF 2
ENDMDL
MODEL 2
REMARK VINA RESULT: -4.479226198      1.869      2.043
REMARK  2 active torsions:
REMARK  status: ('A' for Active; 'I' for Inactive)
REMARK    1  A    between atoms: C1_2  and  N1_3 
REMARK    2  A    between atoms: N1_3  and  C2_5 
ROOT
HETATM    1  C2  UNL     1      -2.012   3.068   9.947  1.00  0.00     0.286 C 
HETATM    2  C3  UNL     1      -1.152   2.749  11.177  1.00  0.00     0.056 C 
HETATM    3  C4  UNL     1      -2.106   1.777  11.844  1.00  0.00     0.031 C 
HETATM    4  C5  UNL     1      -3.453   2.325  11.503  1.00  0.00     0.235 C 
HETATM    5  N2  UNL     1      -3.232   3.480  10.626  1.00  0.00    -0.054 N 
ATOM      6  H21 UNL     1      -4.012   3.730  10.019  1.00  0.00     0.279 HD
ATOM      7  H22 UNL     1      -3.193   4.387  11.092  1.00  0.00     0.279 HD
ENDROOT
BRANCH   1   8
HETATM    8  N1  UNL     1      -1.455   4.038   9.100  1.00  0.00    -0.341 N 
ATOM      9  H1  UNL     1      -1.113   3.782   8.173  1.00  0.00     0.163 HD
BRANCH   8  10
HETATM   10  C1  UNL     1      -1.374   5.378   9.550  1.00  0.00     0.350 C 
HETATM   11  O1  UNL     1      -2.390   6.102   9.715  1.00  0.00    -0.284 OA
ENDBRANCH   8  10
ENDBRANCH   1   8
TORSDOF 2
ENDMDL
MODEL 3
REMARK VINA RESULT: -4.274428322      4.261      6.562
REMARK  2 active torsions:
REMARK  status: ('A' for Active; 'I' for Inactive)
REMARK    1  A    between atoms: C1_2  and  N1_3 
REMARK    2  A    between atoms: N1_3  and  C2_5 
ROOT
HETATM    1  C2  UNL     1       2.025   7.605   9.358  1.00  0.00     0.286 C 
HETATM    2  C3  UNL     1       3.238   8.507   9.098  1.00  0.00     0.056 C 
HETATM    3  C4  UNL     1       2.485   9.812   8.925  1.00  0.00     0.031 C 
HETATM    4  C5  UNL     1       1.211   9.392   8.266  1.00  0.00     0.235 C 
HETATM    5  N2  UNL     1       1.245   7.929   8.172  1.00  0.00    -0.054 N 
ATOM      6  H21 UNL     1       0.337   7.470   8.102  1.00  0.00     0.279 HD
ATOM      7  H22 UNL     1       1.599   7.551   7.293  1.00  0.00     0.279 HD
ENDROOT
BRANCH   1   8
HETATM    8  N1  UNL     1       2.347   6.245   9.495  1.00  0.00    -0.341 N 
ATOM      9  H1  UNL     1       3.313   5.955   9.646  1.00  0.00     0.163 HD
BRANCH   8  10
HETATM   10  C1  UNL     1       1.310   5.284   9.422  1.00  0.00     0.350 C 
HETATM   11  O1  UNL     1       0.527   5.202   8.440  1.00  0.00    -0.284 OA
ENDBRANCH   8  10
ENDBRANCH   1   8
TORSDOF 2
ENDMDL
MODEL 4
REMARK VINA RESULT: -4.272176336      3.495      4.223
REMARK  2 active torsions:
REMARK  status: ('A' for Active; 'I' for Inactive)
REMARK    1  A    between atoms: C1_2  and  N1_3 
REMARK    2  A    between atoms: N1_3  and  C2_5 
ROOT
HETATM    1  C2  UNL     1       0.013   5.582   8.748  1.00  0.00     0.286 C 
HETATM    2  C3  UNL     1      -0.132   5.503  10.273  1.00  0.00     0.056 C 
HETATM    3  C4  UNL     1       1.198   6.135  10.635  1.00  0.00     0.031 C 
HETATM    4  C5  UNL     1       2.111   5.669   9.548  1.00  0.00     0.235 C 
HETATM    5  N2  UNL     1       1.291   4.899   8.607  1.00  0.00    -0.054 N 
ATOM      6  H21 UNL     1       1.654   4.833   7.656  1.00  0.00     0.279 HD
ATOM      7  H22 UNL     1       1.272   3.890   8.761  1.00  0.00     0.279 HD
ENDROOT
BRANCH   1   8
HETATM    8  N1  UNL     1      -1.049   4.992   8.045  1.00  0.00    -0.341 N 
ATOM      9  H1  UNL     1      -0.870   4.278   7.340  1.00  0.00     0.163 HD
BRANCH   8  10
HETATM   10  C1  UNL     1      -2.373   5.404   8.330  1.00  0.00     0.350 C 
HETATM   11  O1  UNL     1      -2.762   6.592   8.182  1.00  0.00    -0.284 OA
ENDBRANCH   8  10
ENDBRANCH   1   8
TORSDOF 2
ENDMDL
MODEL 5
REMARK VINA RESULT: -4.237980364      1.575      1.587
REMARK  2 active torsions:
REMARK  status: ('A' for Active; 'I' for Inactive)
REMARK    1  A    between atoms: C1_2  and  N1_3 
REMARK    2  A    between atoms: N1_3  and  C2_5 
ROOT
HETATM    1  C2  UNL     1      -1.354   3.073  10.237  1.00  0.00     0.286 C 
HETATM    2  C3  UNL     1      -2.583   3.139  11.153  1.00  0.00     0.056 C 
HETATM    3  C4  UNL     1      -2.376   1.814  11.862  1.00  0.00     0.031 C 
HETATM    4  C5  UNL     1      -1.787   0.942  10.802  1.00  0.00     0.235 C 
HETATM    5  N2  UNL     1      -1.607   1.782   9.613  1.00  0.00    -0.054 N 
ATOM      6  H21 UNL     1      -0.899   1.465   8.952  1.00  0.00     0.279 HD
ATOM      7  H22 UNL     1      -2.371   1.760   8.937  1.00  0.00     0.279 HD
ENDROOT
BRANCH   1   8
HETATM    8  N1  UNL     1      -1.256   4.149   9.341  1.00  0.00    -0.341 N 
ATOM      9  H1  UNL     1      -0.383   4.333   8.847  1.00  0.00     0.163 HD
BRANCH   8  10
HETATM   10  C1  UNL     1      -2.387   4.974   9.132  1.00  0.00     0.350 C 
HETATM   11  O1  UNL     1      -2.408   6.192   9.447  1.00  0.00    -0.284 OA
ENDBRANCH   8  10
ENDBRANCH   1   8
TORSDOF 2
ENDMDL
