MODEL 1
REMARK VINA RESULT: -4.716152576      0.000      0.000
REMARK  2 active torsions:
REMARK  status: ('A' for Active; 'I' for Inactive)
REMARK    1  A    between atoms: C2_2  and  C3_3 
REMARK    2  A    between atoms: C5_5  and  N1_6 
REMARK       I    between atoms: N1_6  and  C6_8 
ROOT
HETATM    1  C3  UNL     1      -1.428   2.580  11.283  1.00  0.00     0.032 A 
HETATM    2  C4  UNL     1      -2.025   3.784  10.614  1.00  0.00     0.036 A 
HETATM    3  C5  UNL     1      -0.655   3.220  10.233  1.00  0.00     0.094 A 
ENDROOT
BRANCH   3   4
HETATM    4  N1  UNL     1       0.418   4.131  10.428  1.00  0.00    -0.340 N 
HETATM    5  C6  UNL     1       0.898   5.059   9.472  1.00  0.00     0.329 C 
HETATM    6  N2  UNL     1       1.976   5.928   9.762  1.00  0.00    -0.040 NA
HETATM    7  O1  UNL     1       0.405   5.174   8.314  1.00  0.00    -0.251 OA
ATOM      8  H1  UNL     1       0.883   4.116  11.336  1.00  0.00     0.164 HD
ENDBRANCH   3   4
BRANCH   1   9
HETATM    9  C2  UNL     1      -2.154   1.299  10.937  1.00  0.00    -0.030 C 
HETATM   10  C1  UNL     1      -3.462   1.202  11.037  1.00  0.00     0.007 C 
ENDBRANCH   1   9
TORSDOF 2
ENDMDL
MODEL 2
REMARK VINA RESULT: -4.710947503      2.311      2.438
REMARK  2 active torsions:
REMARK  status: ('A' for Active; 'I' for Inactive)
REMARK    1  A    between atoms: C2_2  and  C3_3 
REMARK    2  A    between atoms: C5_5  and  N1_6 
REMARK       I    between atoms: N1_6  and  C6_8 
ROOT
HETATM    1  C3  UNL     1      -1.623   1.801  10.232  1.00  0.00     0.032 A 
HETATM    2  C4  UNL     1      -0.648   2.781  10.816  1.00  0.00     0.036 A 
HETATM    3  C5  UNL     1      -1.924   3.215  10.091  1.00  0.00     0.094 A 
ENDROOT
BRANCH   3   4
HETATM    4  N1  UNL     1      -1.688   4.003   8.932  1.00  0.00    -0.340 N 
HETATM    5  C6  UNL     1      -1.978   5.382   8.798  1.00  0.00     0.329 C 
HETATM    6  N2  UNL     1      -1.707   6.082   7.599  1.00  0.00    -0.040 NA
HETATM    7  O1  UNL     1      -2.492   6.073   9.724  1.00  0.00    -0.251 OA
ATOM      8  H1  UNL     1      -1.274   3.534   8.126  1.00  0.00     0.164 HD
ENDBRANCH   3   4
BRANCH   1   9
HETATM    9  C2  UNL     1      -2.378   1.027  11.291  1.00  0.00    -0.030 C 
HETATM   10  C1  UNL     1      -2.986  -0.105  11.011  1.00  0.00     0.007 C 
ENDBRANCH   1   9
TORSDOF 2
ENDMDL
MODEL 3
REMARK VINA RESULT: -4.703065073      1.317      1.507
REMARK  2 active torsions:
REMARK  status: ('A' for Active; 'I' for Inactive)
REMARK    1  A    between atoms: C2_2  and  C3_3 
REMARK    2  A    between atoms: C5_5  and  N1_6 
REMARK       I    between atoms: N1_6  and  C6_8 
ROOT
HETATM    1  C3  UNL     1      -1.685   2.395  10.333  1.00  0.00     0.032 A 
HETATM    2  C4  UNL     1      -0.405   1.618  10.220  1.00  0.00     0.036 A 
HETATM    3  C5  UNL     1      -0.445   3.093  10.624  1.00  0.00     0.094 A 
ENDROOT
BRANCH   3   4
HETATM    4  N1  UNL     1       0.254   3.953   9.734  1.00  0.00    -0.340 N 
HETATM    5  C6  UNL     1      -0.027   5.325   9.521  1.00  0.00     0.329 C 
HETATM    6  N2  UNL     1       0.727   6.100   8.610  1.00  0.00    -0.040 NA
HETATM    7  O1  UNL     1      -0.955   5.941  10.118  1.00  0.00    -0.251 OA
ATOM      8  H1  UNL     1       1.024   3.548   9.203  1.00  0.00     0.164 HD
ENDBRANCH   3   4
BRANCH   1   9
HETATM    9  C2  UNL     1      -2.533   1.956  11.506  1.00  0.00    -0.030 C 
HETATM   10  C1  UNL     1      -3.845   1.897  11.421  1.00  0.00     0.007 C 
ENDBRANCH   1   9
TORSDOF 2
ENDMDL
MODEL 4
REMARK VINA RESULT: -4.642446009      1.344      1.441
REMARK  2 active torsions:
REMARK  status: ('A' for Active; 'I' for Inactive)
REMARK    1  A    between atoms: C2_2  and  C3_3 
REMARK    2  A    between atoms: C5_5  and  N1_6 
REMARK       I    between atoms: N1_6  and  C6_8 
ROOT
HETATM    1  C3  UNL     1      -2.463   3.346  11.060  1.00  0.00     0.032 A 
HETATM    2  C4  UNL     1      -2.611   3.045   9.597  1.00  0.00     0.036 A 
HETATM    3  C5  UNL     1      -1.377   3.737  10.179  1.00  0.00     0.094 A 
ENDROOT
BRANCH   3   4
HETATM    4  N1  UNL     1      -1.152   5.043   9.665  1.00  0.00    -0.340 N 
HETATM    5  C6  UNL     1       0.042   5.495   9.052  1.00  0.00     0.329 C 
HETATM    6  N2  UNL     1       0.170   6.818   8.570  1.00  0.00    -0.040 NA
HETATM    7  O1  UNL     1       1.059   4.760   8.895  1.00  0.00    -0.251 OA
ATOM      8  H1  UNL     1      -1.916   5.713   9.745  1.00  0.00     0.164 HD
ENDBRANCH   3   4
BRANCH   1   9
HETATM    9  C2  UNL     1      -2.272   2.101  11.897  1.00  0.00    -0.030 C 
HETATM   10  C1  UNL     1      -2.417   0.898  11.382  1.00  0.00     0.007 C 
ENDBRANCH   1   9
TORSDOF 2
ENDMDL
MODEL 5
REMARK VINA RESULT: -4.613549620      2.373      2.608
REMARK  2 active torsions:
REMARK  status: ('A' for Active; 'I' for Inactive)
REMARK    1  A    between atoms: C2_2  and  C3_3 
REMARK    2  A    between atoms: C5_5  and  N1_6 
REMARK       I    between atoms: N1_6  and  C6_8 
ROOT
HETATM    1  C3  UNL     1      -1.843   3.654  10.018  1.00  0.00     0.032 A 
HETATM    2  C4  UNL     1      -0.375   3.658  10.330  1.00  0.00     0.036 A 
HETATM    3  C5  UNL     1      -1.205   4.940  10.234  1.00  0.00     0.094 A 
ENDROOT
BRANCH   3   4
HETATM    4  N1  UNL     1      -0.770   5.833   9.217  1.00  0.00    -0.340 N 
HETATM    5  C6  UNL     1      -1.612   6.555   8.336  1.00  0.00     0.329 C 
HETATM    6  N2  UNL     1      -1.082   7.422   7.353  1.00  0.00    -0.040 NA
HETATM    7  O1  UNL     1      -2.873   6.475   8.366  1.00  0.00    -0.251 OA
ATOM      8  H1  UNL     1       0.236   5.966   9.113  1.00  0.00     0.164 HD
ENDBRANCH   3   4
BRANCH   1   9
HETATM    9  C2  UNL     1      -2.679   3.089  11.146  1.00  0.00    -0.030 C 
HETATM   10  C1  UNL     1      -2.216   2.146  11.938  1.00  0.00     0.007 C 
ENDBRANCH   1   9
TORSDOF 2
ENDMDL
