MODEL 1
REMARK VINA RESULT: -4.293075688      0.000      0.000
REMARK  2 active torsions:
REMARK  status: ('A' for Active; 'I' for Inactive)
REMARK    1  A    between atoms: C1_2  and  N1_3 
REMARK    2  A    between atoms: N1_3  and  C2_5 
ROOT
HETATM    1  C2  UNL     1      -2.014   3.065   9.947  1.00  0.00     0.286 C 
HETATM    2  C3  UNL     1      -1.156   2.746  11.178  1.00  0.00     0.056 C 
HETATM    3  C4  UNL     1      -2.111   1.772  11.842  1.00  0.00     0.031 C 
HETATM    4  C5  UNL     1      -3.457   2.320  11.498  1.00  0.00     0.235 C 
HETATM    5  N2  UNL     1      -3.236   3.476  10.624  1.00  0.00    -0.054 N 
ATOM      6  H21 UNL     1      -4.015   3.725  10.015  1.00  0.00     0.279 HD
ATOM      7  H22 UNL     1      -3.199   4.382  11.091  1.00  0.00     0.279 HD
ENDROOT
BRANCH   1   8
HETATM    8  N1  UNL     1      -1.455   4.037   9.102  1.00  0.00    -0.341 N 
ATOM      9  H1  UNL     1      -1.112   3.783   8.176  1.00  0.00     0.163 HD
BRANCH   8  10
HETATM   10  C1  UNL     1      -1.376   5.376   9.555  1.00  0.00     0.350 C 
HETATM   11  O1  UNL     1      -2.392   6.101   9.717  1.00  0.00    -0.284 OA
ENDBRANCH   8  10
ENDBRANCH   1   8
TORSDOF 2
ENDMDL
MODEL 2
REMARK VINA RESULT: -4.290110838      1.869      2.042
REMARK  2 active torsions:
REMARK  status: ('A' for Active; 'I' for Inactive)
REMARK    1  A    between atoms: C1_2  and  N1_3 
REMARK    2  A    between atoms: N1_3  and  C2_5 
ROOT
HETATM    1  C2  UNL     1      -0.575   2.475  10.500  1.00  0.00     0.286 C 
HETATM    2  C3  UNL     1      -1.882   3.172  10.897  1.00  0.00     0.056 C 
HETATM    3  C4  UNL     1      -2.506   2.016  11.655  1.00  0.00     0.031 C 
HETATM    4  C5  UNL     1      -2.035   0.815  10.902  1.00  0.00     0.235 C 
HETATM    5  N2  UNL     1      -1.136   1.299   9.849  1.00  0.00    -0.054 N 
ATOM      6  H21 UNL     1      -0.458   0.622   9.501  1.00  0.00     0.279 HD
ATOM      7  H22 UNL     1      -1.569   1.462   8.939  1.00  0.00     0.279 HD
ENDROOT
BRANCH   1   8
HETATM    8  N1  UNL     1       0.260   3.255   9.685  1.00  0.00    -0.341 N 
ATOM      9  H1  UNL     1       1.025   2.824   9.165  1.00  0.00     0.163 HD
BRANCH   8  10
HETATM   10  C1  UNL     1       0.025   4.648   9.596  1.00  0.00     0.350 C 
HETATM   11  O1  UNL     1       0.217   5.303   8.538  1.00  0.00    -0.284 OA
ENDBRANCH   8  10
ENDBRANCH   1   8
TORSDOF 2
ENDMDL
MODEL 3
REMARK VINA RESULT: -4.084051038      4.681      6.652
REMARK  2 active torsions:
REMARK  status: ('A' for Active; 'I' for Inactive)
REMARK    1  A    between atoms: C1_2  and  N1_3 
REMARK    2  A    between atoms: N1_3  and  C2_5 
ROOT
HETATM    1  C2  UNL     1       2.024   7.602   9.358  1.00  0.00     0.286 C 
HETATM    2  C3  UNL     1       3.236   8.505   9.099  1.00  0.00     0.056 C 
HETATM    3  C4  UNL     1       2.483   9.810   8.927  1.00  0.00     0.031 C 
HETATM    4  C5  UNL     1       1.209   9.390   8.269  1.00  0.00     0.235 C 
HETATM    5  N2  UNL     1       1.243   7.927   8.173  1.00  0.00    -0.054 N 
ATOM      6  H21 UNL     1       0.335   7.468   8.103  1.00  0.00     0.279 HD
ATOM      7  H22 UNL     1       1.597   7.550   7.294  1.00  0.00     0.279 HD
ENDROOT
BRANCH   1   8
HETATM    8  N1  UNL     1       2.346   6.243   9.494  1.00  0.00    -0.341 N 
ATOM      9  H1  UNL     1       3.312   5.952   9.645  1.00  0.00     0.163 HD
BRANCH   8  10
HETATM   10  C1  UNL     1       1.310   5.281   9.419  1.00  0.00     0.350 C 
HETATM   11  O1  UNL     1       0.526   5.201   8.438  1.00  0.00    -0.284 OA
ENDBRANCH   8  10
ENDBRANCH   1   8
TORSDOF 2
ENDMDL
MODEL 4
REMARK VINA RESULT: -4.071735207      3.149      4.075
REMARK  2 active torsions:
REMARK  status: ('A' for Active; 'I' for Inactive)
REMARK    1  A    between atoms: C1_2  and  N1_3 
REMARK    2  A    between atoms: N1_3  and  C2_5 
ROOT
HETATM    1  C2  UNL     1       0.020   5.601   8.741  1.00  0.00     0.286 C 
HETATM    2  C3  UNL     1      -0.136   5.508  10.264  1.00  0.00     0.056 C 
HETATM    3  C4  UNL     1       1.200   6.121  10.641  1.00  0.00     0.031 C 
HETATM    4  C5  UNL     1       2.113   5.654   9.555  1.00  0.00     0.235 C 
HETATM    5  N2  UNL     1       1.290   4.903   8.601  1.00  0.00    -0.054 N 
ATOM      6  H21 UNL     1       1.659   4.842   7.652  1.00  0.00     0.279 HD
ATOM      7  H22 UNL     1       1.259   3.894   8.745  1.00  0.00     0.279 HD
ENDROOT
BRANCH   1   8
HETATM    8  N1  UNL     1      -1.044   5.030   8.025  1.00  0.00    -0.341 N 
ATOM      9  H1  UNL     1      -0.865   4.370   7.269  1.00  0.00     0.163 HD
BRANCH   8  10
HETATM   10  C1  UNL     1      -2.371   5.386   8.369  1.00  0.00     0.350 C 
HETATM   11  O1  UNL     1      -2.836   6.540   8.178  1.00  0.00    -0.284 OA
ENDBRANCH   8  10
ENDBRANCH   1   8
TORSDOF 2
ENDMDL
MODEL 5
REMARK VINA RESULT: -4.048051305      1.175      1.412
REMARK  2 active torsions:
REMARK  status: ('A' for Active; 'I' for Inactive)
REMARK    1  A    between atoms: C1_2  and  N1_3 
REMARK    2  A    between atoms: N1_3  and  C2_5 
ROOT
HETATM    1  C2  UNL     1      -1.356   3.041  10.213  1.00  0.00     0.286 C 
HETATM    2  C3  UNL     1      -2.561   3.120  11.159  1.00  0.00     0.056 C 
HETATM    3  C4  UNL     1      -2.361   1.785  11.851  1.00  0.00     0.031 C 
HETATM    4  C5  UNL     1      -1.812   0.913  10.770  1.00  0.00     0.235 C 
HETATM    5  N2  UNL     1      -1.646   1.760   9.584  1.00  0.00    -0.054 N 
ATOM      6  H21 UNL     1      -0.958   1.437   8.903  1.00  0.00     0.279 HD
ATOM      7  H22 UNL     1      -2.425   1.757   8.926  1.00  0.00     0.279 HD
ENDROOT
BRANCH   1   8
HETATM    8  N1  UNL     1      -1.260   4.123   9.324  1.00  0.00    -0.341 N 
ATOM      9  H1  UNL     1      -0.395   4.298   8.812  1.00  0.00     0.163 HD
BRANCH   8  10
HETATM   10  C1  UNL     1      -2.382   4.968   9.148  1.00  0.00     0.350 C 
HETATM   11  O1  UNL     1      -2.381   6.179   9.491  1.00  0.00    -0.284 OA
ENDBRANCH   8  10
ENDBRANCH   1   8
TORSDOF 2
ENDMDL
