MODEL 1
REMARK VINA RESULT: -6.217808148      0.000      0.000
REMARK  2 active torsions:
REMARK  status: ('A' for Active; 'I' for Inactive)
REMARK    1  A    between atoms: C5_5  and  N1_6 
REMARK       I    between atoms: N1_6  and  C6_8 
REMARK       I    between atoms: C6_8  and  N2_10 
REMARK    2  A    between atoms: N2_10  and  N3_12 
ROOT
HETATM    1  C1  UNL     1      -3.764   0.556  10.214  1.00  0.00     0.040 C 
HETATM    2  C2  UNL     1      -2.980   1.364   9.195  1.00  0.00     0.182 C 
HETATM    3  C3  UNL     1      -3.310   2.812   9.341  1.00  0.00     0.034 C 
HETATM    4  C4  UNL     1      -2.134   3.722   9.442  1.00  0.00     0.029 C 
HETATM    5  C5  UNL     1      -1.017   3.217  10.304  1.00  0.00     0.112 C 
HETATM    6  C7  UNL     1      -1.025   1.721  10.484  1.00  0.00     0.257 C 
HETATM    7  N4  UNL     1      -1.598   1.053   9.380  1.00  0.00    -0.069 N 
ATOM      8  H41 UNL     1      -1.067   1.233   8.528  1.00  0.00     0.277 HD
ATOM      9  H42 UNL     1      -1.459   0.045   9.453  1.00  0.00     0.277 HD
ENDROOT
BRANCH   5  10
HETATM   10  N1  UNL     1       0.247   3.568   9.704  1.00  0.00    -0.336 N 
HETATM   11  C6  UNL     1       0.772   4.871   9.891  1.00  0.00     0.334 C 
HETATM   12  O1  UNL     1       0.156   5.735  10.575  1.00  0.00    -0.246 OA
HETATM   13  N2  UNL     1       2.014   5.227   9.305  1.00  0.00    -0.258 N 
ATOM     14  H2  UNL     1       2.533   4.548   8.748  1.00  0.00     0.191 HD
ATOM     15  H1  UNL     1       0.760   2.883   9.149  1.00  0.00     0.164 HD
BRANCH  13  16
HETATM   16  N3  UNL     1       2.515   6.496   9.494  1.00  0.00    -0.341 N 
ATOM     17  H32 UNL     1       1.872   7.260   9.697  1.00  0.00     0.177 HD
ATOM     18  H31 UNL     1       3.521   6.654   9.428  1.00  0.00     0.177 HD
ENDBRANCH  13  16
ENDBRANCH   5  10
TORSDOF 2
ENDMDL
MODEL 2
REMARK VINA RESULT: -6.007325134      1.507      1.902
REMARK  2 active torsions:
REMARK  status: ('A' for Active; 'I' for Inactive)
REMARK    1  A    between atoms: C5_5  and  N1_6 
REMARK       I    between atoms: N1_6  and  C6_8 
REMARK       I    between atoms: C6_8  and  N2_10 
REMARK    2  A    between atoms: N2_10  and  N3_12 
ROOT
HETATM    1  C1  UNL     1      -4.549   1.781  10.690  1.00  0.00     0.040 C 
HETATM    2  C2  UNL     1      -3.194   1.800  11.377  1.00  0.00     0.182 C 
HETATM    3  C3  UNL     1      -2.201   1.054  10.550  1.00  0.00     0.034 C 
HETATM    4  C4  UNL     1      -0.928   1.779  10.282  1.00  0.00     0.029 C 
HETATM    5  C5  UNL     1      -1.086   3.234   9.956  1.00  0.00     0.112 C 
HETATM    6  C7  UNL     1      -2.379   3.825  10.454  1.00  0.00     0.257 C 
HETATM    7  N4  UNL     1      -2.857   3.169  11.610  1.00  0.00    -0.069 N 
ATOM      8  H41 UNL     1      -2.191   3.254  12.378  1.00  0.00     0.277 HD
ATOM      9  H42 UNL     1      -3.644   3.674  12.015  1.00  0.00     0.277 HD
ENDROOT
BRANCH   5  10
HETATM   10  N1  UNL     1      -0.013   3.981  10.565  1.00  0.00    -0.336 N 
HETATM   11  C6  UNL     1       0.725   4.906   9.786  1.00  0.00     0.334 C 
HETATM   12  O1  UNL     1       0.462   5.095   8.567  1.00  0.00    -0.246 OA
HETATM   13  N2  UNL     1       1.783   5.646  10.376  1.00  0.00    -0.258 N 
ATOM     14  H2  UNL     1       2.016   5.514  11.360  1.00  0.00     0.191 HD
ATOM     15  H1  UNL     1       0.214   3.842  11.551  1.00  0.00     0.164 HD
BRANCH  13  16
HETATM   16  N3  UNL     1       2.493   6.544   9.611  1.00  0.00    -0.341 N 
ATOM     17  H32 UNL     1       3.279   7.041  10.028  1.00  0.00     0.177 HD
ATOM     18  H31 UNL     1       2.224   6.699   8.639  1.00  0.00     0.177 HD
ENDBRANCH  13  16
ENDBRANCH   5  10
TORSDOF 2
ENDMDL
MODEL 3
REMARK VINA RESULT: -5.976130694      0.995      1.045
REMARK  2 active torsions:
REMARK  status: ('A' for Active; 'I' for Inactive)
REMARK    1  A    between atoms: C5_5  and  N1_6 
REMARK       I    between atoms: N1_6  and  C6_8 
REMARK       I    between atoms: C6_8  and  N2_10 
REMARK    2  A    between atoms: N2_10  and  N3_12 
ROOT
HETATM    1  C1  UNL     1      -3.242   1.377  10.837  1.00  0.00     0.040 C 
HETATM    2  C2  UNL     1      -2.435   2.010   9.716  1.00  0.00     0.182 C 
HETATM    3  C3  UNL     1      -2.873   3.423   9.518  1.00  0.00     0.034 C 
HETATM    4  C4  UNL     1      -1.774   4.428   9.490  1.00  0.00     0.029 C 
HETATM    5  C5  UNL     1      -0.697   4.215  10.511  1.00  0.00     0.112 C 
HETATM    6  C7  UNL     1      -0.618   2.798  11.015  1.00  0.00     0.257 C 
HETATM    7  N4  UNL     1      -1.055   1.862  10.052  1.00  0.00    -0.069 N 
ATOM      8  H41 UNL     1      -0.470   1.899   9.217  1.00  0.00     0.277 HD
ATOM      9  H42 UNL     1      -0.854   0.909  10.354  1.00  0.00     0.277 HD
ENDROOT
BRANCH   5  10
HETATM   10  N1  UNL     1       0.584   4.534   9.929  1.00  0.00    -0.336 N 
HETATM   11  C6  UNL     1       1.096   5.850  10.043  1.00  0.00     0.334 C 
HETATM   12  O1  UNL     1       0.455   6.754  10.646  1.00  0.00    -0.246 OA
HETATM   13  N2  UNL     1       2.355   6.174   9.474  1.00  0.00    -0.258 N 
ATOM     14  H2  UNL     1       2.895   5.462   8.982  1.00  0.00     0.191 HD
ATOM     15  H1  UNL     1       1.118   3.815   9.438  1.00  0.00     0.164 HD
BRANCH  13  16
HETATM   16  N3  UNL     1       2.844   7.456   9.591  1.00  0.00    -0.341 N 
ATOM     17  H32 UNL     1       2.197   8.219   9.790  1.00  0.00     0.177 HD
ATOM     18  H31 UNL     1       3.843   7.626   9.478  1.00  0.00     0.177 HD
ENDBRANCH  13  16
ENDBRANCH   5  10
TORSDOF 2
ENDMDL
MODEL 4
REMARK VINA RESULT: -5.850298329      3.743      7.012
REMARK  2 active torsions:
REMARK  status: ('A' for Active; 'I' for Inactive)
REMARK    1  A    between atoms: C5_5  and  N1_6 
REMARK       I    between atoms: N1_6  and  C6_8 
REMARK       I    between atoms: C6_8  and  N2_10 
REMARK    2  A    between atoms: N2_10  and  N3_12 
ROOT
HETATM    1  C1  UNL     1       2.843  10.936   8.947  1.00  0.00     0.040 C 
HETATM    2  C2  UNL     1       3.028   9.429   8.886  1.00  0.00     0.182 C 
HETATM    3  C3  UNL     1       2.744   8.834  10.224  1.00  0.00     0.034 C 
HETATM    4  C4  UNL     1       1.794   7.686  10.217  1.00  0.00     0.029 C 
HETATM    5  C5  UNL     1       0.611   7.850   9.312  1.00  0.00     0.112 C 
HETATM    6  C7  UNL     1       0.833   8.850   8.208  1.00  0.00     0.257 C 
HETATM    7  N4  UNL     1       2.191   8.942   7.834  1.00  0.00    -0.069 N 
ATOM      8  H41 UNL     1       2.534   8.049   7.481  1.00  0.00     0.277 HD
ATOM      9  H42 UNL     1       2.300   9.507   6.992  1.00  0.00     0.277 HD
ENDROOT
BRANCH   5  10
HETATM   10  N1  UNL     1       0.306   6.586   8.688  1.00  0.00    -0.336 N 
HETATM   11  C6  UNL     1      -0.998   6.043   8.807  1.00  0.00     0.334 C 
HETATM   12  O1  UNL     1      -1.903   6.645   9.448  1.00  0.00    -0.246 OA
HETATM   13  N2  UNL     1      -1.308   4.800   8.197  1.00  0.00    -0.258 N 
ATOM     14  H2  UNL     1      -0.595   4.293   7.673  1.00  0.00     0.191 HD
ATOM     15  H1  UNL     1       1.025   6.085   8.164  1.00  0.00     0.164 HD
BRANCH  13  16
HETATM   16  N3  UNL     1      -2.578   4.282   8.318  1.00  0.00    -0.341 N 
ATOM     17  H32 UNL     1      -3.235   4.721   8.963  1.00  0.00     0.177 HD
ATOM     18  H31 UNL     1      -2.844   3.468   7.764  1.00  0.00     0.177 HD
ENDBRANCH  13  16
ENDBRANCH   5  10
TORSDOF 2
ENDMDL
MODEL 5
REMARK VINA RESULT: -5.843609151      1.040      1.064
REMARK  2 active torsions:
REMARK  status: ('A' for Active; 'I' for Inactive)
REMARK    1  A    between atoms: C5_5  and  N1_6 
REMARK       I    between atoms: N1_6  and  C6_8 
REMARK       I    between atoms: C6_8  and  N2_10 
REMARK    2  A    between atoms: N2_10  and  N3_12 
ROOT
HETATM    1  C1  UNL     1      -2.735  -0.067  11.216  1.00  0.00     0.040 C 
HETATM    2  C2  UNL     1      -2.866   1.161  10.331  1.00  0.00     0.182 C 
HETATM    3  C3  UNL     1      -3.035   2.376  11.181  1.00  0.00     0.034 C 
HETATM    4  C4  UNL     1      -2.120   3.506  10.858  1.00  0.00     0.029 C 
HETATM    5  C5  UNL     1      -0.705   3.109  10.562  1.00  0.00     0.112 C 
HETATM    6  C7  UNL     1      -0.562   1.674  10.128  1.00  0.00     0.257 C 
HETATM    7  N4  UNL     1      -1.719   1.192   9.479  1.00  0.00    -0.069 N 
ATOM      8  H41 UNL     1      -1.910   1.726   8.631  1.00  0.00     0.277 HD
ATOM      9  H42 UNL     1      -1.549   0.277   9.064  1.00  0.00     0.277 HD
ENDROOT
BRANCH   5  10
HETATM   10  N1  UNL     1      -0.191   3.931   9.493  1.00  0.00    -0.336 N 
HETATM   11  C6  UNL     1       0.627   5.047   9.802  1.00  0.00     0.334 C 
HETATM   12  O1  UNL     1       0.919   5.338  10.995  1.00  0.00    -0.246 OA
HETATM   13  N2  UNL     1       1.138   5.861   8.758  1.00  0.00    -0.258 N 
ATOM     14  H2  UNL     1       0.919   5.648   7.786  1.00  0.00     0.191 HD
ATOM     15  H1  UNL     1      -0.415   3.710   8.523  1.00  0.00     0.164 HD
BRANCH  13  16
HETATM   16  N3  UNL     1       1.933   6.943   9.069  1.00  0.00    -0.341 N 
ATOM     17  H32 UNL     1       2.129   7.639   8.350  1.00  0.00     0.177 HD
ATOM     18  H31 UNL     1       2.314   7.032  10.011  1.00  0.00     0.177 HD
ENDBRANCH  13  16
ENDBRANCH   5  10
TORSDOF 2
ENDMDL
