MODEL 1
REMARK VINA RESULT: -5.280828174      0.000      0.000
REMARK  3 active torsions:
REMARK  status: ('A' for Active; 'I' for Inactive)
REMARK    1  A    between atoms: O1_2  and  C2_3 
REMARK    2  A    between atoms: C5_6  and  N1_7 
REMARK    3  A    between atoms: C6_11  and  N2_12 
REMARK       I    between atoms: N2_12  and  C7_14 
ROOT
HETATM    1  C2  UNL     1      -3.154   2.309  10.905  1.00  0.00     0.145 C 
HETATM    2  C3  UNL     1      -2.041   2.509  11.887  1.00  0.00     0.036 C 
HETATM    3  C4  UNL     1      -0.926   2.966  10.955  1.00  0.00     0.037 C 
HETATM    4  C5  UNL     1      -1.656   3.973  10.132  1.00  0.00     0.208 C 
HETATM    5  C6  UNL     1      -2.929   3.292   9.779  1.00  0.00     0.143 C 
ENDROOT
BRANCH   5   6
HETATM    6  N2  UNL     1      -2.928   2.594   8.538  1.00  0.00    -0.356 N 
HETATM    7  C7  UNL     1      -3.746   2.833   7.434  1.00  0.00     0.182 C 
HETATM    8  N3  UNL     1      -3.261   3.167   6.314  1.00  0.00    -0.374 N 
HETATM    9  N4  UNL     1      -5.138   2.699   7.567  1.00  0.00    -0.064 NA
ATOM     10  H32 UNL     1      -2.251   3.263   6.218  1.00  0.00     0.158 HD
ATOM     11  H31 UNL     1      -3.859   3.341   5.506  1.00  0.00     0.158 HD
ATOM     12  H2  UNL     1      -2.254   1.834   8.446  1.00  0.00     0.162 HD
ENDBRANCH   5   6
BRANCH   1  13
HETATM   13  O1  UNL     1      -4.414   2.421  11.411  1.00  0.00    -0.389 OA
HETATM   14  C1  UNL     1      -5.307   1.451  11.031  1.00  0.00     0.202 C 
ENDBRANCH   1  13
BRANCH   4  15
HETATM   15  N1  UNL     1      -0.919   4.493   9.024  1.00  0.00    -0.073 N 
ATOM     16  H13 UNL     1       0.073   4.549   9.256  1.00  0.00     0.274 HD
ATOM     17  H12 UNL     1      -0.886   3.808   8.269  1.00  0.00     0.274 HD
ATOM     18  H11 UNL     1      -1.250   5.390   8.672  1.00  0.00     0.274 HD
ENDBRANCH   4  15
TORSDOF 3
ENDMDL
MODEL 2
REMARK VINA RESULT: -5.268321029      5.541      7.214
REMARK  3 active torsions:
REMARK  status: ('A' for Active; 'I' for Inactive)
REMARK    1  A    between atoms: O1_2  and  C2_3 
REMARK    2  A    between atoms: C5_6  and  N1_7 
REMARK    3  A    between atoms: C6_11  and  N2_12 
REMARK       I    between atoms: N2_12  and  C7_14 
ROOT
HETATM    1  C2  UNL     1       1.991   8.709  10.880  1.00  0.00     0.145 C 
HETATM    2  C3  UNL     1       2.334  10.032  10.267  1.00  0.00     0.036 C 
HETATM    3  C4  UNL     1       2.447   9.640   8.800  1.00  0.00     0.037 C 
HETATM    4  C5  UNL     1       1.215   8.814   8.645  1.00  0.00     0.208 C 
HETATM    5  C6  UNL     1       1.225   7.927   9.838  1.00  0.00     0.143 C 
ENDROOT
BRANCH   5   6
HETATM    6  N2  UNL     1       1.841   6.658   9.653  1.00  0.00    -0.356 N 
HETATM    7  C7  UNL     1       1.208   5.420   9.537  1.00  0.00     0.182 C 
HETATM    8  N3  UNL     1       1.323   4.716   8.492  1.00  0.00    -0.374 N 
HETATM    9  N4  UNL     1       0.427   4.944  10.602  1.00  0.00    -0.064 NA
ATOM     10  H32 UNL     1       1.891   5.062   7.719  1.00  0.00     0.158 HD
ATOM     11  H31 UNL     1       0.861   3.811   8.407  1.00  0.00     0.158 HD
ATOM     12  H2  UNL     1       2.860   6.652   9.600  1.00  0.00     0.162 HD
ENDBRANCH   5   6
BRANCH   1  13
HETATM   13  O1  UNL     1       1.306   8.763  12.055  1.00  0.00    -0.389 OA
HETATM   14  C1  UNL     1       1.930   8.208  13.145  1.00  0.00     0.202 C 
ENDBRANCH   1  13
BRANCH   4  15
HETATM   15  N1  UNL     1       1.096   8.141   7.389  1.00  0.00    -0.073 N 
ATOM     16  H13 UNL     1       0.726   8.776   6.683  1.00  0.00     0.274 HD
ATOM     17  H12 UNL     1       2.021   7.959   6.997  1.00  0.00     0.274 HD
ATOM     18  H11 UNL     1       0.549   7.281   7.413  1.00  0.00     0.274 HD
ENDBRANCH   4  15
TORSDOF 3
ENDMDL
MODEL 3
REMARK VINA RESULT: -5.170845548      2.478      2.711
REMARK  3 active torsions:
REMARK  status: ('A' for Active; 'I' for Inactive)
REMARK    1  A    between atoms: O1_2  and  C2_3 
REMARK    2  A    between atoms: C5_6  and  N1_7 
REMARK    3  A    between atoms: C6_11  and  N2_12 
REMARK       I    between atoms: N2_12  and  C7_14 
ROOT
HETATM    1  C2  UNL     1      -4.235   0.917   9.535  1.00  0.00     0.145 C 
HETATM    2  C3  UNL     1      -3.953   0.780  11.000  1.00  0.00     0.036 C 
HETATM    3  C4  UNL     1      -2.516   0.277  10.962  1.00  0.00     0.037 C 
HETATM    4  C5  UNL     1      -1.926   1.217   9.967  1.00  0.00     0.208 C 
HETATM    5  C6  UNL     1      -2.921   1.243   8.863  1.00  0.00     0.143 C 
ENDROOT
BRANCH   5   6
HETATM    6  N2  UNL     1      -2.690   0.317   7.807  1.00  0.00    -0.356 N 
HETATM    7  C7  UNL     1      -3.053   0.455   6.467  1.00  0.00     0.182 C 
HETATM    8  N3  UNL     1      -2.184   0.472   5.547  1.00  0.00    -0.374 N 
HETATM    9  N4  UNL     1      -4.411   0.579   6.131  1.00  0.00    -0.064 NA
ATOM     10  H32 UNL     1      -1.199   0.382   5.791  1.00  0.00     0.158 HD
ATOM     11  H31 UNL     1      -2.450   0.573   4.567  1.00  0.00     0.158 HD
ATOM     12  H2  UNL     1      -2.204  -0.545   8.057  1.00  0.00     0.162 HD
ENDBRANCH   5   6
BRANCH   1  13
HETATM   13  O1  UNL     1      -5.196   1.821   9.201  1.00  0.00    -0.389 OA
HETATM   14  C1  UNL     1      -6.470   1.329   9.063  1.00  0.00     0.202 C 
ENDBRANCH   1  13
BRANCH   4  15
HETATM   15  N1  UNL     1      -0.587   0.910   9.570  1.00  0.00    -0.073 N 
ATOM     16  H13 UNL     1       0.024   1.707   9.746  1.00  0.00     0.274 HD
ATOM     17  H12 UNL     1      -0.178   0.228  10.208  1.00  0.00     0.274 HD
ATOM     18  H11 UNL     1      -0.487   0.595   8.605  1.00  0.00     0.274 HD
ENDBRANCH   4  15
TORSDOF 3
ENDMDL
MODEL 4
REMARK VINA RESULT: -5.160608719      1.656      1.767
REMARK  3 active torsions:
REMARK  status: ('A' for Active; 'I' for Inactive)
REMARK    1  A    between atoms: O1_2  and  C2_3 
REMARK    2  A    between atoms: C5_6  and  N1_7 
REMARK    3  A    between atoms: C6_11  and  N2_12 
REMARK       I    between atoms: N2_12  and  C7_14 
ROOT
HETATM    1  C2  UNL     1      -3.428   1.404  10.497  1.00  0.00     0.145 C 
HETATM    2  C3  UNL     1      -2.914   2.454  11.434  1.00  0.00     0.036 C 
HETATM    3  C4  UNL     1      -2.047   3.273  10.488  1.00  0.00     0.037 C 
HETATM    4  C5  UNL     1      -2.969   3.409   9.324  1.00  0.00     0.208 C 
HETATM    5  C6  UNL     1      -3.504   2.037   9.127  1.00  0.00     0.143 C 
ENDROOT
BRANCH   5   6
HETATM    6  N2  UNL     1      -2.793   1.229   8.195  1.00  0.00    -0.356 N 
HETATM    7  C7  UNL     1      -3.298   0.624   7.044  1.00  0.00     0.182 C 
HETATM    8  N3  UNL     1      -2.848   0.911   5.896  1.00  0.00    -0.374 N 
HETATM    9  N4  UNL     1      -4.327  -0.325   7.160  1.00  0.00    -0.064 NA
ATOM     10  H32 UNL     1      -2.100   1.600   5.813  1.00  0.00     0.158 HD
ATOM     11  H31 UNL     1      -3.216   0.469   5.054  1.00  0.00     0.158 HD
ATOM     12  H2  UNL     1      -1.804   1.076   8.390  1.00  0.00     0.162 HD
ENDBRANCH   5   6
BRANCH   1  13
HETATM   13  O1  UNL     1      -4.616   0.835  10.843  1.00  0.00    -0.389 OA
HETATM   14  C1  UNL     1      -5.584   1.689  11.309  1.00  0.00     0.202 C 
ENDBRANCH   1  13
BRANCH   4  15
HETATM   15  N1  UNL     1      -2.389   4.007   8.163  1.00  0.00    -0.073 N 
ATOM     16  H13 UNL     1      -1.829   4.817   8.426  1.00  0.00     0.274 HD
ATOM     17  H12 UNL     1      -1.659   3.404   7.783  1.00  0.00     0.274 HD
ATOM     18  H11 UNL     1      -3.053   4.259   7.432  1.00  0.00     0.274 HD
ENDBRANCH   4  15
TORSDOF 3
ENDMDL
MODEL 5
REMARK VINA RESULT: -5.146990624      1.913      2.347
REMARK  3 active torsions:
REMARK  status: ('A' for Active; 'I' for Inactive)
REMARK    1  A    between atoms: O1_2  and  C2_3 
REMARK    2  A    between atoms: C5_6  and  N1_7 
REMARK    3  A    between atoms: C6_11  and  N2_12 
REMARK       I    between atoms: N2_12  and  C7_14 
ROOT
HETATM    1  C2  UNL     1      -3.324   2.243  10.726  1.00  0.00     0.145 C 
HETATM    2  C3  UNL     1      -2.436   1.086  11.069  1.00  0.00     0.036 C 
HETATM    3  C4  UNL     1      -1.121   1.553  10.460  1.00  0.00     0.037 C 
HETATM    4  C5  UNL     1      -1.078   2.960  10.953  1.00  0.00     0.208 C 
HETATM    5  C6  UNL     1      -2.448   3.474  10.691  1.00  0.00     0.143 C 
ENDROOT
BRANCH   5   6
HETATM    6  N2  UNL     1      -2.624   4.142   9.446  1.00  0.00    -0.356 N 
HETATM    7  C7  UNL     1      -1.938   5.266   8.986  1.00  0.00     0.182 C 
HETATM    8  N3  UNL     1      -1.235   5.226   7.935  1.00  0.00    -0.374 N 
HETATM    9  N4  UNL     1      -2.030   6.470   9.704  1.00  0.00    -0.064 NA
ATOM     10  H32 UNL     1      -1.169   4.352   7.414  1.00  0.00     0.158 HD
ATOM     11  H31 UNL     1      -0.734   6.049   7.598  1.00  0.00     0.158 HD
ATOM     12  H2  UNL     1      -3.330   3.756   8.820  1.00  0.00     0.162 HD
ENDBRANCH   5   6
BRANCH   1  13
HETATM   13  O1  UNL     1      -4.396   2.427  11.544  1.00  0.00    -0.389 OA
HETATM   14  C1  UNL     1      -5.503   1.661  11.274  1.00  0.00     0.202 C 
ENDBRANCH   1  13
BRANCH   4  15
HETATM   15  N1  UNL     1      -0.018   3.754  10.416  1.00  0.00    -0.073 N 
ATOM     16  H13 UNL     1       0.876   3.458  10.805  1.00  0.00     0.274 HD
ATOM     17  H12 UNL     1       0.131   3.524   9.433  1.00  0.00     0.274 HD
ATOM     18  H11 UNL     1      -0.137   4.760  10.528  1.00  0.00     0.274 HD
ENDBRANCH   4  15
TORSDOF 3
ENDMDL
