MODEL 1
REMARK VINA RESULT: -4.912585234      0.000      0.000
REMARK  4 active torsions:
REMARK  status: ('A' for Active; 'I' for Inactive)
REMARK    1  A    between atoms: N1_2  and  S1_4 
REMARK    2  A    between atoms: S1_4  and  N2_7 
REMARK    3  A    between atoms: N2_7  and  C2_9 
REMARK    4  A    between atoms: C2_9  and  O3_13 
ROOT
HETATM    1  N2  UNL     1      -0.258   5.299   8.446  1.00  0.00    -0.233 N 
ATOM      2  H2  UNL     1      -0.641   4.916   7.582  1.00  0.00     0.184 HD
ENDROOT
BRANCH   1   3
HETATM    3  S1  UNL     1      -0.735   6.851   9.008  1.00  0.00     0.321 S 
HETATM    4  O1  UNL     1      -0.000   7.140  10.295  1.00  0.00    -0.182 OA
HETATM    5  O2  UNL     1      -2.189   6.808   9.331  1.00  0.00    -0.182 OA
BRANCH   3   6
HETATM    6  N1  UNL     1      -0.312   8.041   7.872  1.00  0.00    -0.307 N 
HETATM    7  C1  UNL     1       0.891   8.758   8.194  1.00  0.00     0.161 C 
ATOM      8  H1  UNL     1      -0.864   8.229   7.034  1.00  0.00     0.173 HD
ENDBRANCH   3   6
ENDBRANCH   1   3
BRANCH   1   9
HETATM    9  C2  UNL     1       0.678   4.565   9.210  1.00  0.00     0.227 C 
HETATM   10  N3  UNL     1       1.903   4.930   9.210  1.00  0.00    -0.365 N 
ATOM     11  H32 UNL     1       2.177   5.743   8.658  1.00  0.00     0.159 HD
ATOM     12  H31 UNL     1       2.579   4.400   9.762  1.00  0.00     0.159 HD
BRANCH   9  13
HETATM   13  O3  UNL     1       0.309   3.467   9.955  1.00  0.00    -0.327 OA
HETATM   14  C3  UNL     1      -0.892   3.471  10.736  1.00  0.00     0.213 C 
ENDBRANCH   9  13
ENDBRANCH   1   9
TORSDOF 4
ENDMDL
MODEL 2
REMARK VINA RESULT: -4.900522784      1.395      1.395
REMARK  4 active torsions:
REMARK  status: ('A' for Active; 'I' for Inactive)
REMARK    1  A    between atoms: N1_2  and  S1_4 
REMARK    2  A    between atoms: S1_4  and  N2_7 
REMARK    3  A    between atoms: N2_7  and  C2_9 
REMARK    4  A    between atoms: C2_9  and  O3_13 
ROOT
HETATM    1  N2  UNL     1      -0.419   5.201   8.488  1.00  0.00    -0.233 N 
ATOM      2  H2  UNL     1      -0.751   4.665   7.686  1.00  0.00     0.184 HD
ENDROOT
BRANCH   1   3
HETATM    3  S1  UNL     1      -1.033   6.771   8.813  1.00  0.00     0.321 S 
HETATM    4  O1  UNL     1       0.034   7.563   9.530  1.00  0.00    -0.182 OA
HETATM    5  O2  UNL     1      -2.188   6.641   9.747  1.00  0.00    -0.182 OA
BRANCH   3   6
HETATM    6  N1  UNL     1      -1.404   7.568   7.359  1.00  0.00    -0.307 N 
HETATM    7  C1  UNL     1      -2.813   7.724   7.119  1.00  0.00     0.161 C 
ATOM      8  H1  UNL     1      -0.690   7.906   6.713  1.00  0.00     0.173 HD
ENDBRANCH   3   6
ENDBRANCH   1   3
BRANCH   1   9
HETATM    9  C2  UNL     1       0.559   4.667   9.359  1.00  0.00     0.227 C 
HETATM   10  N3  UNL     1       1.796   4.840   9.086  1.00  0.00    -0.365 N 
ATOM     11  H32 UNL     1       2.049   5.359   8.245  1.00  0.00     0.159 HD
ATOM     12  H31 UNL     1       2.502   4.454   9.714  1.00  0.00     0.159 HD
BRANCH   9  13
HETATM   13  O3  UNL     1       0.218   3.966  10.494  1.00  0.00    -0.327 OA
HETATM   14  C3  UNL     1      -1.063   3.340  10.621  1.00  0.00     0.213 C 
ENDBRANCH   9  13
ENDBRANCH   1   9
TORSDOF 4
ENDMDL
MODEL 3
REMARK VINA RESULT: -4.794364396      1.629      2.459
REMARK  4 active torsions:
REMARK  status: ('A' for Active; 'I' for Inactive)
REMARK    1  A    between atoms: N1_2  and  S1_4 
REMARK    2  A    between atoms: S1_4  and  N2_7 
REMARK    3  A    between atoms: N2_7  and  C2_9 
REMARK    4  A    between atoms: C2_9  and  O3_13 
ROOT
HETATM    1  N2  UNL     1       0.414   6.393   8.664  1.00  0.00    -0.233 N 
ATOM      2  H2  UNL     1       0.992   7.207   8.451  1.00  0.00     0.184 HD
ENDROOT
BRANCH   1   3
HETATM    3  S1  UNL     1      -1.282   6.424   8.396  1.00  0.00     0.321 S 
HETATM    4  O1  UNL     1      -1.602   7.596   7.500  1.00  0.00    -0.182 OA
HETATM    5  O2  UNL     1      -1.961   6.669   9.700  1.00  0.00    -0.182 OA
BRANCH   3   6
HETATM    6  N1  UNL     1      -1.778   5.001   7.613  1.00  0.00    -0.307 N 
HETATM    7  C1  UNL     1      -3.027   4.473   8.091  1.00  0.00     0.161 C 
ATOM      8  H1  UNL     1      -1.237   4.559   6.869  1.00  0.00     0.173 HD
ENDBRANCH   3   6
ENDBRANCH   1   3
BRANCH   1   9
HETATM    9  C2  UNL     1       0.991   5.213   9.188  1.00  0.00     0.227 C 
HETATM   10  N3  UNL     1       2.240   5.198   9.456  1.00  0.00    -0.365 N 
ATOM     11  H32 UNL     1       2.793   6.038   9.287  1.00  0.00     0.159 HD
ATOM     12  H31 UNL     1       2.657   4.346   9.834  1.00  0.00     0.159 HD
BRANCH   9  13
HETATM   13  O3  UNL     1       0.245   4.078   9.417  1.00  0.00    -0.327 OA
HETATM   14  C3  UNL     1      -0.253   3.769  10.723  1.00  0.00     0.213 C 
ENDBRANCH   9  13
ENDBRANCH   1   9
TORSDOF 4
ENDMDL
MODEL 4
REMARK VINA RESULT: -4.731963013      2.103      3.259
REMARK  4 active torsions:
REMARK  status: ('A' for Active; 'I' for Inactive)
REMARK    1  A    between atoms: N1_2  and  S1_4 
REMARK    2  A    between atoms: S1_4  and  N2_7 
REMARK    3  A    between atoms: N2_7  and  C2_9 
REMARK    4  A    between atoms: C2_9  and  O3_13 
ROOT
HETATM    1  N2  UNL     1       0.538   6.545   8.699  1.00  0.00    -0.233 N 
ATOM      2  H2  UNL     1       0.557   7.153   7.879  1.00  0.00     0.184 HD
ENDROOT
BRANCH   1   3
HETATM    3  S1  UNL     1      -0.895   5.706   9.138  1.00  0.00     0.321 S 
HETATM    4  O1  UNL     1      -1.871   6.700   9.721  1.00  0.00    -0.182 OA
HETATM    5  O2  UNL     1      -0.559   4.734  10.216  1.00  0.00    -0.182 OA
BRANCH   3   6
HETATM    6  N1  UNL     1      -1.605   5.001   7.765  1.00  0.00    -0.307 N 
HETATM    7  C1  UNL     1      -2.957   4.557   7.968  1.00  0.00     0.161 C 
ATOM      8  H1  UNL     1      -1.115   4.902   6.875  1.00  0.00     0.173 HD
ENDBRANCH   3   6
ENDBRANCH   1   3
BRANCH   1   9
HETATM    9  C2  UNL     1       1.690   6.375   9.500  1.00  0.00     0.227 C 
HETATM   10  N3  UNL     1       2.323   5.266   9.452  1.00  0.00    -0.365 N 
ATOM     11  H32 UNL     1       1.983   4.529   8.835  1.00  0.00     0.159 HD
ATOM     12  H31 UNL     1       3.155   5.144  10.031  1.00  0.00     0.159 HD
BRANCH   9  13
HETATM   13  O3  UNL     1       2.150   7.370  10.334  1.00  0.00    -0.327 OA
HETATM   14  C3  UNL     1       1.500   7.655  11.578  1.00  0.00     0.213 C 
ENDBRANCH   9  13
ENDBRANCH   1   9
TORSDOF 4
ENDMDL
MODEL 5
REMARK VINA RESULT: -4.724335632      2.238      3.518
REMARK  4 active torsions:
REMARK  status: ('A' for Active; 'I' for Inactive)
REMARK    1  A    between atoms: N1_2  and  S1_4 
REMARK    2  A    between atoms: S1_4  and  N2_7 
REMARK    3  A    between atoms: N2_7  and  C2_9 
REMARK    4  A    between atoms: C2_9  and  O3_13 
ROOT
HETATM    1  N2  UNL     1      -0.220   4.709  10.255  1.00  0.00    -0.233 N 
ATOM      2  H2  UNL     1      -0.262   4.119  11.086  1.00  0.00     0.184 HD
ENDROOT
BRANCH   1   3
HETATM    3  S1  UNL     1      -1.657   5.226   9.470  1.00  0.00     0.321 S 
HETATM    4  O1  UNL     1      -1.417   5.218   7.979  1.00  0.00    -0.182 OA
HETATM    5  O2  UNL     1      -1.928   6.638   9.865  1.00  0.00    -0.182 OA
BRANCH   3   6
HETATM    6  N1  UNL     1      -2.930   4.155   9.813  1.00  0.00    -0.307 N 
HETATM    7  C1  UNL     1      -2.781   3.446  11.055  1.00  0.00     0.161 C 
ATOM      8  H1  UNL     1      -3.730   4.027   9.193  1.00  0.00     0.173 HD
ENDBRANCH   3   6
ENDBRANCH   1   3
BRANCH   1   9
HETATM    9  C2  UNL     1       1.023   5.121   9.722  1.00  0.00     0.227 C 
HETATM   10  N3  UNL     1       1.366   4.718   8.559  1.00  0.00    -0.365 N 
ATOM     11  H32 UNL     1       0.733   4.108   8.041  1.00  0.00     0.159 HD
ATOM     12  H31 UNL     1       2.263   5.016   8.174  1.00  0.00     0.159 HD
BRANCH   9  13
HETATM   13  O3  UNL     1       1.878   5.945  10.422  1.00  0.00    -0.327 OA
HETATM   14  C3  UNL     1       1.420   7.176  10.992  1.00  0.00     0.213 C 
ENDBRANCH   9  13
ENDBRANCH   1   9
TORSDOF 4
ENDMDL
