MODEL 1
REMARK VINA RESULT: -6.618903768      0.000      0.000
REMARK  4 active torsions:
REMARK  status: ('A' for Active; 'I' for Inactive)
REMARK       I    between atoms: C1_2  and  N4_9 
REMARK    1  A    between atoms: N2_3  and  N3_5 
REMARK    2  A    between atoms: N3_5  and  O1_7 
REMARK    3  A    between atoms: N4_9  and  C2_11 
REMARK    4  A    between atoms: C5_14  and  N5_15 
ROOT
HETATM    1  C2  UNL     1      -2.052   2.744  10.125  1.00  0.00     0.084 C 
HETATM    2  C3  UNL     1      -3.500   2.669  10.504  1.00  0.00     0.027 C 
HETATM    3  C4  UNL     1      -4.104   1.519   9.684  1.00  0.00     0.035 C 
HETATM    4  C5  UNL     1      -3.618   0.218  10.270  1.00  0.00     0.183 C 
HETATM    5  C6  UNL     1      -2.328   0.413  11.022  1.00  0.00     0.035 C 
HETATM    6  C7  UNL     1      -1.416   1.420  10.369  1.00  0.00     0.027 C 
ENDROOT
BRANCH   1   7
HETATM    7  N4  UNL     1      -1.330   3.805  10.747  1.00  0.00    -0.359 N 
HETATM    8  C1  UNL     1      -0.243   4.498  10.146  1.00  0.00     0.204 C 
HETATM    9  N1  UNL     1      -0.114   5.903  10.407  1.00  0.00    -0.062 NA
HETATM   10  N2  UNL     1       0.620   3.954   9.394  1.00  0.00    -0.254 N 
ATOM     11  H2  UNL     1       0.555   2.957   9.190  1.00  0.00     0.191 HD
ATOM     12  H4  UNL     1      -1.612   4.085  11.686  1.00  0.00     0.162 HD
BRANCH  10  13
HETATM   13  N3  UNL     1       1.652   4.699   8.846  1.00  0.00    -0.208 N 
ATOM     14  H3  UNL     1       1.674   4.795   7.831  1.00  0.00     0.215 HD
BRANCH  13  15
HETATM   15  O1  UNL     1       2.548   5.258   9.490  1.00  0.00    -0.274 OA
ATOM     16  H1  UNL     1       3.371   4.857   9.744  1.00  0.00     0.246 HD
ENDBRANCH  13  15
ENDBRANCH  10  13
ENDBRANCH   1   7
BRANCH   4  17
HETATM   17  N5  UNL     1      -3.496  -0.793   9.238  1.00  0.00    -0.075 N 
ATOM     18  H53 UNL     1      -4.102  -0.595   8.441  1.00  0.00     0.274 HD
ATOM     19  H52 UNL     1      -2.595  -0.741   8.762  1.00  0.00     0.274 HD
ATOM     20  H51 UNL     1      -3.667  -1.722   9.623  1.00  0.00     0.274 HD
ENDBRANCH   4  17
TORSDOF 4
ENDMDL
MODEL 2
REMARK VINA RESULT: -6.438063454      1.347      1.416
REMARK  4 active torsions:
REMARK  status: ('A' for Active; 'I' for Inactive)
REMARK       I    between atoms: C1_2  and  N4_9 
REMARK    1  A    between atoms: N2_3  and  N3_5 
REMARK    2  A    between atoms: N3_5  and  O1_7 
REMARK    3  A    between atoms: N4_9  and  C2_11 
REMARK    4  A    between atoms: C5_14  and  N5_15 
ROOT
HETATM    1  C2  UNL     1      -1.553   3.475   9.811  1.00  0.00     0.084 C 
HETATM    2  C3  UNL     1      -2.958   3.184   9.376  1.00  0.00     0.027 C 
HETATM    3  C4  UNL     1      -3.103   1.655   9.371  1.00  0.00     0.035 C 
HETATM    4  C5  UNL     1      -3.176   1.185  10.801  1.00  0.00     0.183 C 
HETATM    5  C6  UNL     1      -2.532   2.181  11.730  1.00  0.00     0.035 C 
HETATM    6  C7  UNL     1      -1.311   2.833  11.134  1.00  0.00     0.027 C 
ENDROOT
BRANCH   1   7
HETATM    7  N4  UNL     1      -1.207   4.857   9.818  1.00  0.00    -0.359 N 
HETATM    8  C1  UNL     1       0.064   5.371   9.438  1.00  0.00     0.204 C 
HETATM    9  N1  UNL     1       0.103   6.626   8.746  1.00  0.00    -0.062 NA
HETATM   10  N2  UNL     1       1.165   4.790   9.673  1.00  0.00    -0.254 N 
ATOM     11  H2  UNL     1       1.170   3.895  10.164  1.00  0.00     0.191 HD
ATOM     12  H4  UNL     1      -1.920   5.524  10.116  1.00  0.00     0.162 HD
BRANCH  10  13
HETATM   13  N3  UNL     1       2.364   5.356   9.271  1.00  0.00    -0.208 N 
ATOM     14  H3  UNL     1       2.968   4.798   8.667  1.00  0.00     0.215 HD
BRANCH  13  15
HETATM   15  O1  UNL     1       2.761   6.485   9.585  1.00  0.00    -0.274 OA
ATOM     16  H1  UNL     1       2.254   7.285   9.506  1.00  0.00     0.246 HD
ENDBRANCH  13  15
ENDBRANCH  10  13
ENDBRANCH   1   7
BRANCH   4  17
HETATM   17  N5  UNL     1      -2.595  -0.136  10.936  1.00  0.00    -0.075 N 
ATOM     18  H53 UNL     1      -1.597  -0.091  11.144  1.00  0.00     0.274 HD
ATOM     19  H52 UNL     1      -2.908  -0.602  11.787  1.00  0.00     0.274 HD
ATOM     20  H51 UNL     1      -2.783  -0.698  10.106  1.00  0.00     0.274 HD
ENDBRANCH   4  17
TORSDOF 4
ENDMDL
MODEL 3
REMARK VINA RESULT: -6.396782897      1.011      1.186
REMARK  4 active torsions:
REMARK  status: ('A' for Active; 'I' for Inactive)
REMARK       I    between atoms: C1_2  and  N4_9 
REMARK    1  A    between atoms: N2_3  and  N3_5 
REMARK    2  A    between atoms: N3_5  and  O1_7 
REMARK    3  A    between atoms: N4_9  and  C2_11 
REMARK    4  A    between atoms: C5_14  and  N5_15 
ROOT
HETATM    1  C2  UNL     1      -2.179   2.931  10.180  1.00  0.00     0.084 C 
HETATM    2  C3  UNL     1      -3.158   3.009   9.048  1.00  0.00     0.027 C 
HETATM    3  C4  UNL     1      -3.621   1.570   8.774  1.00  0.00     0.035 C 
HETATM    4  C5  UNL     1      -4.548   1.155   9.886  1.00  0.00     0.183 C 
HETATM    5  C6  UNL     1      -4.292   1.961  11.133  1.00  0.00     0.035 C 
HETATM    6  C7  UNL     1      -2.831   2.267  11.342  1.00  0.00     0.027 C 
ENDROOT
BRANCH   1   7
HETATM    7  N4  UNL     1      -1.588   4.177  10.541  1.00  0.00    -0.359 N 
HETATM    8  C1  UNL     1      -0.438   4.733   9.915  1.00  0.00     0.204 C 
HETATM    9  N1  UNL     1      -0.384   6.156   9.748  1.00  0.00    -0.062 NA
HETATM   10  N2  UNL     1       0.544   4.050   9.495  1.00  0.00    -0.254 N 
ATOM     11  H2  UNL     1       0.535   3.036   9.599  1.00  0.00     0.191 HD
ATOM     12  H4  UNL     1      -2.018   4.705  11.300  1.00  0.00     0.162 HD
BRANCH  10  13
HETATM   13  N3  UNL     1       1.630   4.667   8.895  1.00  0.00    -0.208 N 
ATOM     14  H3  UNL     1       1.706   4.600   7.880  1.00  0.00     0.215 HD
BRANCH  13  15
HETATM   15  O1  UNL     1       2.514   5.294   9.492  1.00  0.00    -0.274 OA
ATOM     16  H1  UNL     1       3.185   4.905  10.041  1.00  0.00     0.246 HD
ENDBRANCH  13  15
ENDBRANCH  10  13
ENDBRANCH   1   7
BRANCH   4  17
HETATM   17  N5  UNL     1      -4.445  -0.270  10.133  1.00  0.00    -0.075 N 
ATOM     18  H53 UNL     1      -4.665  -0.816   9.299  1.00  0.00     0.274 HD
ATOM     19  H52 UNL     1      -3.476  -0.563  10.256  1.00  0.00     0.274 HD
ATOM     20  H51 UNL     1      -5.026  -0.541  10.926  1.00  0.00     0.274 HD
ENDBRANCH   4  17
TORSDOF 4
ENDMDL
MODEL 4
REMARK VINA RESULT: -6.238494623      2.052      2.601
REMARK  4 active torsions:
REMARK  status: ('A' for Active; 'I' for Inactive)
REMARK       I    between atoms: C1_2  and  N4_9 
REMARK    1  A    between atoms: N2_3  and  N3_5 
REMARK    2  A    between atoms: N3_5  and  O1_7 
REMARK    3  A    between atoms: N4_9  and  C2_11 
REMARK    4  A    between atoms: C5_14  and  N5_15 
ROOT
HETATM    1  C2  UNL     1      -0.612   4.396  10.002  1.00  0.00     0.084 C 
HETATM    2  C3  UNL     1      -2.046   4.828   9.915  1.00  0.00     0.027 C 
HETATM    3  C4  UNL     1      -2.826   3.632   9.350  1.00  0.00     0.035 C 
HETATM    4  C5  UNL     1      -2.937   2.589  10.433  1.00  0.00     0.183 C 
HETATM    5  C6  UNL     1      -1.836   2.745  11.448  1.00  0.00     0.035 C 
HETATM    6  C7  UNL     1      -0.525   3.162  10.831  1.00  0.00     0.027 C 
ENDROOT
BRANCH   1   7
HETATM    7  N4  UNL     1       0.286   5.406  10.453  1.00  0.00    -0.359 N 
HETATM    8  C1  UNL     1       0.547   6.620   9.759  1.00  0.00     0.204 C 
HETATM    9  N1  UNL     1       0.765   7.806  10.534  1.00  0.00    -0.062 NA
HETATM   10  N2  UNL     1       0.599   6.720   8.496  1.00  0.00    -0.254 N 
ATOM     11  H2  UNL     1       0.449   5.894   7.917  1.00  0.00     0.191 HD
ATOM     12  H4  UNL     1       0.775   5.248  11.334  1.00  0.00     0.162 HD
BRANCH  10  13
HETATM   13  N3  UNL     1       0.860   7.940   7.893  1.00  0.00    -0.208 N 
ATOM     14  H3  UNL     1       0.072   8.434   7.474  1.00  0.00     0.215 HD
BRANCH  13  15
HETATM   15  O1  UNL     1       1.971   8.479   7.824  1.00  0.00    -0.274 OA
ATOM     16  H1  UNL     1       2.250   9.229   8.335  1.00  0.00     0.246 HD
ENDBRANCH  13  15
ENDBRANCH  10  13
ENDBRANCH   1   7
BRANCH   4  17
HETATM   17  N5  UNL     1      -2.961   1.258   9.859  1.00  0.00    -0.075 N 
ATOM     18  H53 UNL     1      -3.887   1.013   9.509  1.00  0.00     0.274 HD
ATOM     19  H52 UNL     1      -2.448   1.216   8.979  1.00  0.00     0.274 HD
ATOM     20  H51 UNL     1      -2.617   0.571  10.531  1.00  0.00     0.274 HD
ENDBRANCH   4  17
TORSDOF 4
ENDMDL
MODEL 5
REMARK VINA RESULT: -6.215008383      3.772      6.124
REMARK  4 active torsions:
REMARK  status: ('A' for Active; 'I' for Inactive)
REMARK       I    between atoms: C1_2  and  N4_9 
REMARK    1  A    between atoms: N2_3  and  N3_5 
REMARK    2  A    between atoms: N3_5  and  O1_7 
REMARK    3  A    between atoms: N4_9  and  C2_11 
REMARK    4  A    between atoms: C5_14  and  N5_15 
ROOT
HETATM    1  C2  UNL     1      -3.172   2.431  10.312  1.00  0.00     0.084 C 
HETATM    2  C3  UNL     1      -2.462   2.725  11.599  1.00  0.00     0.027 C 
HETATM    3  C4  UNL     1      -0.966   2.803  11.262  1.00  0.00     0.035 C 
HETATM    4  C5  UNL     1      -0.716   4.096  10.531  1.00  0.00     0.183 C 
HETATM    5  C6  UNL     1      -1.973   4.595   9.869  1.00  0.00     0.035 C 
HETATM    6  C7  UNL     1      -2.824   3.481   9.314  1.00  0.00     0.027 C 
ENDROOT
BRANCH   1   7
HETATM    7  N4  UNL     1      -4.582   2.261  10.436  1.00  0.00    -0.359 N 
HETATM    8  C1  UNL     1      -5.214   1.048  10.825  1.00  0.00     0.204 C 
HETATM    9  N1  UNL     1      -6.390   1.133  11.642  1.00  0.00    -0.062 NA
HETATM   10  N2  UNL     1      -4.805  -0.106  10.496  1.00  0.00    -0.254 N 
ATOM     11  H2  UNL     1      -3.971  -0.199   9.916  1.00  0.00     0.191 HD
ATOM     12  H4  UNL     1      -5.177   3.063  10.232  1.00  0.00     0.162 HD
BRANCH  10  13
HETATM   13  N3  UNL     1      -5.477  -1.242  10.916  1.00  0.00    -0.208 N 
ATOM     14  H3  UNL     1      -5.078  -1.763  11.696  1.00  0.00     0.215 HD
BRANCH  13  15
HETATM   15  O1  UNL     1      -6.524  -1.676  10.419  1.00  0.00    -0.274 OA
ATOM     16  H1  UNL     1      -6.689  -2.584  10.194  1.00  0.00     0.246 HD
ENDBRANCH  13  15
ENDBRANCH  10  13
ENDBRANCH   1   7
BRANCH   4  17
HETATM   17  N5  UNL     1       0.372   3.946   9.584  1.00  0.00    -0.075 N 
ATOM     18  H53 UNL     1       0.029   3.782   8.637  1.00  0.00     0.274 HD
ATOM     19  H52 UNL     1       0.857   4.828   9.422  1.00  0.00     0.274 HD
ATOM     20  H51 UNL     1       1.013   3.212   9.887  1.00  0.00     0.274 HD
ENDBRANCH   4  17
TORSDOF 4
ENDMDL
