MODEL 1
REMARK VINA RESULT: -8.442276794      0.000      0.000
REMARK  3 active torsions:
REMARK  status: ('A' for Active; 'I' for Inactive)
REMARK    1  A    between atoms: O1_1  and  C1_3 
REMARK    2  A    between atoms: C1_3  and  N1_4 
REMARK    3  A    between atoms: C5_8  and  C6_9 
ROOT
HETATM    1  C1  UNL     1      11.681  -7.027  -3.133  1.00  0.00     0.136 C 
HETATM    2  C8  UNL     1      11.330  -7.820  -1.890  1.00  0.00     0.061 C 
HETATM    3  C9  UNL     1      12.521  -7.938  -0.962  1.00  0.00     0.005 C 
HETATM    4  C10 UNL     1      12.649  -6.802   0.001  1.00  0.00     0.000 C 
HETATM    5  C11 UNL     1      13.850  -5.983  -0.415  1.00  0.00     0.000 C 
HETATM    6  C12 UNL     1      13.499  -4.768  -1.212  1.00  0.00     0.000 C 
HETATM    7  C13 UNL     1      13.227  -5.092  -2.680  1.00  0.00     0.005 C 
HETATM    8  C14 UNL     1      11.813  -5.565  -2.910  1.00  0.00     0.061 C 
ENDROOT
BRANCH   1   9
HETATM    9  O1  UNL     1      12.991  -7.478  -3.462  1.00  0.00    -0.370 OA
ATOM     10  H1  UNL     1      13.536  -6.699  -3.444  1.00  0.00     0.212 HD
ENDBRANCH   1   9
BRANCH   1  11
HETATM   11  N1  UNL     1      10.863  -7.446  -4.206  1.00  0.00    -0.341 N 
HETATM   12  C2  UNL     1      11.134  -6.896  -5.470  1.00  0.00     0.066 C 
HETATM   13  C3  UNL     1       9.867  -7.012  -6.310  1.00  0.00     0.046 C 
HETATM   14  C4  UNL     1       9.725  -8.500  -6.593  1.00  0.00     0.024 C 
HETATM   15  C5  UNL     1       9.715  -9.312  -5.338  1.00  0.00     0.132 C 
HETATM   16  C7  UNL     1      10.148  -8.638  -4.099  1.00  0.00     0.079 C 
BRANCH  15  17
HETATM   17  C6  UNL     1      10.476 -10.627  -5.559  1.00  0.00     0.395 C 
HETATM   18  F1  UNL     1       9.584 -11.674  -5.715  1.00  0.00    -0.170 F 
HETATM   19  F2  UNL     1      11.273 -10.943  -4.474  1.00  0.00    -0.170 F 
HETATM   20  F3  UNL     1      11.263 -10.565  -6.692  1.00  0.00    -0.170 F 
ENDBRANCH  15  17
ENDBRANCH   1  11
TORSDOF 3
ENDMDL
MODEL 2
REMARK VINA RESULT: -7.748145446      2.926      5.874
REMARK  3 active torsions:
REMARK  status: ('A' for Active; 'I' for Inactive)
REMARK    1  A    between atoms: O1_1  and  C1_3 
REMARK    2  A    between atoms: C1_3  and  N1_4 
REMARK    3  A    between atoms: C5_8  and  C6_9 
ROOT
HETATM    1  C1  UNL     1      11.427  -7.462  -4.432  1.00  0.00     0.136 C 
HETATM    2  C8  UNL     1      10.645  -6.495  -5.299  1.00  0.00     0.061 C 
HETATM    3  C9  UNL     1      10.290  -7.119  -6.632  1.00  0.00     0.005 C 
HETATM    4  C10 UNL     1       9.005  -7.883  -6.616  1.00  0.00     0.000 C 
HETATM    5  C11 UNL     1       9.346  -9.352  -6.731  1.00  0.00     0.000 C 
HETATM    6  C12 UNL     1       9.347 -10.070  -5.419  1.00  0.00     0.000 C 
HETATM    7  C13 UNL     1      10.638  -9.845  -4.633  1.00  0.00     0.005 C 
HETATM    8  C14 UNL     1      10.612  -8.557  -3.847  1.00  0.00     0.061 C 
ENDROOT
BRANCH   1   9
HETATM    9  O1  UNL     1      12.310  -8.099  -5.351  1.00  0.00    -0.370 OA
ATOM     10  H1  UNL     1      12.779  -7.391  -5.779  1.00  0.00     0.212 HD
ENDBRANCH   1   9
BRANCH   1  11
HETATM   11  N1  UNL     1      12.263  -6.739  -3.554  1.00  0.00    -0.341 N 
HETATM   12  C2  UNL     1      12.214  -5.337  -3.632  1.00  0.00     0.066 C 
HETATM   13  C3  UNL     1      13.520  -4.792  -3.063  1.00  0.00     0.046 C 
HETATM   14  C4  UNL     1      13.436  -5.068  -1.570  1.00  0.00     0.024 C 
HETATM   15  C5  UNL     1      13.186  -6.512  -1.278  1.00  0.00     0.132 C 
HETATM   16  C7  UNL     1      12.754  -7.359  -2.405  1.00  0.00     0.079 C 
BRANCH  15  17
HETATM   17  C6  UNL     1      12.240  -6.648  -0.077  1.00  0.00     0.395 C 
HETATM   18  F1  UNL     1      11.020  -6.058  -0.360  1.00  0.00    -0.170 F 
HETATM   19  F2  UNL     1      12.740  -6.008   1.042  1.00  0.00    -0.170 F 
HETATM   20  F3  UNL     1      12.009  -7.975   0.229  1.00  0.00    -0.170 F 
ENDBRANCH  15  17
ENDBRANCH   1  11
TORSDOF 3
ENDMDL
MODEL 3
REMARK VINA RESULT: -7.242690359      0.896      1.575
REMARK  3 active torsions:
REMARK  status: ('A' for Active; 'I' for Inactive)
REMARK    1  A    between atoms: O1_1  and  C1_3 
REMARK    2  A    between atoms: C1_3  and  N1_4 
REMARK    3  A    between atoms: C5_8  and  C6_9 
ROOT
HETATM    1  C1  UNL     1      11.782  -7.000  -3.212  1.00  0.00     0.136 C 
HETATM    2  C8  UNL     1      13.223  -7.196  -3.638  1.00  0.00     0.061 C 
HETATM    3  C9  UNL     1      14.137  -6.201  -2.955  1.00  0.00     0.005 C 
HETATM    4  C10 UNL     1      14.642  -6.662  -1.625  1.00  0.00     0.000 C 
HETATM    5  C11 UNL     1      13.969  -5.822  -0.564  1.00  0.00     0.000 C 
HETATM    6  C12 UNL     1      12.796  -6.493   0.077  1.00  0.00     0.000 C 
HETATM    7  C13 UNL     1      11.534  -6.402  -0.779  1.00  0.00     0.005 C 
HETATM    8  C14 UNL     1      11.480  -7.475  -1.838  1.00  0.00     0.061 C 
ENDROOT
BRANCH   1   9
HETATM    9  O1  UNL     1      11.635  -5.584  -3.163  1.00  0.00    -0.370 OA
ATOM     10  H1  UNL     1      12.326  -5.281  -2.585  1.00  0.00     0.212 HD
ENDBRANCH   1   9
BRANCH   1  11
HETATM   11  N1  UNL     1      10.922  -7.427  -4.247  1.00  0.00    -0.341 N 
HETATM   12  C2  UNL     1      11.148  -6.897  -5.528  1.00  0.00     0.066 C 
HETATM   13  C3  UNL     1       9.849  -7.015  -6.318  1.00  0.00     0.046 C 
HETATM   14  C4  UNL     1       9.686  -8.505  -6.574  1.00  0.00     0.024 C 
HETATM   15  C5  UNL     1       9.718  -9.300  -5.309  1.00  0.00     0.132 C 
HETATM   16  C7  UNL     1      10.202  -8.613  -4.097  1.00  0.00     0.079 C 
BRANCH  15  17
HETATM   17  C6  UNL     1      10.461 -10.624  -5.539  1.00  0.00     0.395 C 
HETATM   18  F1  UNL     1       9.558 -11.672  -5.608  1.00  0.00    -0.170 F 
HETATM   19  F2  UNL     1      11.324 -10.912  -4.499  1.00  0.00    -0.170 F 
HETATM   20  F3  UNL     1      11.173 -10.598  -6.722  1.00  0.00    -0.170 F 
ENDBRANCH  15  17
ENDBRANCH   1  11
TORSDOF 3
ENDMDL
MODEL 4
REMARK VINA RESULT: -7.209958655      3.090      6.389
REMARK  3 active torsions:
REMARK  status: ('A' for Active; 'I' for Inactive)
REMARK    1  A    between atoms: O1_1  and  C1_3 
REMARK    2  A    between atoms: C1_3  and  N1_4 
REMARK    3  A    between atoms: C5_8  and  C6_9 
ROOT
HETATM    1  C1  UNL     1      10.012 -11.221  -5.950  1.00  0.00     0.136 C 
HETATM    2  C8  UNL     1      11.293 -11.846  -5.435  1.00  0.00     0.061 C 
HETATM    3  C9  UNL     1      11.015 -13.141  -4.703  1.00  0.00     0.005 C 
HETATM    4  C10 UNL     1      10.986 -14.342  -5.594  1.00  0.00     0.000 C 
HETATM    5  C11 UNL     1       9.552 -14.813  -5.679  1.00  0.00     0.000 C 
HETATM    6  C12 UNL     1       8.843 -14.353  -6.913  1.00  0.00     0.000 C 
HETATM    7  C13 UNL     1       8.350 -12.911  -6.798  1.00  0.00     0.005 C 
HETATM    8  C14 UNL     1       9.427 -11.909  -7.130  1.00  0.00     0.061 C 
ENDROOT
BRANCH   1   9
HETATM    9  O1  UNL     1       9.084 -11.434  -4.891  1.00  0.00    -0.370 OA
ATOM     10  H1  UNL     1       8.343 -11.874  -5.292  1.00  0.00     0.212 HD
ENDBRANCH   1   9
BRANCH   1  11
HETATM   11  N1  UNL     1      10.169  -9.821  -6.032  1.00  0.00    -0.341 N 
HETATM   12  C2  UNL     1       9.005  -9.054  -6.204  1.00  0.00     0.066 C 
HETATM   13  C3  UNL     1       9.411  -7.718  -6.815  1.00  0.00     0.046 C 
HETATM   14  C4  UNL     1      10.152  -6.993  -5.703  1.00  0.00     0.024 C 
HETATM   15  C5  UNL     1      11.287  -7.801  -5.164  1.00  0.00     0.132 C 
HETATM   16  C7  UNL     1      11.328  -9.229  -5.530  1.00  0.00     0.079 C 
BRANCH  15  17
HETATM   17  C6  UNL     1      11.395  -7.607  -3.645  1.00  0.00     0.395 C 
HETATM   18  F1  UNL     1      11.413  -6.257  -3.335  1.00  0.00    -0.170 F 
HETATM   19  F2  UNL     1      12.566  -8.144  -3.143  1.00  0.00    -0.170 F 
HETATM   20  F3  UNL     1      10.321  -8.179  -2.991  1.00  0.00    -0.170 F 
ENDBRANCH  15  17
ENDBRANCH   1  11
TORSDOF 3
ENDMDL
MODEL 5
REMARK VINA RESULT: -7.158918661      3.126      6.133
REMARK  3 active torsions:
REMARK  status: ('A' for Active; 'I' for Inactive)
REMARK    1  A    between atoms: O1_1  and  C1_3 
REMARK    2  A    between atoms: C1_3  and  N1_4 
REMARK    3  A    between atoms: C5_8  and  C6_9 
ROOT
HETATM    1  C1  UNL     1      11.337  -7.456  -3.637  1.00  0.00     0.136 C 
HETATM    2  C8  UNL     1      10.835  -6.333  -4.522  1.00  0.00     0.061 C 
HETATM    3  C9  UNL     1      10.886  -6.723  -5.983  1.00  0.00     0.005 C 
HETATM    4  C10 UNL     1       9.656  -7.425  -6.463  1.00  0.00     0.000 C 
HETATM    5  C11 UNL     1      10.023  -8.871  -6.712  1.00  0.00     0.000 C 
HETATM    6  C12 UNL     1       9.646  -9.786  -5.591  1.00  0.00     0.000 C 
HETATM    7  C13 UNL     1      10.651  -9.742  -4.440  1.00  0.00     0.005 C 
HETATM    8  C14 UNL     1      10.392  -8.594  -3.496  1.00  0.00     0.061 C 
ENDROOT
BRANCH   1   9
HETATM    9  O1  UNL     1      12.452  -7.978  -4.353  1.00  0.00    -0.370 OA
ATOM     10  H1  UNL     1      12.096  -8.668  -4.901  1.00  0.00     0.212 HD
ENDBRANCH   1   9
BRANCH   1  11
HETATM   11  N1  UNL     1      11.878  -6.916  -2.450  1.00  0.00    -0.341 N 
HETATM   12  C2  UNL     1      12.201  -7.819  -1.423  1.00  0.00     0.066 C 
HETATM   13  C3  UNL     1      12.215  -7.047  -0.109  1.00  0.00     0.046 C 
HETATM   14  C4  UNL     1      13.444  -6.156  -0.197  1.00  0.00     0.024 C 
HETATM   15  C5  UNL     1      13.431  -5.299  -1.421  1.00  0.00     0.132 C 
HETATM   16  C7  UNL     1      12.458  -5.648  -2.474  1.00  0.00     0.079 C 
BRANCH  15  17
HETATM   17  C6  UNL     1      14.852  -5.172  -1.988  1.00  0.00     0.395 C 
HETATM   18  F1  UNL     1      15.325  -6.415  -2.375  1.00  0.00    -0.170 F 
HETATM   19  F2  UNL     1      15.737  -4.688  -1.043  1.00  0.00    -0.170 F 
HETATM   20  F3  UNL     1      14.876  -4.344  -3.094  1.00  0.00    -0.170 F 
ENDBRANCH  15  17
ENDBRANCH   1  11
TORSDOF 3
ENDMDL
