MODEL 1
REMARK VINA RESULT: -5.670505988      0.000      0.000
REMARK  3 active torsions:
REMARK  status: ('A' for Active; 'I' for Inactive)
REMARK    1  A    between atoms: C2_2  and  N1_3 
REMARK    2  A    between atoms: C11_15  and  O1_16 
REMARK    3  A    between atoms: O1_16  and  C12_17 
ROOT
HETATM    1  C1  UNL     1       9.329  -8.453  -6.597  1.00  0.00     0.046 C 
HETATM    2  C2  UNL     1       9.919  -9.298  -5.485  1.00  0.00     0.121 C 
HETATM    3  C3  UNL     1       8.860 -10.186  -4.900  1.00  0.00     0.039 C 
HETATM    4  C4  UNL     1       9.322 -11.610  -5.060  1.00  0.00     0.012 C 
HETATM    5  C5  UNL     1      10.490 -11.598  -5.999  1.00  0.00    -0.036 C 
HETATM    6  C6  UNL     1      11.570 -12.478  -5.406  1.00  0.00     0.010 C 
HETATM    7  C7  UNL     1      11.080 -13.880  -5.521  1.00  0.00     0.012 C 
HETATM    8  C8  UNL     1      11.063 -14.264  -6.989  1.00  0.00    -0.021 C 
HETATM    9  C9  UNL     1      10.520 -15.679  -7.014  1.00  0.00     0.017 C 
HETATM   10  C10 UNL     1      12.484 -14.377  -7.532  1.00  0.00     0.017 C 
HETATM   11  C11 UNL     1      10.208 -13.382  -7.792  1.00  0.00     0.139 C 
HETATM   12  C13 UNL     1      10.164 -11.926  -7.401  1.00  0.00     0.042 C 
HETATM   13  C14 UNL     1      11.040 -10.170  -5.966  1.00  0.00     0.048 C 
ENDROOT
BRANCH  11  14
HETATM   14  O1  UNL     1       8.934 -13.892  -7.941  1.00  0.00    -0.292 OA
BRANCH  14  15
HETATM   15  C12 UNL     1       8.504 -14.053  -9.230  1.00  0.00     0.525 C 
HETATM   16  F1  UNL     1       8.308 -15.374  -9.516  1.00  0.00    -0.144 F 
HETATM   17  F2  UNL     1       7.266 -13.428  -9.323  1.00  0.00    -0.144 F 
HETATM   18  F3  UNL     1       9.387 -13.536 -10.163  1.00  0.00    -0.144 F 
ENDBRANCH  14  15
ENDBRANCH  11  14
BRANCH   2  19
HETATM   19  N1  UNL     1      10.454  -8.364  -4.498  1.00  0.00    -0.071 N 
ATOM     20  H13 UNL     1      11.165  -8.776  -3.894  1.00  0.00     0.275 HD
ATOM     21  H12 UNL     1      11.042  -7.637  -4.906  1.00  0.00     0.275 HD
ATOM     22  H11 UNL     1       9.652  -7.996  -3.986  1.00  0.00     0.275 HD
ENDBRANCH   2  19
TORSDOF 3
ENDMDL
MODEL 2
REMARK VINA RESULT: -5.488565868      3.016      3.870
REMARK  3 active torsions:
REMARK  status: ('A' for Active; 'I' for Inactive)
REMARK    1  A    between atoms: C2_2  and  N1_3 
REMARK    2  A    between atoms: C11_15  and  O1_16 
REMARK    3  A    between atoms: O1_16  and  C12_17 
ROOT
HETATM    1  C1  UNL     1       9.698  -9.339  -4.548  1.00  0.00     0.046 C 
HETATM    2  C2  UNL     1       9.798  -9.680  -6.022  1.00  0.00     0.121 C 
HETATM    3  C3  UNL     1      11.175 -10.187  -6.338  1.00  0.00     0.039 C 
HETATM    4  C4  UNL     1      11.029 -11.573  -6.908  1.00  0.00     0.012 C 
HETATM    5  C5  UNL     1       9.619 -12.014  -6.655  1.00  0.00    -0.036 C 
HETATM    6  C6  UNL     1       9.090 -12.627  -7.933  1.00  0.00     0.010 C 
HETATM    7  C7  UNL     1       9.805 -13.923  -8.106  1.00  0.00     0.012 C 
HETATM    8  C8  UNL     1       9.339 -14.877  -7.024  1.00  0.00    -0.021 C 
HETATM    9  C9  UNL     1      10.140 -16.144  -7.251  1.00  0.00     0.017 C 
HETATM   10  C10 UNL     1       7.886 -15.282  -7.253  1.00  0.00     0.017 C 
HETATM   11  C11 UNL     1       9.586 -14.361  -5.672  1.00  0.00     0.139 C 
HETATM   12  C13 UNL     1       9.441 -12.874  -5.468  1.00  0.00     0.042 C 
HETATM   13  C14 UNL     1       8.813 -10.732  -6.432  1.00  0.00     0.048 C 
ENDROOT
BRANCH  11  14
HETATM   14  O1  UNL     1      10.782 -14.817  -5.155  1.00  0.00    -0.292 OA
BRANCH  14  15
HETATM   15  C12 UNL     1      10.699 -15.499  -3.972  1.00  0.00     0.525 C 
HETATM   16  F1  UNL     1       9.815 -16.536  -4.069  1.00  0.00    -0.144 F 
HETATM   17  F2  UNL     1      11.952 -16.051  -3.735  1.00  0.00    -0.144 F 
HETATM   18  F3  UNL     1      10.307 -14.697  -2.912  1.00  0.00    -0.144 F 
ENDBRANCH  14  15
ENDBRANCH  11  14
BRANCH   2  19
HETATM   19  N1  UNL     1       9.489  -8.452  -6.750  1.00  0.00    -0.071 N 
ATOM     20  H13 UNL     1       8.599  -8.489  -7.247  1.00  0.00     0.275 HD
ATOM     21  H12 UNL     1       9.260  -7.667  -6.140  1.00  0.00     0.275 HD
ATOM     22  H11 UNL     1      10.286  -8.272  -7.361  1.00  0.00     0.275 HD
ENDBRANCH   2  19
TORSDOF 3
ENDMDL
MODEL 3
REMARK VINA RESULT: -5.387055125      3.647      5.060
REMARK  3 active torsions:
REMARK  status: ('A' for Active; 'I' for Inactive)
REMARK    1  A    between atoms: C2_2  and  N1_3 
REMARK    2  A    between atoms: C11_15  and  O1_16 
REMARK    3  A    between atoms: O1_16  and  C12_17 
ROOT
HETATM    1  C1  UNL     1      13.157 -11.761 -10.404  1.00  0.00     0.046 C 
HETATM    2  C2  UNL     1      13.123 -13.034  -9.580  1.00  0.00     0.121 C 
HETATM    3  C3  UNL     1      13.805 -12.810  -8.263  1.00  0.00     0.039 C 
HETATM    4  C4  UNL     1      12.803 -13.099  -7.177  1.00  0.00     0.012 C 
HETATM    5  C5  UNL     1      11.456 -13.197  -7.827  1.00  0.00    -0.036 C 
HETATM    6  C6  UNL     1      10.762 -14.421  -7.270  1.00  0.00     0.010 C 
HETATM    7  C7  UNL     1      10.413 -14.101  -5.857  1.00  0.00     0.012 C 
HETATM    8  C8  UNL     1       9.332 -13.037  -5.858  1.00  0.00    -0.021 C 
HETATM    9  C9  UNL     1       9.071 -12.748  -4.393  1.00  0.00     0.017 C 
HETATM   10  C10 UNL     1       8.020 -13.604  -6.389  1.00  0.00     0.017 C 
HETATM   11  C11 UNL     1       9.750 -11.810  -6.547  1.00  0.00     0.139 C 
HETATM   12  C13 UNL     1      10.640 -11.969  -7.754  1.00  0.00     0.042 C 
HETATM   13  C14 UNL     1      11.724 -13.496  -9.304  1.00  0.00     0.048 C 
ENDROOT
BRANCH  11  14
HETATM   14  O1  UNL     1      10.265 -10.875  -5.672  1.00  0.00    -0.292 OA
BRANCH  14  15
HETATM   15  C12 UNL     1       9.665  -9.646  -5.692  1.00  0.00     0.525 C 
HETATM   16  F1  UNL     1       8.359  -9.748  -6.077  1.00  0.00    -0.144 F 
HETATM   17  F2  UNL     1       9.669  -9.173  -4.386  1.00  0.00    -0.144 F 
HETATM   18  F3  UNL     1      10.296  -8.750  -6.541  1.00  0.00    -0.144 F 
ENDBRANCH  14  15
ENDBRANCH  11  14
BRANCH   2  19
HETATM   19  N1  UNL     1      13.796 -14.057 -10.377  1.00  0.00    -0.071 N 
ATOM     20  H13 UNL     1      14.142 -14.840  -9.821  1.00  0.00     0.275 HD
ATOM     21  H12 UNL     1      13.161 -14.593 -10.968  1.00  0.00     0.275 HD
ATOM     22  H11 UNL     1      14.529 -13.577 -10.900  1.00  0.00     0.275 HD
ENDBRANCH   2  19
TORSDOF 3
ENDMDL
MODEL 4
REMARK VINA RESULT: -5.174106144      7.447      9.315
REMARK  3 active torsions:
REMARK  status: ('A' for Active; 'I' for Inactive)
REMARK    1  A    between atoms: C2_2  and  N1_3 
REMARK    2  A    between atoms: C11_15  and  O1_16 
REMARK    3  A    between atoms: O1_16  and  C12_17 
ROOT
HETATM    1  C1  UNL     1      10.185  -6.668  -6.058  1.00  0.00     0.046 C 
HETATM    2  C2  UNL     1      10.437  -7.825  -5.110  1.00  0.00     0.121 C 
HETATM    3  C3  UNL     1      11.808  -8.388  -5.342  1.00  0.00     0.039 C 
HETATM    4  C4  UNL     1      12.568  -8.283  -4.046  1.00  0.00     0.012 C 
HETATM    5  C5  UNL     1      11.776  -7.394  -3.135  1.00  0.00    -0.036 C 
HETATM    6  C6  UNL     1      11.725  -8.055  -1.775  1.00  0.00     0.010 C 
HETATM    7  C7  UNL     1      13.098  -7.955  -1.206  1.00  0.00     0.012 C 
HETATM    8  C8  UNL     1      13.384  -6.498  -0.894  1.00  0.00    -0.021 C 
HETATM    9  C9  UNL     1      14.804  -6.486  -0.362  1.00  0.00     0.017 C 
HETATM   10  C10 UNL     1      12.523  -6.018   0.269  1.00  0.00     0.017 C 
HETATM   11  C11 UNL     1      13.284  -5.638  -2.079  1.00  0.00     0.139 C 
HETATM   12  C13 UNL     1      12.225  -5.989  -3.095  1.00  0.00     0.042 C 
HETATM   13  C14 UNL     1      10.342  -7.414  -3.672  1.00  0.00     0.048 C 
ENDROOT
BRANCH  11  14
HETATM   14  O1  UNL     1      14.509  -5.448  -2.686  1.00  0.00    -0.292 OA
BRANCH  14  15
HETATM   15  C12 UNL     1      15.010  -4.176  -2.632  1.00  0.00     0.525 C 
HETATM   16  F1  UNL     1      15.178  -3.666  -3.888  1.00  0.00    -0.144 F 
HETATM   17  F2  UNL     1      14.054  -3.392  -1.998  1.00  0.00    -0.144 F 
HETATM   18  F3  UNL     1      16.225  -4.102  -1.970  1.00  0.00    -0.144 F 
ENDBRANCH  14  15
ENDBRANCH  11  14
BRANCH   2  19
HETATM   19  N1  UNL     1       9.391  -8.809  -5.376  1.00  0.00    -0.071 N 
ATOM     20  H13 UNL     1       8.616  -8.766  -4.715  1.00  0.00     0.275 HD
ATOM     21  H12 UNL     1       8.850  -8.608  -6.217  1.00  0.00     0.275 HD
ATOM     22  H11 UNL     1       9.852  -9.719  -5.400  1.00  0.00     0.275 HD
ENDBRANCH   2  19
TORSDOF 3
ENDMDL
MODEL 5
REMARK VINA RESULT: -5.134106201      3.494      5.302
REMARK  3 active torsions:
REMARK  status: ('A' for Active; 'I' for Inactive)
REMARK    1  A    between atoms: C2_2  and  N1_3 
REMARK    2  A    between atoms: C11_15  and  O1_16 
REMARK    3  A    between atoms: O1_16  and  C12_17 
ROOT
HETATM    1  C1  UNL     1       6.670 -14.195  -9.738  1.00  0.00     0.046 C 
HETATM    2  C2  UNL     1       7.839 -15.116  -9.445  1.00  0.00     0.121 C 
HETATM    3  C3  UNL     1       9.106 -14.522  -9.985  1.00  0.00     0.039 C 
HETATM    4  C4  UNL     1      10.058 -14.356  -8.830  1.00  0.00     0.012 C 
HETATM    5  C5  UNL     1       9.271 -14.558  -7.570  1.00  0.00    -0.036 C 
HETATM    6  C6  UNL     1      10.072 -15.469  -6.666  1.00  0.00     0.010 C 
HETATM    7  C7  UNL     1      11.239 -14.672  -6.191  1.00  0.00     0.012 C 
HETATM    8  C8  UNL     1      10.732 -13.588  -5.260  1.00  0.00    -0.021 C 
HETATM    9  C9  UNL     1      11.971 -12.809  -4.861  1.00  0.00     0.017 C 
HETATM   10  C10 UNL     1      10.211 -14.194  -3.961  1.00  0.00     0.017 C 
HETATM   11  C11 UNL     1       9.764 -12.695  -5.908  1.00  0.00     0.139 C 
HETATM   12  C13 UNL     1       8.824 -13.315  -6.912  1.00  0.00     0.042 C 
HETATM   13  C14 UNL     1       8.025 -15.349  -7.976  1.00  0.00     0.048 C 
ENDROOT
BRANCH  11  14
HETATM   14  O1  UNL     1      10.366 -11.566  -6.425  1.00  0.00    -0.292 OA
BRANCH  14  15
HETATM   15  C12 UNL     1       9.859 -10.370  -5.997  1.00  0.00     0.525 C 
HETATM   16  F1  UNL     1       9.094 -10.539  -4.878  1.00  0.00    -0.144 F 
HETATM   17  F2  UNL     1      10.942  -9.578  -5.635  1.00  0.00    -0.144 F 
HETATM   18  F3  UNL     1       9.086  -9.736  -6.956  1.00  0.00    -0.144 F 
ENDBRANCH  14  15
ENDBRANCH  11  14
BRANCH   2  19
HETATM   19  N1  UNL     1       7.523 -16.394 -10.077  1.00  0.00    -0.071 N 
ATOM     20  H13 UNL     1       6.765 -16.898  -9.616  1.00  0.00     0.275 HD
ATOM     21  H12 UNL     1       7.073 -16.296 -10.987  1.00  0.00     0.275 HD
ATOM     22  H11 UNL     1       8.396 -16.921 -10.111  1.00  0.00     0.275 HD
ENDBRANCH   2  19
TORSDOF 3
ENDMDL
