MODEL 1
REMARK VINA RESULT: -5.390056381      0.000      0.000
REMARK  4 active torsions:
REMARK  status: ('A' for Active; 'I' for Inactive)
REMARK    1  A    between atoms: C2_2  and  N1_4 
REMARK    2  A    between atoms: N1_4  and  C4_6 
REMARK    3  A    between atoms: C4_6  and  O1_8 
REMARK    4  A    between atoms: O1_8  and  C5_9 
ROOT
HETATM    1  C5  UNL     1      10.667 -11.991  -5.641  1.00  0.00     0.194 C 
HETATM    2  C6  UNL     1      10.533 -12.687  -4.304  1.00  0.00     0.039 C 
HETATM    3  C7  UNL     1      10.801 -14.167  -4.599  1.00  0.00     0.017 C 
HETATM    4  C8  UNL     1      11.922 -14.068  -5.596  1.00  0.00     0.012 C 
HETATM    5  C9  UNL     1      13.246 -13.877  -4.913  1.00  0.00     0.020 C 
HETATM    6  C10 UNL     1      11.941 -15.355  -6.390  1.00  0.00     0.020 C 
HETATM    7  C11 UNL     1      11.521 -12.907  -6.446  1.00  0.00     0.198 C 
HETATM    8  O2  UNL     1      10.775 -13.383  -7.533  1.00  0.00    -0.350 OA
HETATM    9  C12 UNL     1      10.752 -12.312  -8.426  1.00  0.00     0.198 C 
HETATM   10  C13 UNL     1      12.060 -11.643  -8.166  1.00  0.00     0.198 C 
HETATM   11  O3  UNL     1      12.613 -12.259  -7.023  1.00  0.00    -0.350 OA
ENDROOT
BRANCH   1  12
HETATM   12  O1  UNL     1      11.193 -10.688  -5.513  1.00  0.00    -0.316 OA
BRANCH  12  13
HETATM   13  C4  UNL     1      10.291  -9.644  -5.402  1.00  0.00     0.210 C 
HETATM   14  S1  UNL     1       9.080  -9.619  -6.493  1.00  0.00    -0.033 SA
BRANCH  13  15
HETATM   15  N1  UNL     1      10.360  -8.625  -4.420  1.00  0.00    -0.358 N 
ATOM     16  H1  UNL     1       9.770  -8.720  -3.593  1.00  0.00     0.162 HD
BRANCH  15  17
HETATM   17  C2  UNL     1      11.202  -7.472  -4.512  1.00  0.00     0.076 C 
HETATM   18  C1  UNL     1      10.586  -6.342  -5.293  1.00  0.00     0.032 C 
HETATM   19  C3  UNL     1      11.522  -6.942  -3.134  1.00  0.00     0.032 C 
ENDBRANCH  15  17
ENDBRANCH  13  15
ENDBRANCH  12  13
ENDBRANCH   1  12
TORSDOF 4
ENDMDL
MODEL 2
REMARK VINA RESULT: -5.347875389      1.324      1.866
REMARK  4 active torsions:
REMARK  status: ('A' for Active; 'I' for Inactive)
REMARK    1  A    between atoms: C2_2  and  N1_4 
REMARK    2  A    between atoms: N1_4  and  C4_6 
REMARK    3  A    between atoms: C4_6  and  O1_8 
REMARK    4  A    between atoms: O1_8  and  C5_9 
ROOT
HETATM    1  C5  UNL     1      10.530 -11.875  -5.485  1.00  0.00     0.194 C 
HETATM    2  C6  UNL     1      11.765 -12.229  -4.684  1.00  0.00     0.039 C 
HETATM    3  C7  UNL     1      11.754 -13.759  -4.596  1.00  0.00     0.017 C 
HETATM    4  C8  UNL     1      11.284 -14.128  -5.976  1.00  0.00     0.012 C 
HETATM    5  C9  UNL     1      12.417 -14.109  -6.963  1.00  0.00     0.020 C 
HETATM    6  C10 UNL     1      10.699 -15.521  -5.901  1.00  0.00     0.020 C 
HETATM    7  C11 UNL     1      10.232 -13.108  -6.262  1.00  0.00     0.198 C 
HETATM    8  O2  UNL     1       8.991 -13.614  -5.850  1.00  0.00    -0.350 OA
HETATM    9  C12 UNL     1       8.060 -12.776  -6.461  1.00  0.00     0.198 C 
HETATM   10  C13 UNL     1       8.753 -12.385  -7.724  1.00  0.00     0.198 C 
HETATM   11  O3  UNL     1      10.077 -12.861  -7.626  1.00  0.00    -0.350 OA
ENDROOT
BRANCH   1  12
HETATM   12  O1  UNL     1      10.725 -10.729  -6.286  1.00  0.00    -0.316 OA
BRANCH  12  13
HETATM   13  C4  UNL     1      10.296  -9.515  -5.778  1.00  0.00     0.210 C 
HETATM   14  S1  UNL     1       8.828  -9.006  -6.272  1.00  0.00    -0.033 SA
BRANCH  13  15
HETATM   15  N1  UNL     1      11.040  -8.714  -4.877  1.00  0.00    -0.358 N 
ATOM     16  H1  UNL     1      11.986  -9.015  -4.643  1.00  0.00     0.162 HD
BRANCH  15  17
HETATM   17  C2  UNL     1      10.554  -7.511  -4.276  1.00  0.00     0.076 C 
HETATM   18  C1  UNL     1      11.268  -7.149  -3.001  1.00  0.00     0.032 C 
HETATM   19  C3  UNL     1      10.712  -6.345  -5.224  1.00  0.00     0.032 C 
ENDBRANCH  15  17
ENDBRANCH  13  15
ENDBRANCH  12  13
ENDBRANCH   1  12
TORSDOF 4
ENDMDL
MODEL 3
REMARK VINA RESULT: -5.344256907      3.814      6.046
REMARK  4 active torsions:
REMARK  status: ('A' for Active; 'I' for Inactive)
REMARK    1  A    between atoms: C2_2  and  N1_4 
REMARK    2  A    between atoms: N1_4  and  C4_6 
REMARK    3  A    between atoms: C4_6  and  O1_8 
REMARK    4  A    between atoms: O1_8  and  C5_9 
ROOT
HETATM    1  C5  UNL     1      10.876 -14.325  -5.187  1.00  0.00     0.194 C 
HETATM    2  C6  UNL     1      11.691 -13.246  -4.507  1.00  0.00     0.039 C 
HETATM    3  C7  UNL     1      11.606 -12.036  -5.444  1.00  0.00     0.017 C 
HETATM    4  C8  UNL     1      10.173 -12.112  -5.891  1.00  0.00     0.012 C 
HETATM    5  C9  UNL     1       9.251 -11.497  -4.877  1.00  0.00     0.020 C 
HETATM    6  C10 UNL     1      10.064 -11.360  -7.199  1.00  0.00     0.020 C 
HETATM    7  C11 UNL     1       9.952 -13.577  -6.082  1.00  0.00     0.198 C 
HETATM    8  O2  UNL     1      10.245 -13.906  -7.413  1.00  0.00    -0.350 OA
HETATM    9  C12 UNL     1       9.687 -15.173  -7.582  1.00  0.00     0.198 C 
HETATM   10  C13 UNL     1       8.511 -15.135  -6.664  1.00  0.00     0.198 C 
HETATM   11  O3  UNL     1       8.618 -13.947  -5.911  1.00  0.00    -0.350 OA
ENDROOT
BRANCH   1  12
HETATM   12  O1  UNL     1      10.219 -15.161  -4.259  1.00  0.00    -0.316 OA
BRANCH  12  13
HETATM   13  C4  UNL     1      10.999 -16.040  -3.528  1.00  0.00     0.210 C 
HETATM   14  S1  UNL     1      10.491 -16.367  -2.014  1.00  0.00    -0.033 SA
BRANCH  13  15
HETATM   15  N1  UNL     1      12.181 -16.655  -4.010  1.00  0.00    -0.358 N 
ATOM     16  H1  UNL     1      12.125 -17.172  -4.888  1.00  0.00     0.162 HD
BRANCH  15  17
HETATM   17  C2  UNL     1      13.448 -16.597  -3.349  1.00  0.00     0.076 C 
HETATM   18  C1  UNL     1      13.988 -17.951  -2.972  1.00  0.00     0.032 C 
HETATM   19  C3  UNL     1      14.477 -15.935  -4.235  1.00  0.00     0.032 C 
ENDBRANCH  15  17
ENDBRANCH  13  15
ENDBRANCH  12  13
ENDBRANCH   1  12
TORSDOF 4
ENDMDL
MODEL 4
REMARK VINA RESULT: -5.278794893      3.678      5.785
REMARK  4 active torsions:
REMARK  status: ('A' for Active; 'I' for Inactive)
REMARK    1  A    between atoms: C2_2  and  N1_4 
REMARK    2  A    between atoms: N1_4  and  C4_6 
REMARK    3  A    between atoms: C4_6  and  O1_8 
REMARK    4  A    between atoms: O1_8  and  C5_9 
ROOT
HETATM    1  C5  UNL     1      10.512 -14.310  -5.612  1.00  0.00     0.194 C 
HETATM    2  C6  UNL     1      11.384 -13.678  -4.548  1.00  0.00     0.039 C 
HETATM    3  C7  UNL     1      11.731 -12.289  -5.095  1.00  0.00     0.017 C 
HETATM    4  C8  UNL     1      10.426 -11.888  -5.725  1.00  0.00     0.012 C 
HETATM    5  C9  UNL     1       9.472 -11.339  -4.702  1.00  0.00     0.020 C 
HETATM    6  C10 UNL     1      10.728 -10.827  -6.760  1.00  0.00     0.020 C 
HETATM    7  C11 UNL     1       9.951 -13.153  -6.360  1.00  0.00     0.198 C 
HETATM    8  O2  UNL     1      10.421 -13.197  -7.680  1.00  0.00    -0.350 OA
HETATM    9  C12 UNL     1       9.659 -14.198  -8.281  1.00  0.00     0.198 C 
HETATM   10  C13 UNL     1       8.361 -14.101  -7.551  1.00  0.00     0.198 C 
HETATM   11  O3  UNL     1       8.562 -13.208  -6.477  1.00  0.00    -0.350 OA
ENDROOT
BRANCH   1  12
HETATM   12  O1  UNL     1       9.531 -15.162  -5.060  1.00  0.00    -0.316 OA
BRANCH  12  13
HETATM   13  C4  UNL     1       9.890 -16.476  -4.818  1.00  0.00     0.210 C 
HETATM   14  S1  UNL     1      10.495 -17.303  -6.086  1.00  0.00    -0.033 SA
BRANCH  13  15
HETATM   15  N1  UNL     1       9.765 -17.124  -3.564  1.00  0.00    -0.358 N 
ATOM     16  H1  UNL     1       8.990 -17.776  -3.440  1.00  0.00     0.162 HD
BRANCH  15  17
HETATM   17  C2  UNL     1      10.653 -16.924  -2.461  1.00  0.00     0.076 C 
HETATM   18  C1  UNL     1      12.096 -16.793  -2.870  1.00  0.00     0.032 C 
HETATM   19  C3  UNL     1      10.285 -15.667  -1.707  1.00  0.00     0.032 C 
ENDBRANCH  15  17
ENDBRANCH  13  15
ENDBRANCH  12  13
ENDBRANCH   1  12
TORSDOF 4
ENDMDL
MODEL 5
REMARK VINA RESULT: -5.277425563      3.684      5.936
REMARK  4 active torsions:
REMARK  status: ('A' for Active; 'I' for Inactive)
REMARK    1  A    between atoms: C2_2  and  N1_4 
REMARK    2  A    between atoms: N1_4  and  C4_6 
REMARK    3  A    between atoms: C4_6  and  O1_8 
REMARK    4  A    between atoms: O1_8  and  C5_9 
ROOT
HETATM    1  C5  UNL     1      10.686 -14.062  -5.390  1.00  0.00     0.194 C 
HETATM    2  C6  UNL     1      11.633 -13.072  -4.745  1.00  0.00     0.039 C 
HETATM    3  C7  UNL     1      11.559 -11.822  -5.627  1.00  0.00     0.017 C 
HETATM    4  C8  UNL     1      10.092 -11.777  -5.951  1.00  0.00     0.012 C 
HETATM    5  C9  UNL     1       9.306 -11.142  -4.839  1.00  0.00     0.020 C 
HETATM    6  C10 UNL     1       9.928 -10.965  -7.216  1.00  0.00     0.020 C 
HETATM    7  C11 UNL     1       9.748 -13.213  -6.174  1.00  0.00     0.198 C 
HETATM    8  O2  UNL     1       9.903 -13.506  -7.536  1.00  0.00    -0.350 OA
HETATM    9  C12 UNL     1       9.240 -14.722  -7.702  1.00  0.00     0.198 C 
HETATM   10  C13 UNL     1       8.152 -14.640  -6.684  1.00  0.00     0.198 C 
HETATM   11  O3  UNL     1       8.409 -13.496  -5.901  1.00  0.00    -0.350 OA
ENDROOT
BRANCH   1  12
HETATM   12  O1  UNL     1      10.049 -14.888  -4.440  1.00  0.00    -0.316 OA
BRANCH  12  13
HETATM   13  C4  UNL     1      10.642 -16.106  -4.153  1.00  0.00     0.210 C 
HETATM   14  S1  UNL     1       9.929 -17.423  -4.795  1.00  0.00    -0.033 SA
BRANCH  13  15
HETATM   15  N1  UNL     1      11.802 -16.265  -3.356  1.00  0.00    -0.358 N 
ATOM     16  H1  UNL     1      11.766 -15.933  -2.392  1.00  0.00     0.162 HD
BRANCH  15  17
HETATM   17  C2  UNL     1      13.020 -16.860  -3.812  1.00  0.00     0.076 C 
HETATM   18  C1  UNL     1      14.059 -15.852  -4.226  1.00  0.00     0.032 C 
HETATM   19  C3  UNL     1      13.631 -17.713  -2.725  1.00  0.00     0.032 C 
ENDBRANCH  15  17
ENDBRANCH  13  15
ENDBRANCH  12  13
ENDBRANCH   1  12
TORSDOF 4
ENDMDL
