MODEL 1
REMARK VINA RESULT: -7.196495579      0.000      0.000
REMARK  2 active torsions:
REMARK  status: ('A' for Active; 'I' for Inactive)
REMARK    1  A    between atoms: C3_5  and  C4_6 
REMARK    2  A    between atoms: N2_10  and  C8_11 
ROOT
HETATM    1  C4  UNL     1      10.044  -8.587  -4.998  1.00  0.00     0.034 C 
HETATM    2  C5  UNL     1       9.017  -9.247  -4.150  1.00  0.00     0.025 C 
HETATM    3  C6  UNL     1       9.547  -8.330  -6.373  1.00  0.00     0.038 C 
HETATM    4  C7  UNL     1       9.558  -9.741  -6.984  1.00  0.00     0.119 C 
HETATM    5  N2  UNL     1      10.635 -10.328  -6.368  1.00  0.00    -0.403 N 
HETATM    6  C15 UNL     1      11.124  -9.662  -5.262  1.00  0.00     0.134 C 
ENDROOT
BRANCH   1   7
HETATM    7  C3  UNL     1      10.739  -7.468  -4.353  1.00  0.00     0.114 A 
HETATM    8  N1  UNL     1      11.091  -7.232  -3.104  1.00  0.00    -0.326 N 
HETATM    9  C2  UNL     1      11.668  -5.992  -3.051  1.00  0.00     0.144 A 
ATOM     10  H1  UNL     1      10.957  -7.864  -2.315  1.00  0.00     0.169 HD
HETATM   11  C1  UNL     1      12.222  -5.279  -1.865  1.00  0.00     0.100 C 
HETATM   12  O1  UNL     1      11.641  -5.523  -4.275  1.00  0.00    -0.223 OA
HETATM   13  N3  UNL     1      11.106  -6.354  -5.059  1.00  0.00    -0.246 N 
ATOM     14  H3  UNL     1      10.970  -6.218  -6.061  1.00  0.00     0.196 HD
ENDBRANCH   1   7
BRANCH   5  15
HETATM   15  C8  UNL     1      11.148 -11.593  -6.693  1.00  0.00     0.024 C 
HETATM   16  C9  UNL     1       9.994 -12.308  -7.429  1.00  0.00     0.038 C 
HETATM   17  C10 UNL     1      11.413 -12.339  -5.448  1.00  0.00     0.030 C 
HETATM   18  C11 UNL     1      12.727 -13.073  -5.414  1.00  0.00     0.002 C 
HETATM   19  C12 UNL     1      13.002 -13.676  -6.766  1.00  0.00     0.000 C 
HETATM   20  C13 UNL     1      13.250 -12.553  -7.724  1.00  0.00     0.002 C 
HETATM   21  C14 UNL     1      12.276 -11.435  -7.653  1.00  0.00     0.030 C 
ENDBRANCH   5  15
TORSDOF 2
ENDMDL
MODEL 2
REMARK VINA RESULT: -7.075171232      2.557      6.561
REMARK  2 active torsions:
REMARK  status: ('A' for Active; 'I' for Inactive)
REMARK    1  A    between atoms: C3_5  and  C4_6 
REMARK    2  A    between atoms: N2_10  and  C8_11 
ROOT
HETATM    1  C4  UNL     1      11.105  -7.963  -4.902  1.00  0.00     0.034 C 
HETATM    2  C5  UNL     1      12.356  -7.930  -5.705  1.00  0.00     0.025 C 
HETATM    3  C6  UNL     1      10.244  -6.783  -5.166  1.00  0.00     0.038 C 
HETATM    4  C7  UNL     1      11.005  -5.665  -4.434  1.00  0.00     0.119 C 
HETATM    5  N2  UNL     1      11.554  -6.324  -3.363  1.00  0.00    -0.403 N 
HETATM    6  C15 UNL     1      11.538  -7.702  -3.441  1.00  0.00     0.134 C 
ENDROOT
BRANCH   1   7
HETATM    7  C3  UNL     1      10.421  -9.261  -4.894  1.00  0.00     0.114 A 
HETATM    8  N1  UNL     1      10.843 -10.497  -5.072  1.00  0.00    -0.326 N 
HETATM    9  C2  UNL     1       9.758 -11.330  -5.017  1.00  0.00     0.144 A 
ATOM     10  H1  UNL     1      11.810 -10.783  -5.225  1.00  0.00     0.169 HD
HETATM   11  C1  UNL     1       9.722 -12.813  -5.166  1.00  0.00     0.100 C 
HETATM   12  O1  UNL     1       8.717 -10.561  -4.808  1.00  0.00    -0.223 OA
HETATM   13  N3  UNL     1       9.064  -9.352  -4.732  1.00  0.00    -0.246 N 
ATOM     14  H3  UNL     1       8.435  -8.565  -4.574  1.00  0.00     0.196 HD
ENDBRANCH   1   7
BRANCH   5  15
HETATM   15  C8  UNL     1      12.240  -5.701  -2.309  1.00  0.00     0.024 C 
HETATM   16  C9  UNL     1      12.011  -4.190  -2.531  1.00  0.00     0.038 C 
HETATM   17  C10 UNL     1      13.686  -5.959  -2.457  1.00  0.00     0.030 C 
HETATM   18  C11 UNL     1      14.396  -6.337  -1.185  1.00  0.00     0.002 C 
HETATM   19  C12 UNL     1      13.856  -5.518  -0.043  1.00  0.00     0.000 C 
HETATM   20  C13 UNL     1      12.444  -5.951   0.200  1.00  0.00     0.002 C 
HETATM   21  C14 UNL     1      11.603  -6.076  -1.017  1.00  0.00     0.030 C 
ENDBRANCH   5  15
TORSDOF 2
ENDMDL
MODEL 3
REMARK VINA RESULT: -6.811564586      3.220      6.407
REMARK  2 active torsions:
REMARK  status: ('A' for Active; 'I' for Inactive)
REMARK    1  A    between atoms: C3_5  and  C4_6 
REMARK    2  A    between atoms: N2_10  and  C8_11 
ROOT
HETATM    1  C4  UNL     1      10.707 -12.549  -6.090  1.00  0.00     0.034 C 
HETATM    2  C5  UNL     1      12.061 -12.289  -6.646  1.00  0.00     0.025 C 
HETATM    3  C6  UNL     1       9.639 -12.299  -7.090  1.00  0.00     0.038 C 
HETATM    4  C7  UNL     1       9.614 -10.763  -7.151  1.00  0.00     0.119 C 
HETATM    5  N2  UNL     1       9.929 -10.404  -5.864  1.00  0.00    -0.403 N 
HETATM    6  C15 UNL     1      10.444 -11.413  -5.075  1.00  0.00     0.134 C 
ENDROOT
BRANCH   1   7
HETATM    7  C3  UNL     1      10.589 -13.801  -5.334  1.00  0.00     0.114 A 
HETATM    8  N1  UNL     1      11.331 -14.350  -4.391  1.00  0.00    -0.326 N 
HETATM    9  C2  UNL     1      10.786 -15.566  -4.076  1.00  0.00     0.144 A 
ATOM     10  H1  UNL     1      12.165 -13.941  -3.971  1.00  0.00     0.169 HD
HETATM   11  C1  UNL     1      11.264 -16.562  -3.074  1.00  0.00     0.100 C 
HETATM   12  O1  UNL     1       9.733 -15.706  -4.844  1.00  0.00    -0.223 OA
HETATM   13  N3  UNL     1       9.588 -14.699  -5.589  1.00  0.00    -0.246 N 
ATOM     14  H3  UNL     1       8.843 -14.572  -6.274  1.00  0.00     0.196 HD
ENDBRANCH   1   7
BRANCH   5  15
HETATM   15  C8  UNL     1       9.901  -9.090  -5.372  1.00  0.00     0.024 C 
HETATM   16  C9  UNL     1       9.069  -9.175  -4.074  1.00  0.00     0.038 C 
HETATM   17  C10 UNL     1       9.159  -8.237  -6.322  1.00  0.00     0.030 C 
HETATM   18  C11 UNL     1       9.797  -6.904  -6.609  1.00  0.00     0.002 C 
HETATM   19  C12 UNL     1      10.386  -6.344  -5.342  1.00  0.00     0.000 C 
HETATM   20  C13 UNL     1      11.542  -7.211  -4.954  1.00  0.00     0.002 C 
HETATM   21  C14 UNL     1      11.282  -8.672  -5.006  1.00  0.00     0.030 C 
ENDBRANCH   5  15
TORSDOF 2
ENDMDL
MODEL 4
REMARK VINA RESULT: -6.802523933      0.904      1.638
REMARK  2 active torsions:
REMARK  status: ('A' for Active; 'I' for Inactive)
REMARK    1  A    between atoms: C3_5  and  C4_6 
REMARK    2  A    between atoms: N2_10  and  C8_11 
ROOT
HETATM    1  C4  UNL     1      10.046  -8.414  -4.915  1.00  0.00     0.034 C 
HETATM    2  C5  UNL     1       9.037  -9.038  -4.019  1.00  0.00     0.025 C 
HETATM    3  C6  UNL     1       9.463  -8.023  -6.222  1.00  0.00     0.038 C 
HETATM    4  C7  UNL     1       9.294  -9.386  -6.914  1.00  0.00     0.119 C 
HETATM    5  N2  UNL     1      10.359 -10.104  -6.432  1.00  0.00    -0.403 N 
HETATM    6  C15 UNL     1      10.997  -9.558  -5.336  1.00  0.00     0.134 C 
ENDROOT
BRANCH   1   7
HETATM    7  C3  UNL     1      10.892  -7.405  -4.269  1.00  0.00     0.114 A 
HETATM    8  N1  UNL     1      11.165  -7.140  -3.006  1.00  0.00    -0.326 N 
HETATM    9  C2  UNL     1      11.977  -6.039  -2.967  1.00  0.00     0.144 A 
ATOM     10  H1  UNL     1      10.829  -7.665  -2.198  1.00  0.00     0.169 HD
HETATM   11  C1  UNL     1      12.551  -5.354  -1.774  1.00  0.00     0.100 C 
HETATM   12  O1  UNL     1      12.164  -5.678  -4.214  1.00  0.00    -0.223 OA
HETATM   13  N3  UNL     1      11.547  -6.449  -4.998  1.00  0.00    -0.246 N 
ATOM     14  H3  UNL     1      11.537  -6.373  -6.015  1.00  0.00     0.196 HD
ENDBRANCH   1   7
BRANCH   5  15
HETATM   15  C8  UNL     1      10.725 -11.384  -6.876  1.00  0.00     0.024 C 
HETATM   16  C9  UNL     1      10.926 -12.205  -5.584  1.00  0.00     0.038 C 
HETATM   17  C10 UNL     1      12.032 -11.301  -7.558  1.00  0.00     0.030 C 
HETATM   18  C11 UNL     1      12.124 -12.071  -8.848  1.00  0.00     0.002 C 
HETATM   19  C12 UNL     1      11.392 -13.379  -8.708  1.00  0.00     0.000 C 
HETATM   20  C13 UNL     1       9.932 -13.073  -8.585  1.00  0.00     0.002 C 
HETATM   21  C14 UNL     1       9.593 -11.987  -7.632  1.00  0.00     0.030 C 
ENDBRANCH   5  15
TORSDOF 2
ENDMDL
MODEL 5
REMARK VINA RESULT: -6.728083044      3.356      6.797
REMARK  2 active torsions:
REMARK  status: ('A' for Active; 'I' for Inactive)
REMARK    1  A    between atoms: C3_5  and  C4_6 
REMARK    2  A    between atoms: N2_10  and  C8_11 
ROOT
HETATM    1  C4  UNL     1      10.074 -12.731  -6.103  1.00  0.00     0.034 C 
HETATM    2  C5  UNL     1      11.109 -13.039  -5.082  1.00  0.00     0.025 C 
HETATM    3  C6  UNL     1      10.671 -12.221  -7.363  1.00  0.00     0.038 C 
HETATM    4  C7  UNL     1      11.086 -10.796  -6.962  1.00  0.00     0.119 C 
HETATM    5  N2  UNL     1      10.114 -10.439  -6.062  1.00  0.00    -0.403 N 
HETATM    6  C15 UNL     1       9.335 -11.475  -5.587  1.00  0.00     0.134 C 
ENDROOT
BRANCH   1   7
HETATM    7  C3  UNL     1       9.046 -13.767  -6.261  1.00  0.00     0.114 A 
HETATM    8  N1  UNL     1       9.108 -15.056  -6.533  1.00  0.00    -0.326 N 
HETATM    9  C2  UNL     1       7.829 -15.535  -6.622  1.00  0.00     0.144 A 
ATOM     10  H1  UNL     1       9.961 -15.602  -6.654  1.00  0.00     0.169 HD
HETATM   11  C1  UNL     1       7.380 -16.926  -6.915  1.00  0.00     0.100 C 
HETATM   12  O1  UNL     1       7.039 -14.511  -6.402  1.00  0.00    -0.223 OA
HETATM   13  N3  UNL     1       7.713 -13.467  -6.189  1.00  0.00    -0.246 N 
ATOM     14  H3  UNL     1       7.325 -12.543  -5.993  1.00  0.00     0.196 HD
ENDBRANCH   1   7
BRANCH   5  15
HETATM   15  C8  UNL     1       9.974  -9.160  -5.504  1.00  0.00     0.024 C 
HETATM   16  C9  UNL     1       9.071  -9.367  -4.268  1.00  0.00     0.038 C 
HETATM   17  C10 UNL     1       9.240  -8.299  -6.452  1.00  0.00     0.030 C 
HETATM   18  C11 UNL     1       9.810  -6.917  -6.627  1.00  0.00     0.002 C 
HETATM   19  C12 UNL     1      10.283  -6.395  -5.296  1.00  0.00     0.000 C 
HETATM   20  C13 UNL     1      11.466  -7.213  -4.881  1.00  0.00     0.002 C 
HETATM   21  C14 UNL     1      11.301  -8.681  -5.027  1.00  0.00     0.030 C 
ENDBRANCH   5  15
TORSDOF 2
ENDMDL
