MODEL 1
REMARK VINA RESULT: -6.548512352      0.000      0.000
REMARK  3 active torsions:
REMARK  status: ('A' for Active; 'I' for Inactive)
REMARK    1  A    between atoms: C4_5  and  N2_6 
REMARK    2  A    between atoms: N3_9  and  C7_10 
REMARK    3  A    between atoms: C15_18  and  O1_19 
ROOT
HETATM    1  N2  UNL     1      10.119 -13.318  -5.669  1.00  0.00    -0.374 N 
HETATM    2  C5  UNL     1       8.855 -12.757  -6.095  1.00  0.00     0.153 C 
HETATM    3  C6  UNL     1       9.143 -11.301  -6.500  1.00  0.00     0.292 C 
HETATM    4  N3  UNL     1       9.605 -10.536  -5.390  1.00  0.00     0.096 N 
HETATM    5  C13 UNL     1      10.450 -11.269  -4.526  1.00  0.00     0.292 C 
HETATM    6  C14 UNL     1      11.146 -12.409  -5.286  1.00  0.00     0.153 C 
ENDROOT
BRANCH   1   7
HETATM    7  C4  UNL     1      10.289 -14.717  -5.640  1.00  0.00     0.083 A 
HETATM    8  C3  UNL     1      10.340 -15.565  -6.759  1.00  0.00     0.051 A 
HETATM    9  C2  UNL     1      10.505 -16.846  -6.292  1.00  0.00     0.095 A 
HETATM   10  N1  UNL     1      10.560 -16.855  -4.963  1.00  0.00    -0.340 N 
HETATM   11  C1  UNL     1      10.724 -18.006  -4.095  1.00  0.00     0.158 C 
HETATM   12  C15 UNL     1      10.430 -15.569  -4.569  1.00  0.00     0.169 A 
BRANCH  12  13
HETATM   13  O1  UNL     1      10.447 -15.218  -3.204  1.00  0.00    -0.344 OA
ATOM     14  H1  UNL     1      10.587 -14.320  -2.928  1.00  0.00     0.219 HD
ENDBRANCH  12  13
ENDBRANCH   1   7
BRANCH   4  15
HETATM   15  C7  UNL     1      10.170  -9.257  -5.765  1.00  0.00     0.223 C 
HETATM   16  C8  UNL     1      10.804  -8.645  -4.555  1.00  0.00     0.036 C 
HETATM   17  C9  UNL     1      11.521  -7.392  -5.086  1.00  0.00     0.002 C 
HETATM   18  C10 UNL     1      10.376  -6.430  -5.352  1.00  0.00     0.000 C 
HETATM   19  C11 UNL     1       9.464  -6.923  -6.436  1.00  0.00     0.002 C 
HETATM   20  C12 UNL     1       9.189  -8.366  -6.452  1.00  0.00     0.036 C 
ENDBRANCH   4  15
TORSDOF 3
ENDMDL
MODEL 2
REMARK VINA RESULT: -6.457404845      1.485      2.100
REMARK  3 active torsions:
REMARK  status: ('A' for Active; 'I' for Inactive)
REMARK    1  A    between atoms: C4_5  and  N2_6 
REMARK    2  A    between atoms: N3_9  and  C7_10 
REMARK    3  A    between atoms: C15_18  and  O1_19 
ROOT
HETATM    1  N2  UNL     1      11.257 -13.576  -4.945  1.00  0.00    -0.374 N 
HETATM    2  C5  UNL     1      11.412 -13.096  -6.302  1.00  0.00     0.153 C 
HETATM    3  C6  UNL     1      11.152 -11.581  -6.257  1.00  0.00     0.292 C 
HETATM    4  N3  UNL     1       9.818 -11.295  -5.847  1.00  0.00     0.096 N 
HETATM    5  C13 UNL     1       9.344 -12.181  -4.851  1.00  0.00     0.292 C 
HETATM    6  C14 UNL     1      10.513 -12.764  -4.042  1.00  0.00     0.153 C 
ENDROOT
BRANCH   1   7
HETATM    7  C4  UNL     1      11.828 -14.808  -4.569  1.00  0.00     0.083 A 
HETATM    8  C3  UNL     1      13.178 -15.169  -4.711  1.00  0.00     0.051 A 
HETATM    9  C2  UNL     1      13.311 -16.449  -4.235  1.00  0.00     0.095 A 
HETATM   10  N1  UNL     1      12.139 -16.911  -3.805  1.00  0.00    -0.340 N 
HETATM   11  C1  UNL     1      11.861 -18.216  -3.234  1.00  0.00     0.158 C 
HETATM   12  C15 UNL     1      11.244 -15.919  -4.007  1.00  0.00     0.169 A 
BRANCH  12  13
HETATM   13  O1  UNL     1       9.887 -16.077  -3.657  1.00  0.00    -0.344 OA
ATOM     14  H1  UNL     1       9.619 -16.704  -2.996  1.00  0.00     0.219 HD
ENDBRANCH  12  13
ENDBRANCH   1   7
BRANCH   4  15
HETATM   15  C7  UNL     1       9.604  -9.907  -5.500  1.00  0.00     0.223 C 
HETATM   16  C8  UNL     1       9.271  -9.151  -6.749  1.00  0.00     0.036 C 
HETATM   17  C9  UNL     1       8.891  -7.744  -6.260  1.00  0.00     0.002 C 
HETATM   18  C10 UNL     1      10.233  -7.139  -5.884  1.00  0.00     0.000 C 
HETATM   19  C11 UNL     1      10.876  -7.858  -4.736  1.00  0.00     0.002 C 
HETATM   20  C12 UNL     1      10.733  -9.320  -4.720  1.00  0.00     0.036 C 
ENDBRANCH   4  15
TORSDOF 3
ENDMDL
MODEL 3
REMARK VINA RESULT: -6.286328115      2.234      2.812
REMARK  3 active torsions:
REMARK  status: ('A' for Active; 'I' for Inactive)
REMARK    1  A    between atoms: C4_5  and  N2_6 
REMARK    2  A    between atoms: N3_9  and  C7_10 
REMARK    3  A    between atoms: C15_18  and  O1_19 
ROOT
HETATM    1  N2  UNL     1       9.099 -13.095  -6.513  1.00  0.00    -0.374 N 
HETATM    2  C5  UNL     1       9.719 -13.023  -5.208  1.00  0.00     0.153 C 
HETATM    3  C6  UNL     1       9.530 -11.576  -4.720  1.00  0.00     0.292 C 
HETATM    4  N3  UNL     1      10.200 -10.650  -5.569  1.00  0.00     0.096 N 
HETATM    5  C13 UNL     1      10.137 -11.008  -6.936  1.00  0.00     0.292 C 
HETATM    6  C14 UNL     1       8.898 -11.872  -7.215  1.00  0.00     0.153 C 
ENDROOT
BRANCH   1   7
HETATM    7  C4  UNL     1       8.727 -14.348  -7.043  1.00  0.00     0.083 A 
HETATM    8  C3  UNL     1       9.543 -15.191  -7.814  1.00  0.00     0.051 A 
HETATM    9  C2  UNL     1       8.797 -16.298  -8.135  1.00  0.00     0.095 A 
HETATM   10  N1  UNL     1       7.574 -16.204  -7.618  1.00  0.00    -0.340 N 
HETATM   11  C1  UNL     1       6.491 -17.163  -7.732  1.00  0.00     0.158 C 
HETATM   12  C15 UNL     1       7.532 -15.025  -6.958  1.00  0.00     0.169 A 
BRANCH  12  13
HETATM   13  O1  UNL     1       6.367 -14.606  -6.284  1.00  0.00    -0.344 OA
ATOM     14  H1  UNL     1       6.158 -14.927  -5.415  1.00  0.00     0.219 HD
ENDBRANCH  12  13
ENDBRANCH   1   7
BRANCH   4  15
HETATM   15  C7  UNL     1       9.817  -9.273  -5.339  1.00  0.00     0.223 C 
HETATM   16  C8  UNL     1       9.720  -8.579  -6.662  1.00  0.00     0.036 C 
HETATM   17  C9  UNL     1       9.143  -7.193  -6.330  1.00  0.00     0.002 C 
HETATM   18  C10 UNL     1      10.321  -6.476  -5.693  1.00  0.00     0.000 C 
HETATM   19  C11 UNL     1      10.740  -7.113  -4.402  1.00  0.00     0.002 C 
HETATM   20  C12 UNL     1      10.699  -8.581  -4.354  1.00  0.00     0.036 C 
ENDBRANCH   4  15
TORSDOF 3
ENDMDL
MODEL 4
REMARK VINA RESULT: -6.253275728      1.354      1.801
REMARK  3 active torsions:
REMARK  status: ('A' for Active; 'I' for Inactive)
REMARK    1  A    between atoms: C4_5  and  N2_6 
REMARK    2  A    between atoms: N3_9  and  C7_10 
REMARK    3  A    between atoms: C15_18  and  O1_19 
ROOT
HETATM    1  N2  UNL     1      10.648 -12.705  -6.183  1.00  0.00    -0.374 N 
HETATM    2  C5  UNL     1       9.706 -12.269  -7.191  1.00  0.00     0.153 C 
HETATM    3  C6  UNL     1       9.572 -10.745  -7.027  1.00  0.00     0.292 C 
HETATM    4  N3  UNL     1       9.031 -10.407  -5.754  1.00  0.00     0.096 N 
HETATM    5  C13 UNL     1       9.491 -11.248  -4.715  1.00  0.00     0.292 C 
HETATM    6  C14 UNL     1      10.862 -11.845  -5.067  1.00  0.00     0.153 C 
ENDROOT
BRANCH   1   7
HETATM    7  C4  UNL     1      11.304 -13.944  -6.327  1.00  0.00     0.083 A 
HETATM    8  C3  UNL     1      12.482 -14.173  -7.058  1.00  0.00     0.051 A 
HETATM    9  C2  UNL     1      12.775 -15.510  -6.951  1.00  0.00     0.095 A 
HETATM   10  N1  UNL     1      11.864 -16.129  -6.205  1.00  0.00    -0.340 N 
HETATM   11  C1  UNL     1      11.817 -17.537  -5.857  1.00  0.00     0.158 C 
HETATM   12  C15 UNL     1      10.976 -15.183  -5.827  1.00  0.00     0.169 A 
BRANCH  12  13
HETATM   13  O1  UNL     1       9.868 -15.503  -5.016  1.00  0.00    -0.344 OA
ATOM     14  H1  UNL     1       8.980 -15.335  -5.308  1.00  0.00     0.219 HD
ENDBRANCH  12  13
ENDBRANCH   1   7
BRANCH   4  15
HETATM   15  C7  UNL     1       9.157  -9.002  -5.427  1.00  0.00     0.223 C 
HETATM   16  C8  UNL     1       9.638  -8.273  -6.642  1.00  0.00     0.036 C 
HETATM   17  C9  UNL     1       9.571  -6.786  -6.253  1.00  0.00     0.002 C 
HETATM   18  C10 UNL     1      10.752  -6.626  -5.311  1.00  0.00     0.000 C 
HETATM   19  C11 UNL     1      10.588  -7.430  -4.056  1.00  0.00     0.002 C 
HETATM   20  C12 UNL     1       9.983  -8.760  -4.207  1.00  0.00     0.036 C 
ENDBRANCH   4  15
TORSDOF 3
ENDMDL
MODEL 5
REMARK VINA RESULT: -6.240028219      1.845      2.087
REMARK  3 active torsions:
REMARK  status: ('A' for Active; 'I' for Inactive)
REMARK    1  A    between atoms: C4_5  and  N2_6 
REMARK    2  A    between atoms: N3_9  and  C7_10 
REMARK    3  A    between atoms: C15_18  and  O1_19 
ROOT
HETATM    1  N2  UNL     1       9.721 -13.009  -5.990  1.00  0.00    -0.374 N 
HETATM    2  C5  UNL     1       9.016 -12.365  -4.903  1.00  0.00     0.153 C 
HETATM    3  C6  UNL     1       9.173 -10.851  -5.121  1.00  0.00     0.292 C 
HETATM    4  N3  UNL     1      10.539 -10.455  -5.045  1.00  0.00     0.096 N 
HETATM    5  C13 UNL     1      11.422 -11.403  -5.611  1.00  0.00     0.292 C 
HETATM    6  C14 UNL     1      10.705 -12.243  -6.680  1.00  0.00     0.153 C 
ENDROOT
BRANCH   1   7
HETATM    7  C4  UNL     1       9.425 -14.346  -6.323  1.00  0.00     0.083 A 
HETATM    8  C3  UNL     1      10.326 -15.423  -6.287  1.00  0.00     0.051 A 
HETATM    9  C2  UNL     1       9.642 -16.541  -6.694  1.00  0.00     0.095 A 
HETATM   10  N1  UNL     1       8.379 -16.237  -6.981  1.00  0.00    -0.340 N 
HETATM   11  C1  UNL     1       7.339 -17.136  -7.445  1.00  0.00     0.158 C 
HETATM   12  C15 UNL     1       8.248 -14.911  -6.757  1.00  0.00     0.169 A 
BRANCH  12  13
HETATM   13  O1  UNL     1       7.019 -14.252  -6.964  1.00  0.00    -0.344 OA
ATOM     14  H1  UNL     1       6.902 -13.642  -7.682  1.00  0.00     0.219 HD
ENDBRANCH  12  13
ENDBRANCH   1   7
BRANCH   4  15
HETATM   15  C7  UNL     1      10.780  -9.113  -5.532  1.00  0.00     0.223 C 
HETATM   16  C8  UNL     1      11.160  -8.248  -4.371  1.00  0.00     0.036 C 
HETATM   17  C9  UNL     1      11.564  -6.906  -5.005  1.00  0.00     0.002 C 
HETATM   18  C10 UNL     1      10.230  -6.305  -5.412  1.00  0.00     0.000 C 
HETATM   19  C11 UNL     1       9.543  -7.116  -6.470  1.00  0.00     0.002 C 
HETATM   20  C12 UNL     1       9.649  -8.576  -6.344  1.00  0.00     0.036 C 
ENDBRANCH   4  15
TORSDOF 3
ENDMDL
