MODEL 1
REMARK VINA RESULT: -8.913486993      0.000      0.000
REMARK  7 active torsions:
REMARK  status: ('A' for Active; 'I' for Inactive)
REMARK    1  A    between atoms: O1_2  and  C2_3 
REMARK    2  A    between atoms: C2_3  and  N1_4 
REMARK    3  A    between atoms: C3_5  and  C4_6 
REMARK    4  A    between atoms: C4_6  and  C5_7 
REMARK    5  A    between atoms: C5_7  and  N2_8 
REMARK    6  A    between atoms: N2_8  and  C7_10 
REMARK    7  A    between atoms: C14_20  and  C15_21 
ROOT
HETATM    1  N1  UNL     1       6.813   8.141  22.087  1.00  0.00    -0.253 N 
HETATM    2  C3  UNL     1       7.869   7.314  21.883  1.00  0.00     0.114 A 
HETATM    3  N3  UNL     1       8.608   7.394  22.997  1.00  0.00    -0.338 N 
ATOM      4  H3  UNL     1       9.477   6.883  23.153  1.00  0.00     0.167 HD
HETATM    5  C13 UNL     1       8.052   8.237  23.881  1.00  0.00     0.105 A 
HETATM    6  C14 UNL     1       8.483   8.578  25.087  1.00  0.00     0.065 C 
HETATM    7  C21 UNL     1       6.900   8.714  23.292  1.00  0.00     0.281 A 
HETATM    8  O2  UNL     1       6.089   9.556  23.832  1.00  0.00    -0.265 OA
ENDROOT
BRANCH   2   9
HETATM    9  C4  UNL     1       8.066   6.607  20.790  1.00  0.00     0.042 C 
BRANCH   9  10
HETATM   10  C5  UNL     1       7.508   5.247  20.595  1.00  0.00     0.153 C 
BRANCH  10  11
HETATM   11  N2  UNL     1       7.774   4.813  19.258  1.00  0.00    -0.382 N 
HETATM   12  C6  UNL     1       7.340   5.679  18.166  1.00  0.00     0.150 C 
BRANCH  11  13
HETATM   13  C7  UNL     1       8.436   3.601  18.923  1.00  0.00     0.030 A 
HETATM   14  C8  UNL     1       8.099   2.368  19.438  1.00  0.00     0.030 A 
HETATM   15  C9  UNL     1       8.784   1.202  19.074  1.00  0.00     0.021 A 
HETATM   16  C10 UNL     1       9.827   1.263  18.181  1.00  0.00     0.011 A 
HETATM   17 BR1  UNL     1      10.786  -0.312  17.664  1.00  0.00    -0.051 Br
HETATM   18  C11 UNL     1      10.188   2.476  17.649  1.00  0.00     0.021 A 
HETATM   19  C12 UNL     1       9.496   3.599  18.026  1.00  0.00     0.030 A 
ENDBRANCH  11  13
ENDBRANCH  10  11
ENDBRANCH   9  10
ENDBRANCH   2   9
BRANCH   1  20
HETATM   20  C2  UNL     1       5.743   8.406  21.140  1.00  0.00     0.237 C 
BRANCH  20  21
HETATM   21  O1  UNL     1       5.787   9.627  20.549  1.00  0.00    -0.351 OA
HETATM   22  C1  UNL     1       6.424   9.634  19.337  1.00  0.00     0.210 C 
ENDBRANCH  20  21
ENDBRANCH   1  20
BRANCH   6  23
HETATM   23  C15 UNL     1       9.706   8.057  25.678  1.00  0.00     0.036 A 
HETATM   24  C16 UNL     1       9.737   7.022  26.586  1.00  0.00     0.029 A 
HETATM   25  C17 UNL     1      10.934   6.549  27.130  1.00  0.00     0.004 A 
HETATM   26  C18 UNL     1      12.121   7.134  26.746  1.00  0.00     0.017 A 
HETATM   27  C19 UNL     1      12.075   8.166  25.838  1.00  0.00     0.090 A 
HETATM   28  N4  UNL     1      10.890   8.603  25.327  1.00  0.00    -0.361 N 
HETATM   29  C20 UNL     1      10.873   9.705  24.362  1.00  0.00     0.155 C 
ENDBRANCH   6  23
TORSDOF 7
ENDMDL
MODEL 2
REMARK VINA RESULT: -8.701123191      1.545      2.256
REMARK  7 active torsions:
REMARK  status: ('A' for Active; 'I' for Inactive)
REMARK    1  A    between atoms: O1_2  and  C2_3 
REMARK    2  A    between atoms: C2_3  and  N1_4 
REMARK    3  A    between atoms: C3_5  and  C4_6 
REMARK    4  A    between atoms: C4_6  and  C5_7 
REMARK    5  A    between atoms: C5_7  and  N2_8 
REMARK    6  A    between atoms: N2_8  and  C7_10 
REMARK    7  A    between atoms: C14_20  and  C15_21 
ROOT
HETATM    1  N1  UNL     1       8.009   8.954  20.079  1.00  0.00    -0.253 N 
HETATM    2  C3  UNL     1       8.417   7.720  20.469  1.00  0.00     0.114 A 
HETATM    3  N3  UNL     1       8.954   7.887  21.685  1.00  0.00    -0.338 N 
ATOM      4  H3  UNL     1       9.354   7.138  22.249  1.00  0.00     0.167 HD
HETATM    5  C13 UNL     1       8.895   9.174  22.062  1.00  0.00     0.105 A 
HETATM    6  C14 UNL     1       9.321   9.730  23.186  1.00  0.00     0.065 C 
HETATM    7  C21 UNL     1       8.288   9.855  21.028  1.00  0.00     0.281 A 
HETATM    8  O2  UNL     1       8.055  11.121  21.013  1.00  0.00    -0.265 OA
ENDROOT
BRANCH   2   9
HETATM    9  C4  UNL     1       8.282   6.625  19.751  1.00  0.00     0.042 C 
BRANCH   9  10
HETATM   10  C5  UNL     1       7.474   5.463  20.194  1.00  0.00     0.153 C 
BRANCH  10  11
HETATM   11  N2  UNL     1       7.282   4.572  19.090  1.00  0.00    -0.382 N 
HETATM   12  C6  UNL     1       6.111   4.785  18.245  1.00  0.00     0.150 C 
BRANCH  11  13
HETATM   13  C7  UNL     1       8.154   3.501  18.760  1.00  0.00     0.030 A 
HETATM   14  C8  UNL     1       9.247   3.620  17.929  1.00  0.00     0.030 A 
HETATM   15  C9  UNL     1      10.075   2.530  17.636  1.00  0.00     0.021 A 
HETATM   16  C10 UNL     1       9.813   1.295  18.178  1.00  0.00     0.011 A 
HETATM   17 BR1  UNL     1      10.925  -0.216  17.796  1.00  0.00    -0.051 Br
HETATM   18  C11 UNL     1       8.732   1.142  19.011  1.00  0.00     0.021 A 
HETATM   19  C12 UNL     1       7.940   2.230  19.279  1.00  0.00     0.030 A 
ENDBRANCH  11  13
ENDBRANCH  10  11
ENDBRANCH   9  10
ENDBRANCH   2   9
BRANCH   1  20
HETATM   20  C2  UNL     1       7.384   9.282  18.810  1.00  0.00     0.237 C 
BRANCH  20  21
HETATM   21  O1  UNL     1       8.221   9.792  17.870  1.00  0.00    -0.351 OA
HETATM   22  C1  UNL     1       7.577  10.366  16.807  1.00  0.00     0.210 C 
ENDBRANCH  20  21
ENDBRANCH   1  20
BRANCH   6  23
HETATM   23  C15 UNL     1       9.961   8.982  24.258  1.00  0.00     0.036 A 
HETATM   24  C16 UNL     1      11.326   8.852  24.393  1.00  0.00     0.029 A 
HETATM   25  C17 UNL     1      11.901   8.126  25.438  1.00  0.00     0.004 A 
HETATM   26  C18 UNL     1      11.080   7.519  26.364  1.00  0.00     0.017 A 
HETATM   27  C19 UNL     1       9.719   7.657  26.217  1.00  0.00     0.090 A 
HETATM   28  N4  UNL     1       9.190   8.372  25.185  1.00  0.00    -0.361 N 
HETATM   29  C20 UNL     1       7.738   8.501  25.054  1.00  0.00     0.155 C 
ENDBRANCH   6  23
TORSDOF 7
ENDMDL
MODEL 3
REMARK VINA RESULT: -8.697550752      0.625      1.303
REMARK  7 active torsions:
REMARK  status: ('A' for Active; 'I' for Inactive)
REMARK    1  A    between atoms: O1_2  and  C2_3 
REMARK    2  A    between atoms: C2_3  and  N1_4 
REMARK    3  A    between atoms: C3_5  and  C4_6 
REMARK    4  A    between atoms: C4_6  and  C5_7 
REMARK    5  A    between atoms: C5_7  and  N2_8 
REMARK    6  A    between atoms: N2_8  and  C7_10 
REMARK    7  A    between atoms: C14_20  and  C15_21 
ROOT
HETATM    1  N1  UNL     1       6.838   8.132  22.414  1.00  0.00    -0.253 N 
HETATM    2  C3  UNL     1       7.912   7.433  21.968  1.00  0.00     0.114 A 
HETATM    3  N3  UNL     1       8.847   7.567  22.919  1.00  0.00    -0.338 N 
ATOM      4  H3  UNL     1       9.778   7.152  22.877  1.00  0.00     0.167 HD
HETATM    5  C13 UNL     1       8.393   8.318  23.934  1.00  0.00     0.105 A 
HETATM    6  C14 UNL     1       9.018   8.674  25.047  1.00  0.00     0.065 C 
HETATM    7  C21 UNL     1       7.103   8.679  23.605  1.00  0.00     0.281 A 
HETATM    8  O2  UNL     1       6.333   9.410  24.332  1.00  0.00    -0.265 OA
ENDROOT
BRANCH   2   9
HETATM    9  C4  UNL     1       7.960   6.782  20.824  1.00  0.00     0.042 C 
BRANCH   9  10
HETATM   10  C5  UNL     1       7.534   5.369  20.681  1.00  0.00     0.153 C 
BRANCH  10  11
HETATM   11  N2  UNL     1       7.773   4.937  19.338  1.00  0.00    -0.382 N 
HETATM   12  C6  UNL     1       7.329   5.812  18.257  1.00  0.00     0.150 C 
BRANCH  11  13
HETATM   13  C7  UNL     1       8.414   3.719  18.987  1.00  0.00     0.030 A 
HETATM   14  C8  UNL     1       8.059   2.486  19.488  1.00  0.00     0.030 A 
HETATM   15  C9  UNL     1       8.725   1.314  19.109  1.00  0.00     0.021 A 
HETATM   16  C10 UNL     1       9.766   1.368  18.214  1.00  0.00     0.011 A 
HETATM   17 BR1  UNL     1      10.699  -0.215  17.676  1.00  0.00    -0.051 Br
HETATM   18  C11 UNL     1      10.145   2.581  17.694  1.00  0.00     0.021 A 
HETATM   19  C12 UNL     1       9.471   3.711  18.086  1.00  0.00     0.030 A 
ENDBRANCH  11  13
ENDBRANCH  10  11
ENDBRANCH   9  10
ENDBRANCH   2   9
BRANCH   1  20
HETATM   20  C2  UNL     1       5.580   8.301  21.708  1.00  0.00     0.237 C 
BRANCH  20  21
HETATM   21  O1  UNL     1       5.479   9.438  20.974  1.00  0.00    -0.351 OA
HETATM   22  C1  UNL     1       5.486   9.228  19.621  1.00  0.00     0.210 C 
ENDBRANCH  20  21
ENDBRANCH   1  20
BRANCH   6  23
HETATM   23  C15 UNL     1      10.382   8.277  25.362  1.00  0.00     0.036 A 
HETATM   24  C16 UNL     1      11.481   8.667  24.629  1.00  0.00     0.029 A 
HETATM   25  C17 UNL     1      12.776   8.266  24.966  1.00  0.00     0.004 A 
HETATM   26  C18 UNL     1      12.962   7.455  26.065  1.00  0.00     0.017 A 
HETATM   27  C19 UNL     1      11.854   7.073  26.787  1.00  0.00     0.090 A 
HETATM   28  N4  UNL     1      10.605   7.483  26.431  1.00  0.00    -0.361 N 
HETATM   29  C20 UNL     1       9.446   7.060  27.219  1.00  0.00     0.155 C 
ENDBRANCH   6  23
TORSDOF 7
ENDMDL
MODEL 4
REMARK VINA RESULT: -8.347256857      2.948      7.555
REMARK  7 active torsions:
REMARK  status: ('A' for Active; 'I' for Inactive)
REMARK    1  A    between atoms: O1_2  and  C2_3 
REMARK    2  A    between atoms: C2_3  and  N1_4 
REMARK    3  A    between atoms: C3_5  and  C4_6 
REMARK    4  A    between atoms: C4_6  and  C5_7 
REMARK    5  A    between atoms: C5_7  and  N2_8 
REMARK    6  A    between atoms: N2_8  and  C7_10 
REMARK    7  A    between atoms: C14_20  and  C15_21 
ROOT
HETATM    1  N1  UNL     1       7.695   8.542  19.442  1.00  0.00    -0.253 N 
HETATM    2  C3  UNL     1       8.388   7.809  20.351  1.00  0.00     0.114 A 
HETATM    3  N3  UNL     1       8.357   6.550  19.894  1.00  0.00    -0.338 N 
ATOM      4  H3  UNL     1       8.794   5.755  20.360  1.00  0.00     0.167 HD
HETATM    5  C13 UNL     1       7.675   6.475  18.741  1.00  0.00     0.105 A 
HETATM    6  C14 UNL     1       7.426   5.411  17.992  1.00  0.00     0.065 C 
HETATM    7  C21 UNL     1       7.251   7.756  18.456  1.00  0.00     0.281 A 
HETATM    8  O2  UNL     1       6.557   8.092  17.425  1.00  0.00    -0.265 OA
ENDROOT
BRANCH   2   9
HETATM    9  C4  UNL     1       8.949   8.299  21.437  1.00  0.00     0.042 C 
BRANCH   9  10
HETATM   10  C5  UNL     1       8.233   9.183  22.387  1.00  0.00     0.153 C 
BRANCH  10  11
HETATM   11  N2  UNL     1       8.350   8.650  23.710  1.00  0.00    -0.382 N 
HETATM   12  C6  UNL     1       7.117   8.318  24.418  1.00  0.00     0.150 C 
BRANCH  11  13
HETATM   13  C7  UNL     1       9.583   8.420  24.377  1.00  0.00     0.030 A 
HETATM   14  C8  UNL     1      10.796   8.919  23.956  1.00  0.00     0.030 A 
HETATM   15  C9  UNL     1      11.984   8.661  24.651  1.00  0.00     0.021 A 
HETATM   16  C10 UNL     1      11.967   7.890  25.788  1.00  0.00     0.011 A 
HETATM   17 BR1  UNL     1      13.574   7.517  26.761  1.00  0.00    -0.051 Br
HETATM   18  C11 UNL     1      10.774   7.377  26.236  1.00  0.00     0.021 A 
HETATM   19  C12 UNL     1       9.628   7.649  25.532  1.00  0.00     0.030 A 
ENDBRANCH  11  13
ENDBRANCH  10  11
ENDBRANCH   9  10
ENDBRANCH   2   9
BRANCH   1  20
HETATM   20  C2  UNL     1       7.435   9.969  19.520  1.00  0.00     0.237 C 
BRANCH  20  21
HETATM   21  O1  UNL     1       8.444  10.764  19.083  1.00  0.00    -0.351 OA
HETATM   22  C1  UNL     1       8.503  11.981  19.708  1.00  0.00     0.210 C 
ENDBRANCH  20  21
ENDBRANCH   1  20
BRANCH   6  23
HETATM   23  C15 UNL     1       7.886   4.071  18.324  1.00  0.00     0.036 A 
HETATM   24  C16 UNL     1       9.143   3.597  18.023  1.00  0.00     0.029 A 
HETATM   25  C17 UNL     1       9.548   2.303  18.361  1.00  0.00     0.004 A 
HETATM   26  C18 UNL     1       8.662   1.475  19.017  1.00  0.00     0.017 A 
HETATM   27  C19 UNL     1       7.410   1.962  19.311  1.00  0.00     0.090 A 
HETATM   28  N4  UNL     1       7.048   3.230  18.966  1.00  0.00    -0.361 N 
HETATM   29  C20 UNL     1       5.707   3.720  19.293  1.00  0.00     0.155 C 
ENDBRANCH   6  23
TORSDOF 7
ENDMDL
MODEL 5
REMARK VINA RESULT: -8.228094219      2.972      7.743
REMARK  7 active torsions:
REMARK  status: ('A' for Active; 'I' for Inactive)
REMARK    1  A    between atoms: O1_2  and  C2_3 
REMARK    2  A    between atoms: C2_3  and  N1_4 
REMARK    3  A    between atoms: C3_5  and  C4_6 
REMARK    4  A    between atoms: C4_6  and  C5_7 
REMARK    5  A    between atoms: C5_7  and  N2_8 
REMARK    6  A    between atoms: N2_8  and  C7_10 
REMARK    7  A    between atoms: C14_20  and  C15_21 
ROOT
HETATM    1  N1  UNL     1       7.182   7.733  18.944  1.00  0.00    -0.253 N 
HETATM    2  C3  UNL     1       8.104   7.208  19.791  1.00  0.00     0.114 A 
HETATM    3  N3  UNL     1       8.311   5.955  19.363  1.00  0.00    -0.338 N 
ATOM      4  H3  UNL     1       8.956   5.295  19.797  1.00  0.00     0.167 HD
HETATM    5  C13 UNL     1       7.556   5.684  18.288  1.00  0.00     0.105 A 
HETATM    6  C14 UNL     1       7.480   4.562  17.587  1.00  0.00     0.065 C 
HETATM    7  C21 UNL     1       6.832   6.828  18.022  1.00  0.00     0.281 A 
HETATM    8  O2  UNL     1       5.987   6.961  17.061  1.00  0.00    -0.265 OA
ENDROOT
BRANCH   2   9
HETATM    9  C4  UNL     1       8.641   7.852  20.805  1.00  0.00     0.042 C 
BRANCH   9  10
HETATM   10  C5  UNL     1       8.160   7.709  22.200  1.00  0.00     0.153 C 
BRANCH  10  11
HETATM   11  N2  UNL     1       8.777   8.708  23.019  1.00  0.00    -0.382 N 
HETATM   12  C6  UNL     1       8.335  10.089  22.850  1.00  0.00     0.150 C 
BRANCH  11  13
HETATM   13  C7  UNL     1       9.785   8.446  23.984  1.00  0.00     0.030 A 
HETATM   14  C8  UNL     1      11.108   8.801  23.837  1.00  0.00     0.030 A 
HETATM   15  C9  UNL     1      12.064   8.518  24.821  1.00  0.00     0.021 A 
HETATM   16  C10 UNL     1      11.697   7.868  25.975  1.00  0.00     0.011 A 
HETATM   17 BR1  UNL     1      12.980   7.465  27.339  1.00  0.00    -0.051 Br
HETATM   18  C11 UNL     1      10.387   7.501  26.153  1.00  0.00     0.021 A 
HETATM   19  C12 UNL     1       9.475   7.793  25.170  1.00  0.00     0.030 A 
ENDBRANCH  11  13
ENDBRANCH  10  11
ENDBRANCH   9  10
ENDBRANCH   2   9
BRANCH   1  20
HETATM   20  C2  UNL     1       6.619   9.069  19.021  1.00  0.00     0.237 C 
BRANCH  20  21
HETATM   21  O1  UNL     1       7.312  10.026  18.352  1.00  0.00    -0.351 OA
HETATM   22  C1  UNL     1       7.730  11.063  19.142  1.00  0.00     0.210 C 
ENDBRANCH  20  21
ENDBRANCH   1  20
BRANCH   6  23
HETATM   23  C15 UNL     1       8.257   3.371  17.897  1.00  0.00     0.036 A 
HETATM   24  C16 UNL     1       9.550   3.167  17.468  1.00  0.00     0.029 A 
HETATM   25  C17 UNL     1      10.262   2.009  17.788  1.00  0.00     0.004 A 
HETATM   26  C18 UNL     1       9.655   1.040  18.557  1.00  0.00     0.017 A 
HETATM   27  C19 UNL     1       8.363   1.257  18.978  1.00  0.00     0.090 A 
HETATM   28  N4  UNL     1       7.696   2.398  18.647  1.00  0.00    -0.361 N 
HETATM   29  C20 UNL     1       6.322   2.601  19.110  1.00  0.00     0.155 C 
ENDBRANCH   6  23
TORSDOF 7
ENDMDL
