MODEL 1
REMARK VINA RESULT: -7.579420452      0.000      0.000
REMARK  6 active torsions:
REMARK  status: ('A' for Active; 'I' for Inactive)
REMARK       I    between atoms: N1_8  and  C8_9 
REMARK    1  A    between atoms: C8_9  and  C9_11 
REMARK    2  A    between atoms: C9_11  and  N2_12 
REMARK    3  A    between atoms: N2_12  and  C10_13 
REMARK    4  A    between atoms: N2_12  and  C16_25 
REMARK    5  A    between atoms: C10_13  and  C11_14 
REMARK       I    between atoms: C11_14  and  N3_16 
REMARK    6  A    between atoms: N3_16  and  C12_18 
ROOT
HETATM    1  N2  UNL     1       7.851   7.801  19.100  1.00  0.00    -0.348 N 
ENDROOT
BRANCH   1   2
HETATM    2  C9  UNL     1       8.289   6.561  19.400  1.00  0.00     0.165 C 
BRANCH   2   3
HETATM    3  C8  UNL     1       7.512   5.445  19.902  1.00  0.00     0.259 C 
HETATM    4  N1  UNL     1       7.723   4.093  19.389  1.00  0.00    -0.339 N 
HETATM    5  C2  UNL     1       6.938   2.981  19.885  1.00  0.00     0.084 C 
HETATM    6  C6  UNL     1       8.716   3.829  18.384  1.00  0.00     0.084 C 
HETATM    7  C1  UNL     1       5.737   2.685  19.013  1.00  0.00     0.032 C 
HETATM    8  C3  UNL     1       7.747   1.762  20.207  1.00  0.00     0.025 C 
HETATM    9  C4  UNL     1       8.485   1.378  18.938  1.00  0.00     0.004 C 
HETATM   10  C5  UNL     1       9.382   2.495  18.490  1.00  0.00     0.025 C 
HETATM   11  C7  UNL     1       8.191   3.968  16.969  1.00  0.00     0.032 C 
HETATM   12  O1  UNL     1       6.633   5.493  20.770  1.00  0.00    -0.267 OA
ENDBRANCH   2   3
ENDBRANCH   1   2
BRANCH   1  13
HETATM   13  C10 UNL     1       8.814   8.816  19.571  1.00  0.00     0.230 C 
BRANCH  13  14
HETATM   14  C11 UNL     1       8.805   9.037  21.012  1.00  0.00     0.236 C 
HETATM   15  O2  UNL     1       7.877   9.690  21.545  1.00  0.00    -0.272 OA
HETATM   16  N3  UNL     1       9.812   8.543  21.885  1.00  0.00    -0.354 N 
ATOM     17  H3  UNL     1      10.590   8.003  21.507  1.00  0.00     0.162 HD
BRANCH  16  18
HETATM   18  C12 UNL     1       9.741   8.804  23.306  1.00  0.00     0.099 C 
HETATM   19  C13 UNL     1      11.037   9.181  23.878  1.00  0.00     0.041 C 
HETATM   20  C14 UNL     1      11.502   8.274  24.968  1.00  0.00     0.142 C 
HETATM   21  S1  UNL     1       9.920   7.729  25.640  1.00  0.00     0.146 S 
HETATM   22  O3  UNL     1       9.994   6.392  26.258  1.00  0.00    -0.228 OA
HETATM   23  O4  UNL     1       9.430   8.815  26.516  1.00  0.00    -0.228 OA
HETATM   24  C15 UNL     1       9.056   7.708  24.056  1.00  0.00     0.165 C 
ENDBRANCH  16  18
ENDBRANCH  13  14
ENDBRANCH   1  13
BRANCH   1  25
HETATM   25  C16 UNL     1       6.826   8.354  18.410  1.00  0.00     0.008 C 
HETATM   26  C17 UNL     1       6.993   9.672  17.683  1.00  0.00     0.054 C 
HETATM   27  C18 UNL     1       5.698  10.447  17.857  1.00  0.00     0.007 C 
HETATM   28  C19 UNL     1       4.683   9.356  17.948  1.00  0.00     0.026 C 
HETATM   29  C20 UNL     1       5.405   8.304  18.818  1.00  0.00     0.128 C 
HETATM   30 CL1  UNL     1       4.938   8.572  20.454  1.00  0.00    -0.119 Cl
ENDBRANCH   1  25
TORSDOF 6
ENDMDL
MODEL 2
REMARK VINA RESULT: -7.458637662      1.835      2.457
REMARK  6 active torsions:
REMARK  status: ('A' for Active; 'I' for Inactive)
REMARK       I    between atoms: N1_8  and  C8_9 
REMARK    1  A    between atoms: C8_9  and  C9_11 
REMARK    2  A    between atoms: C9_11  and  N2_12 
REMARK    3  A    between atoms: N2_12  and  C10_13 
REMARK    4  A    between atoms: N2_12  and  C16_25 
REMARK    5  A    between atoms: C10_13  and  C11_14 
REMARK       I    between atoms: C11_14  and  N3_16 
REMARK    6  A    between atoms: N3_16  and  C12_18 
ROOT
HETATM    1  N2  UNL     1       6.336   7.804  20.750  1.00  0.00    -0.348 N 
ENDROOT
BRANCH   1   2
HETATM    2  C9  UNL     1       6.282   6.554  20.245  1.00  0.00     0.165 C 
BRANCH   2   3
HETATM    3  C8  UNL     1       7.315   5.537  20.285  1.00  0.00     0.259 C 
HETATM    4  N1  UNL     1       7.530   4.642  19.150  1.00  0.00    -0.339 N 
HETATM    5  C2  UNL     1       8.557   3.621  19.197  1.00  0.00     0.084 C 
HETATM    6  C6  UNL     1       6.736   4.754  17.958  1.00  0.00     0.084 C 
HETATM    7  C1  UNL     1       8.015   2.275  19.631  1.00  0.00     0.032 C 
HETATM    8  C3  UNL     1       9.396   3.545  17.959  1.00  0.00     0.025 C 
HETATM    9  C4  UNL     1       8.447   3.305  16.799  1.00  0.00     0.004 C 
HETATM   10  C5  UNL     1       7.454   4.425  16.688  1.00  0.00     0.025 C 
HETATM   11  C7  UNL     1       5.471   3.920  17.998  1.00  0.00     0.032 C 
HETATM   12  O1  UNL     1       8.091   5.315  21.221  1.00  0.00    -0.267 OA
ENDBRANCH   2   3
ENDBRANCH   1   2
BRANCH   1  13
HETATM   13  C10 UNL     1       5.952   7.801  22.175  1.00  0.00     0.230 C 
BRANCH  13  14
HETATM   14  C11 UNL     1       6.924   8.423  23.066  1.00  0.00     0.236 C 
HETATM   15  O2  UNL     1       6.652   9.501  23.644  1.00  0.00    -0.272 OA
HETATM   16  N3  UNL     1       8.205   7.867  23.335  1.00  0.00    -0.354 N 
ATOM     17  H3  UNL     1       8.479   6.990  22.894  1.00  0.00     0.162 HD
BRANCH  16  18
HETATM   18  C12 UNL     1       9.121   8.541  24.228  1.00  0.00     0.099 C 
HETATM   19  C13 UNL     1      10.193   9.244  23.516  1.00  0.00     0.041 C 
HETATM   20  C14 UNL     1      11.564   8.787  23.885  1.00  0.00     0.142 C 
HETATM   21  S1  UNL     1      11.290   8.271  25.592  1.00  0.00     0.146 S 
HETATM   22  O3  UNL     1      12.221   7.211  26.022  1.00  0.00    -0.228 OA
HETATM   23  O4  UNL     1      11.289   9.499  26.416  1.00  0.00    -0.228 OA
HETATM   24  C15 UNL     1       9.618   7.649  25.319  1.00  0.00     0.165 C 
ENDBRANCH  16  18
ENDBRANCH  13  14
ENDBRANCH   1  13
BRANCH   1  25
HETATM   25  C16 UNL     1       6.731   9.029  20.331  1.00  0.00     0.008 C 
HETATM   26  C17 UNL     1       6.051   9.712  19.162  1.00  0.00     0.054 C 
HETATM   27  C18 UNL     1       7.133  10.429  18.372  1.00  0.00     0.007 C 
HETATM   28  C19 UNL     1       8.124  10.778  19.431  1.00  0.00     0.026 C 
HETATM   29  C20 UNL     1       8.130   9.509  20.311  1.00  0.00     0.128 C 
HETATM   30 CL1  UNL     1       9.410   8.499  19.759  1.00  0.00    -0.119 Cl
ENDBRANCH   1  25
TORSDOF 6
ENDMDL
MODEL 3
REMARK VINA RESULT: -7.415285579      2.106      2.647
REMARK  6 active torsions:
REMARK  status: ('A' for Active; 'I' for Inactive)
REMARK       I    between atoms: N1_8  and  C8_9 
REMARK    1  A    between atoms: C8_9  and  C9_11 
REMARK    2  A    between atoms: C9_11  and  N2_12 
REMARK    3  A    between atoms: N2_12  and  C10_13 
REMARK    4  A    between atoms: N2_12  and  C16_25 
REMARK    5  A    between atoms: C10_13  and  C11_14 
REMARK       I    between atoms: C11_14  and  N3_16 
REMARK    6  A    between atoms: N3_16  and  C12_18 
ROOT
HETATM    1  N2  UNL     1       5.724   7.198  20.029  1.00  0.00    -0.348 N 
ENDROOT
BRANCH   1   2
HETATM    2  C9  UNL     1       5.745   6.215  19.106  1.00  0.00     0.165 C 
BRANCH   2   3
HETATM    3  C8  UNL     1       5.676   4.785  19.332  1.00  0.00     0.259 C 
HETATM    4  N1  UNL     1       6.721   3.895  18.831  1.00  0.00    -0.339 N 
HETATM    5  C2  UNL     1       6.644   2.465  19.052  1.00  0.00     0.084 C 
HETATM    6  C6  UNL     1       7.854   4.412  18.114  1.00  0.00     0.084 C 
HETATM    7  C1  UNL     1       6.028   1.731  17.879  1.00  0.00     0.032 C 
HETATM    8  C3  UNL     1       7.928   1.852  19.519  1.00  0.00     0.025 C 
HETATM    9  C4  UNL     1       8.978   2.182  18.475  1.00  0.00     0.004 C 
HETATM   10  C5  UNL     1       9.133   3.669  18.331  1.00  0.00     0.025 C 
HETATM   11  C7  UNL     1       7.627   4.506  16.619  1.00  0.00     0.032 C 
HETATM   12  O1  UNL     1       4.784   4.179  19.938  1.00  0.00    -0.267 OA
ENDBRANCH   2   3
ENDBRANCH   1   2
BRANCH   1  13
HETATM   13  C10 UNL     1       7.037   7.869  20.098  1.00  0.00     0.230 C 
BRANCH  13  14
HETATM   14  C11 UNL     1       7.870   7.457  21.222  1.00  0.00     0.236 C 
HETATM   15  O2  UNL     1       8.315   6.288  21.283  1.00  0.00    -0.272 OA
HETATM   16  N3  UNL     1       8.224   8.325  22.290  1.00  0.00    -0.354 N 
ATOM     17  H3  UNL     1       7.891   9.289  22.292  1.00  0.00     0.162 HD
BRANCH  16  18
HETATM   18  C12 UNL     1       9.052   7.848  23.376  1.00  0.00     0.099 C 
HETATM   19  C13 UNL     1       8.307   7.687  24.629  1.00  0.00     0.041 C 
HETATM   20  C14 UNL     1       8.841   8.503  25.758  1.00  0.00     0.142 C 
HETATM   21  S1  UNL     1      10.587   8.578  25.312  1.00  0.00     0.146 S 
HETATM   22  O3  UNL     1      11.253   9.792  25.820  1.00  0.00    -0.228 OA
HETATM   23  O4  UNL     1      11.191   7.293  25.726  1.00  0.00    -0.228 OA
HETATM   24  C15 UNL     1      10.308   8.641  23.530  1.00  0.00     0.165 C 
ENDBRANCH  16  18
ENDBRANCH  13  14
ENDBRANCH   1  13
BRANCH   1  25
HETATM   25  C16 UNL     1       4.808   7.787  20.832  1.00  0.00     0.008 C 
HETATM   26  C17 UNL     1       4.985   9.216  21.305  1.00  0.00     0.054 C 
HETATM   27  C18 UNL     1       4.499   9.275  22.743  1.00  0.00     0.007 C 
HETATM   28  C19 UNL     1       3.435   8.229  22.764  1.00  0.00     0.026 C 
HETATM   29  C20 UNL     1       4.059   7.104  21.911  1.00  0.00     0.128 C 
HETATM   30 CL1  UNL     1       4.845   6.010  22.984  1.00  0.00    -0.119 Cl
ENDBRANCH   1  25
TORSDOF 6
ENDMDL
MODEL 4
REMARK VINA RESULT: -7.411670561      3.043      4.619
REMARK  6 active torsions:
REMARK  status: ('A' for Active; 'I' for Inactive)
REMARK       I    between atoms: N1_8  and  C8_9 
REMARK    1  A    between atoms: C8_9  and  C9_11 
REMARK    2  A    between atoms: C9_11  and  N2_12 
REMARK    3  A    between atoms: N2_12  and  C10_13 
REMARK    4  A    between atoms: N2_12  and  C16_25 
REMARK    5  A    between atoms: C10_13  and  C11_14 
REMARK       I    between atoms: C11_14  and  N3_16 
REMARK    6  A    between atoms: N3_16  and  C12_18 
ROOT
HETATM    1  N2  UNL     1       4.959   4.535  19.784  1.00  0.00    -0.348 N 
ENDROOT
BRANCH   1   2
HETATM    2  C9  UNL     1       6.162   4.786  19.225  1.00  0.00     0.165 C 
BRANCH   2   3
HETATM    3  C8  UNL     1       7.406   4.075  19.444  1.00  0.00     0.259 C 
HETATM    4  N1  UNL     1       7.986   3.240  18.395  1.00  0.00    -0.339 N 
HETATM    5  C2  UNL     1       9.225   2.523  18.620  1.00  0.00     0.084 C 
HETATM    6  C6  UNL     1       7.350   3.112  17.113  1.00  0.00     0.084 C 
HETATM    7  C1  UNL     1       8.994   1.093  19.062  1.00  0.00     0.032 C 
HETATM    8  C3  UNL     1      10.207   2.638  17.495  1.00  0.00     0.025 C 
HETATM    9  C4  UNL     1       9.508   2.131  16.248  1.00  0.00     0.004 C 
HETATM   10  C5  UNL     1       8.284   2.951  15.957  1.00  0.00     0.025 C 
HETATM   11  C7  UNL     1       6.345   1.979  17.050  1.00  0.00     0.032 C 
HETATM   12  O1  UNL     1       8.086   4.085  20.476  1.00  0.00    -0.267 OA
ENDBRANCH   2   3
ENDBRANCH   1   2
BRANCH   1  13
HETATM   13  C10 UNL     1       4.374   5.778  20.325  1.00  0.00     0.230 C 
BRANCH  13  14
HETATM   14  C11 UNL     1       5.132   6.381  21.415  1.00  0.00     0.236 C 
HETATM   15  O2  UNL     1       4.925   6.028  22.599  1.00  0.00    -0.272 OA
HETATM   16  N3  UNL     1       6.127   7.377  21.216  1.00  0.00    -0.354 N 
ATOM     17  H3  UNL     1       6.339   7.700  20.273  1.00  0.00     0.162 HD
BRANCH  16  18
HETATM   18  C12 UNL     1       6.839   7.934  22.345  1.00  0.00     0.099 C 
HETATM   19  C13 UNL     1       6.720   9.394  22.425  1.00  0.00     0.041 C 
HETATM   20  C14 UNL     1       8.029  10.109  22.379  1.00  0.00     0.142 C 
HETATM   21  S1  UNL     1       9.106   8.873  23.131  1.00  0.00     0.146 S 
HETATM   22  O3  UNL     1      10.501   8.974  22.665  1.00  0.00    -0.228 OA
HETATM   23  O4  UNL     1       8.909   8.965  24.594  1.00  0.00    -0.228 OA
HETATM   24  C15 UNL     1       8.248   7.447  22.431  1.00  0.00     0.165 C 
ENDBRANCH  16  18
ENDBRANCH  13  14
ENDBRANCH   1  13
BRANCH   1  25
HETATM   25  C16 UNL     1       4.116   3.483  19.898  1.00  0.00     0.008 C 
HETATM   26  C17 UNL     1       2.714   3.659  20.444  1.00  0.00     0.054 C 
HETATM   27  C18 UNL     1       2.411   2.441  21.299  1.00  0.00     0.007 C 
HETATM   28  C19 UNL     1       3.209   1.373  20.629  1.00  0.00     0.026 C 
HETATM   29  C20 UNL     1       4.518   2.110  20.276  1.00  0.00     0.128 C 
HETATM   30 CL1  UNL     1       5.636   1.831  21.556  1.00  0.00    -0.119 Cl
ENDBRANCH   1  25
TORSDOF 6
ENDMDL
MODEL 5
REMARK VINA RESULT: -7.396692939      2.314      3.377
REMARK  6 active torsions:
REMARK  status: ('A' for Active; 'I' for Inactive)
REMARK       I    between atoms: N1_8  and  C8_9 
REMARK    1  A    between atoms: C8_9  and  C9_11 
REMARK    2  A    between atoms: C9_11  and  N2_12 
REMARK    3  A    between atoms: N2_12  and  C10_13 
REMARK    4  A    between atoms: N2_12  and  C16_25 
REMARK    5  A    between atoms: C10_13  and  C11_14 
REMARK       I    between atoms: C11_14  and  N3_16 
REMARK    6  A    between atoms: N3_16  and  C12_18 
ROOT
HETATM    1  N2  UNL     1       5.701   6.319  17.555  1.00  0.00    -0.348 N 
ENDROOT
BRANCH   1   2
HETATM    2  C9  UNL     1       6.796   5.606  17.218  1.00  0.00     0.165 C 
BRANCH   2   3
HETATM    3  C8  UNL     1       7.652   4.829  18.093  1.00  0.00     0.259 C 
HETATM    4  N1  UNL     1       8.224   3.560  17.648  1.00  0.00    -0.339 N 
HETATM    5  C2  UNL     1       9.071   2.781  18.529  1.00  0.00     0.084 C 
HETATM    6  C6  UNL     1       7.968   3.053  16.328  1.00  0.00     0.084 C 
HETATM    7  C1  UNL     1       8.304   1.706  19.270  1.00  0.00     0.032 C 
HETATM    8  C3  UNL     1      10.319   2.269  17.876  1.00  0.00     0.025 C 
HETATM    9  C4  UNL     1       9.881   1.445  16.679  1.00  0.00     0.004 C 
HETATM   10  C5  UNL     1       9.097   2.288  15.715  1.00  0.00     0.025 C 
HETATM   11  C7  UNL     1       6.729   2.185  16.247  1.00  0.00     0.032 C 
HETATM   12  O1  UNL     1       7.983   5.123  19.247  1.00  0.00    -0.267 OA
ENDBRANCH   2   3
ENDBRANCH   1   2
BRANCH   1  13
HETATM   13  C10 UNL     1       5.954   7.763  17.382  1.00  0.00     0.230 C 
BRANCH  13  14
HETATM   14  C11 UNL     1       6.836   8.349  18.384  1.00  0.00     0.236 C 
HETATM   15  O2  UNL     1       7.758   9.123  18.039  1.00  0.00    -0.272 OA
HETATM   16  N3  UNL     1       6.714   8.092  19.777  1.00  0.00    -0.354 N 
ATOM     17  H3  UNL     1       5.979   7.472  20.116  1.00  0.00     0.162 HD
BRANCH  16  18
HETATM   18  C12 UNL     1       7.627   8.706  20.716  1.00  0.00     0.099 C 
HETATM   19  C13 UNL     1       8.598   7.755  21.266  1.00  0.00     0.041 C 
HETATM   20  C14 UNL     1       8.550   7.635  22.753  1.00  0.00     0.142 C 
HETATM   21  S1  UNL     1       7.993   9.292  23.198  1.00  0.00     0.146 S 
HETATM   22  O3  UNL     1       7.243   9.318  24.467  1.00  0.00    -0.228 OA
HETATM   23  O4  UNL     1       9.178  10.174  23.133  1.00  0.00    -0.228 OA
HETATM   24  C15 UNL     1       6.922   9.507  21.762  1.00  0.00     0.165 C 
ENDBRANCH  16  18
ENDBRANCH  13  14
ENDBRANCH   1  13
BRANCH   1  25
HETATM   25  C16 UNL     1       4.422   6.065  17.917  1.00  0.00     0.008 C 
HETATM   26  C17 UNL     1       3.363   7.145  17.855  1.00  0.00     0.054 C 
HETATM   27  C18 UNL     1       2.463   6.960  19.064  1.00  0.00     0.007 C 
HETATM   28  C19 UNL     1       2.525   5.485  19.286  1.00  0.00     0.026 C 
HETATM   29  C20 UNL     1       4.014   5.174  19.025  1.00  0.00     0.128 C 
HETATM   30 CL1  UNL     1       4.828   5.211  20.542  1.00  0.00    -0.119 Cl
ENDBRANCH   1  25
TORSDOF 6
ENDMDL
