MODEL 1
REMARK VINA RESULT: -9.626074438      0.000      0.000
REMARK  5 active torsions:
REMARK  status: ('A' for Active; 'I' for Inactive)
REMARK    1  A    between atoms: O1_2  and  C2_3 
REMARK    2  A    between atoms: C2_3  and  C3_5 
REMARK    3  A    between atoms: C9_11  and  O3_12 
REMARK    4  A    between atoms: N1_14  and  C10_15 
REMARK    5  A    between atoms: C15_20  and  O4_21 
ROOT
HETATM    1  C3  UNL     1      14.506   0.804 196.470  1.00  0.00     0.086 C 
HETATM    2  C4  UNL     1      14.041   2.224 196.351  1.00  0.00     0.015 C 
HETATM    3  C5  UNL     1      12.970   2.470 197.390  1.00  0.00     0.011 C 
HETATM    4  C6  UNL     1      13.590   2.169 198.740  1.00  0.00     0.028 C 
HETATM    5  C7  UNL     1      12.625   2.550 199.779  1.00  0.00     0.008 A 
HETATM    6  C8  UNL     1      12.048   1.449 200.329  1.00  0.00     0.004 A 
HETATM    7  C9  UNL     1      11.173   1.872 201.277  1.00  0.00     0.151 A 
HETATM    8  N1  UNL     1      11.195   3.240 201.329  1.00  0.00    -0.303 N 
HETATM    9  C15 UNL     1      12.086   3.647 200.408  1.00  0.00     0.152 A 
HETATM   10  C16 UNL     1      12.588   0.205 199.690  1.00  0.00     0.049 C 
HETATM   11  C17 UNL     1      13.734   0.668 198.833  1.00  0.00    -0.001 C 
HETATM   12  C18 UNL     1      13.764   0.006 197.490  1.00  0.00     0.020 C 
ENDROOT
BRANCH   8  13
HETATM   13  C10 UNL     1      10.377   3.965 202.235  1.00  0.00     0.094 C 
HETATM   14  C11 UNL     1       8.931   3.483 202.171  1.00  0.00     0.026 C 
HETATM   15  C12 UNL     1       8.480   3.295 203.582  1.00  0.00     0.002 C 
HETATM   16  C13 UNL     1       9.739   3.106 204.416  1.00  0.00     0.002 C 
HETATM   17  C14 UNL     1      10.740   3.936 203.655  1.00  0.00     0.026 C 
ENDBRANCH   8  13
BRANCH   7  18
HETATM   18  O3  UNL     1      10.389   1.021 202.060  1.00  0.00    -0.345 OA
ATOM     19  H3  UNL     1       9.919   1.293 202.839  1.00  0.00     0.219 HD
ENDBRANCH   7  18
BRANCH   9  20
HETATM   20  O4  UNL     1      12.368   4.991 200.184  1.00  0.00    -0.345 OA
ATOM     21  H4  UNL     1      11.998   5.749 200.621  1.00  0.00     0.219 HD
ENDBRANCH   9  20
BRANCH   1  22
HETATM   22  C2  UNL     1      14.464   0.151 195.154  1.00  0.00     0.262 C 
HETATM   23  O2  UNL     1      14.379  -1.103 195.097  1.00  0.00    -0.265 OA
BRANCH  22  24
HETATM   24  O1  UNL     1      14.510   0.830 193.949  1.00  0.00    -0.326 OA
HETATM   25  C1  UNL     1      15.279   0.375 192.836  1.00  0.00     0.213 C 
ENDBRANCH  22  24
ENDBRANCH   1  22
TORSDOF 5
ENDMDL
MODEL 2
REMARK VINA RESULT: -9.077294472      0.787      1.045
REMARK  5 active torsions:
REMARK  status: ('A' for Active; 'I' for Inactive)
REMARK    1  A    between atoms: O1_2  and  C2_3 
REMARK    2  A    between atoms: C2_3  and  C3_5 
REMARK    3  A    between atoms: C9_11  and  O3_12 
REMARK    4  A    between atoms: N1_14  and  C10_15 
REMARK    5  A    between atoms: C15_20  and  O4_21 
ROOT
HETATM    1  C3  UNL     1      14.599   1.690 195.892  1.00  0.00     0.086 C 
HETATM    2  C4  UNL     1      14.101   3.103 195.965  1.00  0.00     0.015 C 
HETATM    3  C5  UNL     1      13.042   3.186 197.041  1.00  0.00     0.011 C 
HETATM    4  C6  UNL     1      13.689   2.724 198.332  1.00  0.00     0.028 C 
HETATM    5  C7  UNL     1      12.733   2.943 199.425  1.00  0.00     0.008 A 
HETATM    6  C8  UNL     1      12.188   1.767 199.833  1.00  0.00     0.004 A 
HETATM    7  C9  UNL     1      11.319   2.041 200.839  1.00  0.00     0.151 A 
HETATM    8  N1  UNL     1      11.312   3.390 201.070  1.00  0.00    -0.303 N 
HETATM    9  C15 UNL     1      12.180   3.935 200.200  1.00  0.00     0.152 A 
HETATM   10  C16 UNL     1      12.745   0.630 199.030  1.00  0.00     0.049 C 
HETATM   11  C17 UNL     1      13.867   1.228 198.226  1.00  0.00    -0.001 C 
HETATM   12  C18 UNL     1      13.890   0.749 196.807  1.00  0.00     0.020 C 
ENDROOT
BRANCH   8  13
HETATM   13  C10 UNL     1      10.494   3.971 202.074  1.00  0.00     0.094 C 
HETATM   14  C11 UNL     1       9.049   3.497 201.942  1.00  0.00     0.026 C 
HETATM   15  C12 UNL     1       8.602   3.102 203.310  1.00  0.00     0.002 C 
HETATM   16  C13 UNL     1       9.864   2.799 204.106  1.00  0.00     0.002 C 
HETATM   17  C14 UNL     1      10.860   3.736 203.474  1.00  0.00     0.026 C 
ENDBRANCH   8  13
BRANCH   7  18
HETATM   18  O3  UNL     1      10.567   1.077 201.513  1.00  0.00    -0.345 OA
ATOM     19  H3  UNL     1       9.738   1.250 201.944  1.00  0.00     0.219 HD
ENDBRANCH   7  18
BRANCH   9  20
HETATM   20  O4  UNL     1      12.429   5.304 200.150  1.00  0.00    -0.345 OA
ATOM     21  H4  UNL     1      12.257   5.956 200.819  1.00  0.00     0.219 HD
ENDBRANCH   9  20
BRANCH   1  22
HETATM   22  C2  UNL     1      14.550   1.215 194.501  1.00  0.00     0.262 C 
HETATM   23  O2  UNL     1      14.867   2.004 193.575  1.00  0.00    -0.265 OA
BRANCH  22  24
HETATM   24  O1  UNL     1      14.175  -0.065 194.132  1.00  0.00    -0.326 OA
HETATM   25  C1  UNL     1      13.808  -0.405 192.794  1.00  0.00     0.213 C 
ENDBRANCH  22  24
ENDBRANCH   1  22
TORSDOF 5
ENDMDL
MODEL 3
REMARK VINA RESULT: -8.953229576      2.013      7.910
REMARK  5 active torsions:
REMARK  status: ('A' for Active; 'I' for Inactive)
REMARK    1  A    between atoms: O1_2  and  C2_3 
REMARK    2  A    between atoms: C2_3  and  C3_5 
REMARK    3  A    between atoms: C9_11  and  O3_12 
REMARK    4  A    between atoms: N1_14  and  C10_15 
REMARK    5  A    between atoms: C15_20  and  O4_21 
ROOT
HETATM    1  C3  UNL     1      11.405   2.765 201.425  1.00  0.00     0.086 C 
HETATM    2  C4  UNL     1      11.177   1.345 201.000  1.00  0.00     0.015 C 
HETATM    3  C5  UNL     1      11.620   1.194 199.562  1.00  0.00     0.011 C 
HETATM    4  C6  UNL     1      13.082   1.595 199.508  1.00  0.00     0.028 C 
HETATM    5  C7  UNL     1      13.583   1.308 198.158  1.00  0.00     0.008 A 
HETATM    6  C8  UNL     1      13.733   2.456 197.445  1.00  0.00     0.004 A 
HETATM    7  C9  UNL     1      14.197   2.120 196.214  1.00  0.00     0.151 A 
HETATM    8  N1  UNL     1      14.342   0.760 196.146  1.00  0.00    -0.303 N 
HETATM    9  C15 UNL     1      13.963   0.271 197.340  1.00  0.00     0.152 A 
HETATM   10  C16 UNL     1      13.335   3.639 198.276  1.00  0.00     0.049 C 
HETATM   11  C17 UNL     1      13.134   3.096 199.664  1.00  0.00    -0.001 C 
HETATM   12  C18 UNL     1      11.914   3.649 200.336  1.00  0.00     0.020 C 
ENDROOT
BRANCH   8  13
HETATM   13  C10 UNL     1      14.815   0.119 194.971  1.00  0.00     0.094 C 
HETATM   14  C11 UNL     1      13.952  -1.090 194.624  1.00  0.00     0.026 C 
HETATM   15  C12 UNL     1      13.650  -0.995 193.165  1.00  0.00     0.002 C 
HETATM   16  C13 UNL     1      13.819   0.469 192.784  1.00  0.00     0.002 C 
HETATM   17  C14 UNL     1      14.891   0.916 193.742  1.00  0.00     0.026 C 
ENDBRANCH   8  13
BRANCH   7  18
HETATM   18  O3  UNL     1      14.475   3.039 195.201  1.00  0.00    -0.345 OA
ATOM     19  H3  UNL     1      14.631   2.805 194.293  1.00  0.00     0.219 HD
ENDBRANCH   7  18
BRANCH   9  20
HETATM   20  O4  UNL     1      13.981  -1.090 197.629  1.00  0.00    -0.345 OA
ATOM     21  H4  UNL     1      14.369  -1.525 198.379  1.00  0.00     0.219 HD
ENDBRANCH   9  20
BRANCH   1  22
HETATM   22  C2  UNL     1      10.177   3.312 202.021  1.00  0.00     0.262 C 
HETATM   23  O2  UNL     1       9.064   2.969 201.547  1.00  0.00    -0.265 OA
BRANCH  22  24
HETATM   24  O1  UNL     1      10.159   4.192 203.087  1.00  0.00    -0.326 OA
HETATM   25  C1  UNL     1       9.104   4.216 204.050  1.00  0.00     0.213 C 
ENDBRANCH  22  24
ENDBRANCH   1  22
TORSDOF 5
ENDMDL
MODEL 4
REMARK VINA RESULT: -8.661447783      2.099      3.885
REMARK  5 active torsions:
REMARK  status: ('A' for Active; 'I' for Inactive)
REMARK    1  A    between atoms: O1_2  and  C2_3 
REMARK    2  A    between atoms: C2_3  and  C3_5 
REMARK    3  A    between atoms: C9_11  and  O3_12 
REMARK    4  A    between atoms: N1_14  and  C10_15 
REMARK    5  A    between atoms: C15_20  and  O4_21 
ROOT
HETATM    1  C3  UNL     1      15.060   0.051 193.375  1.00  0.00     0.086 C 
HETATM    2  C4  UNL     1      14.937  -0.921 194.510  1.00  0.00     0.015 C 
HETATM    3  C5  UNL     1      14.842  -0.142 195.804  1.00  0.00     0.011 C 
HETATM    4  C6  UNL     1      13.637   0.769 195.680  1.00  0.00     0.028 C 
HETATM    5  C7  UNL     1      13.425   1.422 196.979  1.00  0.00     0.008 A 
HETATM    6  C8  UNL     1      13.819   2.722 196.936  1.00  0.00     0.004 A 
HETATM    7  C9  UNL     1      13.596   3.262 198.162  1.00  0.00     0.151 A 
HETATM    8  N1  UNL     1      13.061   2.305 198.982  1.00  0.00    -0.303 N 
HETATM    9  C15 UNL     1      12.960   1.181 198.250  1.00  0.00     0.152 A 
HETATM   10  C16 UNL     1      14.341   3.062 195.573  1.00  0.00     0.049 C 
HETATM   11  C17 UNL     1      14.013   1.869 194.716  1.00  0.00    -0.001 C 
HETATM   12  C18 UNL     1      15.136   1.479 193.804  1.00  0.00     0.020 C 
ENDROOT
BRANCH   8  13
HETATM   13  C10 UNL     1      12.722   2.585 200.331  1.00  0.00     0.094 C 
HETATM   14  C11 UNL     1      12.096   3.970 200.461  1.00  0.00     0.026 C 
HETATM   15  C12 UNL     1      10.876   3.810 201.307  1.00  0.00     0.002 C 
HETATM   16  C13 UNL     1      10.467   2.348 201.203  1.00  0.00     0.002 C 
HETATM   17  C14 UNL     1      11.797   1.669 201.007  1.00  0.00     0.026 C 
ENDBRANCH   8  13
BRANCH   7  18
HETATM   18  O3  UNL     1      13.877   4.587 198.500  1.00  0.00    -0.345 OA
ATOM     19  H3  UNL     1      14.753   4.938 198.608  1.00  0.00     0.219 HD
ENDBRANCH   7  18
BRANCH   9  20
HETATM   20  O4  UNL     1      12.453  -0.006 198.769  1.00  0.00    -0.345 OA
ATOM     21  H4  UNL     1      12.931  -0.728 199.159  1.00  0.00     0.219 HD
ENDBRANCH   9  20
BRANCH   1  22
HETATM   22  C2  UNL     1      16.207  -0.309 192.529  1.00  0.00     0.262 C 
HETATM   23  O2  UNL     1      17.136  -0.999 193.022  1.00  0.00    -0.265 OA
BRANCH  22  24
HETATM   24  O1  UNL     1      16.339   0.062 191.203  1.00  0.00    -0.326 OA
HETATM   25  C1  UNL     1      17.243  -0.587 190.307  1.00  0.00     0.213 C 
ENDBRANCH  22  24
ENDBRANCH   1  22
TORSDOF 5
ENDMDL
MODEL 5
REMARK VINA RESULT: -8.491234795      1.950      8.004
REMARK  5 active torsions:
REMARK  status: ('A' for Active; 'I' for Inactive)
REMARK    1  A    between atoms: O1_2  and  C2_3 
REMARK    2  A    between atoms: C2_3  and  C3_5 
REMARK    3  A    between atoms: C9_11  and  O3_12 
REMARK    4  A    between atoms: N1_14  and  C10_15 
REMARK    5  A    between atoms: C15_20  and  O4_21 
ROOT
HETATM    1  C3  UNL     1      11.726   2.612 201.168  1.00  0.00     0.086 C 
HETATM    2  C4  UNL     1      11.462   1.162 200.890  1.00  0.00     0.015 C 
HETATM    3  C5  UNL     1      11.804   0.878 199.444  1.00  0.00     0.011 C 
HETATM    4  C6  UNL     1      13.260   1.256 199.255  1.00  0.00     0.028 C 
HETATM    5  C7  UNL     1      13.665   0.843 197.905  1.00  0.00     0.008 A 
HETATM    6  C8  UNL     1      13.771   1.921 197.082  1.00  0.00     0.004 A 
HETATM    7  C9  UNL     1      14.147   1.470 195.858  1.00  0.00     0.151 A 
HETATM    8  N1  UNL     1      14.280   0.109 195.903  1.00  0.00    -0.303 N 
HETATM    9  C15 UNL     1      13.982  -0.267 197.160  1.00  0.00     0.152 A 
HETATM   10  C16 UNL     1      13.437   3.178 197.828  1.00  0.00     0.049 C 
HETATM   11  C17 UNL     1      13.330   2.764 199.270  1.00  0.00    -0.001 C 
HETATM   12  C18 UNL     1      12.163   3.389 199.971  1.00  0.00     0.020 C 
ENDROOT
BRANCH   8  13
HETATM   13  C10 UNL     1      14.667  -0.641 194.762  1.00  0.00     0.094 C 
HETATM   14  C11 UNL     1      13.501  -0.800 193.791  1.00  0.00     0.026 C 
HETATM   15  C12 UNL     1      14.027  -0.474 192.433  1.00  0.00     0.002 C 
HETATM   16  C13 UNL     1      15.262   0.391 192.644  1.00  0.00     0.002 C 
HETATM   17  C14 UNL     1      15.783  -0.132 193.957  1.00  0.00     0.026 C 
ENDBRANCH   8  13
BRANCH   7  18
HETATM   18  O3  UNL     1      14.358   2.292 194.749  1.00  0.00    -0.345 OA
ATOM     19  H3  UNL     1      13.822   2.281 193.965  1.00  0.00     0.219 HD
ENDBRANCH   7  18
BRANCH   9  20
HETATM   20  O4  UNL     1      14.014  -1.597 197.569  1.00  0.00    -0.345 OA
ATOM     21  H4  UNL     1      14.283  -1.946 198.411  1.00  0.00     0.219 HD
ENDBRANCH   9  20
BRANCH   1  22
HETATM   22  C2  UNL     1      10.545   3.224 201.795  1.00  0.00     0.262 C 
HETATM   23  O2  UNL     1      10.520   4.470 201.962  1.00  0.00    -0.265 OA
BRANCH  22  24
HETATM   24  O1  UNL     1       9.437   2.514 202.220  1.00  0.00    -0.326 OA
HETATM   25  C1  UNL     1       9.136   2.308 203.601  1.00  0.00     0.213 C 
ENDBRANCH  22  24
ENDBRANCH   1  22
TORSDOF 5
ENDMDL
