MODEL 1
REMARK VINA RESULT: -7.730948130      0.000      0.000
REMARK  6 active torsions:
REMARK  status: ('A' for Active; 'I' for Inactive)
REMARK    1  A    between atoms: S1_2  and  C2_3 
REMARK    2  A    between atoms: C3_4  and  O1_5 
REMARK    3  A    between atoms: C6_9  and  O2_10 
REMARK    4  A    between atoms: C7_12  and  C8_13 
REMARK    5  A    between atoms: C9_14  and  C10_15 
REMARK    6  A    between atoms: C14_19  and  O3_20 
ROOT
HETATM    1  C2  UNL     1      13.166   2.903 199.005  1.00  0.00     0.047 A 
HETATM    2  C3  UNL     1      13.004   4.245 199.267  1.00  0.00     0.098 A 
HETATM    3  C4  UNL     1      13.055   5.233 198.303  1.00  0.00     0.056 A 
HETATM    4  C5  UNL     1      13.281   4.875 196.990  1.00  0.00     0.021 A 
HETATM    5  C6  UNL     1      13.447   3.516 196.711  1.00  0.00     0.087 A 
HETATM    6  C7  UNL     1      13.395   2.534 197.673  1.00  0.00     0.017 A 
HETATM    7  C14 UNL     1      13.296   6.086 196.128  1.00  0.00     0.162 C 
HETATM    8  C15 UNL     1      12.522   7.137 196.940  1.00  0.00     0.120 C 
HETATM    9  C16 UNL     1      12.921   6.697 198.326  1.00  0.00     0.165 C 
HETATM   10  O4  UNL     1      13.110   7.401 199.324  1.00  0.00    -0.292 OA
ENDROOT
BRANCH   6  11
HETATM   11  C8  UNL     1      13.565   1.114 197.400  1.00  0.00     0.012 C 
HETATM   12  C9  UNL     1      14.648   0.423 197.275  1.00  0.00    -0.017 C 
BRANCH  12  13
HETATM   13  C10 UNL     1      14.555  -1.053 196.989  1.00  0.00    -0.034 C 
HETATM   14  C11 UNL     1      13.237  -1.569 197.575  1.00  0.00     0.018 C 
HETATM   15  C12 UNL     1      15.653  -1.758 197.720  1.00  0.00     0.018 C 
HETATM   16  C13 UNL     1      14.538  -1.322 195.518  1.00  0.00     0.018 C 
ENDBRANCH  12  13
ENDBRANCH   6  11
BRANCH   1  17
HETATM   17  S1  UNL     1      13.085   1.677 200.316  1.00  0.00    -0.131 SA
HETATM   18  C1  UNL     1      11.388   1.225 200.703  1.00  0.00     0.095 C 
ENDBRANCH   1  17
BRANCH   5  19
HETATM   19  O2  UNL     1      13.670   3.211 195.381  1.00  0.00    -0.359 OA
ATOM     20  H2  UNL     1      13.284   2.395 195.084  1.00  0.00     0.217 HD
ENDBRANCH   5  19
BRANCH   2  21
HETATM   21  O1  UNL     1      12.779   4.584 200.593  1.00  0.00    -0.358 OA
ATOM     22  H1  UNL     1      13.346   5.255 200.955  1.00  0.00     0.217 HD
ENDBRANCH   2  21
BRANCH   7  23
HETATM   23  O3  UNL     1      14.591   6.602 195.997  1.00  0.00    -0.390 OA
ATOM     24  H3  UNL     1      14.811   7.171 196.727  1.00  0.00     0.210 HD
ENDBRANCH   7  23
TORSDOF 6
ENDMDL
MODEL 2
REMARK VINA RESULT: -7.133474034      2.732      6.008
REMARK  6 active torsions:
REMARK  status: ('A' for Active; 'I' for Inactive)
REMARK    1  A    between atoms: S1_2  and  C2_3 
REMARK    2  A    between atoms: C3_4  and  O1_5 
REMARK    3  A    between atoms: C6_9  and  O2_10 
REMARK    4  A    between atoms: C7_12  and  C8_13 
REMARK    5  A    between atoms: C9_14  and  C10_15 
REMARK    6  A    between atoms: C14_19  and  O3_20 
ROOT
HETATM    1  C2  UNL     1      13.819   2.643 196.531  1.00  0.00     0.047 A 
HETATM    2  C3  UNL     1      14.287   2.392 195.261  1.00  0.00     0.098 A 
HETATM    3  C4  UNL     1      14.411   1.128 194.718  1.00  0.00     0.056 A 
HETATM    4  C5  UNL     1      14.049   0.035 195.479  1.00  0.00     0.021 A 
HETATM    5  C6  UNL     1      13.572   0.277 196.770  1.00  0.00     0.087 A 
HETATM    6  C7  UNL     1      13.449   1.537 197.308  1.00  0.00     0.017 A 
HETATM    7  C14 UNL     1      14.260  -1.216 194.705  1.00  0.00     0.162 C 
HETATM    8  C15 UNL     1      14.261  -0.757 193.238  1.00  0.00     0.120 C 
HETATM    9  C16 UNL     1      14.874   0.608 193.424  1.00  0.00     0.165 C 
HETATM   10  O4  UNL     1      15.631   1.214 192.657  1.00  0.00    -0.292 OA
ENDROOT
BRANCH   6  11
HETATM   11  C8  UNL     1      12.954   1.807 198.650  1.00  0.00     0.012 C 
HETATM   12  C9  UNL     1      11.778   1.625 199.147  1.00  0.00    -0.017 C 
BRANCH  12  13
HETATM   13  C10 UNL     1      11.516   1.991 200.585  1.00  0.00    -0.034 C 
HETATM   14  C11 UNL     1      10.011   2.217 200.752  1.00  0.00     0.018 C 
HETATM   15  C12 UNL     1      12.182   3.298 200.881  1.00  0.00     0.018 C 
HETATM   16  C13 UNL     1      11.920   0.885 201.508  1.00  0.00     0.018 C 
ENDBRANCH  12  13
ENDBRANCH   6  11
BRANCH   1  17
HETATM   17  S1  UNL     1      13.687   4.319 197.166  1.00  0.00    -0.131 SA
HETATM   18  C1  UNL     1      12.951   5.433 195.961  1.00  0.00     0.095 C 
ENDBRANCH   1  17
BRANCH   5  19
HETATM   19  O2  UNL     1      13.222  -0.850 197.489  1.00  0.00    -0.359 OA
ATOM     20  H2  UNL     1      12.494  -0.738 198.089  1.00  0.00     0.217 HD
ENDBRANCH   5  19
BRANCH   2  21
HETATM   21  O1  UNL     1      14.647   3.503 194.513  1.00  0.00    -0.358 OA
ATOM     22  H1  UNL     1      14.881   3.339 193.607  1.00  0.00     0.217 HD
ENDBRANCH   2  21
BRANCH   7  23
HETATM   23  O3  UNL     1      15.539  -1.742 194.927  1.00  0.00    -0.390 OA
ATOM     24  H3  UNL     1      16.174  -1.369 194.325  1.00  0.00     0.210 HD
ENDBRANCH   7  23
TORSDOF 6
ENDMDL
MODEL 3
REMARK VINA RESULT: -6.826944802      2.407      4.278
REMARK  6 active torsions:
REMARK  status: ('A' for Active; 'I' for Inactive)
REMARK    1  A    between atoms: S1_2  and  C2_3 
REMARK    2  A    between atoms: C3_4  and  O1_5 
REMARK    3  A    between atoms: C6_9  and  O2_10 
REMARK    4  A    between atoms: C7_12  and  C8_13 
REMARK    5  A    between atoms: C9_14  and  C10_15 
REMARK    6  A    between atoms: C14_19  and  O3_20 
ROOT
HETATM    1  C2  UNL     1      13.962   2.983 197.087  1.00  0.00     0.047 A 
HETATM    2  C3  UNL     1      13.451   3.698 198.147  1.00  0.00     0.098 A 
HETATM    3  C4  UNL     1      12.774   3.129 199.208  1.00  0.00     0.056 A 
HETATM    4  C5  UNL     1      12.586   1.762 199.226  1.00  0.00     0.021 A 
HETATM    5  C6  UNL     1      13.100   1.026 198.155  1.00  0.00     0.087 A 
HETATM    6  C7  UNL     1      13.775   1.595 197.100  1.00  0.00     0.017 A 
HETATM    7  C14 UNL     1      11.841   1.367 200.450  1.00  0.00     0.162 C 
HETATM    8  C15 UNL     1      12.073   2.531 201.426  1.00  0.00     0.120 C 
HETATM    9  C16 UNL     1      12.145   3.659 200.427  1.00  0.00     0.165 C 
HETATM   10  O4  UNL     1      11.761   4.825 200.565  1.00  0.00    -0.292 OA
ENDROOT
BRANCH   6  11
HETATM   11  C8  UNL     1      14.317   0.844 195.978  1.00  0.00     0.012 C 
HETATM   12  C9  UNL     1      13.837   0.673 194.792  1.00  0.00    -0.017 C 
BRANCH  12  13
HETATM   13  C10 UNL     1      14.602  -0.161 193.797  1.00  0.00    -0.034 C 
HETATM   14  C11 UNL     1      13.595  -0.790 192.830  1.00  0.00     0.018 C 
HETATM   15  C12 UNL     1      15.265  -1.291 194.519  1.00  0.00     0.018 C 
HETATM   16  C13 UNL     1      15.544   0.680 192.995  1.00  0.00     0.018 C 
ENDBRANCH  12  13
ENDBRANCH   6  11
BRANCH   1  17
HETATM   17  S1  UNL     1      14.833   3.798 195.743  1.00  0.00    -0.131 SA
HETATM   18  C1  UNL     1      13.701   4.647 194.633  1.00  0.00     0.095 C 
ENDBRANCH   1  17
BRANCH   5  19
HETATM   19  O2  UNL     1      12.887  -0.338 198.222  1.00  0.00    -0.359 OA
ATOM     20  H2  UNL     1      13.673  -0.871 198.217  1.00  0.00     0.217 HD
ENDBRANCH   5  19
BRANCH   2  21
HETATM   21  O1  UNL     1      13.649   5.070 198.110  1.00  0.00    -0.358 OA
ATOM     22  H1  UNL     1      14.364   5.403 198.640  1.00  0.00     0.217 HD
ENDBRANCH   2  21
BRANCH   7  23
HETATM   23  O3  UNL     1      10.459   1.349 200.220  1.00  0.00    -0.390 OA
ATOM     24  H3  UNL     1      10.180   2.116 199.734  1.00  0.00     0.210 HD
ENDBRANCH   7  23
TORSDOF 6
ENDMDL
MODEL 4
REMARK VINA RESULT: -6.700002552      1.321      1.996
REMARK  6 active torsions:
REMARK  status: ('A' for Active; 'I' for Inactive)
REMARK    1  A    between atoms: S1_2  and  C2_3 
REMARK    2  A    between atoms: C3_4  and  O1_5 
REMARK    3  A    between atoms: C6_9  and  O2_10 
REMARK    4  A    between atoms: C7_12  and  C8_13 
REMARK    5  A    between atoms: C9_14  and  C10_15 
REMARK    6  A    between atoms: C14_19  and  O3_20 
ROOT
HETATM    1  C2  UNL     1      13.549   2.403 197.819  1.00  0.00     0.047 A 
HETATM    2  C3  UNL     1      13.303   3.621 198.411  1.00  0.00     0.098 A 
HETATM    3  C4  UNL     1      13.279   4.823 197.729  1.00  0.00     0.056 A 
HETATM    4  C5  UNL     1      13.515   4.824 196.369  1.00  0.00     0.021 A 
HETATM    5  C6  UNL     1      13.766   3.593 195.757  1.00  0.00     0.087 A 
HETATM    6  C7  UNL     1      13.789   2.399 196.438  1.00  0.00     0.017 A 
HETATM    7  C14 UNL     1      13.441   6.212 195.841  1.00  0.00     0.162 C 
HETATM    8  C15 UNL     1      12.608   6.969 196.888  1.00  0.00     0.120 C 
HETATM    9  C16 UNL     1      13.050   6.220 198.120  1.00  0.00     0.165 C 
HETATM   10  O4  UNL     1      13.203   6.660 199.265  1.00  0.00    -0.292 OA
ENDROOT
BRANCH   6  11
HETATM   11  C8  UNL     1      14.049   1.109 195.816  1.00  0.00     0.012 C 
HETATM   12  C9  UNL     1      14.446   0.836 194.619  1.00  0.00    -0.017 C 
BRANCH  12  13
HETATM   13  C10 UNL     1      14.643  -0.602 194.214  1.00  0.00    -0.034 C 
HETATM   14  C11 UNL     1      15.930  -0.691 193.389  1.00  0.00     0.018 C 
HETATM   15  C12 UNL     1      13.524  -1.008 193.308  1.00  0.00     0.018 C 
HETATM   16  C13 UNL     1      14.804  -1.485 195.411  1.00  0.00     0.018 C 
ENDBRANCH  12  13
ENDBRANCH   6  11
BRANCH   1  17
HETATM   17  S1  UNL     1      13.563   0.883 198.776  1.00  0.00    -0.131 SA
HETATM   18  C1  UNL     1      12.116   0.749 199.835  1.00  0.00     0.095 C 
ENDBRANCH   1  17
BRANCH   5  19
HETATM   19  O2  UNL     1      13.995   3.650 194.394  1.00  0.00    -0.359 OA
ATOM     20  H2  UNL     1      14.167   2.814 193.978  1.00  0.00     0.217 HD
ENDBRANCH   5  19
BRANCH   2  21
HETATM   21  O1  UNL     1      13.070   3.599 199.778  1.00  0.00    -0.358 OA
ATOM     22  H1  UNL     1      13.737   4.000 200.322  1.00  0.00     0.217 HD
ENDBRANCH   2  21
BRANCH   7  23
HETATM   23  O3  UNL     1      14.698   6.829 195.855  1.00  0.00    -0.390 OA
ATOM     24  H3  UNL     1      14.628   7.759 195.670  1.00  0.00     0.210 HD
ENDBRANCH   7  23
TORSDOF 6
ENDMDL
MODEL 5
REMARK VINA RESULT: -6.673486036      1.938      3.166
REMARK  6 active torsions:
REMARK  status: ('A' for Active; 'I' for Inactive)
REMARK    1  A    between atoms: S1_2  and  C2_3 
REMARK    2  A    between atoms: C3_4  and  O1_5 
REMARK    3  A    between atoms: C6_9  and  O2_10 
REMARK    4  A    between atoms: C7_12  and  C8_13 
REMARK    5  A    between atoms: C9_14  and  C10_15 
REMARK    6  A    between atoms: C14_19  and  O3_20 
ROOT
HETATM    1  C2  UNL     1      13.344   0.971 198.255  1.00  0.00     0.047 A 
HETATM    2  C3  UNL     1      12.820   1.620 199.350  1.00  0.00     0.098 A 
HETATM    3  C4  UNL     1      12.709   2.993 199.455  1.00  0.00     0.056 A 
HETATM    4  C5  UNL     1      13.143   3.781 198.409  1.00  0.00     0.021 A 
HETATM    5  C6  UNL     1      13.678   3.133 197.292  1.00  0.00     0.087 A 
HETATM    6  C7  UNL     1      13.787   1.766 197.189  1.00  0.00     0.017 A 
HETATM    7  C14 UNL     1      12.930   5.217 198.730  1.00  0.00     0.162 C 
HETATM    8  C15 UNL     1      11.839   5.202 199.813  1.00  0.00     0.120 C 
HETATM    9  C16 UNL     1      12.202   3.905 200.490  1.00  0.00     0.165 C 
HETATM   10  O4  UNL     1      12.109   3.619 201.689  1.00  0.00    -0.292 OA
ENDROOT
BRANCH   6  11
HETATM   11  C8  UNL     1      14.340   1.075 196.034  1.00  0.00     0.012 C 
HETATM   12  C9  UNL     1      13.807   0.836 194.884  1.00  0.00    -0.017 C 
BRANCH  12  13
HETATM   13  C10 UNL     1      14.600   0.091 193.841  1.00  0.00    -0.034 C 
HETATM   14  C11 UNL     1      13.615  -0.500 192.828  1.00  0.00     0.018 C 
HETATM   15  C12 UNL     1      15.291  -1.065 194.492  1.00  0.00     0.018 C 
HETATM   16  C13 UNL     1      15.522   1.009 193.102  1.00  0.00     0.018 C 
ENDBRANCH  12  13
ENDBRANCH   6  11
BRANCH   1  17
HETATM   17  S1  UNL     1      13.455  -0.822 198.195  1.00  0.00    -0.131 SA
HETATM   18  C1  UNL     1      15.164  -1.383 198.154  1.00  0.00     0.095 C 
ENDBRANCH   1  17
BRANCH   5  19
HETATM   19  O2  UNL     1      14.097   3.968 196.272  1.00  0.00    -0.359 OA
ATOM     20  H2  UNL     1      14.253   4.870 196.526  1.00  0.00     0.217 HD
ENDBRANCH   5  19
BRANCH   2  21
HETATM   21  O1  UNL     1      12.390   0.811 200.391  1.00  0.00    -0.358 OA
ATOM     22  H1  UNL     1      12.928   0.815 201.173  1.00  0.00     0.217 HD
ENDBRANCH   2  21
BRANCH   7  23
HETATM   23  O3  UNL     1      14.056   5.772 199.350  1.00  0.00    -0.390 OA
ATOM     24  H3  UNL     1      13.901   5.924 200.276  1.00  0.00     0.210 HD
ENDBRANCH   7  23
TORSDOF 6
ENDMDL
