MODEL 1
REMARK VINA RESULT: -6.893569319      0.000      0.000
REMARK  2 active torsions:
REMARK  status: ('A' for Active; 'I' for Inactive)
REMARK    1  A    between atoms: C5_6  and  N2_7 
REMARK    2  A    between atoms: N2_7  and  C6_9 
ROOT
HETATM    1  C1  UNL     1      11.759   0.812 201.156  1.00  0.00     0.052 C 
HETATM    2  C2  UNL     1      12.451   1.621 200.118  1.00  0.00    -0.009 A 
HETATM    3  C3  UNL     1      13.131   0.994 199.099  1.00  0.00     0.096 A 
HETATM    4  C4  UNL     1      13.184  -0.459 199.020  1.00  0.00     0.104 C 
HETATM    5  N1  UNL     1      13.209  -1.612 198.949  1.00  0.00    -0.191 NA
HETATM    6  C5  UNL     1      13.761   1.777 198.154  1.00  0.00     0.123 A 
HETATM    7  N4  UNL     1      13.736   3.118 198.191  1.00  0.00    -0.343 N 
ATOM      8  H4  UNL     1      14.217   3.654 197.470  1.00  0.00     0.167 HD
HETATM    9  C15 UNL     1      13.082   3.757 199.172  1.00  0.00     0.039 A 
HETATM   10  C16 UNL     1      12.443   3.007 200.131  1.00  0.00     0.058 A 
HETATM   11  N5  UNL     1      11.803   3.883 201.082  1.00  0.00    -0.388 N 
ATOM     12  H5  UNL     1      11.564   3.686 202.054  1.00  0.00     0.159 HD
HETATM   13  C17 UNL     1      11.575   5.125 200.327  1.00  0.00     0.126 C 
HETATM   14  C18 UNL     1      12.853   5.182 199.525  1.00  0.00     0.079 C 
ENDROOT
BRANCH   6  15
HETATM   15  N2  UNL     1      14.459   1.126 197.103  1.00  0.00    -0.370 N 
ATOM     16  H2  UNL     1      15.321   0.624 197.313  1.00  0.00     0.161 HD
BRANCH  15  17
HETATM   17  C6  UNL     1      13.965   1.160 195.717  1.00  0.00     0.088 C 
HETATM   18  C7  UNL     1      14.092   2.541 195.216  1.00  0.00     0.055 C 
HETATM   19  C8  UNL     1      14.535   2.726 193.809  1.00  0.00     0.021 C 
HETATM   20  C9  UNL     1      15.320   4.042 193.746  1.00  0.00     0.037 C 
HETATM   21  C10 UNL     1      13.347   2.943 192.859  1.00  0.00     0.037 C 
HETATM   22  N3  UNL     1      15.384   1.724 193.270  1.00  0.00    -0.405 N 
HETATM   23  C11 UNL     1      14.973   0.371 193.542  1.00  0.00     0.021 C 
ATOM     24  H3  UNL     1      16.221   1.946 192.732  1.00  0.00     0.154 HD
HETATM   25  C12 UNL     1      16.170  -0.511 193.152  1.00  0.00     0.037 C 
HETATM   26  C13 UNL     1      13.821  -0.086 192.672  1.00  0.00     0.037 C 
HETATM   27  C14 UNL     1      14.680   0.099 194.972  1.00  0.00     0.055 C 
ENDBRANCH  15  17
ENDBRANCH   6  15
TORSDOF 2
ENDMDL
MODEL 2
REMARK VINA RESULT: -6.649694629      4.295      7.607
REMARK  2 active torsions:
REMARK  status: ('A' for Active; 'I' for Inactive)
REMARK    1  A    between atoms: C5_6  and  N2_7 
REMARK    2  A    between atoms: N2_7  and  C6_9 
ROOT
HETATM    1  C1  UNL     1      13.533   2.255 198.006  1.00  0.00     0.052 C 
HETATM    2  C2  UNL     1      13.514   3.496 197.189  1.00  0.00    -0.009 A 
HETATM    3  C3  UNL     1      13.188   4.698 197.773  1.00  0.00     0.096 A 
HETATM    4  C4  UNL     1      12.859   4.776 199.189  1.00  0.00     0.104 C 
HETATM    5  N1  UNL     1      12.616   4.837 200.317  1.00  0.00    -0.191 NA
HETATM    6  C5  UNL     1      13.181   5.829 196.982  1.00  0.00     0.123 A 
HETATM    7  N4  UNL     1      13.478   5.800 195.674  1.00  0.00    -0.343 N 
ATOM      8  H4  UNL     1      13.459   6.663 195.131  1.00  0.00     0.167 HD
HETATM    9  C15 UNL     1      13.799   4.644 195.077  1.00  0.00     0.039 A 
HETATM   10  C16 UNL     1      13.816   3.497 195.835  1.00  0.00     0.058 A 
HETATM   11  N5  UNL     1      14.188   2.376 195.007  1.00  0.00    -0.388 N 
ATOM     12  H5  UNL     1      13.964   1.391 195.147  1.00  0.00     0.159 HD
HETATM   13  C17 UNL     1      14.966   2.981 193.914  1.00  0.00     0.126 C 
HETATM   14  C18 UNL     1      14.167   4.244 193.694  1.00  0.00     0.079 C 
ENDROOT
BRANCH   6  15
HETATM   15  N2  UNL     1      12.847   7.068 197.590  1.00  0.00    -0.370 N 
ATOM     16  H2  UNL     1      13.244   7.301 198.499  1.00  0.00     0.161 HD
BRANCH  15  17
HETATM   17  C6  UNL     1      11.940   8.024 196.935  1.00  0.00     0.088 C 
HETATM   18  C7  UNL     1      10.998   8.535 197.947  1.00  0.00     0.055 C 
HETATM   19  C8  UNL     1      10.642   9.978 197.893  1.00  0.00     0.021 C 
HETATM   20  C9  UNL     1      10.369  10.436 199.331  1.00  0.00     0.037 C 
HETATM   21  C10 UNL     1       9.314  10.212 197.157  1.00  0.00     0.037 C 
HETATM   22  N3  UNL     1      11.626  10.858 197.370  1.00  0.00    -0.405 N 
HETATM   23  C11 UNL     1      12.263  10.405 196.161  1.00  0.00     0.021 C 
ATOM     24  H3  UNL     1      11.862  11.744 197.816  1.00  0.00     0.154 HD
HETATM   25  C12 UNL     1      13.474  11.330 195.960  1.00  0.00     0.037 C 
HETATM   26  C13 UNL     1      11.399  10.581 194.931  1.00  0.00     0.037 C 
HETATM   27  C14 UNL     1      12.784   9.017 196.232  1.00  0.00     0.055 C 
ENDBRANCH  15  17
ENDBRANCH   6  15
TORSDOF 2
ENDMDL
MODEL 3
REMARK VINA RESULT: -6.582780161      1.219      1.489
REMARK  2 active torsions:
REMARK  status: ('A' for Active; 'I' for Inactive)
REMARK    1  A    between atoms: C5_6  and  N2_7 
REMARK    2  A    between atoms: N2_7  and  C6_9 
ROOT
HETATM    1  C1  UNL     1      11.607   1.513 201.045  1.00  0.00     0.052 C 
HETATM    2  C2  UNL     1      12.451   2.175 200.017  1.00  0.00    -0.009 A 
HETATM    3  C3  UNL     1      13.216   1.415 199.161  1.00  0.00     0.096 A 
HETATM    4  C4  UNL     1      13.209  -0.039 199.246  1.00  0.00     0.104 C 
HETATM    5  N1  UNL     1      13.188  -1.193 199.304  1.00  0.00    -0.191 NA
HETATM    6  C5  UNL     1      13.987   2.065 198.220  1.00  0.00     0.123 A 
HETATM    7  N4  UNL     1      14.021   3.402 198.109  1.00  0.00    -0.343 N 
ATOM      8  H4  UNL     1      14.608   3.836 197.397  1.00  0.00     0.167 HD
HETATM    9  C15 UNL     1      13.288   4.169 198.929  1.00  0.00     0.039 A 
HETATM   10  C16 UNL     1      12.507   3.554 199.878  1.00  0.00     0.058 A 
HETATM   11  N5  UNL     1      11.802   4.553 200.645  1.00  0.00    -0.388 N 
ATOM     12  H5  UNL     1      11.443   4.475 201.596  1.00  0.00     0.159 HD
HETATM   13  C17 UNL     1      11.722   5.709 199.738  1.00  0.00     0.126 C 
HETATM   14  C18 UNL     1      13.087   5.632 199.095  1.00  0.00     0.079 C 
ENDROOT
BRANCH   6  15
HETATM   15  N2  UNL     1      14.772   1.277 197.338  1.00  0.00    -0.370 N 
ATOM     16  H2  UNL     1      15.777   1.208 197.490  1.00  0.00     0.161 HD
BRANCH  15  17
HETATM   17  C6  UNL     1      14.165   0.556 196.208  1.00  0.00     0.088 C 
HETATM   18  C7  UNL     1      14.320   1.382 194.996  1.00  0.00     0.055 C 
HETATM   19  C8  UNL     1      14.651   0.686 193.725  1.00  0.00     0.021 C 
HETATM   20  C9  UNL     1      15.495   1.650 192.883  1.00  0.00     0.037 C 
HETATM   21  C10 UNL     1      13.400   0.427 192.872  1.00  0.00     0.037 C 
HETATM   22  N3  UNL     1      15.399  -0.516 193.831  1.00  0.00    -0.405 N 
HETATM   23  C11 UNL     1      14.944  -1.425 194.850  1.00  0.00     0.021 C 
ATOM     24  H3  UNL     1      16.198  -0.720 193.231  1.00  0.00     0.154 HD
HETATM   25  C12 UNL     1      16.056  -2.476 194.995  1.00  0.00     0.037 C 
HETATM   26  C13 UNL     1      13.700  -2.191 194.451  1.00  0.00     0.037 C 
HETATM   27  C14 UNL     1      14.759  -0.801 196.185  1.00  0.00     0.055 C 
ENDBRANCH  15  17
ENDBRANCH   6  15
TORSDOF 2
ENDMDL
MODEL 4
REMARK VINA RESULT: -6.237985445      2.653      6.967
REMARK  2 active torsions:
REMARK  status: ('A' for Active; 'I' for Inactive)
REMARK    1  A    between atoms: C5_6  and  N2_7 
REMARK    2  A    between atoms: N2_7  and  C6_9 
ROOT
HETATM    1  C1  UNL     1      12.938   8.115 196.020  1.00  0.00     0.052 C 
HETATM    2  C2  UNL     1      13.150   6.801 196.681  1.00  0.00    -0.009 A 
HETATM    3  C3  UNL     1      12.788   6.628 197.998  1.00  0.00     0.096 A 
HETATM    4  C4  UNL     1      12.194   7.718 198.759  1.00  0.00     0.104 C 
HETATM    5  N1  UNL     1      11.706   8.579 199.355  1.00  0.00    -0.191 NA
HETATM    6  C5  UNL     1      13.000   5.394 198.578  1.00  0.00     0.123 A 
HETATM    7  N4  UNL     1      13.544   4.364 197.912  1.00  0.00    -0.343 N 
ATOM      8  H4  UNL     1      13.682   3.471 198.384  1.00  0.00     0.167 HD
HETATM    9  C15 UNL     1      13.908   4.503 196.628  1.00  0.00     0.039 A 
HETATM   10  C16 UNL     1      13.710   5.719 196.019  1.00  0.00     0.058 A 
HETATM   11  N5  UNL     1      14.162   5.653 194.651  1.00  0.00    -0.388 N 
ATOM     12  H5  UNL     1      14.478   6.419 194.056  1.00  0.00     0.159 HD
HETATM   13  C17 UNL     1      14.062   4.225 194.310  1.00  0.00     0.126 C 
HETATM   14  C18 UNL     1      14.525   3.613 195.611  1.00  0.00     0.079 C 
ENDROOT
BRANCH   6  15
HETATM   15  N2  UNL     1      12.622   5.219 199.935  1.00  0.00    -0.370 N 
ATOM     16  H2  UNL     1      12.387   6.036 200.497  1.00  0.00     0.161 HD
BRANCH  15  17
HETATM   17  C6  UNL     1      12.562   3.883 200.548  1.00  0.00     0.088 C 
HETATM   18  C7  UNL     1      11.288   3.769 201.283  1.00  0.00     0.055 C 
HETATM   19  C8  UNL     1      10.567   2.471 201.216  1.00  0.00     0.021 C 
HETATM   20  C9  UNL     1       9.067   2.776 201.316  1.00  0.00     0.037 C 
HETATM   21  C10 UNL     1      10.861   1.589 202.440  1.00  0.00     0.037 C 
HETATM   22  N3  UNL     1      10.744   1.702 200.036  1.00  0.00    -0.405 N 
HETATM   23  C11 UNL     1      12.105   1.596 199.580  1.00  0.00     0.021 C 
ATOM     24  H3  UNL     1       9.965   1.259 199.548  1.00  0.00     0.154 HD
HETATM   25  C12 UNL     1      12.023   1.010 198.162  1.00  0.00     0.037 C 
HETATM   26  C13 UNL     1      12.927   0.613 200.387  1.00  0.00     0.037 C 
HETATM   27  C14 UNL     1      12.814   2.896 199.473  1.00  0.00     0.055 C 
ENDBRANCH  15  17
ENDBRANCH   6  15
TORSDOF 2
ENDMDL
MODEL 5
REMARK VINA RESULT: -5.974545834      1.955      2.655
REMARK  2 active torsions:
REMARK  status: ('A' for Active; 'I' for Inactive)
REMARK    1  A    between atoms: C5_6  and  N2_7 
REMARK    2  A    between atoms: N2_7  and  C6_9 
ROOT
HETATM    1  C1  UNL     1      12.303   4.598 200.329  1.00  0.00     0.052 C 
HETATM    2  C2  UNL     1      12.953   4.185 199.058  1.00  0.00    -0.009 A 
HETATM    3  C3  UNL     1      13.299   2.867 198.860  1.00  0.00     0.096 A 
HETATM    4  C4  UNL     1      13.035   1.864 199.882  1.00  0.00     0.104 C 
HETATM    5  N1  UNL     1      12.808   1.067 200.687  1.00  0.00    -0.191 NA
HETATM    6  C5  UNL     1      13.901   2.521 197.668  1.00  0.00     0.123 A 
HETATM    7  N4  UNL     1      14.161   3.415 196.702  1.00  0.00    -0.343 N 
ATOM      8  H4  UNL     1      14.609   3.111 195.837  1.00  0.00     0.167 HD
HETATM    9  C15 UNL     1      13.836   4.706 196.866  1.00  0.00     0.039 A 
HETATM   10  C16 UNL     1      13.235   5.085 198.042  1.00  0.00     0.058 A 
HETATM   11  N5  UNL     1      12.967   6.502 198.012  1.00  0.00    -0.388 N 
ATOM     12  H5  UNL     1      12.867   7.139 198.803  1.00  0.00     0.159 HD
HETATM   13  C17 UNL     1      12.872   6.819 196.578  1.00  0.00     0.126 C 
HETATM   14  C18 UNL     1      13.973   5.935 196.042  1.00  0.00     0.079 C 
ENDROOT
BRANCH   6  15
HETATM   15  N2  UNL     1      14.253   1.161 197.466  1.00  0.00    -0.370 N 
ATOM     16  H2  UNL     1      14.810   0.680 198.172  1.00  0.00     0.161 HD
BRANCH  15  17
HETATM   17  C6  UNL     1      13.832   0.430 196.261  1.00  0.00     0.088 C 
HETATM   18  C7  UNL     1      14.067   1.295 195.090  1.00  0.00     0.055 C 
HETATM   19  C8  UNL     1      14.590   0.656 193.854  1.00  0.00     0.021 C 
HETATM   20  C9  UNL     1      15.455   1.697 193.133  1.00  0.00     0.037 C 
HETATM   21  C10 UNL     1      13.466   0.335 192.857  1.00  0.00     0.037 C 
HETATM   22  N3  UNL     1      15.403  -0.495 194.026  1.00  0.00    -0.405 N 
HETATM   23  C11 UNL     1      14.899  -1.458 194.969  1.00  0.00     0.021 C 
ATOM     24  H3  UNL     1      16.278  -0.629 193.519  1.00  0.00     0.154 HD
HETATM   25  C12 UNL     1      16.058  -2.435 195.223  1.00  0.00     0.037 C 
HETATM   26  C13 UNL     1      13.766  -2.296 194.414  1.00  0.00     0.037 C 
HETATM   27  C14 UNL     1      14.519  -0.882 196.283  1.00  0.00     0.055 C 
ENDBRANCH  15  17
ENDBRANCH   6  15
TORSDOF 2
ENDMDL
