MODEL 1
REMARK VINA RESULT: -7.521798297      0.000      0.000
REMARK  6 active torsions:
REMARK  status: ('A' for Active; 'I' for Inactive)
REMARK    1  A    between atoms: C2_2  and  C3_3 
REMARK    2  A    between atoms: C3_3  and  O2_5 
REMARK    3  A    between atoms: O2_5  and  C4_6 
REMARK    4  A    between atoms: C10_12  and  O3_13 
REMARK    5  A    between atoms: C13_17  and  O4_18 
REMARK    6  A    between atoms: C14_20  and  O5_21 
ROOT
HETATM    1  C4  UNL     1      13.613   2.615 198.351  1.00  0.00     0.144 C 
HETATM    2  C5  UNL     1      12.684   3.422 197.467  1.00  0.00     0.038 C 
HETATM    3  C6  UNL     1      13.407   4.212 196.438  1.00  0.00    -0.012 C 
HETATM    4  C7  UNL     1      12.476   4.618 195.315  1.00  0.00     0.010 C 
HETATM    5  C8  UNL     1      14.612   3.513 195.862  1.00  0.00     0.046 C 
HETATM    6  C9  UNL     1      14.426   2.078 195.655  1.00  0.00    -0.014 A 
HETATM    7  C10 UNL     1      14.821   1.710 194.369  1.00  0.00     0.081 A 
HETATM    8  C11 UNL     1      14.742   0.408 193.935  1.00  0.00     0.008 A 
HETATM    9  C12 UNL     1      15.165   0.008 192.555  1.00  0.00     0.054 C 
HETATM   10  C13 UNL     1      14.259  -0.588 194.780  1.00  0.00     0.108 A 
HETATM   11  C14 UNL     1      13.866  -0.223 196.056  1.00  0.00     0.107 A 
HETATM   12  C15 UNL     1      13.947   1.092 196.492  1.00  0.00    -0.003 A 
HETATM   13  C16 UNL     1      13.456   1.183 197.912  1.00  0.00     0.010 C 
HETATM   14  C17 UNL     1      14.284   0.313 198.821  1.00  0.00     0.023 C 
HETATM   15  C18 UNL     1      12.012   0.727 197.988  1.00  0.00     0.023 C 
ENDROOT
BRANCH   1  16
HETATM   16  O2  UNL     1      13.309   2.756 199.709  1.00  0.00    -0.315 OA
BRANCH  16  17
HETATM   17  C3  UNL     1      12.557   3.833 200.154  1.00  0.00     0.258 C 
HETATM   18  O1  UNL     1      12.957   4.984 199.838  1.00  0.00    -0.265 OA
BRANCH  17  19
HETATM   19  C2  UNL     1      11.316   3.627 200.982  1.00  0.00     0.106 C 
HETATM   20  C1  UNL     1      11.034   2.160 201.011  1.00  0.00     0.015 C 
ENDBRANCH  17  19
ENDBRANCH  16  17
ENDBRANCH   1  16
BRANCH  11  21
HETATM   21  O5  UNL     1      13.390  -1.196 196.893  1.00  0.00    -0.357 OA
ATOM     22  H5  UNL     1      13.160  -0.954 197.782  1.00  0.00     0.217 HD
ENDBRANCH  11  21
BRANCH   7  23
HETATM   23  O3  UNL     1      15.298   2.693 193.536  1.00  0.00    -0.359 OA
ATOM     24  H3  UNL     1      14.667   3.212 193.051  1.00  0.00     0.217 HD
ENDBRANCH   7  23
BRANCH  10  25
HETATM   25  O4  UNL     1      14.195  -1.889 194.301  1.00  0.00    -0.357 OA
ATOM     26  H4  UNL     1      14.307  -2.604 194.916  1.00  0.00     0.217 HD
ENDBRANCH  10  25
TORSDOF 6
ENDMDL
MODEL 2
REMARK VINA RESULT: -7.360222260      1.319      3.398
REMARK  6 active torsions:
REMARK  status: ('A' for Active; 'I' for Inactive)
REMARK    1  A    between atoms: C2_2  and  C3_3 
REMARK    2  A    between atoms: C3_3  and  O2_5 
REMARK    3  A    between atoms: O2_5  and  C4_6 
REMARK    4  A    between atoms: C10_12  and  O3_13 
REMARK    5  A    between atoms: C13_17  and  O4_18 
REMARK    6  A    between atoms: C14_20  and  O5_21 
ROOT
HETATM    1  C4  UNL     1      12.815   1.566 197.921  1.00  0.00     0.144 C 
HETATM    2  C5  UNL     1      13.956   0.740 198.478  1.00  0.00     0.038 C 
HETATM    3  C6  UNL     1      13.910  -0.679 198.041  1.00  0.00    -0.012 C 
HETATM    4  C7  UNL     1      15.260  -1.342 198.214  1.00  0.00     0.010 C 
HETATM    5  C8  UNL     1      13.435  -0.869 196.623  1.00  0.00     0.046 C 
HETATM    6  C9  UNL     1      13.922   0.147 195.690  1.00  0.00    -0.014 A 
HETATM    7  C10 UNL     1      14.462  -0.449 194.551  1.00  0.00     0.081 A 
HETATM    8  C11 UNL     1      14.986   0.301 193.525  1.00  0.00     0.008 A 
HETATM    9  C12 UNL     1      15.567  -0.334 192.299  1.00  0.00     0.054 C 
HETATM   10  C13 UNL     1      14.990   1.691 193.599  1.00  0.00     0.108 A 
HETATM   11  C14 UNL     1      14.455   2.283 194.730  1.00  0.00     0.107 A 
HETATM   12  C15 UNL     1      13.927   1.524 195.765  1.00  0.00    -0.003 A 
HETATM   13  C16 UNL     1      13.421   2.435 196.851  1.00  0.00     0.010 C 
HETATM   14  C17 UNL     1      12.351   3.355 196.322  1.00  0.00     0.023 C 
HETATM   15  C18 UNL     1      14.561   3.277 197.390  1.00  0.00     0.023 C 
ENDROOT
BRANCH   1  16
HETATM   16  O2  UNL     1      12.194   2.345 198.903  1.00  0.00    -0.315 OA
BRANCH  16  17
HETATM   17  C3  UNL     1      12.376   2.058 200.247  1.00  0.00     0.258 C 
HETATM   18  O1  UNL     1      13.394   2.541 200.808  1.00  0.00    -0.265 OA
BRANCH  17  19
HETATM   19  C2  UNL     1      11.391   1.201 201.000  1.00  0.00     0.106 C 
HETATM   20  C1  UNL     1      10.245   2.074 201.393  1.00  0.00     0.015 C 
ENDBRANCH  17  19
ENDBRANCH  16  17
ENDBRANCH   1  16
BRANCH  11  21
HETATM   21  O5  UNL     1      14.455   3.649 194.812  1.00  0.00    -0.357 OA
ATOM     22  H5  UNL     1      15.053   4.135 194.256  1.00  0.00     0.217 HD
ENDBRANCH  11  21
BRANCH   7  23
HETATM   23  O3  UNL     1      14.457  -1.822 194.477  1.00  0.00    -0.359 OA
ATOM     24  H3  UNL     1      13.647  -2.251 194.226  1.00  0.00     0.217 HD
ENDBRANCH   7  23
BRANCH  10  25
HETATM   25  O4  UNL     1      15.529   2.410 192.542  1.00  0.00    -0.357 OA
ATOM     26  H4  UNL     1      16.392   2.170 192.224  1.00  0.00     0.217 HD
ENDBRANCH  10  25
TORSDOF 6
ENDMDL
MODEL 3
REMARK VINA RESULT: -6.935328500      2.106      6.017
REMARK  6 active torsions:
REMARK  status: ('A' for Active; 'I' for Inactive)
REMARK    1  A    between atoms: C2_2  and  C3_3 
REMARK    2  A    between atoms: C3_3  and  O2_5 
REMARK    3  A    between atoms: O2_5  and  C4_6 
REMARK    4  A    between atoms: C10_12  and  O3_13 
REMARK    5  A    between atoms: C13_17  and  O4_18 
REMARK    6  A    between atoms: C14_20  and  O5_21 
ROOT
HETATM    1  C4  UNL     1      14.195   1.927 196.784  1.00  0.00     0.144 C 
HETATM    2  C5  UNL     1      12.863   1.514 197.376  1.00  0.00     0.038 C 
HETATM    3  C6  UNL     1      12.783   1.753 198.840  1.00  0.00    -0.012 C 
HETATM    4  C7  UNL     1      11.342   1.775 199.305  1.00  0.00     0.010 C 
HETATM    5  C8  UNL     1      13.477   3.010 199.296  1.00  0.00     0.046 C 
HETATM    6  C9  UNL     1      13.323   4.141 198.383  1.00  0.00    -0.014 A 
HETATM    7  C10 UNL     1      12.921   5.283 199.076  1.00  0.00     0.081 A 
HETATM    8  C11 UNL     1      12.710   6.479 198.433  1.00  0.00     0.008 A 
HETATM    9  C12 UNL     1      12.279   7.708 199.173  1.00  0.00     0.054 C 
HETATM   10  C13 UNL     1      12.894   6.581 197.056  1.00  0.00     0.108 A 
HETATM   11  C14 UNL     1      13.292   5.448 196.368  1.00  0.00     0.107 A 
HETATM   12  C15 UNL     1      13.504   4.241 197.020  1.00  0.00    -0.003 A 
HETATM   13  C16 UNL     1      13.928   3.198 196.021  1.00  0.00     0.010 C 
HETATM   14  C17 UNL     1      15.199   3.610 195.324  1.00  0.00     0.023 C 
HETATM   15  C18 UNL     1      12.843   3.011 194.979  1.00  0.00     0.023 C 
ENDROOT
BRANCH   1  16
HETATM   16  O2  UNL     1      14.730   0.945 195.944  1.00  0.00    -0.315 OA
BRANCH  16  17
HETATM   17  C3  UNL     1      14.577  -0.399 196.248  1.00  0.00     0.258 C 
HETATM   18  O1  UNL     1      14.052  -1.132 195.370  1.00  0.00    -0.265 OA
BRANCH  17  19
HETATM   19  C2  UNL     1      15.023  -0.953 197.576  1.00  0.00     0.106 C 
HETATM   20  C1  UNL     1      13.863  -1.685 198.168  1.00  0.00     0.015 C 
ENDBRANCH  17  19
ENDBRANCH  16  17
ENDBRANCH   1  16
BRANCH  11  21
HETATM   21  O5  UNL     1      13.475   5.539 195.015  1.00  0.00    -0.357 OA
ATOM     22  H5  UNL     1      14.297   5.236 194.649  1.00  0.00     0.217 HD
ENDBRANCH  11  21
BRANCH   7  23
HETATM   23  O3  UNL     1      12.741   5.182 200.435  1.00  0.00    -0.359 OA
ATOM     24  H3  UNL     1      12.241   4.444 200.764  1.00  0.00     0.217 HD
ENDBRANCH   7  23
BRANCH  10  25
HETATM   25  O4  UNL     1      12.669   7.807 196.447  1.00  0.00    -0.357 OA
ATOM     26  H4  UNL     1      12.054   7.848 195.724  1.00  0.00     0.217 HD
ENDBRANCH  10  25
TORSDOF 6
ENDMDL
MODEL 4
REMARK VINA RESULT: -6.926446919      2.013      6.203
REMARK  6 active torsions:
REMARK  status: ('A' for Active; 'I' for Inactive)
REMARK    1  A    between atoms: C2_2  and  C3_3 
REMARK    2  A    between atoms: C3_3  and  O2_5 
REMARK    3  A    between atoms: O2_5  and  C4_6 
REMARK    4  A    between atoms: C10_12  and  O3_13 
REMARK    5  A    between atoms: C13_17  and  O4_18 
REMARK    6  A    between atoms: C14_20  and  O5_21 
ROOT
HETATM    1  C4  UNL     1      14.323   1.965 196.629  1.00  0.00     0.144 C 
HETATM    2  C5  UNL     1      12.999   1.498 197.199  1.00  0.00     0.038 C 
HETATM    3  C6  UNL     1      12.904   1.689 198.669  1.00  0.00    -0.012 C 
HETATM    4  C7  UNL     1      11.460   1.658 199.125  1.00  0.00     0.010 C 
HETATM    5  C8  UNL     1      13.561   2.950 199.168  1.00  0.00     0.046 C 
HETATM    6  C9  UNL     1      13.381   4.104 198.289  1.00  0.00    -0.014 A 
HETATM    7  C10 UNL     1      12.944   5.213 199.013  1.00  0.00     0.081 A 
HETATM    8  C11 UNL     1      12.704   6.422 198.406  1.00  0.00     0.008 A 
HETATM    9  C12 UNL     1      12.235   7.616 199.180  1.00  0.00     0.054 C 
HETATM   10  C13 UNL     1      12.893   6.571 197.034  1.00  0.00     0.108 A 
HETATM   11  C14 UNL     1      13.326   5.472 196.315  1.00  0.00     0.107 A 
HETATM   12  C15 UNL     1      13.567   4.252 196.931  1.00  0.00    -0.003 A 
HETATM   13  C16 UNL     1      14.026   3.251 195.904  1.00  0.00     0.010 C 
HETATM   14  C17 UNL     1      15.289   3.719 195.228  1.00  0.00     0.023 C 
HETATM   15  C18 UNL     1      12.953   3.066 194.849  1.00  0.00     0.023 C 
ENDROOT
BRANCH   1  16
HETATM   16  O2  UNL     1      14.890   1.024 195.764  1.00  0.00    -0.315 OA
BRANCH  16  17
HETATM   17  C3  UNL     1      14.592  -0.323 195.897  1.00  0.00     0.258 C 
HETATM   18  O1  UNL     1      14.729  -0.834 197.039  1.00  0.00    -0.265 OA
BRANCH  17  19
HETATM   19  C2  UNL     1      14.125  -1.138 194.718  1.00  0.00     0.106 C 
HETATM   20  C1  UNL     1      14.172  -0.253 193.515  1.00  0.00     0.015 C 
ENDBRANCH  17  19
ENDBRANCH  16  17
ENDBRANCH   1  16
BRANCH  11  21
HETATM   21  O5  UNL     1      13.514   5.609 194.966  1.00  0.00    -0.357 OA
ATOM     22  H5  UNL     1      12.761   5.809 194.422  1.00  0.00     0.217 HD
ENDBRANCH  11  21
BRANCH   7  23
HETATM   23  O3  UNL     1      12.758   5.065 200.367  1.00  0.00    -0.359 OA
ATOM     24  H3  UNL     1      12.154   5.657 200.801  1.00  0.00     0.217 HD
ENDBRANCH   7  23
BRANCH  10  25
HETATM   25  O4  UNL     1      12.638   7.809 196.462  1.00  0.00    -0.357 OA
ATOM     26  H4  UNL     1      12.464   7.850 195.528  1.00  0.00     0.217 HD
ENDBRANCH  10  25
TORSDOF 6
ENDMDL
MODEL 5
REMARK VINA RESULT: -6.488963382      1.500      5.775
REMARK  6 active torsions:
REMARK  status: ('A' for Active; 'I' for Inactive)
REMARK    1  A    between atoms: C2_2  and  C3_3 
REMARK    2  A    between atoms: C3_3  and  O2_5 
REMARK    3  A    between atoms: O2_5  and  C4_6 
REMARK    4  A    between atoms: C10_12  and  O3_13 
REMARK    5  A    between atoms: C13_17  and  O4_18 
REMARK    6  A    between atoms: C14_20  and  O5_21 
ROOT
HETATM    1  C4  UNL     1      13.509   1.270 195.822  1.00  0.00     0.144 C 
HETATM    2  C5  UNL     1      14.735   2.012 195.329  1.00  0.00     0.038 C 
HETATM    3  C6  UNL     1      14.400   3.268 194.612  1.00  0.00    -0.012 C 
HETATM    4  C7  UNL     1      15.600   4.190 194.548  1.00  0.00     0.010 C 
HETATM    5  C8  UNL     1      13.225   4.013 195.191  1.00  0.00     0.046 C 
HETATM    6  C9  UNL     1      13.169   3.993 196.652  1.00  0.00    -0.014 A 
HETATM    7  C10 UNL     1      12.979   5.280 197.155  1.00  0.00     0.081 A 
HETATM    8  C11 UNL     1      12.892   5.520 198.506  1.00  0.00     0.008 A 
HETATM    9  C12 UNL     1      12.688   6.900 199.051  1.00  0.00     0.054 C 
HETATM   10  C13 UNL     1      12.993   4.471 199.416  1.00  0.00     0.108 A 
HETATM   11  C14 UNL     1      13.182   3.194 198.917  1.00  0.00     0.107 A 
HETATM   12  C15 UNL     1      13.270   2.954 197.553  1.00  0.00    -0.003 A 
HETATM   13  C16 UNL     1      13.472   1.482 197.312  1.00  0.00     0.010 C 
HETATM   14  C17 UNL     1      12.325   0.685 197.878  1.00  0.00     0.023 C 
HETATM   15  C18 UNL     1      14.755   1.023 197.977  1.00  0.00     0.023 C 
ENDROOT
BRANCH   1  16
HETATM   16  O2  UNL     1      13.553  -0.093 195.513  1.00  0.00    -0.315 OA
BRANCH  16  17
HETATM   17  C3  UNL     1      14.363  -0.556 194.488  1.00  0.00     0.258 C 
HETATM   18  O1  UNL     1      15.292  -1.346 194.799  1.00  0.00    -0.265 OA
BRANCH  17  19
HETATM   19  C2  UNL     1      14.136  -0.126 193.061  1.00  0.00     0.106 C 
HETATM   20  C1  UNL     1      15.470   0.199 192.473  1.00  0.00     0.015 C 
ENDBRANCH  17  19
ENDBRANCH  16  17
ENDBRANCH   1  16
BRANCH  11  21
HETATM   21  O5  UNL     1      13.283   2.157 199.804  1.00  0.00    -0.357 OA
ATOM     22  H5  UNL     1      12.484   1.731 200.094  1.00  0.00     0.217 HD
ENDBRANCH  11  21
BRANCH   7  23
HETATM   23  O3  UNL     1      12.878   6.315 196.256  1.00  0.00    -0.359 OA
ATOM     24  H3  UNL     1      12.509   7.136 196.562  1.00  0.00     0.217 HD
ENDBRANCH   7  23
BRANCH  10  25
HETATM   25  O4  UNL     1      12.900   4.758 200.770  1.00  0.00    -0.357 OA
ATOM     26  H4  UNL     1      13.553   4.393 201.357  1.00  0.00     0.217 HD
ENDBRANCH  10  25
TORSDOF 6
ENDMDL
