MODEL 1
REMARK VINA RESULT: -7.191830765      0.000      0.000
REMARK  13 active torsions:
REMARK  status: ('A' for Active; 'I' for Inactive)
REMARK    1  A    between atoms: C6_6  and  O1_7 
REMARK    2  A    between atoms: O1_7  and  C7_8 
REMARK    3  A    between atoms: C7_8  and  C8_9 
REMARK    4  A    between atoms: C8_9  and  C9_10 
REMARK    5  A    between atoms: C9_10  and  N1_11 
REMARK    6  A    between atoms: N1_11  and  C10_13 
REMARK    7  A    between atoms: C12_18  and  N4_19 
REMARK    8  A    between atoms: C13_22  and  N5_23 
REMARK    9  A    between atoms: N5_23  and  N6_24 
REMARK   10  A    between atoms: C14_26  and  C15_27 
REMARK   11  A    between atoms: C18_31  and  N7_32 
REMARK   12  A    between atoms: N7_32  and  N8_34 
REMARK   13  A    between atoms: N8_34  and  N9_35 
ROOT
HETATM    1  C10 UNL     1      40.059 -24.797  28.016  1.00  0.00     0.685 A 
HETATM    2  N2  UNL     1      40.984 -24.962  28.967  1.00  0.00    -0.176 N 
ATOM      3  H2  UNL     1      41.316 -25.903  29.181  1.00  0.00     0.185 HD
HETATM    4  C11 UNL     1      41.492 -23.905  29.657  1.00  0.00     0.170 A 
HETATM    5  N3  UNL     1      42.472 -24.181  30.646  1.00  0.00    -0.079 NA
HETATM    6  C12 UNL     1      41.056 -22.640  29.382  1.00  0.00     0.204 A 
HETATM    7  C13 UNL     1      40.086 -22.474  28.382  1.00  0.00     0.254 A 
HETATM    8  N10 UNL     1      39.622 -23.553  27.734  1.00  0.00    -0.160 N 
ATOM      9  H10 UNL     1      38.917 -23.430  27.006  1.00  0.00     0.187 HD
ENDROOT
BRANCH   7  10
HETATM   10  N5  UNL     1      39.676 -21.379  28.125  1.00  0.00    -0.304 NA
BRANCH  10  11
HETATM   11  N6  UNL     1      39.237 -20.205  27.849  1.00  0.00    -0.244 N 
HETATM   12  C14 UNL     1      39.921 -19.105  27.724  1.00  0.00     0.134 C 
ATOM     13  H6  UNL     1      38.230 -20.125  27.711  1.00  0.00     0.201 HD
BRANCH  12  14
HETATM   14  C15 UNL     1      39.348 -17.815  27.411  1.00  0.00     0.005 A 
HETATM   15  C16 UNL     1      39.515 -17.254  26.138  1.00  0.00     0.036 A 
HETATM   16  C17 UNL     1      38.988 -16.026  25.809  1.00  0.00     0.041 A 
HETATM   17 BR1  UNL     1      39.297 -15.379  24.035  1.00  0.00    -0.049 Br
HETATM   18  C18 UNL     1      38.269 -15.310  26.742  1.00  0.00     0.081 A 
HETATM   19  C19 UNL     1      38.101 -15.858  27.997  1.00  0.00     0.058 A 
HETATM   20  C20 UNL     1      38.634 -17.103  28.337  1.00  0.00     0.048 A 
HETATM   21 CL1  UNL     1      38.389 -17.760  29.963  1.00  0.00    -0.083 Cl
BRANCH  18  22
HETATM   22  N7  UNL     1      37.752 -14.049  26.347  1.00  0.00    -0.215 N 
ATOM     23  H7  UNL     1      38.108 -13.591  25.507  1.00  0.00     0.204 HD
BRANCH  22  24
HETATM   24  N8  UNL     1      36.874 -13.509  27.017  1.00  0.00    -0.243 NA
BRANCH  24  25
HETATM   25  N9  UNL     1      36.071 -12.871  27.736  1.00  0.00    -0.260 N 
ATOM     26  H92 UNL     1      36.144 -12.191  26.978  1.00  0.00     0.193 HD
ATOM     27  H91 UNL     1      35.422 -12.433  28.390  1.00  0.00     0.193 HD
ENDBRANCH  24  25
ENDBRANCH  22  24
ENDBRANCH  18  22
ENDBRANCH  12  14
ENDBRANCH  10  11
ENDBRANCH   7  10
BRANCH   6  28
HETATM   28  N4  UNL     1      41.563 -21.513  30.081  1.00  0.00    -0.107 N 
HETATM   29  O2  UNL     1      42.574 -20.891  29.710  1.00  0.00    -0.531 OA
HETATM   30  O3  UNL     1      40.900 -21.100  31.210  1.00  0.00    -0.531 OA
ENDBRANCH   6  28
BRANCH   1  31
HETATM   31  N1  UNL     1      39.556 -25.736  27.346  1.00  0.00    -0.205 N 
ATOM     32  H1  UNL     1      38.926 -26.311  27.907  1.00  0.00     0.183 HD
BRANCH  31  33
HETATM   33  C9  UNL     1      39.641 -26.188  26.035  1.00  0.00     0.081 C 
BRANCH  33  34
HETATM   34  C8  UNL     1      38.430 -25.975  25.153  1.00  0.00     0.072 C 
BRANCH  34  35
HETATM   35  C7  UNL     1      38.515 -24.682  24.369  1.00  0.00     0.181 C 
BRANCH  35  36
HETATM   36  O1  UNL     1      38.346 -23.596  25.247  1.00  0.00    -0.350 OA
BRANCH  36  37
HETATM   37  C6  UNL     1      37.984 -22.320  24.843  1.00  0.00     0.080 A 
HETATM   38  C4  UNL     1      36.627 -21.974  24.762  1.00  0.00    -0.028 A 
HETATM   39  C3  UNL     1      36.218 -20.733  24.369  1.00  0.00     0.016 A 
HETATM   40  C5  UNL     1      35.621 -23.001  25.123  1.00  0.00     0.051 C 
HETATM   41  C2  UNL     1      37.124 -19.751  24.029  1.00  0.00    -0.061 A 
HETATM   42  C1  UNL     1      36.673 -18.388  23.597  1.00  0.00     0.048 C 
HETATM   43  C23 UNL     1      38.461 -20.066  24.100  1.00  0.00     0.016 A 
HETATM   44  C21 UNL     1      38.885 -21.337  24.502  1.00  0.00    -0.028 A 
HETATM   45  C22 UNL     1      40.335 -21.618  24.562  1.00  0.00     0.051 C 
ENDBRANCH  36  37
ENDBRANCH  35  36
ENDBRANCH  34  35
ENDBRANCH  33  34
ENDBRANCH  31  33
ENDBRANCH   1  31
TORSDOF 13
ENDMDL
MODEL 2
REMARK VINA RESULT: -6.986783000      3.291      7.751
REMARK  13 active torsions:
REMARK  status: ('A' for Active; 'I' for Inactive)
REMARK    1  A    between atoms: C6_6  and  O1_7 
REMARK    2  A    between atoms: O1_7  and  C7_8 
REMARK    3  A    between atoms: C7_8  and  C8_9 
REMARK    4  A    between atoms: C8_9  and  C9_10 
REMARK    5  A    between atoms: C9_10  and  N1_11 
REMARK    6  A    between atoms: N1_11  and  C10_13 
REMARK    7  A    between atoms: C12_18  and  N4_19 
REMARK    8  A    between atoms: C13_22  and  N5_23 
REMARK    9  A    between atoms: N5_23  and  N6_24 
REMARK   10  A    between atoms: C14_26  and  C15_27 
REMARK   11  A    between atoms: C18_31  and  N7_32 
REMARK   12  A    between atoms: N7_32  and  N8_34 
REMARK   13  A    between atoms: N8_34  and  N9_35 
ROOT
HETATM    1  C10 UNL     1      38.502 -15.369  25.143  1.00  0.00     0.685 A 
HETATM    2  N2  UNL     1      37.585 -14.635  25.782  1.00  0.00    -0.176 N 
ATOM      3  H2  UNL     1      37.184 -13.822  25.314  1.00  0.00     0.185 HD
HETATM    4  C11 UNL     1      37.175 -14.947  27.041  1.00  0.00     0.170 A 
HETATM    5  N3  UNL     1      36.195 -14.109  27.634  1.00  0.00    -0.079 NA
HETATM    6  C12 UNL     1      37.704 -16.033  27.680  1.00  0.00     0.204 A 
HETATM    7  C13 UNL     1      38.666 -16.798  27.003  1.00  0.00     0.254 A 
HETATM    8  N10 UNL     1      39.031 -16.444  25.762  1.00  0.00    -0.160 N 
ATOM      9  H10 UNL     1      39.730 -17.003  25.273  1.00  0.00     0.187 HD
ENDROOT
BRANCH   7  10
HETATM   10  N5  UNL     1      39.155 -17.749  27.541  1.00  0.00    -0.304 NA
BRANCH  10  11
HETATM   11  N6  UNL     1      39.680 -18.769  28.116  1.00  0.00    -0.244 N 
HETATM   12  C14 UNL     1      40.609 -19.557  27.657  1.00  0.00     0.134 C 
ATOM     13  H6  UNL     1      39.327 -18.988  29.048  1.00  0.00     0.201 HD
BRANCH  12  14
HETATM   14  C15 UNL     1      41.149 -20.691  28.372  1.00  0.00     0.005 A 
HETATM   15  C16 UNL     1      42.327 -20.564  29.120  1.00  0.00     0.036 A 
HETATM   16  C17 UNL     1      42.871 -21.624  29.808  1.00  0.00     0.041 A 
HETATM   17 BR1  UNL     1      44.486 -21.309  30.784  1.00  0.00    -0.049 Br
HETATM   18  C18 UNL     1      42.256 -22.857  29.775  1.00  0.00     0.081 A 
HETATM   19  C19 UNL     1      41.095 -22.988  29.041  1.00  0.00     0.058 A 
HETATM   20  C20 UNL     1      40.539 -21.916  28.341  1.00  0.00     0.048 A 
HETATM   21 CL1  UNL     1      39.047 -22.139  27.413  1.00  0.00    -0.083 Cl
BRANCH  18  22
HETATM   22  N7  UNL     1      42.864 -23.915  30.501  1.00  0.00    -0.215 N 
ATOM     23  H7  UNL     1      42.821 -23.925  31.520  1.00  0.00     0.204 HD
BRANCH  22  24
HETATM   24  N8  UNL     1      43.442 -24.818  29.900  1.00  0.00    -0.243 NA
BRANCH  24  25
HETATM   25  N9  UNL     1      43.933 -25.731  29.198  1.00  0.00    -0.260 N 
ATOM     26  H92 UNL     1      43.314 -26.314  29.762  1.00  0.00     0.193 HD
ATOM     27  H91 UNL     1      44.392 -26.399  28.578  1.00  0.00     0.193 HD
ENDBRANCH  24  25
ENDBRANCH  22  24
ENDBRANCH  18  22
ENDBRANCH  12  14
ENDBRANCH  10  11
ENDBRANCH   7  10
BRANCH   6  28
HETATM   28  N4  UNL     1      37.301 -16.388  28.994  1.00  0.00    -0.107 N 
HETATM   29  O2  UNL     1      36.513 -17.322  29.225  1.00  0.00    -0.531 OA
HETATM   30  O3  UNL     1      37.810 -15.667  30.044  1.00  0.00    -0.531 OA
ENDBRANCH   6  28
BRANCH   1  31
HETATM   31  N1  UNL     1      38.918 -15.129  23.979  1.00  0.00    -0.205 N 
ATOM     32  H1  UNL     1      38.585 -14.229  23.633  1.00  0.00     0.183 HD
BRANCH  31  33
HETATM   33  C9  UNL     1      39.715 -15.780  23.047  1.00  0.00     0.081 C 
BRANCH  33  34
HETATM   34  C8  UNL     1      39.086 -16.109  21.711  1.00  0.00     0.072 C 
BRANCH  34  35
HETATM   35  C7  UNL     1      38.514 -17.511  21.678  1.00  0.00     0.181 C 
BRANCH  35  36
HETATM   36  O1  UNL     1      37.822 -17.759  22.876  1.00  0.00    -0.350 OA
BRANCH  36  37
HETATM   37  C6  UNL     1      37.310 -18.995  23.236  1.00  0.00     0.080 A 
HETATM   38  C4  UNL     1      35.985 -19.321  22.909  1.00  0.00    -0.028 A 
HETATM   39  C3  UNL     1      35.432 -20.524  23.241  1.00  0.00     0.016 A 
HETATM   40  C5  UNL     1      35.178 -18.317  22.177  1.00  0.00     0.051 C 
HETATM   41  C2  UNL     1      36.152 -21.485  23.918  1.00  0.00    -0.061 A 
HETATM   42  C1  UNL     1      35.543 -22.806  24.282  1.00  0.00     0.048 C 
HETATM   43  C23 UNL     1      37.454 -21.188  24.249  1.00  0.00     0.016 A 
HETATM   44  C21 UNL     1      38.025 -19.957  23.913  1.00  0.00    -0.028 A 
HETATM   45  C22 UNL     1      39.429 -19.695  24.293  1.00  0.00     0.051 C 
ENDBRANCH  36  37
ENDBRANCH  35  36
ENDBRANCH  34  35
ENDBRANCH  33  34
ENDBRANCH  31  33
ENDBRANCH   1  31
TORSDOF 13
ENDMDL
MODEL 3
REMARK VINA RESULT: -6.959797285      3.292      7.834
REMARK  13 active torsions:
REMARK  status: ('A' for Active; 'I' for Inactive)
REMARK    1  A    between atoms: C6_6  and  O1_7 
REMARK    2  A    between atoms: O1_7  and  C7_8 
REMARK    3  A    between atoms: C7_8  and  C8_9 
REMARK    4  A    between atoms: C8_9  and  C9_10 
REMARK    5  A    between atoms: C9_10  and  N1_11 
REMARK    6  A    between atoms: N1_11  and  C10_13 
REMARK    7  A    between atoms: C12_18  and  N4_19 
REMARK    8  A    between atoms: C13_22  and  N5_23 
REMARK    9  A    between atoms: N5_23  and  N6_24 
REMARK   10  A    between atoms: C14_26  and  C15_27 
REMARK   11  A    between atoms: C18_31  and  N7_32 
REMARK   12  A    between atoms: N7_32  and  N8_34 
REMARK   13  A    between atoms: N8_34  and  N9_35 
ROOT
HETATM    1  C10 UNL     1      38.423 -15.323  25.192  1.00  0.00     0.685 A 
HETATM    2  N2  UNL     1      37.571 -14.548  25.870  1.00  0.00    -0.176 N 
ATOM      3  H2  UNL     1      37.181 -13.722  25.416  1.00  0.00     0.185 HD
HETATM    4  C11 UNL     1      37.212 -14.835  27.151  1.00  0.00     0.170 A 
HETATM    5  N3  UNL     1      36.300 -13.953  27.786  1.00  0.00    -0.079 NA
HETATM    6  C12 UNL     1      37.728 -15.938  27.772  1.00  0.00     0.204 A 
HETATM    7  C13 UNL     1      38.622 -16.747  27.054  1.00  0.00     0.254 A 
HETATM    8  N10 UNL     1      38.938 -16.415  25.793  1.00  0.00    -0.160 N 
ATOM      9  H10 UNL     1      39.587 -17.006  25.273  1.00  0.00     0.187 HD
ENDROOT
BRANCH   7  10
HETATM   10  N5  UNL     1      39.098 -17.714  27.573  1.00  0.00    -0.304 NA
BRANCH  10  11
HETATM   11  N6  UNL     1      39.608 -18.751  28.130  1.00  0.00    -0.244 N 
HETATM   12  C14 UNL     1      40.548 -19.525  27.671  1.00  0.00     0.134 C 
ATOM     13  H6  UNL     1      39.231 -19.000  29.045  1.00  0.00     0.201 HD
BRANCH  12  14
HETATM   14  C15 UNL     1      41.070 -20.682  28.364  1.00  0.00     0.005 A 
HETATM   15  C16 UNL     1      42.233 -20.580  29.138  1.00  0.00     0.036 A 
HETATM   16  C17 UNL     1      42.760 -21.662  29.806  1.00  0.00     0.041 A 
HETATM   17 BR1  UNL     1      44.355 -21.380  30.824  1.00  0.00    -0.049 Br
HETATM   18  C18 UNL     1      42.141 -22.891  29.726  1.00  0.00     0.081 A 
HETATM   19  C19 UNL     1      40.995 -22.997  28.965  1.00  0.00     0.058 A 
HETATM   20  C20 UNL     1      40.457 -21.903  28.286  1.00  0.00     0.048 A 
HETATM   21 CL1  UNL     1      38.983 -22.094  27.321  1.00  0.00    -0.083 Cl
BRANCH  18  22
HETATM   22  N7  UNL     1      42.731 -23.971  30.434  1.00  0.00    -0.215 N 
ATOM     23  H7  UNL     1      42.692 -23.996  31.453  1.00  0.00     0.204 HD
BRANCH  22  24
HETATM   24  N8  UNL     1      43.289 -24.876  29.816  1.00  0.00    -0.243 NA
BRANCH  24  25
HETATM   25  N9  UNL     1      43.737 -25.842  29.157  1.00  0.00    -0.260 N 
ATOM     26  H92 UNL     1      42.745 -26.026  29.008  1.00  0.00     0.193 HD
ATOM     27  H91 UNL     1      44.200 -26.595  28.647  1.00  0.00     0.193 HD
ENDBRANCH  24  25
ENDBRANCH  22  24
ENDBRANCH  18  22
ENDBRANCH  12  14
ENDBRANCH  10  11
ENDBRANCH   7  10
BRANCH   6  28
HETATM   28  N4  UNL     1      37.377 -16.268  29.107  1.00  0.00    -0.107 N 
HETATM   29  O2  UNL     1      37.847 -15.669  30.091  1.00  0.00    -0.531 OA
HETATM   30  O3  UNL     1      36.482 -17.288  29.308  1.00  0.00    -0.531 OA
ENDBRANCH   6  28
BRANCH   1  31
HETATM   31  N1  UNL     1      38.789 -15.108  24.007  1.00  0.00    -0.205 N 
ATOM     32  H1  UNL     1      38.310 -14.304  23.600  1.00  0.00     0.183 HD
BRANCH  31  33
HETATM   33  C9  UNL     1      39.679 -15.688  23.113  1.00  0.00     0.081 C 
BRANCH  33  34
HETATM   34  C8  UNL     1      39.124 -16.135  21.779  1.00  0.00     0.072 C 
BRANCH  34  35
HETATM   35  C7  UNL     1      38.697 -17.589  21.795  1.00  0.00     0.181 C 
BRANCH  35  36
HETATM   36  O1  UNL     1      37.855 -17.813  22.899  1.00  0.00    -0.350 OA
BRANCH  36  37
HETATM   37  C6  UNL     1      37.186 -19.003  23.136  1.00  0.00     0.080 A 
HETATM   38  C4  UNL     1      37.824 -20.030  23.847  1.00  0.00    -0.028 A 
HETATM   39  C3  UNL     1      37.210 -21.221  24.106  1.00  0.00     0.016 A 
HETATM   40  C5  UNL     1      39.205 -19.794  24.328  1.00  0.00     0.051 C 
HETATM   41  C2  UNL     1      35.925 -21.476  23.679  1.00  0.00    -0.061 A 
HETATM   42  C1  UNL     1      35.251 -22.786  23.963  1.00  0.00     0.048 C 
HETATM   43  C23 UNL     1      35.279 -20.484  22.979  1.00  0.00     0.016 A 
HETATM   44  C21 UNL     1      35.903 -19.262  22.710  1.00  0.00    -0.028 A 
HETATM   45  C22 UNL     1      35.158 -18.232  21.956  1.00  0.00     0.051 C 
ENDBRANCH  36  37
ENDBRANCH  35  36
ENDBRANCH  34  35
ENDBRANCH  33  34
ENDBRANCH  31  33
ENDBRANCH   1  31
TORSDOF 13
ENDMDL
MODEL 4
REMARK VINA RESULT: -6.929838040      1.479      2.259
REMARK  13 active torsions:
REMARK  status: ('A' for Active; 'I' for Inactive)
REMARK    1  A    between atoms: C6_6  and  O1_7 
REMARK    2  A    between atoms: O1_7  and  C7_8 
REMARK    3  A    between atoms: C7_8  and  C8_9 
REMARK    4  A    between atoms: C8_9  and  C9_10 
REMARK    5  A    between atoms: C9_10  and  N1_11 
REMARK    6  A    between atoms: N1_11  and  C10_13 
REMARK    7  A    between atoms: C12_18  and  N4_19 
REMARK    8  A    between atoms: C13_22  and  N5_23 
REMARK    9  A    between atoms: N5_23  and  N6_24 
REMARK   10  A    between atoms: C14_26  and  C15_27 
REMARK   11  A    between atoms: C18_31  and  N7_32 
REMARK   12  A    between atoms: N7_32  and  N8_34 
REMARK   13  A    between atoms: N8_34  and  N9_35 
ROOT
HETATM    1  C10 UNL     1      40.105 -24.764  28.104  1.00  0.00     0.685 A 
HETATM    2  N2  UNL     1      41.036 -24.903  29.053  1.00  0.00    -0.176 N 
ATOM      3  H2  UNL     1      41.375 -25.837  29.285  1.00  0.00     0.185 HD
HETATM    4  C11 UNL     1      41.541 -23.828  29.718  1.00  0.00     0.170 A 
HETATM    5  N3  UNL     1      42.528 -24.077  30.707  1.00  0.00    -0.079 NA
HETATM    6  C12 UNL     1      41.096 -22.572  29.418  1.00  0.00     0.204 A 
HETATM    7  C13 UNL     1      40.119 -22.434  28.420  1.00  0.00     0.254 A 
HETATM    8  N10 UNL     1      39.658 -23.530  27.798  1.00  0.00    -0.160 N 
ATOM      9  H10 UNL     1      38.949 -23.426  27.072  1.00  0.00     0.187 HD
ENDROOT
BRANCH   7  10
HETATM   10  N5  UNL     1      39.701 -21.347  28.142  1.00  0.00    -0.304 NA
BRANCH  10  11
HETATM   11  N6  UNL     1      39.253 -20.183  27.844  1.00  0.00    -0.244 N 
HETATM   12  C14 UNL     1      39.898 -19.053  27.848  1.00  0.00     0.134 C 
ATOM     13  H6  UNL     1      38.271 -20.137  27.569  1.00  0.00     0.201 HD
BRANCH  12  14
HETATM   14  C15 UNL     1      39.318 -17.776  27.497  1.00  0.00     0.005 A 
HETATM   15  C16 UNL     1      39.516 -17.233  26.221  1.00  0.00     0.036 A 
HETATM   16  C17 UNL     1      38.982 -16.018  25.856  1.00  0.00     0.041 A 
HETATM   17 BR1  UNL     1      39.335 -15.396  24.081  1.00  0.00    -0.049 Br
HETATM   18  C18 UNL     1      38.227 -15.297  26.755  1.00  0.00     0.081 A 
HETATM   19  C19 UNL     1      38.029 -15.827  28.014  1.00  0.00     0.058 A 
HETATM   20  C20 UNL     1      38.568 -17.059  28.389  1.00  0.00     0.048 A 
HETATM   21 CL1  UNL     1      38.284 -17.693  30.019  1.00  0.00    -0.083 Cl
BRANCH  18  22
HETATM   22  N7  UNL     1      37.705 -14.049  26.325  1.00  0.00    -0.215 N 
ATOM     23  H7  UNL     1      38.053 -13.618  25.468  1.00  0.00     0.204 HD
BRANCH  22  24
HETATM   24  N8  UNL     1      36.833 -13.489  26.985  1.00  0.00    -0.243 NA
BRANCH  24  25
HETATM   25  N9  UNL     1      36.041 -12.868  27.732  1.00  0.00    -0.260 N 
ATOM     26  H92 UNL     1      36.910 -12.508  28.127  1.00  0.00     0.193 HD
ATOM     27  H91 UNL     1      35.317 -12.411  28.286  1.00  0.00     0.193 HD
ENDBRANCH  24  25
ENDBRANCH  22  24
ENDBRANCH  18  22
ENDBRANCH  12  14
ENDBRANCH  10  11
ENDBRANCH   7  10
BRANCH   6  28
HETATM   28  N4  UNL     1      41.598 -21.428  30.091  1.00  0.00    -0.107 N 
HETATM   29  O2  UNL     1      42.626 -20.831  29.723  1.00  0.00    -0.531 OA
HETATM   30  O3  UNL     1      40.913 -20.968  31.187  1.00  0.00    -0.531 OA
ENDBRANCH   6  28
BRANCH   1  31
HETATM   31  N1  UNL     1      39.604 -25.721  27.457  1.00  0.00    -0.205 N 
ATOM     32  H1  UNL     1      38.585 -25.725  27.509  1.00  0.00     0.183 HD
BRANCH  31  33
HETATM   33  C9  UNL     1      40.088 -26.772  26.689  1.00  0.00     0.081 C 
BRANCH  33  34
HETATM   34  C8  UNL     1      40.303 -26.507  25.215  1.00  0.00     0.072 C 
BRANCH  34  35
HETATM   35  C7  UNL     1      39.055 -26.769  24.399  1.00  0.00     0.181 C 
BRANCH  35  36
HETATM   36  O1  UNL     1      37.938 -26.250  25.079  1.00  0.00    -0.350 OA
BRANCH  36  37
HETATM   37  C6  UNL     1      36.927 -25.524  24.470  1.00  0.00     0.080 A 
HETATM   38  C4  UNL     1      35.753 -26.174  24.061  1.00  0.00    -0.028 A 
HETATM   39  C3  UNL     1      34.728 -25.505  23.456  1.00  0.00     0.016 A 
HETATM   40  C5  UNL     1      35.639 -27.631  24.306  1.00  0.00     0.051 C 
HETATM   41  C2  UNL     1      34.796 -24.150  23.216  1.00  0.00    -0.061 A 
HETATM   42  C1  UNL     1      33.670 -23.416  22.551  1.00  0.00     0.048 C 
HETATM   43  C23 UNL     1      35.938 -23.490  23.608  1.00  0.00     0.016 A 
HETATM   44  C21 UNL     1      36.991 -24.170  24.228  1.00  0.00    -0.028 A 
HETATM   45  C22 UNL     1      38.192 -23.409  24.630  1.00  0.00     0.051 C 
ENDBRANCH  36  37
ENDBRANCH  35  36
ENDBRANCH  34  35
ENDBRANCH  33  34
ENDBRANCH  31  33
ENDBRANCH   1  31
TORSDOF 13
ENDMDL
MODEL 5
REMARK VINA RESULT: -6.846902157      3.944      7.897
REMARK  13 active torsions:
REMARK  status: ('A' for Active; 'I' for Inactive)
REMARK    1  A    between atoms: C6_6  and  O1_7 
REMARK    2  A    between atoms: O1_7  and  C7_8 
REMARK    3  A    between atoms: C7_8  and  C8_9 
REMARK    4  A    between atoms: C8_9  and  C9_10 
REMARK    5  A    between atoms: C9_10  and  N1_11 
REMARK    6  A    between atoms: N1_11  and  C10_13 
REMARK    7  A    between atoms: C12_18  and  N4_19 
REMARK    8  A    between atoms: C13_22  and  N5_23 
REMARK    9  A    between atoms: N5_23  and  N6_24 
REMARK   10  A    between atoms: C14_26  and  C15_27 
REMARK   11  A    between atoms: C18_31  and  N7_32 
REMARK   12  A    between atoms: N7_32  and  N8_34 
REMARK   13  A    between atoms: N8_34  and  N9_35 
ROOT
HETATM    1  C10 UNL     1      37.316 -17.458  28.458  1.00  0.00     0.685 A 
HETATM    2  N2  UNL     1      38.277 -17.631  29.371  1.00  0.00    -0.176 N 
ATOM      3  H2  UNL     1      38.469 -16.885  30.039  1.00  0.00     0.185 HD
HETATM    4  C11 UNL     1      39.005 -18.780  29.429  1.00  0.00     0.170 A 
HETATM    5  N3  UNL     1      40.002 -18.870  30.435  1.00  0.00    -0.079 NA
HETATM    6  C12 UNL     1      38.758 -19.787  28.540  1.00  0.00     0.204 A 
HETATM    7  C13 UNL     1      37.748 -19.598  27.585  1.00  0.00     0.254 A 
HETATM    8  N10 UNL     1      37.062 -18.446  27.576  1.00  0.00    -0.160 N 
ATOM      9  H10 UNL     1      36.327 -18.312  26.881  1.00  0.00     0.187 HD
ENDROOT
BRANCH   7  10
HETATM   10  N5  UNL     1      37.515 -20.459  26.786  1.00  0.00    -0.304 NA
BRANCH  10  11
HETATM   11  N6  UNL     1      37.266 -21.382  25.930  1.00  0.00    -0.244 N 
HETATM   12  C14 UNL     1      36.124 -21.954  25.681  1.00  0.00     0.134 C 
ATOM     13  H6  UNL     1      38.060 -21.706  25.377  1.00  0.00     0.201 HD
BRANCH  12  14
HETATM   14  C15 UNL     1      35.925 -22.992  24.695  1.00  0.00     0.005 A 
HETATM   15  C16 UNL     1      36.504 -24.257  24.868  1.00  0.00     0.036 A 
HETATM   16  C17 UNL     1      36.338 -25.266  23.947  1.00  0.00     0.041 A 
HETATM   17 BR1  UNL     1      37.188 -26.941  24.311  1.00  0.00    -0.049 Br
HETATM   18  C18 UNL     1      35.587 -25.049  22.813  1.00  0.00     0.081 A 
HETATM   19  C19 UNL     1      35.015 -23.806  22.637  1.00  0.00     0.058 A 
HETATM   20  C20 UNL     1      35.179 -22.779  23.568  1.00  0.00     0.048 A 
HETATM   21 CL1  UNL     1      34.423 -21.200  23.292  1.00  0.00    -0.083 Cl
BRANCH  18  22
HETATM   22  N7  UNL     1      35.454 -26.125  21.897  1.00  0.00    -0.215 N 
ATOM     23  H7  UNL     1      35.993 -26.127  21.031  1.00  0.00     0.204 HD
BRANCH  22  24
HETATM   24  N8  UNL     1      34.688 -27.053  22.148  1.00  0.00    -0.243 NA
BRANCH  24  25
HETATM   25  N9  UNL     1      33.995 -28.037  22.496  1.00  0.00    -0.260 N 
ATOM     26  H92 UNL     1      34.473 -28.480  21.711  1.00  0.00     0.193 HD
ATOM     27  H91 UNL     1      33.391 -28.775  22.857  1.00  0.00     0.193 HD
ENDBRANCH  24  25
ENDBRANCH  22  24
ENDBRANCH  18  22
ENDBRANCH  12  14
ENDBRANCH  10  11
ENDBRANCH   7  10
BRANCH   6  28
HETATM   28  N4  UNL     1      39.498 -20.999  28.570  1.00  0.00    -0.107 N 
HETATM   29  O2  UNL     1      39.198 -21.950  29.313  1.00  0.00    -0.531 OA
HETATM   30  O3  UNL     1      40.583 -21.115  27.738  1.00  0.00    -0.531 OA
ENDBRANCH   6  28
BRANCH   1  31
HETATM   31  N1  UNL     1      36.611 -16.419  28.358  1.00  0.00    -0.205 N 
ATOM     32  H1  UNL     1      35.631 -16.602  28.575  1.00  0.00     0.183 HD
BRANCH  31  33
HETATM   33  C9  UNL     1      36.831 -15.088  28.029  1.00  0.00     0.081 C 
BRANCH  33  34
HETATM   34  C8  UNL     1      38.034 -14.782  27.165  1.00  0.00     0.072 C 
BRANCH  34  35
HETATM   35  C7  UNL     1      37.805 -15.147  25.713  1.00  0.00     0.181 C 
BRANCH  35  36
HETATM   36  O1  UNL     1      38.151 -16.495  25.513  1.00  0.00    -0.350 OA
BRANCH  36  37
HETATM   37  C6  UNL     1      38.714 -16.987  24.347  1.00  0.00     0.080 A 
HETATM   38  C4  UNL     1      37.991 -17.890  23.553  1.00  0.00    -0.028 A 
HETATM   39  C3  UNL     1      38.501 -18.406  22.396  1.00  0.00     0.016 A 
HETATM   40  C5  UNL     1      36.634 -18.282  23.998  1.00  0.00     0.051 C 
HETATM   41  C2  UNL     1      39.758 -18.062  21.947  1.00  0.00    -0.061 A 
HETATM   42  C1  UNL     1      40.316 -18.629  20.676  1.00  0.00     0.048 C 
HETATM   43  C23 UNL     1      40.485 -17.177  22.709  1.00  0.00     0.016 A 
HETATM   44  C21 UNL     1      39.969 -16.647  23.895  1.00  0.00    -0.028 A 
HETATM   45  C22 UNL     1      40.796 -15.699  24.671  1.00  0.00     0.051 C 
ENDBRANCH  36  37
ENDBRANCH  35  36
ENDBRANCH  34  35
ENDBRANCH  33  34
ENDBRANCH  31  33
ENDBRANCH   1  31
TORSDOF 13
ENDMDL
