MODEL 1
REMARK VINA RESULT: -8.599558830      0.000      0.000
REMARK  16 active torsions:
REMARK  status: ('A' for Active; 'I' for Inactive)
REMARK    1  A    between atoms: C2_2  and  C3_3 
REMARK    2  A    between atoms: C3_3  and  C4_4 
REMARK    3  A    between atoms: C4_4  and  C5_5 
REMARK    4  A    between atoms: C5_5  and  O1_6 
REMARK    5  A    between atoms: O1_6  and  C6_7 
REMARK    6  A    between atoms: C6_7  and  O3_9 
REMARK    7  A    between atoms: O3_9  and  C7_10 
REMARK    8  A    between atoms: C7_10  and  C8_11 
REMARK    9  A    between atoms: C10_13  and  O4_14 
REMARK   10  A    between atoms: N1_18  and  O5_20 
REMARK   11  A    between atoms: O5_20  and  C13_21 
REMARK   12  A    between atoms: C13_21  and  C14_22 
REMARK   13  A    between atoms: C14_22  and  O6_23 
REMARK   14  A    between atoms: C14_22  and  N2_25 
REMARK   15  A    between atoms: N2_25  and  C15_26 
REMARK   16  A    between atoms: C26_39  and  O7_40 
ROOT
HETATM    1  C8  UNL     1      37.516 -22.219  24.076  1.00  0.00     0.028 C 
HETATM    2  C9  UNL     1      36.416 -21.194  24.156  1.00  0.00     0.056 C 
HETATM    3  C10 UNL     1      36.505 -20.370  25.378  1.00  0.00     0.131 C 
HETATM    4  C11 UNL     1      37.734 -20.092  26.086  1.00  0.00     0.091 C 
HETATM    5  C12 UNL     1      38.670 -19.091  25.545  1.00  0.00     0.041 C 
HETATM    6  N1  UNL     1      39.064 -18.173  26.416  1.00  0.00    -0.270 N 
ATOM      7  H1  UNL     1      38.685 -18.244  27.360  1.00  0.00     0.194 HD
HETATM    8  C21 UNL     1      39.196 -18.955  24.203  1.00  0.00    -0.034 C 
HETATM    9  C22 UNL     1      38.389 -18.185  23.281  1.00  0.00     0.005 C 
HETATM   10  C23 UNL     1      36.970 -18.080  23.109  1.00  0.00    -0.019 C 
HETATM   11  C24 UNL     1      35.903 -19.009  22.975  1.00  0.00     0.039 C 
HETATM   12  C25 UNL     1      35.214 -18.582  21.631  1.00  0.00     0.017 C 
HETATM   13  C26 UNL     1      35.961 -20.496  22.915  1.00  0.00     0.071 C 
HETATM   14  C27 UNL     1      36.403 -21.089  21.638  1.00  0.00     0.040 C 
HETATM   15  C28 UNL     1      37.364 -22.247  21.671  1.00  0.00     0.012 C 
HETATM   16  C29 UNL     1      38.350 -22.115  22.851  1.00  0.00    -0.037 C 
HETATM   17  C30 UNL     1      39.286 -23.291  22.690  1.00  0.00     0.015 C 
HETATM   18  C31 UNL     1      39.127 -20.880  22.583  1.00  0.00     0.014 C 
HETATM   19  C32 UNL     1      39.874 -20.187  23.621  1.00  0.00     0.041 C 
ENDROOT
BRANCH   6  20
HETATM   20  O5  UNL     1      39.866 -17.215  26.192  1.00  0.00    -0.271 OA
BRANCH  20  21
HETATM   21  C13 UNL     1      40.131 -15.941  25.860  1.00  0.00     0.301 C 
BRANCH  21  22
HETATM   22  C14 UNL     1      38.791 -15.249  25.530  1.00  0.00     0.216 C 
BRANCH  22  23
HETATM   23  O6  UNL     1      38.708 -14.900  24.253  1.00  0.00    -0.337 OA
ATOM     24  H6  UNL     1      38.675 -13.957  24.139  1.00  0.00     0.220 HD
ENDBRANCH  22  23
BRANCH  22  25
HETATM   25  N2  UNL     1      37.860 -15.019  26.421  1.00  0.00    -0.380 NA
BRANCH  25  26
HETATM   26  C15 UNL     1      36.814 -14.614  27.279  1.00  0.00     0.148 A 
HETATM   27  C16 UNL     1      36.200 -13.461  27.408  1.00  0.00     0.051 A 
HETATM   28  C17 UNL     1      35.187 -13.235  28.441  1.00  0.00     0.046 A 
HETATM   29  C18 UNL     1      34.922 -14.266  29.242  1.00  0.00     0.119 A 
HETATM   30  F1  UNL     1      33.998 -14.115  30.249  1.00  0.00    -0.206 F 
HETATM   31  C19 UNL     1      35.536 -15.521  29.149  1.00  0.00     0.088 A 
HETATM   32  C20 UNL     1      36.449 -15.673  28.193  1.00  0.00     0.159 A 
HETATM   33  F2  UNL     1      37.110 -16.867  28.020  1.00  0.00    -0.202 F 
ENDBRANCH  25  26
ENDBRANCH  22  25
ENDBRANCH  21  22
ENDBRANCH  20  21
ENDBRANCH   6  20
BRANCH   3  34
HETATM   34  O4  UNL     1      35.636 -20.902  26.393  1.00  0.00    -0.395 OA
ATOM     35  H4  UNL     1      36.104 -21.541  26.918  1.00  0.00     0.210 HD
ENDBRANCH   3  34
BRANCH   1  36
HETATM   36  C7  UNL     1      36.898 -23.634  24.103  1.00  0.00     0.187 C 
BRANCH  36  37
HETATM   37  O3  UNL     1      35.611 -23.675  24.660  1.00  0.00    -0.298 OA
BRANCH  37  38
HETATM   38  C6  UNL     1      34.628 -24.302  23.975  1.00  0.00     0.406 C 
HETATM   39  O2  UNL     1      34.015 -23.656  23.068  1.00  0.00    -0.230 OA
BRANCH  38  40
HETATM   40  O1  UNL     1      34.215 -25.611  24.176  1.00  0.00    -0.298 OA
BRANCH  40  41
HETATM   41  C5  UNL     1      34.757 -26.708  23.403  1.00  0.00     0.181 C 
BRANCH  41  42
HETATM   42  C4  UNL     1      35.518 -27.540  24.381  1.00  0.00     0.027 C 
BRANCH  42  43
HETATM   43  C3  UNL     1      36.954 -27.175  24.553  1.00  0.00     0.002 C 
BRANCH  43  44
HETATM   44  C2  UNL     1      37.790 -27.168  23.335  1.00  0.00    -0.004 C 
HETATM   45  C1  UNL     1      39.237 -26.830  23.711  1.00  0.00     0.005 C 
ENDBRANCH  43  44
ENDBRANCH  42  43
ENDBRANCH  41  42
ENDBRANCH  40  41
ENDBRANCH  38  40
ENDBRANCH  37  38
ENDBRANCH  36  37
ENDBRANCH   1  36
BRANCH  13  46
HETATM   46  O7  UNL     1      34.534 -20.817  22.893  1.00  0.00    -0.389 OA
ATOM     47  H7  UNL     1      34.350 -20.829  21.961  1.00  0.00     0.210 HD
ENDBRANCH  13  46
TORSDOF 16
ENDMDL
MODEL 2
REMARK VINA RESULT: -8.467836497      0.968      1.604
REMARK  16 active torsions:
REMARK  status: ('A' for Active; 'I' for Inactive)
REMARK    1  A    between atoms: C2_2  and  C3_3 
REMARK    2  A    between atoms: C3_3  and  C4_4 
REMARK    3  A    between atoms: C4_4  and  C5_5 
REMARK    4  A    between atoms: C5_5  and  O1_6 
REMARK    5  A    between atoms: O1_6  and  C6_7 
REMARK    6  A    between atoms: C6_7  and  O3_9 
REMARK    7  A    between atoms: O3_9  and  C7_10 
REMARK    8  A    between atoms: C7_10  and  C8_11 
REMARK    9  A    between atoms: C10_13  and  O4_14 
REMARK   10  A    between atoms: N1_18  and  O5_20 
REMARK   11  A    between atoms: O5_20  and  C13_21 
REMARK   12  A    between atoms: C13_21  and  C14_22 
REMARK   13  A    between atoms: C14_22  and  O6_23 
REMARK   14  A    between atoms: C14_22  and  N2_25 
REMARK   15  A    between atoms: N2_25  and  C15_26 
REMARK   16  A    between atoms: C26_39  and  O7_40 
ROOT
HETATM    1  C8  UNL     1      37.400 -22.286  24.133  1.00  0.00     0.028 C 
HETATM    2  C9  UNL     1      36.303 -21.258  24.213  1.00  0.00     0.056 C 
HETATM    3  C10 UNL     1      36.398 -20.431  25.432  1.00  0.00     0.131 C 
HETATM    4  C11 UNL     1      37.631 -20.153  26.134  1.00  0.00     0.091 C 
HETATM    5  C12 UNL     1      38.567 -19.156  25.588  1.00  0.00     0.041 C 
HETATM    6  N1  UNL     1      38.967 -18.237  26.454  1.00  0.00    -0.270 N 
ATOM      7  H1  UNL     1      38.591 -18.304  27.400  1.00  0.00     0.194 HD
HETATM    8  C21 UNL     1      39.089 -19.026  24.243  1.00  0.00    -0.034 C 
HETATM    9  C22 UNL     1      38.281 -18.257  23.322  1.00  0.00     0.005 C 
HETATM   10  C23 UNL     1      36.862 -18.149  23.154  1.00  0.00    -0.019 C 
HETATM   11  C24 UNL     1      35.792 -19.075  23.027  1.00  0.00     0.039 C 
HETATM   12  C25 UNL     1      35.099 -18.651  21.684  1.00  0.00     0.017 C 
HETATM   13  C26 UNL     1      35.846 -20.563  22.971  1.00  0.00     0.071 C 
HETATM   14  C27 UNL     1      36.282 -21.161  21.695  1.00  0.00     0.040 C 
HETATM   15  C28 UNL     1      37.241 -22.321  21.728  1.00  0.00     0.012 C 
HETATM   16  C29 UNL     1      38.230 -22.188  22.904  1.00  0.00    -0.037 C 
HETATM   17  C30 UNL     1      39.163 -23.367  22.744  1.00  0.00     0.015 C 
HETATM   18  C31 UNL     1      39.010 -20.956  22.630  1.00  0.00     0.014 C 
HETATM   19  C32 UNL     1      39.762 -20.262  23.663  1.00  0.00     0.041 C 
ENDROOT
BRANCH   6  20
HETATM   20  O5  UNL     1      39.770 -17.281  26.224  1.00  0.00    -0.271 OA
BRANCH  20  21
HETATM   21  C13 UNL     1      40.051 -16.047  25.776  1.00  0.00     0.301 C 
BRANCH  21  22
HETATM   22  C14 UNL     1      38.721 -15.273  25.658  1.00  0.00     0.216 C 
BRANCH  22  23
HETATM   23  O6  UNL     1      38.523 -14.799  24.434  1.00  0.00    -0.337 OA
ATOM     24  H6  UNL     1      37.628 -14.511  24.301  1.00  0.00     0.220 HD
ENDBRANCH  22  23
BRANCH  22  25
HETATM   25  N2  UNL     1      37.900 -15.092  26.662  1.00  0.00    -0.380 NA
BRANCH  25  26
HETATM   26  C15 UNL     1      36.886 -14.995  27.641  1.00  0.00     0.148 A 
HETATM   27  C16 UNL     1      36.436 -15.873  28.507  1.00  0.00     0.051 A 
HETATM   28  C17 UNL     1      35.298 -15.582  29.382  1.00  0.00     0.046 A 
HETATM   29  C18 UNL     1      34.747 -14.375  29.252  1.00  0.00     0.119 A 
HETATM   30  F1  UNL     1      33.661 -14.044  30.026  1.00  0.00    -0.206 F 
HETATM   31  C19 UNL     1      35.189 -13.395  28.354  1.00  0.00     0.088 A 
HETATM   32  C20 UNL     1      36.226 -13.711  27.582  1.00  0.00     0.159 A 
HETATM   33  F2  UNL     1      36.733 -12.818  26.667  1.00  0.00    -0.202 F 
ENDBRANCH  25  26
ENDBRANCH  22  25
ENDBRANCH  21  22
ENDBRANCH  20  21
ENDBRANCH   6  20
BRANCH   3  34
HETATM   34  O4  UNL     1      35.532 -20.957  26.452  1.00  0.00    -0.395 OA
ATOM     35  H4  UNL     1      34.660 -21.093  26.098  1.00  0.00     0.210 HD
ENDBRANCH   3  34
BRANCH   1  36
HETATM   36  C7  UNL     1      36.778 -23.700  24.166  1.00  0.00     0.187 C 
BRANCH  36  37
HETATM   37  O3  UNL     1      35.462 -23.723  24.650  1.00  0.00    -0.298 OA
BRANCH  37  38
HETATM   38  C6  UNL     1      34.519 -24.372  23.931  1.00  0.00     0.406 C 
HETATM   39  O2  UNL     1      33.907 -23.731  23.019  1.00  0.00    -0.230 OA
BRANCH  38  40
HETATM   40  O1  UNL     1      34.146 -25.697  24.100  1.00  0.00    -0.298 OA
BRANCH  40  41
HETATM   41  C5  UNL     1      34.744 -26.762  23.323  1.00  0.00     0.181 C 
BRANCH  41  42
HETATM   42  C4  UNL     1      35.718 -27.420  24.243  1.00  0.00     0.027 C 
BRANCH  42  43
HETATM   43  C3  UNL     1      35.227 -28.656  24.919  1.00  0.00     0.002 C 
BRANCH  43  44
HETATM   44  C2  UNL     1      34.340 -29.539  24.133  1.00  0.00    -0.004 C 
HETATM   45  C1  UNL     1      34.020 -30.798  24.945  1.00  0.00     0.005 C 
ENDBRANCH  43  44
ENDBRANCH  42  43
ENDBRANCH  41  42
ENDBRANCH  40  41
ENDBRANCH  38  40
ENDBRANCH  37  38
ENDBRANCH  36  37
ENDBRANCH   1  36
BRANCH  13  46
HETATM   46  O7  UNL     1      34.418 -20.881  22.955  1.00  0.00    -0.389 OA
ATOM     47  H7  UNL     1      34.025 -20.027  23.100  1.00  0.00     0.210 HD
ENDBRANCH  13  46
TORSDOF 16
ENDMDL
MODEL 3
REMARK VINA RESULT: -8.112875659      1.944      2.786
REMARK  16 active torsions:
REMARK  status: ('A' for Active; 'I' for Inactive)
REMARK    1  A    between atoms: C2_2  and  C3_3 
REMARK    2  A    between atoms: C3_3  and  C4_4 
REMARK    3  A    between atoms: C4_4  and  C5_5 
REMARK    4  A    between atoms: C5_5  and  O1_6 
REMARK    5  A    between atoms: O1_6  and  C6_7 
REMARK    6  A    between atoms: C6_7  and  O3_9 
REMARK    7  A    between atoms: O3_9  and  C7_10 
REMARK    8  A    between atoms: C7_10  and  C8_11 
REMARK    9  A    between atoms: C10_13  and  O4_14 
REMARK   10  A    between atoms: N1_18  and  O5_20 
REMARK   11  A    between atoms: O5_20  and  C13_21 
REMARK   12  A    between atoms: C13_21  and  C14_22 
REMARK   13  A    between atoms: C14_22  and  O6_23 
REMARK   14  A    between atoms: C14_22  and  N2_25 
REMARK   15  A    between atoms: N2_25  and  C15_26 
REMARK   16  A    between atoms: C26_39  and  O7_40 
ROOT
HETATM    1  C8  UNL     1      36.529 -22.516  22.232  1.00  0.00     0.028 C 
HETATM    2  C9  UNL     1      36.048 -21.090  22.189  1.00  0.00     0.056 C 
HETATM    3  C10 UNL     1      35.371 -20.689  23.438  1.00  0.00     0.131 C 
HETATM    4  C11 UNL     1      35.644 -21.266  24.735  1.00  0.00     0.091 C 
HETATM    5  C12 UNL     1      36.860 -20.867  25.465  1.00  0.00     0.041 C 
HETATM    6  N1  UNL     1      36.657 -20.494  26.720  1.00  0.00    -0.270 N 
ATOM      7  H1  UNL     1      35.693 -20.515  27.054  1.00  0.00     0.194 HD
HETATM    8  C21 UNL     1      38.231 -20.802  25.000  1.00  0.00    -0.034 C 
HETATM    9  C22 UNL     1      38.626 -19.563  24.366  1.00  0.00     0.005 C 
HETATM   10  C23 UNL     1      37.923 -18.667  23.497  1.00  0.00    -0.019 C 
HETATM   11  C24 UNL     1      37.158 -18.812  22.309  1.00  0.00     0.039 C 
HETATM   12  C25 UNL     1      37.863 -17.841  21.298  1.00  0.00     0.017 C 
HETATM   13  C26 UNL     1      36.883 -20.045  21.521  1.00  0.00     0.071 C 
HETATM   14  C27 UNL     1      37.978 -20.540  20.664  1.00  0.00     0.040 C 
HETATM   15  C28 UNL     1      38.258 -22.019  20.628  1.00  0.00     0.012 C 
HETATM   16  C29 UNL     1      37.989 -22.667  22.002  1.00  0.00    -0.037 C 
HETATM   17  C30 UNL     1      38.397 -24.112  21.820  1.00  0.00     0.015 C 
HETATM   18  C31 UNL     1      38.958 -22.040  22.933  1.00  0.00     0.014 C 
HETATM   19  C32 UNL     1      38.788 -22.074  24.377  1.00  0.00     0.041 C 
ENDROOT
BRANCH   6  20
HETATM   20  O5  UNL     1      37.541 -20.113  27.547  1.00  0.00    -0.271 OA
BRANCH  20  21
HETATM   21  C13 UNL     1      38.701 -20.273  28.204  1.00  0.00     0.301 C 
BRANCH  21  22
HETATM   22  C14 UNL     1      38.956 -18.996  29.031  1.00  0.00     0.216 C 
BRANCH  22  23
HETATM   23  O6  UNL     1      39.771 -19.215  30.055  1.00  0.00    -0.337 OA
ATOM     24  H6  UNL     1      39.700 -18.543  30.722  1.00  0.00     0.220 HD
ENDBRANCH  22  23
BRANCH  22  25
HETATM   25  N2  UNL     1      38.408 -17.838  28.759  1.00  0.00    -0.380 NA
BRANCH  25  26
HETATM   26  C15 UNL     1      37.684 -16.636  28.597  1.00  0.00     0.148 A 
HETATM   27  C16 UNL     1      36.500 -16.274  29.034  1.00  0.00     0.051 A 
HETATM   28  C17 UNL     1      35.899 -14.991  28.665  1.00  0.00     0.046 A 
HETATM   29  C18 UNL     1      36.621 -14.210  27.863  1.00  0.00     0.119 A 
HETATM   30  F1  UNL     1      36.106 -13.001  27.459  1.00  0.00    -0.206 F 
HETATM   31  C19 UNL     1      37.892 -14.535  27.373  1.00  0.00     0.088 A 
HETATM   32  C20 UNL     1      38.392 -15.714  27.738  1.00  0.00     0.159 A 
HETATM   33  F2  UNL     1      39.631 -16.127  27.308  1.00  0.00    -0.202 F 
ENDBRANCH  25  26
ENDBRANCH  22  25
ENDBRANCH  21  22
ENDBRANCH  20  21
ENDBRANCH   6  20
BRANCH   3  34
HETATM   34  O4  UNL     1      33.947 -20.829  23.292  1.00  0.00    -0.395 OA
ATOM     35  H4  UNL     1      33.702 -21.743  23.371  1.00  0.00     0.210 HD
ENDBRANCH   3  34
BRANCH   1  36
HETATM   36  C7  UNL     1      35.796 -23.335  21.146  1.00  0.00     0.187 C 
BRANCH  36  37
HETATM   37  O3  UNL     1      35.040 -24.399  21.659  1.00  0.00    -0.298 OA
BRANCH  37  38
HETATM   38  C6  UNL     1      34.188 -24.155  22.680  1.00  0.00     0.406 C 
HETATM   39  O2  UNL     1      33.196 -23.388  22.470  1.00  0.00    -0.230 OA
BRANCH  38  40
HETATM   40  O1  UNL     1      34.298 -24.672  23.962  1.00  0.00    -0.298 OA
BRANCH  40  41
HETATM   41  C5  UNL     1      35.310 -25.648  24.306  1.00  0.00     0.181 C 
BRANCH  41  42
HETATM   42  C4  UNL     1      36.413 -24.866  24.938  1.00  0.00     0.027 C 
BRANCH  42  43
HETATM   43  C3  UNL     1      37.638 -25.646  25.279  1.00  0.00     0.002 C 
BRANCH  43  44
HETATM   44  C2  UNL     1      37.950 -26.807  24.420  1.00  0.00    -0.004 C 
HETATM   45  C1  UNL     1      39.457 -26.848  24.143  1.00  0.00     0.005 C 
ENDBRANCH  43  44
ENDBRANCH  42  43
ENDBRANCH  41  42
ENDBRANCH  40  41
ENDBRANCH  38  40
ENDBRANCH  37  38
ENDBRANCH  36  37
ENDBRANCH   1  36
BRANCH  13  46
HETATM   46  O7  UNL     1      35.959 -19.518  20.515  1.00  0.00    -0.389 OA
ATOM     47  H7  UNL     1      35.740 -20.300  20.021  1.00  0.00     0.210 HD
ENDBRANCH  13  46
TORSDOF 16
ENDMDL
MODEL 4
REMARK VINA RESULT: -8.007923665      6.667      9.205
REMARK  16 active torsions:
REMARK  status: ('A' for Active; 'I' for Inactive)
REMARK    1  A    between atoms: C2_2  and  C3_3 
REMARK    2  A    between atoms: C3_3  and  C4_4 
REMARK    3  A    between atoms: C4_4  and  C5_5 
REMARK    4  A    between atoms: C5_5  and  O1_6 
REMARK    5  A    between atoms: O1_6  and  C6_7 
REMARK    6  A    between atoms: C6_7  and  O3_9 
REMARK    7  A    between atoms: O3_9  and  C7_10 
REMARK    8  A    between atoms: C7_10  and  C8_11 
REMARK    9  A    between atoms: C10_13  and  O4_14 
REMARK   10  A    between atoms: N1_18  and  O5_20 
REMARK   11  A    between atoms: O5_20  and  C13_21 
REMARK   12  A    between atoms: C13_21  and  C14_22 
REMARK   13  A    between atoms: C14_22  and  O6_23 
REMARK   14  A    between atoms: C14_22  and  N2_25 
REMARK   15  A    between atoms: N2_25  and  C15_26 
REMARK   16  A    between atoms: C26_39  and  O7_40 
ROOT
HETATM    1  C8  UNL     1      43.362 -21.137  29.435  1.00  0.00     0.028 C 
HETATM    2  C9  UNL     1      42.525 -22.216  30.070  1.00  0.00     0.056 C 
HETATM    3  C10 UNL     1      41.179 -21.736  30.440  1.00  0.00     0.131 C 
HETATM    4  C11 UNL     1      40.488 -20.654  29.774  1.00  0.00     0.091 C 
HETATM    5  C12 UNL     1      39.859 -20.894  28.464  1.00  0.00     0.041 C 
HETATM    6  N1  UNL     1      38.597 -20.501  28.374  1.00  0.00    -0.270 N 
ATOM      7  H1  UNL     1      38.187 -20.081  29.209  1.00  0.00     0.194 HD
HETATM    8  C21 UNL     1      40.413 -21.514  27.278  1.00  0.00    -0.034 C 
HETATM    9  C22 UNL     1      40.298 -22.955  27.205  1.00  0.00     0.005 C 
HETATM   10  C23 UNL     1      40.395 -23.974  28.207  1.00  0.00    -0.019 C 
HETATM   11  C24 UNL     1      41.325 -24.288  29.234  1.00  0.00     0.039 C 
HETATM   12  C25 UNL     1      41.715 -25.778  28.932  1.00  0.00     0.017 C 
HETATM   13  C26 UNL     1      42.615 -23.619  29.563  1.00  0.00     0.071 C 
HETATM   14  C27 UNL     1      43.758 -23.918  28.680  1.00  0.00     0.040 C 
HETATM   15  C28 UNL     1      44.659 -22.789  28.253  1.00  0.00     0.012 C 
HETATM   16  C29 UNL     1      43.861 -21.481  28.079  1.00  0.00    -0.037 C 
HETATM   17  C30 UNL     1      44.880 -20.486  27.570  1.00  0.00     0.015 C 
HETATM   18  C31 UNL     1      42.901 -21.744  26.978  1.00  0.00     0.014 C 
HETATM   19  C32 UNL     1      41.718 -20.926  26.761  1.00  0.00     0.041 C 
ENDROOT
BRANCH   6  20
HETATM   20  O5  UNL     1      37.847 -20.596  27.354  1.00  0.00    -0.271 OA
BRANCH  20  21
HETATM   21  C13 UNL     1      37.443 -20.202  26.136  1.00  0.00     0.301 C 
BRANCH  21  22
HETATM   22  C14 UNL     1      38.084 -18.828  25.847  1.00  0.00     0.216 C 
BRANCH  22  23
HETATM   23  O6  UNL     1      38.972 -18.886  24.863  1.00  0.00    -0.337 OA
ATOM     24  H6  UNL     1      38.562 -18.851  24.006  1.00  0.00     0.220 HD
ENDBRANCH  22  23
BRANCH  22  25
HETATM   25  N2  UNL     1      37.794 -17.741  26.517  1.00  0.00    -0.380 NA
BRANCH  25  26
HETATM   26  C15 UNL     1      37.318 -16.658  27.290  1.00  0.00     0.148 A 
HETATM   27  C16 UNL     1      36.734 -16.627  28.466  1.00  0.00     0.051 A 
HETATM   28  C17 UNL     1      36.234 -15.379  29.048  1.00  0.00     0.046 A 
HETATM   29  C18 UNL     1      36.407 -14.277  28.319  1.00  0.00     0.119 A 
HETATM   30  F1  UNL     1      35.941 -13.076  28.795  1.00  0.00    -0.206 F 
HETATM   31  C19 UNL     1      37.030 -14.246  27.064  1.00  0.00     0.088 A 
HETATM   32  C20 UNL     1      37.465 -15.408  26.581  1.00  0.00     0.159 A 
HETATM   33  F2  UNL     1      38.088 -15.483  25.357  1.00  0.00    -0.202 F 
ENDBRANCH  25  26
ENDBRANCH  22  25
ENDBRANCH  21  22
ENDBRANCH  20  21
ENDBRANCH   6  20
BRANCH   3  34
HETATM   34  O4  UNL     1      41.156 -21.357  31.827  1.00  0.00    -0.395 OA
ATOM     35  H4  UNL     1      42.038 -21.174  32.127  1.00  0.00     0.210 HD
ENDBRANCH   3  34
BRANCH   1  36
HETATM   36  C7  UNL     1      44.591 -20.853  30.328  1.00  0.00     0.187 C 
BRANCH  36  37
HETATM   37  O3  UNL     1      44.580 -21.560  31.539  1.00  0.00    -0.298 OA
BRANCH  37  38
HETATM   38  C6  UNL     1      45.668 -22.290  31.873  1.00  0.00     0.406 C 
HETATM   39  O2  UNL     1      45.793 -23.453  31.375  1.00  0.00    -0.230 OA
BRANCH  38  40
HETATM   40  O1  UNL     1      46.680 -21.882  32.730  1.00  0.00    -0.298 OA
BRANCH  40  41
HETATM   41  C5  UNL     1      48.078 -22.041  32.388  1.00  0.00     0.181 C 
BRANCH  41  42
HETATM   42  C4  UNL     1      48.346 -21.013  31.339  1.00  0.00     0.027 C 
BRANCH  42  43
HETATM   43  C3  UNL     1      49.786 -20.729  31.074  1.00  0.00     0.002 C 
BRANCH  43  44
HETATM   44  C2  UNL     1      50.322 -19.456  31.598  1.00  0.00    -0.004 C 
HETATM   45  C1  UNL     1      51.134 -19.727  32.869  1.00  0.00     0.005 C 
ENDBRANCH  43  44
ENDBRANCH  42  43
ENDBRANCH  41  42
ENDBRANCH  40  41
ENDBRANCH  38  40
ENDBRANCH  37  38
ENDBRANCH  36  37
ENDBRANCH   1  36
BRANCH  13  46
HETATM   46  O7  UNL     1      42.995 -24.353  30.771  1.00  0.00    -0.389 OA
ATOM     47  H7  UNL     1      42.656 -25.221  30.588  1.00  0.00     0.210 HD
ENDBRANCH  13  46
TORSDOF 16
ENDMDL
MODEL 5
REMARK VINA RESULT: -7.916694629      7.991     10.411
REMARK  16 active torsions:
REMARK  status: ('A' for Active; 'I' for Inactive)
REMARK    1  A    between atoms: C2_2  and  C3_3 
REMARK    2  A    between atoms: C3_3  and  C4_4 
REMARK    3  A    between atoms: C4_4  and  C5_5 
REMARK    4  A    between atoms: C5_5  and  O1_6 
REMARK    5  A    between atoms: O1_6  and  C6_7 
REMARK    6  A    between atoms: C6_7  and  O3_9 
REMARK    7  A    between atoms: O3_9  and  C7_10 
REMARK    8  A    between atoms: C7_10  and  C8_11 
REMARK    9  A    between atoms: C10_13  and  O4_14 
REMARK   10  A    between atoms: N1_18  and  O5_20 
REMARK   11  A    between atoms: O5_20  and  C13_21 
REMARK   12  A    between atoms: C13_21  and  C14_22 
REMARK   13  A    between atoms: C14_22  and  O6_23 
REMARK   14  A    between atoms: C14_22  and  N2_25 
REMARK   15  A    between atoms: N2_25  and  C15_26 
REMARK   16  A    between atoms: C26_39  and  O7_40 
ROOT
HETATM    1  C8  UNL     1      45.575 -21.829  28.994  1.00  0.00     0.028 C 
HETATM    2  C9  UNL     1      44.908 -23.080  29.500  1.00  0.00     0.056 C 
HETATM    3  C10 UNL     1      43.832 -22.789  30.468  1.00  0.00     0.131 C 
HETATM    4  C11 UNL     1      43.066 -21.563  30.492  1.00  0.00     0.091 C 
HETATM    5  C12 UNL     1      41.998 -21.357  29.499  1.00  0.00     0.041 C 
HETATM    6  N1  UNL     1      40.831 -20.990  30.008  1.00  0.00    -0.270 N 
ATOM      7  H1  UNL     1      40.784 -20.890  31.022  1.00  0.00     0.194 HD
HETATM    8  C21 UNL     1      42.036 -21.522  28.060  1.00  0.00    -0.034 C 
HETATM    9  C22 UNL     1      41.756 -22.854  27.568  1.00  0.00     0.005 C 
HETATM   10  C23 UNL     1      42.094 -24.151  28.075  1.00  0.00    -0.019 C 
HETATM   11  C24 UNL     1      43.287 -24.773  28.530  1.00  0.00     0.039 C 
HETATM   12  C25 UNL     1      43.393 -26.060  27.638  1.00  0.00     0.017 C 
HETATM   13  C26 UNL     1      44.671 -24.224  28.567  1.00  0.00     0.071 C 
HETATM   14  C27 UNL     1      45.396 -24.174  27.283  1.00  0.00     0.040 C 
HETATM   15  C28 UNL     1      46.201 -22.945  26.952  1.00  0.00     0.012 C 
HETATM   16  C29 UNL     1      45.530 -21.676  27.517  1.00  0.00    -0.037 C 
HETATM   17  C30 UNL     1      46.403 -20.542  27.028  1.00  0.00     0.015 C 
HETATM   18  C31 UNL     1      44.225 -21.573  26.819  1.00  0.00     0.014 C 
HETATM   19  C32 UNL     1      43.130 -20.760  27.327  1.00  0.00     0.041 C 
ENDROOT
BRANCH   6  20
HETATM   20  O5  UNL     1      39.766 -20.750  29.360  1.00  0.00    -0.271 OA
BRANCH  20  21
HETATM   21  C13 UNL     1      38.976 -19.949  28.627  1.00  0.00     0.301 C 
BRANCH  21  22
HETATM   22  C14 UNL     1      39.037 -18.535  29.243  1.00  0.00     0.216 C 
BRANCH  22  23
HETATM   23  O6  UNL     1      39.661 -18.524  30.414  1.00  0.00    -0.337 OA
ATOM     24  H6  UNL     1      39.947 -17.652  30.661  1.00  0.00     0.220 HD
ENDBRANCH  22  23
BRANCH  22  25
HETATM   25  N2  UNL     1      38.510 -17.478  28.677  1.00  0.00    -0.380 NA
BRANCH  25  26
HETATM   26  C15 UNL     1      37.919 -16.270  28.245  1.00  0.00     0.148 A 
HETATM   27  C16 UNL     1      38.386 -15.302  27.491  1.00  0.00     0.051 A 
HETATM   28  C17 UNL     1      37.620 -14.079  27.241  1.00  0.00     0.046 A 
HETATM   29  C18 UNL     1      36.422 -14.004  27.819  1.00  0.00     0.119 A 
HETATM   30  F1  UNL     1      35.660 -12.874  27.645  1.00  0.00    -0.206 F 
HETATM   31  C19 UNL     1      35.867 -15.006  28.625  1.00  0.00     0.088 A 
HETATM   32  C20 UNL     1      36.605 -16.096  28.821  1.00  0.00     0.159 A 
HETATM   33  F2  UNL     1      36.150 -17.136  29.598  1.00  0.00    -0.202 F 
ENDBRANCH  25  26
ENDBRANCH  22  25
ENDBRANCH  21  22
ENDBRANCH  20  21
ENDBRANCH   6  20
BRANCH   3  34
HETATM   34  O4  UNL     1      44.334 -22.907  31.811  1.00  0.00    -0.395 OA
ATOM     35  H4  UNL     1      44.423 -22.046  32.201  1.00  0.00     0.210 HD
ENDBRANCH   3  34
BRANCH   1  36
HETATM   36  C7  UNL     1      47.061 -21.835  29.419  1.00  0.00     0.187 C 
BRANCH  36  37
HETATM   37  O3  UNL     1      47.334 -21.009  30.518  1.00  0.00    -0.298 OA
BRANCH  37  38
HETATM   38  C6  UNL     1      47.666 -21.585  31.696  1.00  0.00     0.406 C 
HETATM   39  O2  UNL     1      46.734 -21.879  32.509  1.00  0.00    -0.230 OA
BRANCH  38  40
HETATM   40  O1  UNL     1      48.954 -21.889  32.109  1.00  0.00    -0.298 OA
BRANCH  40  41
HETATM   41  C5  UNL     1      49.242 -22.295  33.469  1.00  0.00     0.181 C 
BRANCH  41  42
HETATM   42  C4  UNL     1      50.562 -21.677  33.792  1.00  0.00     0.027 C 
BRANCH  42  43
HETATM   43  C3  UNL     1      50.771 -21.324  35.226  1.00  0.00     0.002 C 
BRANCH  43  44
HETATM   44  C2  UNL     1      49.856 -21.945  36.206  1.00  0.00    -0.004 C 
HETATM   45  C1  UNL     1      50.038 -21.276  37.572  1.00  0.00     0.005 C 
ENDBRANCH  43  44
ENDBRANCH  42  43
ENDBRANCH  41  42
ENDBRANCH  40  41
ENDBRANCH  38  40
ENDBRANCH  37  38
ENDBRANCH  36  37
ENDBRANCH   1  36
BRANCH  13  46
HETATM   46  O7  UNL     1      45.373 -25.315  29.242  1.00  0.00    -0.389 OA
ATOM     47  H7  UNL     1      45.028 -26.078  28.794  1.00  0.00     0.210 HD
ENDBRANCH  13  46
TORSDOF 16
ENDMDL
