MODEL 1
REMARK VINA RESULT: -8.205685727      0.000      0.000
REMARK  12 active torsions:
REMARK  status: ('A' for Active; 'I' for Inactive)
REMARK    1  A    between atoms: C2_2  and  C3_3 
REMARK    2  A    between atoms: C3_3  and  C4_4 
REMARK    3  A    between atoms: C4_4  and  N1_5 
REMARK    4  A    between atoms: C5_6  and  C6_7 
REMARK    5  A    between atoms: C9_10  and  N2_11 
REMARK    6  A    between atoms: N2_11  and  C10_13 
REMARK    7  A    between atoms: C10_13  and  C11_16 
REMARK    8  A    between atoms: C15_20  and  O1_21 
REMARK    9  A    between atoms: C19_27  and  O3_28 
REMARK   10  A    between atoms: O3_28  and  C20_29 
REMARK   11  A    between atoms: C20_29  and  C21_30 
REMARK   12  A    between atoms: C27_37  and  O4_38 
ROOT
HETATM    1  N1  UNL     1      37.343 -19.672  25.601  1.00  0.00    -0.253 N 
HETATM    2  C5  UNL     1      37.601 -20.803  26.435  1.00  0.00     0.279 C 
HETATM    3  O2  UNL     1      37.554 -22.006  25.739  1.00  0.00    -0.319 OA
HETATM    4  C17 UNL     1      36.499 -22.441  24.944  1.00  0.00     0.098 A 
HETATM    5  C18 UNL     1      35.924 -23.673  24.975  1.00  0.00     0.078 A 
HETATM    6  C19 UNL     1      34.870 -23.986  24.128  1.00  0.00     0.104 A 
HETATM    7  C27 UNL     1      34.371 -23.053  23.223  1.00  0.00     0.100 A 
HETATM    8  C28 UNL     1      34.965 -21.809  23.206  1.00  0.00     0.067 A 
HETATM    9  C29 UNL     1      36.003 -21.519  24.048  1.00  0.00     0.116 A 
HETATM   10  S1  UNL     1      36.817 -19.955  24.065  1.00  0.00     0.269 S 
HETATM   11  O5  UNL     1      38.058 -20.173  23.176  1.00  0.00    -0.200 OA
HETATM   12  O6  UNL     1      35.993 -18.955  23.375  1.00  0.00    -0.200 OA
ENDROOT
BRANCH   2  13
HETATM   13  C6  UNL     1      38.932 -20.693  27.099  1.00  0.00    -0.006 A 
HETATM   14  C7  UNL     1      40.073 -20.706  26.346  1.00  0.00     0.014 A 
HETATM   15  C8  UNL     1      41.338 -20.621  26.903  1.00  0.00     0.033 A 
HETATM   16  C9  UNL     1      41.479 -20.521  28.257  1.00  0.00     0.066 A 
HETATM   17  C15 UNL     1      40.304 -20.507  29.031  1.00  0.00     0.092 A 
HETATM   18  C16 UNL     1      39.077 -20.591  28.453  1.00  0.00     0.050 A 
BRANCH  16  19
HETATM   19  N2  UNL     1      42.737 -20.402  28.873  1.00  0.00    -0.325 N 
ATOM     20  H2  UNL     1      43.092 -19.449  28.943  1.00  0.00     0.165 HD
BRANCH  19  21
HETATM   21  C10 UNL     1      43.591 -21.398  29.414  1.00  0.00     0.329 C 
HETATM   22  F1  UNL     1      43.446 -22.577  28.591  1.00  0.00    -0.182 F 
HETATM   23  F2  UNL     1      43.247 -21.841  30.656  1.00  0.00    -0.182 F 
BRANCH  21  24
HETATM   24  C11 UNL     1      45.071 -21.088  29.345  1.00  0.00     0.035 C 
HETATM   25  C12 UNL     1      45.365 -20.028  30.415  1.00  0.00     0.022 C 
HETATM   26  C13 UNL     1      45.407 -20.402  28.019  1.00  0.00     0.022 C 
HETATM   27  C14 UNL     1      46.011 -22.200  29.535  1.00  0.00     0.022 C 
ENDBRANCH  21  24
ENDBRANCH  19  21
ENDBRANCH  16  19
BRANCH  17  28
HETATM   28  O1  UNL     1      40.477 -20.403  30.413  1.00  0.00    -0.358 OA
ATOM     29  H1  UNL     1      39.685 -20.415  30.937  1.00  0.00     0.217 HD
ENDBRANCH  17  28
ENDBRANCH   2  13
BRANCH   1  30
HETATM   30  C4  UNL     1      37.226 -18.443  26.248  1.00  0.00     0.079 C 
BRANCH  30  31
HETATM   31  C3  UNL     1      38.219 -17.384  25.990  1.00  0.00     0.045 C 
BRANCH  31  32
HETATM   32  C2  UNL     1      39.101 -16.910  27.063  1.00  0.00     0.001 C 
HETATM   33  C1  UNL     1      38.605 -17.027  28.459  1.00  0.00     0.005 C 
ENDBRANCH  31  32
ENDBRANCH  30  31
ENDBRANCH   1  30
BRANCH   6  34
HETATM   34  O3  UNL     1      34.269 -25.230  24.137  1.00  0.00    -0.348 OA
BRANCH  34  35
HETATM   35  C20 UNL     1      35.088 -26.374  24.010  1.00  0.00     0.180 C 
BRANCH  35  36
HETATM   36  C21 UNL     1      34.479 -27.228  22.907  1.00  0.00     0.013 C 
HETATM   37  C22 UNL     1      34.853 -26.620  21.571  1.00  0.00     0.037 C 
HETATM   38  C23 UNL     1      36.172 -27.283  21.152  1.00  0.00     0.272 C 
HETATM   39  N3  UNL     1      35.804 -28.606  20.673  1.00  0.00     0.084 N 
HETATM   40  C24 UNL     1      36.984 -29.285  20.220  1.00  0.00     0.309 C 
HETATM   41  C25 UNL     1      35.059 -29.334  21.679  1.00  0.00     0.272 C 
HETATM   42  C26 UNL     1      35.052 -28.602  23.004  1.00  0.00     0.037 C 
ENDBRANCH  35  36
ENDBRANCH  34  35
ENDBRANCH   6  34
BRANCH   7  43
HETATM   43  O4  UNL     1      33.308 -23.370  22.369  1.00  0.00    -0.358 OA
ATOM     44  H4  UNL     1      33.318 -23.110  21.456  1.00  0.00     0.217 HD
ENDBRANCH   7  43
TORSDOF 12
ENDMDL
MODEL 2
REMARK VINA RESULT: -7.985843401      2.123      3.373
REMARK  12 active torsions:
REMARK  status: ('A' for Active; 'I' for Inactive)
REMARK    1  A    between atoms: C2_2  and  C3_3 
REMARK    2  A    between atoms: C3_3  and  C4_4 
REMARK    3  A    between atoms: C4_4  and  N1_5 
REMARK    4  A    between atoms: C5_6  and  C6_7 
REMARK    5  A    between atoms: C9_10  and  N2_11 
REMARK    6  A    between atoms: N2_11  and  C10_13 
REMARK    7  A    between atoms: C10_13  and  C11_16 
REMARK    8  A    between atoms: C15_20  and  O1_21 
REMARK    9  A    between atoms: C19_27  and  O3_28 
REMARK   10  A    between atoms: O3_28  and  C20_29 
REMARK   11  A    between atoms: C20_29  and  C21_30 
REMARK   12  A    between atoms: C27_37  and  O4_38 
ROOT
HETATM    1  N1  UNL     1      39.238 -18.438  27.542  1.00  0.00    -0.253 N 
HETATM    2  C5  UNL     1      39.063 -19.853  27.462  1.00  0.00     0.279 C 
HETATM    3  O2  UNL     1      38.929 -20.305  26.154  1.00  0.00    -0.319 OA
HETATM    4  C17 UNL     1      38.013 -19.826  25.221  1.00  0.00     0.098 A 
HETATM    5  C18 UNL     1      37.207 -20.579  24.428  1.00  0.00     0.078 A 
HETATM    6  C19 UNL     1      36.330 -19.980  23.534  1.00  0.00     0.104 A 
HETATM    7  C27 UNL     1      36.249 -18.594  23.423  1.00  0.00     0.100 A 
HETATM    8  C28 UNL     1      37.074 -17.846  24.236  1.00  0.00     0.067 A 
HETATM    9  C29 UNL     1      37.933 -18.455  25.110  1.00  0.00     0.116 A 
HETATM   10  S1  UNL     1      39.025 -17.558  26.164  1.00  0.00     0.269 S 
HETATM   11  O5  UNL     1      40.363 -17.556  25.397  1.00  0.00    -0.200 OA
HETATM   12  O6  UNL     1      38.600 -16.155  26.246  1.00  0.00    -0.200 OA
ENDROOT
BRANCH   2  13
HETATM   13  C6  UNL     1      40.204 -20.575  28.095  1.00  0.00    -0.006 A 
HETATM   14  C7  UNL     1      41.479 -20.359  27.653  1.00  0.00     0.014 A 
HETATM   15  C8  UNL     1      42.578 -21.007  28.190  1.00  0.00     0.033 A 
HETATM   16  C9  UNL     1      42.408 -21.906  29.204  1.00  0.00     0.066 A 
HETATM   17  C15 UNL     1      41.096 -22.128  29.659  1.00  0.00     0.092 A 
HETATM   18  C16 UNL     1      40.038 -21.474  29.110  1.00  0.00     0.050 A 
BRANCH  16  19
HETATM   19  N2  UNL     1      43.491 -22.571  29.806  1.00  0.00    -0.325 N 
ATOM     20  H2  UNL     1      43.687 -23.499  29.431  1.00  0.00     0.165 HD
BRANCH  19  21
HETATM   21  C10 UNL     1      44.354 -22.156  30.852  1.00  0.00     0.329 C 
HETATM   22  F1  UNL     1      44.831 -23.352  31.511  1.00  0.00    -0.182 F 
HETATM   23  F2  UNL     1      43.751 -21.466  31.860  1.00  0.00    -0.182 F 
BRANCH  21  24
HETATM   24  C11 UNL     1      45.623 -21.459  30.407  1.00  0.00     0.035 C 
HETATM   25  C12 UNL     1      46.665 -21.664  31.514  1.00  0.00     0.022 C 
HETATM   26  C13 UNL     1      45.405 -19.945  30.355  1.00  0.00     0.022 C 
HETATM   27  C14 UNL     1      46.221 -21.880  29.134  1.00  0.00     0.022 C 
ENDBRANCH  21  24
ENDBRANCH  19  21
ENDBRANCH  16  19
BRANCH  17  28
HETATM   28  O1  UNL     1      40.950 -23.051  30.697  1.00  0.00    -0.358 OA
ATOM     29  H1  UNL     1      40.113 -23.050  31.146  1.00  0.00     0.217 HD
ENDBRANCH  17  28
ENDBRANCH   2  13
BRANCH   1  30
HETATM   30  C4  UNL     1      39.233 -17.887  28.822  1.00  0.00     0.079 C 
BRANCH  30  31
HETATM   31  C3  UNL     1      37.952 -17.541  29.464  1.00  0.00     0.045 C 
BRANCH  31  32
HETATM   32  C2  UNL     1      37.495 -16.146  29.515  1.00  0.00     0.001 C 
HETATM   33  C1  UNL     1      36.243 -15.809  28.789  1.00  0.00     0.005 C 
ENDBRANCH  31  32
ENDBRANCH  30  31
ENDBRANCH   1  30
BRANCH   6  34
HETATM   34  O3  UNL     1      35.499 -20.720  22.715  1.00  0.00    -0.348 OA
BRANCH  34  35
HETATM   35  C20 UNL     1      35.843 -22.065  22.448  1.00  0.00     0.180 C 
BRANCH  35  36
HETATM   36  C21 UNL     1      34.823 -22.930  23.176  1.00  0.00     0.013 C 
HETATM   37  C22 UNL     1      34.049 -23.724  22.144  1.00  0.00     0.037 C 
HETATM   38  C23 UNL     1      34.812 -25.042  21.957  1.00  0.00     0.272 C 
HETATM   39  N3  UNL     1      34.481 -25.850  23.120  1.00  0.00     0.084 N 
HETATM   40  C24 UNL     1      35.126 -27.126  23.004  1.00  0.00     0.309 C 
HETATM   41  C25 UNL     1      34.791 -25.145  24.346  1.00  0.00     0.272 C 
HETATM   42  C26 UNL     1      35.556 -23.867  24.076  1.00  0.00     0.037 C 
ENDBRANCH  35  36
ENDBRANCH  34  35
ENDBRANCH   6  34
BRANCH   7  43
HETATM   43  O4  UNL     1      35.364 -17.991  22.523  1.00  0.00    -0.358 OA
ATOM     44  H4  UNL     1      35.678 -17.404  21.844  1.00  0.00     0.217 HD
ENDBRANCH   7  43
TORSDOF 12
ENDMDL
MODEL 3
REMARK VINA RESULT: -7.962358352      2.127      3.438
REMARK  12 active torsions:
REMARK  status: ('A' for Active; 'I' for Inactive)
REMARK    1  A    between atoms: C2_2  and  C3_3 
REMARK    2  A    between atoms: C3_3  and  C4_4 
REMARK    3  A    between atoms: C4_4  and  N1_5 
REMARK    4  A    between atoms: C5_6  and  C6_7 
REMARK    5  A    between atoms: C9_10  and  N2_11 
REMARK    6  A    between atoms: N2_11  and  C10_13 
REMARK    7  A    between atoms: C10_13  and  C11_16 
REMARK    8  A    between atoms: C15_20  and  O1_21 
REMARK    9  A    between atoms: C19_27  and  O3_28 
REMARK   10  A    between atoms: O3_28  and  C20_29 
REMARK   11  A    between atoms: C20_29  and  C21_30 
REMARK   12  A    between atoms: C27_37  and  O4_38 
ROOT
HETATM    1  N1  UNL     1      39.041 -18.045  27.392  1.00  0.00    -0.253 N 
HETATM    2  C5  UNL     1      38.931 -19.469  27.392  1.00  0.00     0.279 C 
HETATM    3  O2  UNL     1      38.850 -20.002  26.110  1.00  0.00    -0.319 OA
HETATM    4  C17 UNL     1      37.939 -19.620  25.130  1.00  0.00     0.098 A 
HETATM    5  C18 UNL     1      37.187 -20.454  24.364  1.00  0.00     0.078 A 
HETATM    6  C19 UNL     1      36.308 -19.947  23.416  1.00  0.00     0.104 A 
HETATM    7  C27 UNL     1      36.170 -18.576  23.221  1.00  0.00     0.100 A 
HETATM    8  C28 UNL     1      36.940 -17.745  24.007  1.00  0.00     0.067 A 
HETATM    9  C29 UNL     1      37.802 -18.263  24.935  1.00  0.00     0.116 A 
HETATM   10  S1  UNL     1      38.826 -17.257  25.960  1.00  0.00     0.269 S 
HETATM   11  O5  UNL     1      40.182 -17.239  25.225  1.00  0.00    -0.200 OA
HETATM   12  O6  UNL     1      38.338 -15.873  25.948  1.00  0.00    -0.200 OA
ENDROOT
BRANCH   2  13
HETATM   13  C6  UNL     1      40.085 -20.101  28.093  1.00  0.00    -0.006 A 
HETATM   14  C7  UNL     1      41.321 -20.101  27.509  1.00  0.00     0.014 A 
HETATM   15  C8  UNL     1      42.429 -20.683  28.103  1.00  0.00     0.033 A 
HETATM   16  C9  UNL     1      42.308 -21.287  29.321  1.00  0.00     0.066 A 
HETATM   17  C15 UNL     1      41.036 -21.286  29.922  1.00  0.00     0.092 A 
HETATM   18  C16 UNL     1      39.969 -20.706  29.312  1.00  0.00     0.050 A 
BRANCH  16  19
HETATM   19  N2  UNL     1      43.406 -21.867  29.983  1.00  0.00    -0.325 N 
ATOM     20  H2  UNL     1      43.407 -22.887  29.999  1.00  0.00     0.165 HD
BRANCH  19  21
HETATM   21  C10 UNL     1      44.511 -21.259  30.631  1.00  0.00     0.329 C 
HETATM   22  F1  UNL     1      44.202 -21.210  32.043  1.00  0.00    -0.182 F 
HETATM   23  F2  UNL     1      44.720 -19.951  30.312  1.00  0.00    -0.182 F 
BRANCH  21  24
HETATM   24  C11 UNL     1      45.806 -22.041  30.572  1.00  0.00     0.035 C 
HETATM   25  C12 UNL     1      45.957 -22.561  29.137  1.00  0.00     0.022 C 
HETATM   26  C13 UNL     1      45.704 -23.302  31.432  1.00  0.00     0.022 C 
HETATM   27  C14 UNL     1      47.044 -21.338  30.935  1.00  0.00     0.022 C 
ENDBRANCH  21  24
ENDBRANCH  19  21
ENDBRANCH  16  19
BRANCH  17  28
HETATM   28  O1  UNL     1      40.941 -21.910  31.167  1.00  0.00    -0.358 OA
ATOM     29  H1  UNL     1      40.588 -21.384  31.875  1.00  0.00     0.217 HD
ENDBRANCH  17  28
ENDBRANCH   2  13
BRANCH   1  30
HETATM   30  C4  UNL     1      38.979 -17.421  28.637  1.00  0.00     0.079 C 
BRANCH  30  31
HETATM   31  C3  UNL     1      37.671 -17.042  29.200  1.00  0.00     0.045 C 
BRANCH  31  32
HETATM   32  C2  UNL     1      37.280 -15.630  29.297  1.00  0.00     0.001 C 
HETATM   33  C1  UNL     1      35.882 -15.280  28.933  1.00  0.00     0.005 C 
ENDBRANCH  31  32
ENDBRANCH  30  31
ENDBRANCH   1  30
BRANCH   6  34
HETATM   34  O3  UNL     1      35.532 -20.771  22.623  1.00  0.00    -0.348 OA
BRANCH  34  35
HETATM   35  C20 UNL     1      35.926 -22.120  22.468  1.00  0.00     0.180 C 
BRANCH  35  36
HETATM   36  C21 UNL     1      34.886 -22.964  23.192  1.00  0.00     0.013 C 
HETATM   37  C22 UNL     1      34.108 -23.752  22.158  1.00  0.00     0.037 C 
HETATM   38  C23 UNL     1      34.852 -25.083  21.985  1.00  0.00     0.272 C 
HETATM   39  N3  UNL     1      34.498 -25.879  23.149  1.00  0.00     0.084 N 
HETATM   40  C24 UNL     1      35.124 -27.165  23.045  1.00  0.00     0.309 C 
HETATM   41  C25 UNL     1      34.809 -25.172  24.374  1.00  0.00     0.272 C 
HETATM   42  C26 UNL     1      35.596 -23.908  24.103  1.00  0.00     0.037 C 
ENDBRANCH  35  36
ENDBRANCH  34  35
ENDBRANCH   6  34
BRANCH   7  43
HETATM   43  O4  UNL     1      35.283 -18.066  22.266  1.00  0.00    -0.358 OA
ATOM     44  H4  UNL     1      35.144 -17.131  22.175  1.00  0.00     0.217 HD
ENDBRANCH   7  43
TORSDOF 12
ENDMDL
MODEL 4
REMARK VINA RESULT: -7.919202681      1.849      2.619
REMARK  12 active torsions:
REMARK  status: ('A' for Active; 'I' for Inactive)
REMARK    1  A    between atoms: C2_2  and  C3_3 
REMARK    2  A    between atoms: C3_3  and  C4_4 
REMARK    3  A    between atoms: C4_4  and  N1_5 
REMARK    4  A    between atoms: C5_6  and  C6_7 
REMARK    5  A    between atoms: C9_10  and  N2_11 
REMARK    6  A    between atoms: N2_11  and  C10_13 
REMARK    7  A    between atoms: C10_13  and  C11_16 
REMARK    8  A    between atoms: C15_20  and  O1_21 
REMARK    9  A    between atoms: C19_27  and  O3_28 
REMARK   10  A    between atoms: O3_28  and  C20_29 
REMARK   11  A    between atoms: C20_29  and  C21_30 
REMARK   12  A    between atoms: C27_37  and  O4_38 
ROOT
HETATM    1  N1  UNL     1      38.857 -18.797  27.196  1.00  0.00    -0.253 N 
HETATM    2  C5  UNL     1      38.959 -20.165  27.595  1.00  0.00     0.279 C 
HETATM    3  O2  UNL     1      38.821 -21.047  26.529  1.00  0.00    -0.319 OA
HETATM    4  C17 UNL     1      37.763 -21.066  25.624  1.00  0.00     0.098 A 
HETATM    5  C18 UNL     1      37.065 -22.162  25.228  1.00  0.00     0.078 A 
HETATM    6  C19 UNL     1      36.024 -22.050  24.316  1.00  0.00     0.104 A 
HETATM    7  C27 UNL     1      35.665 -20.815  23.782  1.00  0.00     0.100 A 
HETATM    8  C28 UNL     1      36.383 -19.714  24.196  1.00  0.00     0.067 A 
HETATM    9  C29 UNL     1      37.406 -19.845  25.095  1.00  0.00     0.116 A 
HETATM   10  S1  UNL     1      38.374 -18.480  25.652  1.00  0.00     0.269 S 
HETATM   11  O5  UNL     1      39.626 -18.521  24.751  1.00  0.00    -0.200 OA
HETATM   12  O6  UNL     1      37.689 -17.221  25.340  1.00  0.00    -0.200 OA
ENDROOT
BRANCH   2  13
HETATM   13  C6  UNL     1      40.262 -20.436  28.265  1.00  0.00    -0.006 A 
HETATM   14  C7  UNL     1      41.433 -20.234  27.589  1.00  0.00     0.014 A 
HETATM   15  C8  UNL     1      42.675 -20.480  28.152  1.00  0.00     0.033 A 
HETATM   16  C9  UNL     1      42.760 -20.945  29.432  1.00  0.00     0.066 A 
HETATM   17  C15 UNL     1      41.555 -21.153  30.128  1.00  0.00     0.092 A 
HETATM   18  C16 UNL     1      40.352 -20.900  29.547  1.00  0.00     0.050 A 
BRANCH  16  19
HETATM   19  N2  UNL     1      43.994 -21.184  30.063  1.00  0.00    -0.325 N 
ATOM     20  H2  UNL     1      43.987 -21.939  30.748  1.00  0.00     0.165 HD
BRANCH  19  21
HETATM   21  C10 UNL     1      45.248 -20.540  29.898  1.00  0.00     0.329 C 
HETATM   22  F1  UNL     1      45.294 -19.448  30.845  1.00  0.00    -0.182 F 
HETATM   23  F2  UNL     1      45.425 -19.920  28.699  1.00  0.00    -0.182 F 
BRANCH  21  24
HETATM   24  C11 UNL     1      46.457 -21.378  30.255  1.00  0.00     0.035 C 
HETATM   25  C12 UNL     1      47.140 -21.773  28.939  1.00  0.00     0.022 C 
HETATM   26  C13 UNL     1      46.018 -22.706  30.876  1.00  0.00     0.022 C 
HETATM   27  C14 UNL     1      47.470 -20.776  31.131  1.00  0.00     0.022 C 
ENDBRANCH  21  24
ENDBRANCH  19  21
ENDBRANCH  16  19
BRANCH  17  28
HETATM   28  O1  UNL     1      41.671 -21.627  31.436  1.00  0.00    -0.358 OA
ATOM     29  H1  UNL     1      40.858 -21.834  31.882  1.00  0.00     0.217 HD
ENDBRANCH  17  28
ENDBRANCH   2  13
BRANCH   1  30
HETATM   30  C4  UNL     1      38.837 -17.855  28.224  1.00  0.00     0.079 C 
BRANCH  30  31
HETATM   31  C3  UNL     1      37.596 -17.634  28.989  1.00  0.00     0.045 C 
BRANCH  31  32
HETATM   32  C2  UNL     1      36.759 -16.456  28.730  1.00  0.00     0.001 C 
HETATM   33  C1  UNL     1      37.452 -15.170  28.459  1.00  0.00     0.005 C 
ENDBRANCH  31  32
ENDBRANCH  30  31
ENDBRANCH   1  30
BRANCH   6  34
HETATM   34  O3  UNL     1      35.299 -23.147  23.894  1.00  0.00    -0.348 OA
BRANCH  34  35
HETATM   35  C20 UNL     1      35.464 -24.368  24.586  1.00  0.00     0.180 C 
BRANCH  35  36
HETATM   36  C21 UNL     1      35.804 -25.421  23.540  1.00  0.00     0.013 C 
HETATM   37  C22 UNL     1      36.666 -26.482  24.193  1.00  0.00     0.037 C 
HETATM   38  C23 UNL     1      35.700 -27.545  24.733  1.00  0.00     0.272 C 
HETATM   39  N3  UNL     1      35.282 -28.315  23.572  1.00  0.00     0.084 N 
HETATM   40  C24 UNL     1      34.402 -29.365  23.998  1.00  0.00     0.309 C 
HETATM   41  C25 UNL     1      34.718 -27.453  22.555  1.00  0.00     0.272 C 
HETATM   42  C26 UNL     1      34.533 -26.039  23.062  1.00  0.00     0.037 C 
ENDBRANCH  35  36
ENDBRANCH  34  35
ENDBRANCH   6  34
BRANCH   7  43
HETATM   43  O4  UNL     1      34.614 -20.702  22.863  1.00  0.00    -0.358 OA
ATOM     44  H4  UNL     1      34.170 -19.874  22.725  1.00  0.00     0.217 HD
ENDBRANCH   7  43
TORSDOF 12
ENDMDL
MODEL 5
REMARK VINA RESULT: -7.880967614      0.776      1.238
REMARK  12 active torsions:
REMARK  status: ('A' for Active; 'I' for Inactive)
REMARK    1  A    between atoms: C2_2  and  C3_3 
REMARK    2  A    between atoms: C3_3  and  C4_4 
REMARK    3  A    between atoms: C4_4  and  N1_5 
REMARK    4  A    between atoms: C5_6  and  C6_7 
REMARK    5  A    between atoms: C9_10  and  N2_11 
REMARK    6  A    between atoms: N2_11  and  C10_13 
REMARK    7  A    between atoms: C10_13  and  C11_16 
REMARK    8  A    between atoms: C15_20  and  O1_21 
REMARK    9  A    between atoms: C19_27  and  O3_28 
REMARK   10  A    between atoms: O3_28  and  C20_29 
REMARK   11  A    between atoms: C20_29  and  C21_30 
REMARK   12  A    between atoms: C27_37  and  O4_38 
ROOT
HETATM    1  N1  UNL     1      37.383 -19.588  25.567  1.00  0.00    -0.253 N 
HETATM    2  C5  UNL     1      37.674 -20.744  26.353  1.00  0.00     0.279 C 
HETATM    3  O2  UNL     1      37.606 -21.923  25.619  1.00  0.00    -0.319 OA
HETATM    4  C17 UNL     1      36.524 -22.337  24.848  1.00  0.00     0.098 A 
HETATM    5  C18 UNL     1      35.956 -23.571  24.858  1.00  0.00     0.078 A 
HETATM    6  C19 UNL     1      34.873 -23.861  24.038  1.00  0.00     0.104 A 
HETATM    7  C27 UNL     1      34.339 -22.900  23.184  1.00  0.00     0.100 A 
HETATM    8  C28 UNL     1      34.927 -21.654  23.187  1.00  0.00     0.067 A 
HETATM    9  C29 UNL     1      35.994 -21.387  24.001  1.00  0.00     0.116 A 
HETATM   10  S1  UNL     1      36.802 -19.821  24.042  1.00  0.00     0.269 S 
HETATM   11  O5  UNL     1      38.012 -20.003  23.102  1.00  0.00    -0.200 OA
HETATM   12  O6  UNL     1      35.950 -18.803  23.416  1.00  0.00    -0.200 OA
ENDROOT
BRANCH   2  13
HETATM   13  C6  UNL     1      39.027 -20.651  26.971  1.00  0.00    -0.006 A 
HETATM   14  C7  UNL     1      39.157 -20.650  28.332  1.00  0.00     0.014 A 
HETATM   15  C8  UNL     1      40.384 -20.553  28.967  1.00  0.00     0.033 A 
HETATM   16  C9  UNL     1      41.526 -20.451  28.226  1.00  0.00     0.066 A 
HETATM   17  C15 UNL     1      41.392 -20.451  26.825  1.00  0.00     0.092 A 
HETATM   18  C16 UNL     1      40.172 -20.549  26.233  1.00  0.00     0.050 A 
BRANCH  16  19
HETATM   19  N2  UNL     1      42.800 -20.379  28.817  1.00  0.00    -0.325 N 
ATOM     20  H2  UNL     1      43.285 -19.491  28.685  1.00  0.00     0.165 HD
BRANCH  19  21
HETATM   21  C10 UNL     1      43.518 -21.345  29.568  1.00  0.00     0.329 C 
HETATM   22  F1  UNL     1      43.349 -22.616  28.900  1.00  0.00    -0.182 F 
HETATM   23  F2  UNL     1      43.032 -21.583  30.818  1.00  0.00    -0.182 F 
BRANCH  21  24
HETATM   24  C11 UNL     1      45.020 -21.152  29.602  1.00  0.00     0.035 C 
HETATM   25  C12 UNL     1      45.421 -20.475  28.286  1.00  0.00     0.022 C 
HETATM   26  C13 UNL     1      45.729 -22.508  29.572  1.00  0.00     0.022 C 
HETATM   27  C14 UNL     1      45.581 -20.366  30.709  1.00  0.00     0.022 C 
ENDBRANCH  21  24
ENDBRANCH  19  21
ENDBRANCH  16  19
BRANCH  17  28
HETATM   28  O1  UNL     1      42.576 -20.347  26.092  1.00  0.00    -0.358 OA
ATOM     29  H1  UNL     1      42.534 -19.824  25.300  1.00  0.00     0.217 HD
ENDBRANCH  17  28
ENDBRANCH   2  13
BRANCH   1  30
HETATM   30  C4  UNL     1      37.285 -18.381  26.258  1.00  0.00     0.079 C 
BRANCH  30  31
HETATM   31  C3  UNL     1      38.310 -17.340  26.061  1.00  0.00     0.045 C 
BRANCH  31  32
HETATM   32  C2  UNL     1      39.153 -16.902  27.180  1.00  0.00     0.001 C 
HETATM   33  C1  UNL     1      38.595 -17.032  28.551  1.00  0.00     0.005 C 
ENDBRANCH  31  32
ENDBRANCH  30  31
ENDBRANCH   1  30
BRANCH   6  34
HETATM   34  O3  UNL     1      34.277 -25.107  24.027  1.00  0.00    -0.348 OA
BRANCH  34  35
HETATM   35  C20 UNL     1      35.106 -26.249  23.955  1.00  0.00     0.180 C 
BRANCH  35  36
HETATM   36  C21 UNL     1      34.544 -27.129  22.847  1.00  0.00     0.013 C 
HETATM   37  C22 UNL     1      34.930 -26.521  21.514  1.00  0.00     0.037 C 
HETATM   38  C23 UNL     1      36.275 -27.153  21.129  1.00  0.00     0.272 C 
HETATM   39  N3  UNL     1      35.953 -28.490  20.654  1.00  0.00     0.084 N 
HETATM   40  C24 UNL     1      37.160 -29.140  20.232  1.00  0.00     0.309 C 
HETATM   41  C25 UNL     1      35.206 -29.228  21.650  1.00  0.00     0.272 C 
HETATM   42  C26 UNL     1      35.151 -28.486  22.968  1.00  0.00     0.037 C 
ENDBRANCH  35  36
ENDBRANCH  34  35
ENDBRANCH   6  34
BRANCH   7  43
HETATM   43  O4  UNL     1      33.247 -23.193  22.359  1.00  0.00    -0.358 OA
ATOM     44  H4  UNL     1      32.651 -22.511  22.072  1.00  0.00     0.217 HD
ENDBRANCH   7  43
TORSDOF 12
ENDMDL
