MODEL 1
REMARK VINA RESULT: -8.717976172      0.000      0.000
REMARK  13 active torsions:
REMARK  status: ('A' for Active; 'I' for Inactive)
REMARK    1  A    between atoms: C3_3  and  N1_6 
REMARK    2  A    between atoms: N1_6  and  C6_9 
REMARK    3  A    between atoms: C6_9  and  C7_10 
REMARK    4  A    between atoms: C8_13  and  C9_14 
REMARK    5  A    between atoms: N3_17  and  C12_18 
REMARK    6  A    between atoms: N5_29  and  C19_30 
REMARK    7  A    between atoms: N6_33  and  C22_34 
REMARK    8  A    between atoms: C22_34  and  C23_35 
REMARK    9  A    between atoms: C22_34  and  C27_39 
REMARK   10  A    between atoms: C23_35  and  C24_36 
REMARK   11  A    between atoms: C27_39  and  O1_40 
REMARK   12  A    between atoms: C27_39  and  N7_42 
REMARK   13  A    between atoms: N7_42  and  O2_44 
ROOT
HETATM    1  C1  UNL     1      35.632 -23.645  24.457  1.00  0.00     0.014 C 
HETATM    2  C2  UNL     1      36.313 -24.593  24.745  1.00  0.00    -0.079 C 
HETATM    3  C3  UNL     1      37.122 -25.761  25.096  1.00  0.00     0.180 C 
HETATM    4  C4  UNL     1      36.297 -27.013  25.213  1.00  0.00     0.060 C 
HETATM    5  C5  UNL     1      38.135 -26.006  23.968  1.00  0.00     0.060 C 
ENDROOT
BRANCH   3   6
HETATM    6  N1  UNL     1      37.891 -25.497  26.290  1.00  0.00    -0.049 N 
ATOM      7  H12 UNL     1      37.365 -24.951  26.972  1.00  0.00     0.279 HD
ATOM      8  H11 UNL     1      38.031 -26.337  26.851  1.00  0.00     0.279 HD
BRANCH   6   9
HETATM    9  C6  UNL     1      39.149 -24.862  25.934  1.00  0.00     0.311 C 
BRANCH   9  10
HETATM   10  C7  UNL     1      39.309 -23.566  26.638  1.00  0.00     0.123 A 
HETATM   11  N2  UNL     1      38.850 -22.389  26.266  1.00  0.00    -0.332 N 
HETATM   12  C8  UNL     1      39.206 -21.437  27.192  1.00  0.00     0.104 A 
ATOM     13  H2  UNL     1      38.312 -22.211  25.417  1.00  0.00     0.168 HD
HETATM   14  N5  UNL     1      39.897 -22.067  28.146  1.00  0.00    -0.274 N 
HETATM   15  N8  UNL     1      39.951 -23.368  27.793  1.00  0.00    -0.284 N 
ATOM     16  H8  UNL     1      40.416 -24.098  28.331  1.00  0.00     0.188 HD
BRANCH  12  17
HETATM   17  C9  UNL     1      38.852 -20.026  27.091  1.00  0.00     0.058 C 
HETATM   18  C10 UNL     1      37.475 -19.821  26.441  1.00  0.00     0.032 C 
HETATM   19  C11 UNL     1      37.299 -18.373  26.151  1.00  0.00     0.124 C 
HETATM   20  N3  UNL     1      38.132 -17.463  26.860  1.00  0.00    -0.378 N 
HETATM   21  C17 UNL     1      39.531 -17.702  27.218  1.00  0.00     0.124 C 
HETATM   22  C18 UNL     1      39.875 -19.076  26.622  1.00  0.00     0.032 C 
BRANCH  20  23
HETATM   23  C12 UNL     1      37.613 -16.207  27.265  1.00  0.00     0.077 A 
HETATM   24  C13 UNL     1      37.749 -15.080  26.461  1.00  0.00     0.077 A 
HETATM   25 CL1  UNL     1      38.574 -15.240  24.932  1.00  0.00    -0.080 Cl
HETATM   26  C14 UNL     1      37.239 -13.870  26.878  1.00  0.00     0.113 A 
HETATM   27  N4  UNL     1      36.611 -13.776  28.059  1.00  0.00    -0.372 N 
HETATM   28  C15 UNL     1      36.464 -14.836  28.851  1.00  0.00     0.113 A 
ATOM     29  H4  UNL     1      36.239 -12.875  28.357  1.00  0.00     0.164 HD
HETATM   30  C16 UNL     1      36.965 -16.077  28.466  1.00  0.00     0.077 A 
HETATM   31 CL2  UNL     1      36.779 -17.480  29.490  1.00  0.00    -0.080 Cl
ENDBRANCH  20  23
ENDBRANCH  12  17
BRANCH  14  32
HETATM   32  C19 UNL     1      40.472 -21.543  29.334  1.00  0.00     0.113 C 
HETATM   33  C20 UNL     1      41.740 -20.779  29.190  1.00  0.00     0.057 C 
HETATM   34  C21 UNL     1      42.941 -21.613  28.789  1.00  0.00     0.275 C 
HETATM   35  N6  UNL     1      43.170 -22.648  29.738  1.00  0.00     0.101 N 
HETATM   36  C28 UNL     1      42.198 -22.678  30.785  1.00  0.00     0.275 C 
HETATM   37  C29 UNL     1      40.780 -22.733  30.268  1.00  0.00     0.057 C 
BRANCH  35  38
HETATM   38  C22 UNL     1      44.502 -22.720  30.288  1.00  0.00     0.298 C 
BRANCH  38  39
HETATM   39  C23 UNL     1      45.538 -22.120  29.413  1.00  0.00     0.048 C 
BRANCH  39  40
HETATM   40  C24 UNL     1      46.356 -21.016  29.945  1.00  0.00    -0.020 C 
HETATM   41  C25 UNL     1      45.587 -19.946  30.676  1.00  0.00     0.009 C 
HETATM   42  C26 UNL     1      47.591 -21.377  30.685  1.00  0.00     0.009 C 
ENDBRANCH  39  40
ENDBRANCH  38  39
BRANCH  38  43
HETATM   43  C27 UNL     1      44.817 -24.080  30.782  1.00  0.00     0.169 C 
BRANCH  43  44
HETATM   44  O1  UNL     1      44.563 -25.229  30.003  1.00  0.00    -0.346 OA
ATOM     45  H1  UNL     1      45.063 -26.028  30.115  1.00  0.00     0.219 HD
ENDBRANCH  43  44
BRANCH  43  46
HETATM   46  N7  UNL     1      45.340 -24.308  31.944  1.00  0.00    -0.249 N 
ATOM     47  H7  UNL     1      45.344 -23.544  32.620  1.00  0.00     0.196 HD
BRANCH  46  48
HETATM   48  O2  UNL     1      45.880 -25.485  32.323  1.00  0.00    -0.288 OA
ATOM     49  H2  UNL     1      45.616 -25.976  33.092  1.00  0.00     0.244 HD
ENDBRANCH  46  48
ENDBRANCH  43  46
ENDBRANCH  38  43
ENDBRANCH  35  38
ENDBRANCH  14  32
ENDBRANCH   9  10
ENDBRANCH   6   9
ENDBRANCH   3   6
TORSDOF 13
ENDMDL
MODEL 2
REMARK VINA RESULT: -8.689139735      0.201      1.412
REMARK  13 active torsions:
REMARK  status: ('A' for Active; 'I' for Inactive)
REMARK    1  A    between atoms: C3_3  and  N1_6 
REMARK    2  A    between atoms: N1_6  and  C6_9 
REMARK    3  A    between atoms: C6_9  and  C7_10 
REMARK    4  A    between atoms: C8_13  and  C9_14 
REMARK    5  A    between atoms: N3_17  and  C12_18 
REMARK    6  A    between atoms: N5_29  and  C19_30 
REMARK    7  A    between atoms: N6_33  and  C22_34 
REMARK    8  A    between atoms: C22_34  and  C23_35 
REMARK    9  A    between atoms: C22_34  and  C27_39 
REMARK   10  A    between atoms: C23_35  and  C24_36 
REMARK   11  A    between atoms: C27_39  and  O1_40 
REMARK   12  A    between atoms: C27_39  and  N7_42 
REMARK   13  A    between atoms: N7_42  and  O2_44 
ROOT
HETATM    1  C1  UNL     1      35.660 -23.971  24.122  1.00  0.00     0.014 C 
HETATM    2  C2  UNL     1      36.324 -24.879  24.547  1.00  0.00    -0.079 C 
HETATM    3  C3  UNL     1      37.112 -25.997  25.066  1.00  0.00     0.180 C 
HETATM    4  C4  UNL     1      36.264 -27.200  25.373  1.00  0.00     0.060 C 
HETATM    5  C5  UNL     1      38.112 -26.429  23.984  1.00  0.00     0.060 C 
ENDROOT
BRANCH   3   6
HETATM    6  N1  UNL     1      37.895 -25.572  26.203  1.00  0.00    -0.049 N 
ATOM      7  H12 UNL     1      37.341 -25.035  26.871  1.00  0.00     0.279 HD
ATOM      8  H11 UNL     1      38.143 -26.352  26.812  1.00  0.00     0.279 HD
BRANCH   6   9
HETATM    9  C6  UNL     1      39.065 -24.839  25.749  1.00  0.00     0.311 C 
BRANCH   9  10
HETATM   10  C7  UNL     1      39.209 -23.558  26.483  1.00  0.00     0.123 A 
HETATM   11  N2  UNL     1      38.773 -22.371  26.117  1.00  0.00    -0.332 N 
HETATM   12  C8  UNL     1      39.101 -21.439  27.073  1.00  0.00     0.104 A 
ATOM     13  H2  UNL     1      38.266 -22.173  25.254  1.00  0.00     0.168 HD
HETATM   14  N5  UNL     1      39.753 -22.092  28.039  1.00  0.00    -0.274 N 
HETATM   15  N8  UNL     1      39.811 -23.387  27.663  1.00  0.00    -0.284 N 
ATOM     16  H8  UNL     1      40.252 -24.131  28.204  1.00  0.00     0.188 HD
BRANCH  12  17
HETATM   17  C9  UNL     1      38.762 -20.024  26.987  1.00  0.00     0.058 C 
HETATM   18  C10 UNL     1      37.379 -19.799  26.354  1.00  0.00     0.032 C 
HETATM   19  C11 UNL     1      37.216 -18.347  26.077  1.00  0.00     0.124 C 
HETATM   20  N3  UNL     1      38.066 -17.452  26.783  1.00  0.00    -0.378 N 
HETATM   21  C17 UNL     1      39.467 -17.708  27.123  1.00  0.00     0.124 C 
HETATM   22  C18 UNL     1      39.789 -19.082  26.513  1.00  0.00     0.032 C 
BRANCH  20  23
HETATM   23  C12 UNL     1      37.565 -16.194  27.204  1.00  0.00     0.077 A 
HETATM   24  C13 UNL     1      36.912 -16.053  28.424  1.00  0.00     0.077 A 
HETATM   25 CL1  UNL     1      36.722 -17.460  29.438  1.00  0.00    -0.080 Cl
HETATM   26  C14 UNL     1      36.431 -14.821  28.811  1.00  0.00     0.113 A 
HETATM   27  N4  UNL     1      36.590 -13.756  28.010  1.00  0.00    -0.372 N 
HETATM   28  C15 UNL     1      37.210 -13.859  26.837  1.00  0.00     0.113 A 
ATOM     29  H4  UNL     1      36.228 -12.850  28.307  1.00  0.00     0.164 HD
HETATM   30  C16 UNL     1      37.711 -15.087  26.411  1.00  0.00     0.077 A 
HETATM   31 CL2  UNL     1      38.530 -15.240  24.876  1.00  0.00    -0.080 Cl
ENDBRANCH  20  23
ENDBRANCH  12  17
BRANCH  14  32
HETATM   32  C19 UNL     1      40.290 -21.596  29.257  1.00  0.00     0.113 C 
HETATM   33  C20 UNL     1      41.548 -20.809  29.168  1.00  0.00     0.057 C 
HETATM   34  C21 UNL     1      42.773 -21.611  28.774  1.00  0.00     0.275 C 
HETATM   35  N6  UNL     1      42.994 -22.671  29.698  1.00  0.00     0.101 N 
HETATM   36  C28 UNL     1      41.996 -22.747  30.718  1.00  0.00     0.275 C 
HETATM   37  C29 UNL     1      40.594 -22.809  30.162  1.00  0.00     0.057 C 
BRANCH  35  38
HETATM   38  C22 UNL     1      44.313 -22.738  30.279  1.00  0.00     0.298 C 
BRANCH  38  39
HETATM   39  C23 UNL     1      45.377 -22.193  29.402  1.00  0.00     0.048 C 
BRANCH  39  40
HETATM   40  C24 UNL     1      46.225 -21.104  29.919  1.00  0.00    -0.020 C 
HETATM   41  C25 UNL     1      45.490 -20.017  30.661  1.00  0.00     0.009 C 
HETATM   42  C26 UNL     1      47.465 -21.488  30.639  1.00  0.00     0.009 C 
ENDBRANCH  39  40
ENDBRANCH  38  39
BRANCH  38  43
HETATM   43  C27 UNL     1      44.596 -24.080  30.839  1.00  0.00     0.169 C 
BRANCH  43  44
HETATM   44  O1  UNL     1      44.396 -25.255  30.082  1.00  0.00    -0.346 OA
ATOM     45  H1  UNL     1      45.078 -25.610  29.524  1.00  0.00     0.219 HD
ENDBRANCH  43  44
BRANCH  43  46
HETATM   46  N7  UNL     1      45.039 -24.268  32.039  1.00  0.00    -0.249 N 
ATOM     47  H7  UNL     1      44.658 -23.682  32.783  1.00  0.00     0.196 HD
BRANCH  46  48
HETATM   48  O2  UNL     1      45.970 -25.184  32.377  1.00  0.00    -0.288 OA
ATOM     49  H2  UNL     1      45.951 -25.704  33.172  1.00  0.00     0.244 HD
ENDBRANCH  46  48
ENDBRANCH  43  46
ENDBRANCH  38  43
ENDBRANCH  35  38
ENDBRANCH  14  32
ENDBRANCH   9  10
ENDBRANCH   6   9
ENDBRANCH   3   6
TORSDOF 13
ENDMDL
MODEL 3
REMARK VINA RESULT: -8.517437010      0.382      1.071
REMARK  13 active torsions:
REMARK  status: ('A' for Active; 'I' for Inactive)
REMARK    1  A    between atoms: C3_3  and  N1_6 
REMARK    2  A    between atoms: N1_6  and  C6_9 
REMARK    3  A    between atoms: C6_9  and  C7_10 
REMARK    4  A    between atoms: C8_13  and  C9_14 
REMARK    5  A    between atoms: N3_17  and  C12_18 
REMARK    6  A    between atoms: N5_29  and  C19_30 
REMARK    7  A    between atoms: N6_33  and  C22_34 
REMARK    8  A    between atoms: C22_34  and  C23_35 
REMARK    9  A    between atoms: C22_34  and  C27_39 
REMARK   10  A    between atoms: C23_35  and  C24_36 
REMARK   11  A    between atoms: C27_39  and  O1_40 
REMARK   12  A    between atoms: C27_39  and  N7_42 
REMARK   13  A    between atoms: N7_42  and  O2_44 
ROOT
HETATM    1  C1  UNL     1      38.817 -27.195  23.167  1.00  0.00     0.014 C 
HETATM    2  C2  UNL     1      38.070 -26.702  23.971  1.00  0.00    -0.079 C 
HETATM    3  C3  UNL     1      37.151 -26.088  24.930  1.00  0.00     0.180 C 
HETATM    4  C4  UNL     1      36.272 -25.048  24.295  1.00  0.00     0.060 C 
HETATM    5  C5  UNL     1      36.219 -27.181  25.474  1.00  0.00     0.060 C 
ENDROOT
BRANCH   3   6
HETATM    6  N1  UNL     1      37.884 -25.571  26.063  1.00  0.00    -0.049 N 
ATOM      7  H12 UNL     1      37.289 -25.029  26.689  1.00  0.00     0.279 HD
ATOM      8  H11 UNL     1      38.152 -26.308  26.716  1.00  0.00     0.279 HD
BRANCH   6   9
HETATM    9  C6  UNL     1      39.031 -24.807  25.600  1.00  0.00     0.311 C 
BRANCH   9  10
HETATM   10  C7  UNL     1      39.167 -23.541  26.360  1.00  0.00     0.123 A 
HETATM   11  N2  UNL     1      38.746 -22.344  26.008  1.00  0.00    -0.332 N 
HETATM   12  C8  UNL     1      39.061 -21.432  26.987  1.00  0.00     0.104 A 
ATOM     13  H2  UNL     1      38.257 -22.127  25.138  1.00  0.00     0.168 HD
HETATM   14  N5  UNL     1      39.690 -22.106  27.953  1.00  0.00    -0.274 N 
HETATM   15  N8  UNL     1      39.747 -23.395  27.555  1.00  0.00    -0.284 N 
ATOM     16  H8  UNL     1      40.173 -24.151  28.091  1.00  0.00     0.188 HD
BRANCH  12  17
HETATM   17  C9  UNL     1      38.732 -20.014  26.920  1.00  0.00     0.058 C 
HETATM   18  C10 UNL     1      37.359 -19.769  26.273  1.00  0.00     0.032 C 
HETATM   19  C11 UNL     1      37.208 -18.312  26.018  1.00  0.00     0.124 C 
HETATM   20  N3  UNL     1      38.055 -17.433  26.750  1.00  0.00    -0.378 N 
HETATM   21  C17 UNL     1      39.450 -17.704  27.103  1.00  0.00     0.124 C 
HETATM   22  C18 UNL     1      39.771 -19.070  26.475  1.00  0.00     0.032 C 
BRANCH  20  23
HETATM   23  C12 UNL     1      37.557 -16.179  27.185  1.00  0.00     0.077 A 
HETATM   24  C13 UNL     1      37.683 -15.042  26.393  1.00  0.00     0.077 A 
HETATM   25 CL1  UNL     1      38.468 -15.188  24.842  1.00  0.00    -0.080 Cl
HETATM   26  C14 UNL     1      37.194 -13.834  26.838  1.00  0.00     0.113 A 
HETATM   27  N4  UNL     1      36.596 -13.752  28.036  1.00  0.00    -0.372 N 
HETATM   28  C15 UNL     1      36.459 -14.821  28.816  1.00  0.00     0.113 A 
ATOM     29  H4  UNL     1      36.238 -12.851  28.355  1.00  0.00     0.164 HD
HETATM   30  C16 UNL     1      36.940 -16.061  28.402  1.00  0.00     0.077 A 
HETATM   31 CL2  UNL     1      36.768 -17.475  29.412  1.00  0.00    -0.080 Cl
ENDBRANCH  20  23
ENDBRANCH  12  17
BRANCH  14  32
HETATM   32  C19 UNL     1      40.205 -21.636  29.190  1.00  0.00     0.113 C 
HETATM   33  C20 UNL     1      41.452 -20.827  29.137  1.00  0.00     0.057 C 
HETATM   34  C21 UNL     1      42.693 -21.599  28.735  1.00  0.00     0.275 C 
HETATM   35  N6  UNL     1      42.922 -22.680  29.631  1.00  0.00     0.101 N 
HETATM   36  C28 UNL     1      41.914 -22.799  30.637  1.00  0.00     0.275 C 
HETATM   37  C29 UNL     1      40.519 -22.868  30.065  1.00  0.00     0.057 C 
BRANCH  35  38
HETATM   38  C22 UNL     1      44.235 -22.742  30.225  1.00  0.00     0.298 C 
BRANCH  38  39
HETATM   39  C23 UNL     1      45.309 -22.221  29.346  1.00  0.00     0.048 C 
BRANCH  39  40
HETATM   40  C24 UNL     1      46.182 -21.150  29.861  1.00  0.00    -0.020 C 
HETATM   41  C25 UNL     1      45.463 -19.992  30.503  1.00  0.00     0.009 C 
HETATM   42  C26 UNL     1      47.355 -21.558  30.674  1.00  0.00     0.009 C 
ENDBRANCH  39  40
ENDBRANCH  38  39
BRANCH  38  43
HETATM   43  C27 UNL     1      44.505 -24.074  30.815  1.00  0.00     0.169 C 
BRANCH  43  44
HETATM   44  O1  UNL     1      44.289 -25.264  30.086  1.00  0.00    -0.346 OA
ATOM     45  H1  UNL     1      43.988 -26.059  30.509  1.00  0.00     0.219 HD
ENDBRANCH  43  44
BRANCH  43  46
HETATM   46  N7  UNL     1      44.953 -24.239  32.017  1.00  0.00    -0.249 N 
ATOM     47  H7  UNL     1      44.490 -23.728  32.769  1.00  0.00     0.196 HD
BRANCH  46  48
HETATM   48  O2  UNL     1      45.987 -25.039  32.347  1.00  0.00    -0.288 OA
ATOM     49  H2  UNL     1      46.750 -24.760  32.838  1.00  0.00     0.244 HD
ENDBRANCH  46  48
ENDBRANCH  43  46
ENDBRANCH  38  43
ENDBRANCH  35  38
ENDBRANCH  14  32
ENDBRANCH   9  10
ENDBRANCH   6   9
ENDBRANCH   3   6
TORSDOF 13
ENDMDL
MODEL 4
REMARK VINA RESULT: -8.272232070      0.851      1.059
REMARK  13 active torsions:
REMARK  status: ('A' for Active; 'I' for Inactive)
REMARK    1  A    between atoms: C3_3  and  N1_6 
REMARK    2  A    between atoms: N1_6  and  C6_9 
REMARK    3  A    between atoms: C6_9  and  C7_10 
REMARK    4  A    between atoms: C8_13  and  C9_14 
REMARK    5  A    between atoms: N3_17  and  C12_18 
REMARK    6  A    between atoms: N5_29  and  C19_30 
REMARK    7  A    between atoms: N6_33  and  C22_34 
REMARK    8  A    between atoms: C22_34  and  C23_35 
REMARK    9  A    between atoms: C22_34  and  C27_39 
REMARK   10  A    between atoms: C23_35  and  C24_36 
REMARK   11  A    between atoms: C27_39  and  O1_40 
REMARK   12  A    between atoms: C27_39  and  N7_42 
REMARK   13  A    between atoms: N7_42  and  O2_44 
ROOT
HETATM    1  C1  UNL     1      35.321 -24.029  24.205  1.00  0.00     0.014 C 
HETATM    2  C2  UNL     1      36.039 -24.930  24.551  1.00  0.00    -0.079 C 
HETATM    3  C3  UNL     1      36.892 -26.041  24.973  1.00  0.00     0.180 C 
HETATM    4  C4  UNL     1      36.104 -27.289  25.260  1.00  0.00     0.060 C 
HETATM    5  C5  UNL     1      37.851 -26.381  23.823  1.00  0.00     0.060 C 
ENDROOT
BRANCH   3   6
HETATM    6  N1  UNL     1      37.715 -25.642  26.091  1.00  0.00    -0.049 N 
ATOM      7  H12 UNL     1      37.194 -25.095  26.776  1.00  0.00     0.279 HD
ATOM      8  H11 UNL     1      37.960 -26.432  26.689  1.00  0.00     0.279 HD
BRANCH   6   9
HETATM    9  C6  UNL     1      38.892 -24.937  25.609  1.00  0.00     0.311 C 
BRANCH   9  10
HETATM   10  C7  UNL     1      39.099 -23.674  26.358  1.00  0.00     0.123 A 
HETATM   11  N2  UNL     1      38.688 -22.468  26.026  1.00  0.00    -0.332 N 
HETATM   12  C8  UNL     1      39.076 -21.563  26.986  1.00  0.00     0.104 A 
ATOM     13  H2  UNL     1      38.160 -22.239  25.183  1.00  0.00     0.168 HD
HETATM   14  N5  UNL     1      39.738 -22.252  27.919  1.00  0.00    -0.274 N 
HETATM   15  N8  UNL     1      39.744 -23.541  27.521  1.00  0.00    -0.284 N 
ATOM     16  H8  UNL     1      40.178 -24.307  28.035  1.00  0.00     0.188 HD
BRANCH  12  17
HETATM   17  C9  UNL     1      38.778 -20.137  26.934  1.00  0.00     0.058 C 
HETATM   18  C10 UNL     1      37.405 -19.856  26.302  1.00  0.00     0.032 C 
HETATM   19  C11 UNL     1      37.285 -18.394  26.060  1.00  0.00     0.124 C 
HETATM   20  N3  UNL     1      38.158 -17.541  26.791  1.00  0.00    -0.378 N 
HETATM   21  C17 UNL     1      39.549 -17.846  27.129  1.00  0.00     0.124 C 
HETATM   22  C18 UNL     1      39.834 -19.213  26.487  1.00  0.00     0.032 C 
BRANCH  20  23
HETATM   23  C12 UNL     1      37.692 -16.280  27.241  1.00  0.00     0.077 A 
HETATM   24  C13 UNL     1      37.841 -15.139  26.459  1.00  0.00     0.077 A 
HETATM   25 CL1  UNL     1      38.615 -15.287  24.903  1.00  0.00    -0.080 Cl
HETATM   26  C14 UNL     1      37.383 -13.923  26.919  1.00  0.00     0.113 A 
HETATM   27  N4  UNL     1      36.793 -13.839  28.121  1.00  0.00    -0.372 N 
HETATM   28  C15 UNL     1      36.635 -14.912  28.891  1.00  0.00     0.113 A 
ATOM     29  H4  UNL     1      36.459 -12.933  28.450  1.00  0.00     0.164 HD
HETATM   30  C16 UNL     1      37.084 -16.159  28.463  1.00  0.00     0.077 A 
HETATM   31 CL2  UNL     1      36.883 -17.579  29.459  1.00  0.00    -0.080 Cl
ENDBRANCH  20  23
ENDBRANCH  12  17
BRANCH  14  32
HETATM   32  C19 UNL     1      40.329 -21.793  29.126  1.00  0.00     0.113 C 
HETATM   33  C20 UNL     1      41.691 -21.203  29.029  1.00  0.00     0.057 C 
HETATM   34  C21 UNL     1      42.788 -22.191  28.685  1.00  0.00     0.275 C 
HETATM   35  N6  UNL     1      42.841 -23.235  29.650  1.00  0.00     0.101 N 
HETATM   36  C28 UNL     1      41.832 -23.124  30.656  1.00  0.00     0.275 C 
HETATM   37  C29 UNL     1      40.441 -23.001  30.081  1.00  0.00     0.057 C 
BRANCH  35  38
HETATM   38  C22 UNL     1      44.129 -23.473  30.255  1.00  0.00     0.298 C 
BRANCH  38  39
HETATM   39  C23 UNL     1      45.149 -22.459  29.895  1.00  0.00     0.048 C 
BRANCH  39  40
HETATM   40  C24 UNL     1      45.546 -21.468  30.911  1.00  0.00    -0.020 C 
HETATM   41  C25 UNL     1      45.408 -20.028  30.488  1.00  0.00     0.009 C 
HETATM   42  C26 UNL     1      45.032 -21.663  32.290  1.00  0.00     0.009 C 
ENDBRANCH  39  40
ENDBRANCH  38  39
BRANCH  38  43
HETATM   43  C27 UNL     1      44.562 -24.879  30.084  1.00  0.00     0.169 C 
BRANCH  43  44
HETATM   44  O1  UNL     1      45.448 -25.497  30.992  1.00  0.00    -0.346 OA
ATOM     45  H1  UNL     1      45.464 -26.439  31.111  1.00  0.00     0.219 HD
ENDBRANCH  43  44
BRANCH  43  46
HETATM   46  N7  UNL     1      44.164 -25.629  29.107  1.00  0.00    -0.249 N 
ATOM     47  H7  UNL     1      43.938 -25.174  28.223  1.00  0.00     0.196 HD
BRANCH  46  48
HETATM   48  O2  UNL     1      44.027 -26.969  29.177  1.00  0.00    -0.288 OA
ATOM     49  H2  UNL     1      44.344 -27.578  28.521  1.00  0.00     0.244 HD
ENDBRANCH  46  48
ENDBRANCH  43  46
ENDBRANCH  38  43
ENDBRANCH  35  38
ENDBRANCH  14  32
ENDBRANCH   9  10
ENDBRANCH   6   9
ENDBRANCH   3   6
TORSDOF 13
ENDMDL
MODEL 5
REMARK VINA RESULT: -7.943759270      1.404      2.479
REMARK  13 active torsions:
REMARK  status: ('A' for Active; 'I' for Inactive)
REMARK    1  A    between atoms: C3_3  and  N1_6 
REMARK    2  A    between atoms: N1_6  and  C6_9 
REMARK    3  A    between atoms: C6_9  and  C7_10 
REMARK    4  A    between atoms: C8_13  and  C9_14 
REMARK    5  A    between atoms: N3_17  and  C12_18 
REMARK    6  A    between atoms: N5_29  and  C19_30 
REMARK    7  A    between atoms: N6_33  and  C22_34 
REMARK    8  A    between atoms: C22_34  and  C23_35 
REMARK    9  A    between atoms: C22_34  and  C27_39 
REMARK   10  A    between atoms: C23_35  and  C24_36 
REMARK   11  A    between atoms: C27_39  and  O1_40 
REMARK   12  A    between atoms: C27_39  and  N7_42 
REMARK   13  A    between atoms: N7_42  and  O2_44 
ROOT
HETATM    1  C1  UNL     1      42.805 -24.684  25.106  1.00  0.00     0.014 C 
HETATM    2  C2  UNL     1      41.963 -25.414  25.559  1.00  0.00    -0.079 C 
HETATM    3  C3  UNL     1      40.928 -26.304  26.088  1.00  0.00     0.180 C 
HETATM    4  C4  UNL     1      39.976 -26.769  25.022  1.00  0.00     0.060 C 
HETATM    5  C5  UNL     1      41.610 -27.561  26.647  1.00  0.00     0.060 C 
ENDROOT
BRANCH   3   6
HETATM    6  N1  UNL     1      40.248 -25.676  27.197  1.00  0.00    -0.049 N 
ATOM      7  H12 UNL     1      39.851 -26.361  27.840  1.00  0.00     0.279 HD
ATOM      8  H11 UNL     1      40.898 -25.228  27.843  1.00  0.00     0.279 HD
BRANCH   6   9
HETATM    9  C6  UNL     1      39.246 -24.748  26.698  1.00  0.00     0.311 C 
BRANCH   9  10
HETATM   10  C7  UNL     1      39.501 -23.374  27.195  1.00  0.00     0.123 A 
HETATM   11  N2  UNL     1      38.912 -22.260  26.812  1.00  0.00    -0.332 N 
HETATM   12  C8  UNL     1      39.425 -21.196  27.515  1.00  0.00     0.104 A 
ATOM     13  H2  UNL     1      38.184 -22.197  26.100  1.00  0.00     0.168 HD
HETATM   14  N5  UNL     1      40.348 -21.692  28.345  1.00  0.00    -0.274 N 
HETATM   15  N8  UNL     1      40.382 -23.025  28.137  1.00  0.00    -0.284 N 
ATOM     16  H8  UNL     1      40.995 -23.674  28.629  1.00  0.00     0.188 HD
BRANCH  12  17
HETATM   17  C9  UNL     1      38.989 -19.816  27.343  1.00  0.00     0.058 C 
HETATM   18  C10 UNL     1      37.593 -19.725  26.706  1.00  0.00     0.032 C 
HETATM   19  C11 UNL     1      37.330 -18.308  26.340  1.00  0.00     0.124 C 
HETATM   20  N3  UNL     1      38.119 -17.314  26.983  1.00  0.00    -0.378 N 
HETATM   21  C17 UNL     1      39.535 -17.453  27.330  1.00  0.00     0.124 C 
HETATM   22  C18 UNL     1      39.949 -18.837  26.805  1.00  0.00     0.032 C 
BRANCH  20  23
HETATM   23  C12 UNL     1      37.534 -16.070  27.328  1.00  0.00     0.077 A 
HETATM   24  C13 UNL     1      36.825 -15.913  28.515  1.00  0.00     0.077 A 
HETATM   25 CL1  UNL     1      36.670 -17.284  29.582  1.00  0.00    -0.080 Cl
HETATM   26  C14 UNL     1      36.263 -14.695  28.827  1.00  0.00     0.113 A 
HETATM   27  N4  UNL     1      36.398 -13.658  27.987  1.00  0.00    -0.372 N 
HETATM   28  C15 UNL     1      37.070 -13.776  26.844  1.00  0.00     0.113 A 
ATOM     29  H4  UNL     1      35.976 -12.761  28.229  1.00  0.00     0.164 HD
HETATM   30  C16 UNL     1      37.653 -14.990  26.493  1.00  0.00     0.077 A 
HETATM   31 CL2  UNL     1      38.541 -15.163  24.999  1.00  0.00    -0.080 Cl
ENDBRANCH  20  23
ENDBRANCH  12  17
BRANCH  14  32
HETATM   32  C19 UNL     1      41.156 -21.017  29.297  1.00  0.00     0.113 C 
HETATM   33  C20 UNL     1      42.554 -20.707  28.897  1.00  0.00     0.057 C 
HETATM   34  C21 UNL     1      43.457 -21.917  28.755  1.00  0.00     0.275 C 
HETATM   35  N6  UNL     1      43.512 -22.644  29.977  1.00  0.00     0.101 N 
HETATM   36  C28 UNL     1      42.677 -22.095  30.998  1.00  0.00     0.275 C 
HETATM   37  C29 UNL     1      41.247 -21.912  30.551  1.00  0.00     0.057 C 
BRANCH  35  38
HETATM   38  C22 UNL     1      44.832 -22.910  30.496  1.00  0.00     0.298 C 
BRANCH  38  39
HETATM   39  C23 UNL     1      45.916 -22.262  29.720  1.00  0.00     0.048 C 
BRANCH  39  40
HETATM   40  C24 UNL     1      46.623 -21.115  30.320  1.00  0.00    -0.020 C 
HETATM   41  C25 UNL     1      45.748 -19.943  30.680  1.00  0.00     0.009 C 
HETATM   42  C26 UNL     1      47.591 -21.405  31.408  1.00  0.00     0.009 C 
ENDBRANCH  39  40
ENDBRANCH  38  39
BRANCH  38  43
HETATM   43  C27 UNL     1      45.035 -24.353  30.761  1.00  0.00     0.169 C 
BRANCH  43  44
HETATM   44  O1  UNL     1      45.715 -24.807  31.912  1.00  0.00    -0.346 OA
ATOM     45  H1  UNL     1      45.272 -24.905  32.746  1.00  0.00     0.219 HD
ENDBRANCH  43  44
BRANCH  43  46
HETATM   46  N7  UNL     1      44.609 -25.285  29.971  1.00  0.00    -0.249 N 
ATOM     47  H7  UNL     1      43.605 -25.334  29.794  1.00  0.00     0.196 HD
BRANCH  46  48
HETATM   48  O2  UNL     1      45.398 -26.195  29.364  1.00  0.00    -0.288 OA
ATOM     49  H2  UNL     1      45.292 -26.489  28.467  1.00  0.00     0.244 HD
ENDBRANCH  46  48
ENDBRANCH  43  46
ENDBRANCH  38  43
ENDBRANCH  35  38
ENDBRANCH  14  32
ENDBRANCH   9  10
ENDBRANCH   6   9
ENDBRANCH   3   6
TORSDOF 13
ENDMDL
