MODEL 1
REMARK VINA RESULT: -7.565114776      0.000      0.000
REMARK  12 active torsions:
REMARK  status: ('A' for Active; 'I' for Inactive)
REMARK    1  A    between atoms: O1_2  and  C2_3 
REMARK    2  A    between atoms: C7_8  and  O2_9 
REMARK    3  A    between atoms: O2_9  and  C8_10 
REMARK    4  A    between atoms: C8_10  and  C9_11 
REMARK    5  A    between atoms: C8_10  and  C10_14 
REMARK    6  A    between atoms: C9_11  and  O3_12 
REMARK    7  A    between atoms: C12_16  and  O4_17 
REMARK    8  A    between atoms: C15_21  and  O5_22 
REMARK    9  A    between atoms: C18_26  and  C19_27 
REMARK   10  A    between atoms: C19_27  and  C20_28 
REMARK   11  A    between atoms: C23_32  and  O6_33 
REMARK   12  A    between atoms: C24_35  and  O7_36 
ROOT
HETATM    1  C2  UNL     1      40.204 -24.922  28.654  1.00  0.00     0.104 A 
HETATM    2  C3  UNL     1      40.761 -24.075  29.548  1.00  0.00     0.077 A 
HETATM    3  C4  UNL     1      40.952 -22.745  29.211  1.00  0.00     0.078 A 
HETATM    4  C5  UNL     1      40.566 -22.276  27.964  1.00  0.00    -0.017 A 
HETATM    5  C6  UNL     1      40.010 -23.112  27.068  1.00  0.00     0.050 A 
HETATM    6  C7  UNL     1      39.806 -24.499  27.370  1.00  0.00     0.103 A 
HETATM    7  C18 UNL     1      40.903 -20.813  27.679  1.00  0.00     0.028 C 
HETATM    8  C27 UNL     1      42.414 -20.856  28.063  1.00  0.00     0.036 C 
HETATM    9  C28 UNL     1      42.599 -21.016  29.542  1.00  0.00     0.176 C 
HETATM   10  O8  UNL     1      41.534 -21.847  30.081  1.00  0.00    -0.350 OA
ENDROOT
BRANCH   6  11
HETATM   11  O2  UNL     1      39.291 -25.285  26.485  1.00  0.00    -0.336 OA
BRANCH  11  12
HETATM   12  C8  UNL     1      38.760 -26.088  25.578  1.00  0.00     0.186 C 
BRANCH  12  13
HETATM   13  C9  UNL     1      39.797 -26.795  24.710  1.00  0.00     0.201 C 
BRANCH  13  14
HETATM   14  O3  UNL     1      40.946 -27.168  25.350  1.00  0.00    -0.398 OA
ATOM     15  H3  UNL     1      41.165 -28.090  25.294  1.00  0.00     0.209 HD
ENDBRANCH  13  14
ENDBRANCH  12  13
BRANCH  12  16
HETATM   16  C10 UNL     1      37.672 -25.477  24.721  1.00  0.00    -0.015 A 
HETATM   17  C11 UNL     1      37.798 -24.323  23.986  1.00  0.00     0.048 A 
HETATM   18  C12 UNL     1      36.746 -23.701  23.324  1.00  0.00     0.088 A 
HETATM   19  C14 UNL     1      35.477 -24.284  23.414  1.00  0.00     0.077 A 
HETATM   20 BR1  UNL     1      34.025 -23.401  22.534  1.00  0.00    -0.045 Br
HETATM   21  C15 UNL     1      35.294 -25.438  24.128  1.00  0.00     0.092 A 
HETATM   22  C16 UNL     1      36.372 -26.001  24.749  1.00  0.00    -0.018 A 
HETATM   23  C17 UNL     1      36.193 -27.375  25.293  1.00  0.00     0.052 C 
BRANCH  18  24
HETATM   24  O4  UNL     1      36.864 -22.567  22.594  1.00  0.00    -0.354 OA
HETATM   25  C13 UNL     1      37.911 -21.638  22.548  1.00  0.00     0.210 C 
ENDBRANCH  18  24
BRANCH  21  26
HETATM   26  O5  UNL     1      34.014 -25.996  24.197  1.00  0.00    -0.359 OA
ATOM     27  H5  UNL     1      33.737 -26.411  25.005  1.00  0.00     0.217 HD
ENDBRANCH  21  26
ENDBRANCH  12  16
ENDBRANCH  11  12
ENDBRANCH   6  11
BRANCH   1  28
HETATM   28  O1  UNL     1      40.019 -26.249  28.984  1.00  0.00    -0.353 OA
HETATM   29  C1  UNL     1      40.900 -27.302  28.837  1.00  0.00     0.210 C 
ENDBRANCH   1  28
BRANCH   7  30
HETATM   30  C19 UNL     1      40.276 -19.942  28.716  1.00  0.00     0.048 C 
BRANCH  30  31
HETATM   31  C20 UNL     1      39.509 -18.754  28.271  1.00  0.00    -0.053 A 
HETATM   32  C21 UNL     1      38.935 -17.788  29.021  1.00  0.00     0.034 A 
HETATM   33  C22 UNL     1      38.095 -16.781  28.518  1.00  0.00     0.070 A 
HETATM   34 CL1  UNL     1      37.392 -15.556  29.544  1.00  0.00    -0.081 Cl
HETATM   35  C23 UNL     1      37.831 -16.767  27.178  1.00  0.00     0.121 A 
HETATM   36  C24 UNL     1      38.380 -17.722  26.359  1.00  0.00     0.103 A 
HETATM   37  C26 UNL     1      39.196 -18.685  26.887  1.00  0.00     0.047 A 
BRANCH  35  38
HETATM   38  O6  UNL     1      36.993 -15.775  26.634  1.00  0.00    -0.356 OA
ATOM     39  H6  UNL     1      36.983 -14.901  27.008  1.00  0.00     0.218 HD
ENDBRANCH  35  38
BRANCH  36  40
HETATM   40  O7  UNL     1      38.069 -17.677  25.009  1.00  0.00    -0.353 OA
HETATM   41  C25 UNL     1      37.024 -18.472  24.506  1.00  0.00     0.210 C 
ENDBRANCH  36  40
ENDBRANCH  30  31
ENDBRANCH   7  30
TORSDOF 12
ENDMDL
MODEL 2
REMARK VINA RESULT: -7.377199455      3.544      6.048
REMARK  12 active torsions:
REMARK  status: ('A' for Active; 'I' for Inactive)
REMARK    1  A    between atoms: O1_2  and  C2_3 
REMARK    2  A    between atoms: C7_8  and  O2_9 
REMARK    3  A    between atoms: O2_9  and  C8_10 
REMARK    4  A    between atoms: C8_10  and  C9_11 
REMARK    5  A    between atoms: C8_10  and  C10_14 
REMARK    6  A    between atoms: C9_11  and  O3_12 
REMARK    7  A    between atoms: C12_16  and  O4_17 
REMARK    8  A    between atoms: C15_21  and  O5_22 
REMARK    9  A    between atoms: C18_26  and  C19_27 
REMARK   10  A    between atoms: C19_27  and  C20_28 
REMARK   11  A    between atoms: C23_32  and  O6_33 
REMARK   12  A    between atoms: C24_35  and  O7_36 
ROOT
HETATM    1  C2  UNL     1      37.315 -21.417  25.074  1.00  0.00     0.104 A 
HETATM    2  C3  UNL     1      37.434 -21.554  26.413  1.00  0.00     0.077 A 
HETATM    3  C4  UNL     1      38.378 -20.809  27.100  1.00  0.00     0.078 A 
HETATM    4  C5  UNL     1      39.196 -19.917  26.423  1.00  0.00    -0.017 A 
HETATM    5  C6  UNL     1      39.083 -19.773  25.088  1.00  0.00     0.050 A 
HETATM    6  C7  UNL     1      38.128 -20.533  24.336  1.00  0.00     0.103 A 
HETATM    7  C18 UNL     1      40.252 -19.215  27.275  1.00  0.00     0.028 C 
HETATM    8  C27 UNL     1      40.867 -20.480  27.948  1.00  0.00     0.036 C 
HETATM    9  C28 UNL     1      39.919 -21.093  28.933  1.00  0.00     0.176 C 
HETATM   10  O8  UNL     1      38.552 -20.928  28.463  1.00  0.00    -0.350 OA
ENDROOT
BRANCH   6  11
HETATM   11  O2  UNL     1      38.055 -20.393  23.055  1.00  0.00    -0.336 OA
BRANCH  11  12
HETATM   12  C8  UNL     1      37.984 -20.248  21.742  1.00  0.00     0.186 C 
BRANCH  12  13
HETATM   13  C9  UNL     1      38.386 -21.501  20.969  1.00  0.00     0.201 C 
BRANCH  13  14
HETATM   14  O3  UNL     1      37.974 -22.687  21.512  1.00  0.00    -0.398 OA
ATOM     15  H3  UNL     1      37.247 -23.109  21.070  1.00  0.00     0.209 HD
ENDBRANCH  13  14
ENDBRANCH  12  13
BRANCH  12  16
HETATM   16  C10 UNL     1      38.680 -19.027  21.180  1.00  0.00    -0.015 A 
HETATM   17  C11 UNL     1      40.023 -18.940  20.904  1.00  0.00     0.048 A 
HETATM   18  C12 UNL     1      40.667 -17.766  20.528  1.00  0.00     0.088 A 
HETATM   19  C14 UNL     1      39.901 -16.600  20.428  1.00  0.00     0.077 A 
HETATM   20 BR1  UNL     1      40.800 -14.980  19.950  1.00  0.00    -0.045 Br
HETATM   21  C15 UNL     1      38.556 -16.629  20.686  1.00  0.00     0.092 A 
HETATM   22  C16 UNL     1      37.985 -17.817  21.045  1.00  0.00    -0.018 A 
HETATM   23  C17 UNL     1      36.498 -17.868  21.066  1.00  0.00     0.052 C 
BRANCH  18  24
HETATM   24  O4  UNL     1      41.989 -17.674  20.248  1.00  0.00    -0.354 OA
HETATM   25  C13 UNL     1      43.095 -17.884  21.080  1.00  0.00     0.210 C 
ENDBRANCH  18  24
BRANCH  21  26
HETATM   26  O5  UNL     1      37.820 -15.447  20.577  1.00  0.00    -0.359 OA
ATOM     27  H5  UNL     1      36.877 -15.481  20.684  1.00  0.00     0.217 HD
ENDBRANCH  21  26
ENDBRANCH  12  16
ENDBRANCH  11  12
ENDBRANCH   6  11
BRANCH   1  28
HETATM   28  O1  UNL     1      36.380 -22.162  24.384  1.00  0.00    -0.353 OA
HETATM   29  C1  UNL     1      35.920 -23.434  24.663  1.00  0.00     0.210 C 
ENDBRANCH   1  28
BRANCH   7  30
HETATM   30  C19 UNL     1      39.589 -18.480  28.391  1.00  0.00     0.048 C 
BRANCH  30  31
HETATM   31  C20 UNL     1      38.845 -17.237  28.075  1.00  0.00    -0.053 A 
HETATM   32  C21 UNL     1      37.724 -16.752  28.652  1.00  0.00     0.034 A 
HETATM   33  C22 UNL     1      37.001 -15.643  28.183  1.00  0.00     0.070 A 
HETATM   34 CL1  UNL     1      35.562 -15.063  28.983  1.00  0.00    -0.081 Cl
HETATM   35  C23 UNL     1      37.452 -15.001  27.066  1.00  0.00     0.121 A 
HETATM   36  C24 UNL     1      38.585 -15.444  26.428  1.00  0.00     0.103 A 
HETATM   37  C26 UNL     1      39.263 -16.526  26.918  1.00  0.00     0.047 A 
BRANCH  35  38
HETATM   38  O6  UNL     1      36.756 -13.885  26.562  1.00  0.00    -0.356 OA
ATOM     39  H6  UNL     1      36.563 -13.823  25.634  1.00  0.00     0.218 HD
ENDBRANCH  35  38
BRANCH  36  40
HETATM   40  O7  UNL     1      38.995 -14.771  25.288  1.00  0.00    -0.353 OA
HETATM   41  C25 UNL     1      39.333 -15.497  24.133  1.00  0.00     0.210 C 
ENDBRANCH  36  40
ENDBRANCH  30  31
ENDBRANCH   7  30
TORSDOF 12
ENDMDL
MODEL 3
REMARK VINA RESULT: -7.368780873      3.127      7.617
REMARK  12 active torsions:
REMARK  status: ('A' for Active; 'I' for Inactive)
REMARK    1  A    between atoms: O1_2  and  C2_3 
REMARK    2  A    between atoms: C7_8  and  O2_9 
REMARK    3  A    between atoms: O2_9  and  C8_10 
REMARK    4  A    between atoms: C8_10  and  C9_11 
REMARK    5  A    between atoms: C8_10  and  C10_14 
REMARK    6  A    between atoms: C9_11  and  O3_12 
REMARK    7  A    between atoms: C12_16  and  O4_17 
REMARK    8  A    between atoms: C15_21  and  O5_22 
REMARK    9  A    between atoms: C18_26  and  C19_27 
REMARK   10  A    between atoms: C19_27  and  C20_28 
REMARK   11  A    between atoms: C23_32  and  O6_33 
REMARK   12  A    between atoms: C24_35  and  O7_36 
ROOT
HETATM    1  C2  UNL     1      42.099 -21.527  28.853  1.00  0.00     0.104 A 
HETATM    2  C3  UNL     1      42.598 -22.777  28.973  1.00  0.00     0.077 A 
HETATM    3  C4  UNL     1      41.816 -23.866  28.625  1.00  0.00     0.078 A 
HETATM    4  C5  UNL     1      40.527 -23.681  28.147  1.00  0.00    -0.017 A 
HETATM    5  C6  UNL     1      40.023 -22.438  28.024  1.00  0.00     0.050 A 
HETATM    6  C7  UNL     1      40.792 -21.283  28.384  1.00  0.00     0.103 A 
HETATM    7  C18 UNL     1      39.735 -24.959  27.875  1.00  0.00     0.028 C 
HETATM    8  C27 UNL     1      39.963 -25.654  29.252  1.00  0.00     0.036 C 
HETATM    9  C28 UNL     1      41.384 -26.104  29.411  1.00  0.00     0.176 C 
HETATM   10  O8  UNL     1      42.272 -25.162  28.748  1.00  0.00    -0.350 OA
ENDROOT
BRANCH   6  11
HETATM   11  O2  UNL     1      40.278 -20.104  28.277  1.00  0.00    -0.336 OA
BRANCH  11  12
HETATM   12  C8  UNL     1      39.750 -18.897  28.164  1.00  0.00     0.186 C 
BRANCH  12  13
HETATM   13  C9  UNL     1      39.156 -18.369  29.467  1.00  0.00     0.201 C 
BRANCH  13  14
HETATM   14  O3  UNL     1      39.742 -18.833  30.613  1.00  0.00    -0.398 OA
ATOM     15  H3  UNL     1      40.504 -18.349  30.908  1.00  0.00     0.209 HD
ENDBRANCH  13  14
ENDBRANCH  12  13
BRANCH  12  16
HETATM   16  C10 UNL     1      38.775 -18.714  27.020  1.00  0.00    -0.015 A 
HETATM   17  C11 UNL     1      37.818 -19.625  26.644  1.00  0.00     0.048 A 
HETATM   18  C12 UNL     1      37.032 -19.503  25.503  1.00  0.00     0.088 A 
HETATM   19  C14 UNL     1      37.231 -18.386  24.685  1.00  0.00     0.077 A 
HETATM   20 BR1  UNL     1      36.175 -18.245  23.095  1.00  0.00    -0.045 Br
HETATM   21  C15 UNL     1      38.168 -17.443  25.014  1.00  0.00     0.092 A 
HETATM   22  C16 UNL     1      38.902 -17.620  26.153  1.00  0.00    -0.018 A 
HETATM   23  C17 UNL     1      39.717 -16.464  26.613  1.00  0.00     0.052 C 
BRANCH  18  24
HETATM   24  O4  UNL     1      36.083 -20.393  25.129  1.00  0.00    -0.354 OA
HETATM   25  C13 UNL     1      35.684 -21.586  25.744  1.00  0.00     0.210 C 
ENDBRANCH  18  24
BRANCH  21  26
HETATM   26  O5  UNL     1      38.341 -16.338  24.177  1.00  0.00    -0.359 OA
ATOM     27  H5  UNL     1      38.963 -15.665  24.426  1.00  0.00     0.217 HD
ENDBRANCH  21  26
ENDBRANCH  12  16
ENDBRANCH  11  12
ENDBRANCH   6  11
BRANCH   1  28
HETATM   28  O1  UNL     1      42.872 -20.439  29.204  1.00  0.00    -0.353 OA
HETATM   29  C1  UNL     1      44.217 -20.407  29.519  1.00  0.00     0.210 C 
ENDBRANCH   1  28
BRANCH   7  30
HETATM   30  C19 UNL     1      40.474 -25.809  26.897  1.00  0.00     0.048 C 
BRANCH  30  31
HETATM   31  C20 UNL     1      39.733 -26.357  25.737  1.00  0.00    -0.053 A 
HETATM   32  C21 UNL     1      40.221 -26.874  24.588  1.00  0.00     0.034 A 
HETATM   33  C22 UNL     1      39.439 -27.229  23.477  1.00  0.00     0.070 A 
HETATM   34 CL1  UNL     1      40.136 -27.902  22.024  1.00  0.00    -0.081 Cl
HETATM   35  C23 UNL     1      38.089 -27.042  23.548  1.00  0.00     0.121 A 
HETATM   36  C24 UNL     1      37.527 -26.517  24.685  1.00  0.00     0.103 A 
HETATM   37  C26 UNL     1      38.322 -26.187  25.749  1.00  0.00     0.047 A 
BRANCH  35  38
HETATM   38  O6  UNL     1      37.269 -27.384  22.455  1.00  0.00    -0.356 OA
ATOM     39  H6  UNL     1      36.416 -26.978  22.354  1.00  0.00     0.218 HD
ENDBRANCH  35  38
BRANCH  36  40
HETATM   40  O7  UNL     1      36.154 -26.330  24.706  1.00  0.00    -0.353 OA
HETATM   41  C25 UNL     1      35.613 -25.088  24.326  1.00  0.00     0.210 C 
ENDBRANCH  36  40
ENDBRANCH  30  31
ENDBRANCH   7  30
TORSDOF 12
ENDMDL
MODEL 4
REMARK VINA RESULT: -7.226066419      4.067      7.995
REMARK  12 active torsions:
REMARK  status: ('A' for Active; 'I' for Inactive)
REMARK    1  A    between atoms: O1_2  and  C2_3 
REMARK    2  A    between atoms: C7_8  and  O2_9 
REMARK    3  A    between atoms: O2_9  and  C8_10 
REMARK    4  A    between atoms: C8_10  and  C9_11 
REMARK    5  A    between atoms: C8_10  and  C10_14 
REMARK    6  A    between atoms: C9_11  and  O3_12 
REMARK    7  A    between atoms: C12_16  and  O4_17 
REMARK    8  A    between atoms: C15_21  and  O5_22 
REMARK    9  A    between atoms: C18_26  and  C19_27 
REMARK   10  A    between atoms: C19_27  and  C20_28 
REMARK   11  A    between atoms: C23_32  and  O6_33 
REMARK   12  A    between atoms: C24_35  and  O7_36 
ROOT
HETATM    1  C2  UNL     1      39.020 -17.925  28.415  1.00  0.00     0.104 A 
HETATM    2  C3  UNL     1      39.326 -18.747  29.443  1.00  0.00     0.077 A 
HETATM    3  C4  UNL     1      40.218 -19.789  29.249  1.00  0.00     0.078 A 
HETATM    4  C5  UNL     1      40.805 -19.988  28.008  1.00  0.00    -0.017 A 
HETATM    5  C6  UNL     1      40.506 -19.173  26.979  1.00  0.00     0.050 A 
HETATM    6  C7  UNL     1      39.578 -18.090  27.131  1.00  0.00     0.103 A 
HETATM    7  C18 UNL     1      41.707 -21.216  27.895  1.00  0.00     0.028 C 
HETATM    8  C27 UNL     1      40.710 -22.272  28.465  1.00  0.00     0.036 C 
HETATM    9  C28 UNL     1      40.493 -22.084  29.935  1.00  0.00     0.176 C 
HETATM   10  O8  UNL     1      40.548 -20.667  30.260  1.00  0.00    -0.350 OA
ENDROOT
BRANCH   6  11
HETATM   11  O2  UNL     1      39.292 -17.336  26.123  1.00  0.00    -0.336 OA
BRANCH  11  12
HETATM   12  C8  UNL     1      39.002 -16.566  25.089  1.00  0.00     0.186 C 
BRANCH  12  13
HETATM   13  C9  UNL     1      38.263 -15.286  25.472  1.00  0.00     0.201 C 
BRANCH  13  14
HETATM   14  O3  UNL     1      37.052 -15.464  26.081  1.00  0.00    -0.398 OA
ATOM     15  H3  UNL     1      36.308 -15.550  25.497  1.00  0.00     0.209 HD
ENDBRANCH  13  14
ENDBRANCH  12  13
BRANCH  12  16
HETATM   16  C10 UNL     1      38.310 -17.256  23.933  1.00  0.00    -0.015 A 
HETATM   17  C11 UNL     1      37.295 -18.174  24.053  1.00  0.00     0.048 A 
HETATM   18  C12 UNL     1      36.774 -18.904  22.991  1.00  0.00     0.088 A 
HETATM   19  C14 UNL     1      37.319 -18.694  21.719  1.00  0.00     0.077 A 
HETATM   20 BR1  UNL     1      36.626 -19.730  20.268  1.00  0.00    -0.045 Br
HETATM   21  C15 UNL     1      38.329 -17.786  21.540  1.00  0.00     0.092 A 
HETATM   22  C16 UNL     1      38.791 -17.097  22.626  1.00  0.00    -0.018 A 
HETATM   23  C17 UNL     1      39.696 -15.948  22.357  1.00  0.00     0.052 C 
BRANCH  18  24
HETATM   24  O4  UNL     1      35.770 -19.806  23.100  1.00  0.00    -0.354 OA
HETATM   25  C13 UNL     1      35.610 -20.859  24.009  1.00  0.00     0.210 C 
ENDBRANCH  18  24
BRANCH  21  26
HETATM   26  O5  UNL     1      38.851 -17.599  20.257  1.00  0.00    -0.359 OA
ATOM     27  H5  UNL     1      39.691 -17.166  20.161  1.00  0.00     0.217 HD
ENDBRANCH  21  26
ENDBRANCH  12  16
ENDBRANCH  11  12
ENDBRANCH   6  11
BRANCH   1  28
HETATM   28  O1  UNL     1      38.127 -16.890  28.602  1.00  0.00    -0.353 OA
HETATM   29  C1  UNL     1      36.909 -16.913  29.254  1.00  0.00     0.210 C 
ENDBRANCH   1  28
BRANCH   7  30
HETATM   30  C19 UNL     1      42.793 -21.137  28.914  1.00  0.00     0.048 C 
BRANCH  30  31
HETATM   31  C20 UNL     1      44.190 -20.978  28.445  1.00  0.00    -0.053 A 
HETATM   32  C21 UNL     1      44.636 -20.524  27.253  1.00  0.00     0.034 A 
HETATM   33  C22 UNL     1      45.978 -20.553  26.840  1.00  0.00     0.070 A 
HETATM   34 CL1  UNL     1      46.487 -19.940  25.287  1.00  0.00    -0.081 Cl
HETATM   35  C23 UNL     1      46.907 -21.076  27.692  1.00  0.00     0.121 A 
HETATM   36  C24 UNL     1      46.522 -21.558  28.918  1.00  0.00     0.103 A 
HETATM   37  C26 UNL     1      45.205 -21.509  29.286  1.00  0.00     0.047 A 
BRANCH  35  38
HETATM   38  O6  UNL     1      48.264 -21.125  27.315  1.00  0.00    -0.356 OA
ATOM     39  H6  UNL     1      48.872 -21.674  27.796  1.00  0.00     0.218 HD
ENDBRANCH  35  38
BRANCH  36  40
HETATM   40  O7  UNL     1      47.498 -22.095  29.742  1.00  0.00    -0.353 OA
HETATM   41  C25 UNL     1      47.856 -21.428  30.927  1.00  0.00     0.210 C 
ENDBRANCH  36  40
ENDBRANCH  30  31
ENDBRANCH   7  30
TORSDOF 12
ENDMDL
MODEL 5
REMARK VINA RESULT: -7.184854747      3.869      8.197
REMARK  12 active torsions:
REMARK  status: ('A' for Active; 'I' for Inactive)
REMARK    1  A    between atoms: O1_2  and  C2_3 
REMARK    2  A    between atoms: C7_8  and  O2_9 
REMARK    3  A    between atoms: O2_9  and  C8_10 
REMARK    4  A    between atoms: C8_10  and  C9_11 
REMARK    5  A    between atoms: C8_10  and  C10_14 
REMARK    6  A    between atoms: C9_11  and  O3_12 
REMARK    7  A    between atoms: C12_16  and  O4_17 
REMARK    8  A    between atoms: C15_21  and  O5_22 
REMARK    9  A    between atoms: C18_26  and  C19_27 
REMARK   10  A    between atoms: C19_27  and  C20_28 
REMARK   11  A    between atoms: C23_32  and  O6_33 
REMARK   12  A    between atoms: C24_35  and  O7_36 
ROOT
HETATM    1  C2  UNL     1      39.554 -20.943  26.565  1.00  0.00     0.104 A 
HETATM    2  C3  UNL     1      39.253 -21.953  25.719  1.00  0.00     0.077 A 
HETATM    3  C4  UNL     1      38.039 -21.954  25.053  1.00  0.00     0.078 A 
HETATM    4  C5  UNL     1      37.133 -20.921  25.243  1.00  0.00    -0.017 A 
HETATM    5  C6  UNL     1      37.426 -19.911  26.084  1.00  0.00     0.050 A 
HETATM    6  C7  UNL     1      38.665 -19.875  26.803  1.00  0.00     0.103 A 
HETATM    7  C18 UNL     1      35.797 -21.075  24.519  1.00  0.00     0.028 C 
HETATM    8  C27 UNL     1      35.449 -22.516  25.004  1.00  0.00     0.036 C 
HETATM    9  C28 UNL     1      36.349 -23.537  24.379  1.00  0.00     0.176 C 
HETATM   10  O8  UNL     1      37.677 -22.972  24.194  1.00  0.00    -0.350 OA
ENDROOT
BRANCH   6  11
HETATM   11  O2  UNL     1      38.912 -18.907  27.620  1.00  0.00    -0.336 OA
BRANCH  11  12
HETATM   12  C8  UNL     1      39.168 -17.916  28.457  1.00  0.00     0.186 C 
BRANCH  12  13
HETATM   13  C9  UNL     1      39.079 -18.322  29.926  1.00  0.00     0.201 C 
BRANCH  13  14
HETATM   14  O3  UNL     1      39.895 -19.354  30.302  1.00  0.00    -0.398 OA
ATOM     15  H3  UNL     1      39.662 -20.207  29.955  1.00  0.00     0.209 HD
ENDBRANCH  13  14
ENDBRANCH  12  13
BRANCH  12  16
HETATM   16  C10 UNL     1      38.399 -16.636  28.210  1.00  0.00    -0.015 A 
HETATM   17  C11 UNL     1      37.417 -16.133  29.028  1.00  0.00     0.048 A 
HETATM   18  C12 UNL     1      36.623 -15.037  28.710  1.00  0.00     0.088 A 
HETATM   19  C14 UNL     1      36.835 -14.408  27.478  1.00  0.00     0.077 A 
HETATM   20 BR1  UNL     1      35.712 -12.925  27.029  1.00  0.00    -0.045 Br
HETATM   21  C15 UNL     1      37.805 -14.862  26.625  1.00  0.00     0.092 A 
HETATM   22  C16 UNL     1      38.554 -15.941  27.003  1.00  0.00    -0.018 A 
HETATM   23  C17 UNL     1      39.756 -16.245  26.179  1.00  0.00     0.052 C 
BRANCH  18  24
HETATM   24  O4  UNL     1      35.657 -14.532  29.513  1.00  0.00    -0.354 OA
HETATM   25  C13 UNL     1      34.296 -14.857  29.588  1.00  0.00     0.210 C 
ENDBRANCH  18  24
BRANCH  21  26
HETATM   26  O5  UNL     1      37.992 -14.212  25.403  1.00  0.00    -0.359 OA
ATOM     27  H5  UNL     1      38.148 -14.732  24.624  1.00  0.00     0.217 HD
ENDBRANCH  21  26
ENDBRANCH  12  16
ENDBRANCH  11  12
ENDBRANCH   6  11
BRANCH   1  28
HETATM   28  O1  UNL     1      40.760 -20.942  27.235  1.00  0.00    -0.353 OA
HETATM   29  C1  UNL     1      41.990 -20.501  26.789  1.00  0.00     0.210 C 
ENDBRANCH   1  28
BRANCH   7  30
HETATM   30  C19 UNL     1      36.034 -21.219  23.053  1.00  0.00     0.048 C 
BRANCH  30  31
HETATM   31  C20 UNL     1      36.284 -19.996  22.255  1.00  0.00    -0.053 A 
HETATM   32  C21 UNL     1      35.396 -19.080  21.809  1.00  0.00     0.034 A 
HETATM   33  C22 UNL     1      35.705 -18.032  20.927  1.00  0.00     0.070 A 
HETATM   34 CL1  UNL     1      34.508 -16.876  20.398  1.00  0.00    -0.081 Cl
HETATM   35  C23 UNL     1      36.990 -17.920  20.479  1.00  0.00     0.121 A 
HETATM   36  C24 UNL     1      37.942 -18.819  20.890  1.00  0.00     0.103 A 
HETATM   37  C26 UNL     1      37.602 -19.825  21.753  1.00  0.00     0.047 A 
BRANCH  35  38
HETATM   38  O6  UNL     1      37.341 -16.883  19.593  1.00  0.00    -0.356 OA
ATOM     39  H6  UNL     1      38.239 -16.795  19.295  1.00  0.00     0.218 HD
ENDBRANCH  35  38
BRANCH  36  40
HETATM   40  O7  UNL     1      39.228 -18.676  20.396  1.00  0.00    -0.353 OA
HETATM   41  C25 UNL     1      40.250 -18.196  21.234  1.00  0.00     0.210 C 
ENDBRANCH  36  40
ENDBRANCH  30  31
ENDBRANCH   7  30
TORSDOF 12
ENDMDL
