MODEL 1
REMARK VINA RESULT: -8.600642699      0.000      0.000
REMARK  13 active torsions:
REMARK  status: ('A' for Active; 'I' for Inactive)
REMARK    1  A    between atoms: C2_2  and  C3_3 
REMARK    2  A    between atoms: C3_3  and  C4_4 
REMARK    3  A    between atoms: C4_4  and  C5_5 
REMARK    4  A    between atoms: C5_5  and  O1_6 
REMARK    5  A    between atoms: O1_6  and  C6_7 
REMARK    6  A    between atoms: C7_8  and  O2_9 
REMARK    7  A    between atoms: C14_18  and  C15_19 
REMARK    8  A    between atoms: C15_19  and  O4_20 
REMARK    9  A    between atoms: O4_20  and  C16_21 
REMARK   10  A    between atoms: C18_24  and  O6_25 
REMARK   11  A    between atoms: C20_27  and  O7_28 
REMARK   12  A    between atoms: C21_30  and  O8_31 
REMARK   13  A    between atoms: C23_34  and  O9_35 
ROOT
HETATM    1  C6  UNL     1      60.152  56.821 113.203  1.00  0.00     0.187 C 
HETATM    2  C7  UNL     1      61.422  56.094 112.772  1.00  0.00     0.173 C 
HETATM    3  C8  UNL     1      60.955  54.776 112.265  1.00  0.00     0.203 C 
HETATM    4  O3  UNL     1      59.759  54.575 112.897  1.00  0.00    -0.374 OA
HETATM    5  C9  UNL     1      59.114  55.803 113.041  1.00  0.00     0.095 C 
HETATM    6  C10 UNL     1      58.478  56.031 111.657  1.00  0.00     0.045 C 
HETATM    7  C11 UNL     1      57.310  55.185 111.404  1.00  0.00     0.037 C 
HETATM    8  C12 UNL     1      56.011  55.706 112.022  1.00  0.00    -0.075 C 
HETATM    9  C13 UNL     1      54.816  55.166 111.327  1.00  0.00     0.044 C 
HETATM   10  C14 UNL     1      55.792  56.453 113.093  1.00  0.00    -0.027 C 
HETATM   11  C22 UNL     1      57.028  56.871 113.927  1.00  0.00     0.057 C 
HETATM   12  C23 UNL     1      56.818  57.603 115.150  1.00  0.00     0.127 C 
HETATM   13  C24 UNL     1      56.932  56.818 116.448  1.00  0.00     0.033 C 
HETATM   14  C25 UNL     1      58.228  56.051 116.513  1.00  0.00     0.012 C 
HETATM   15  C26 UNL     1      58.201  55.123 115.339  1.00  0.00    -0.040 C 
HETATM   16  C27 UNL     1      57.000  54.202 115.696  1.00  0.00     0.015 C 
HETATM   17  C28 UNL     1      59.371  54.196 115.464  1.00  0.00     0.015 C 
HETATM   18  C29 UNL     1      57.980  55.696 114.008  1.00  0.00     0.042 C 
ENDROOT
BRANCH  10  19
HETATM   19  C15 UNL     1      54.531  56.866 113.531  1.00  0.00     0.146 C 
BRANCH  19  20
HETATM   20  O4  UNL     1      53.344  57.203 113.048  1.00  0.00    -0.329 OA
BRANCH  20  21
HETATM   21  C16 UNL     1      52.805  58.393 113.460  1.00  0.00     0.296 C 
HETATM   22  O5  UNL     1      51.615  58.619 112.625  1.00  0.00    -0.356 OA
HETATM   23  C17 UNL     1      52.027  58.604 111.297  1.00  0.00     0.205 C 
HETATM   24  C18 UNL     1      52.936  59.753 110.968  1.00  0.00     0.176 C 
HETATM   25  C20 UNL     1      53.253  60.501 112.218  1.00  0.00     0.182 C 
HETATM   26  C21 UNL     1      53.649  59.594 113.353  1.00  0.00     0.205 C 
BRANCH  24  27
HETATM   27  O6  UNL     1      54.054  59.299 110.293  1.00  0.00    -0.386 OA
HETATM   28  C19 UNL     1      53.790  58.209 109.473  1.00  0.00     0.202 C 
ENDBRANCH  24  27
BRANCH  25  29
HETATM   29  O7  UNL     1      52.262  61.365 112.620  1.00  0.00    -0.390 OA
ATOM     30  H7  UNL     1      52.209  61.482 113.561  1.00  0.00     0.210 HD
ENDBRANCH  25  29
BRANCH  26  31
HETATM   31  O8  UNL     1      53.574  60.328 114.541  1.00  0.00    -0.388 OA
ATOM     32  H8  UNL     1      54.385  60.803 114.675  1.00  0.00     0.210 HD
ENDBRANCH  26  31
ENDBRANCH  20  21
ENDBRANCH  19  20
ENDBRANCH  10  19
BRANCH  12  33
HETATM   33  O9  UNL     1      55.795  58.479 115.344  1.00  0.00    -0.395 OA
ATOM     34  H9  UNL     1      55.246  58.489 116.119  1.00  0.00     0.210 HD
ENDBRANCH  12  33
BRANCH   1  35
HETATM   35  O1  UNL     1      59.966  57.971 112.443  1.00  0.00    -0.380 OA
BRANCH  35  36
HETATM   36  C5  UNL     1      59.913  59.154 113.127  1.00  0.00     0.168 C 
BRANCH  36  37
HETATM   37  C4  UNL     1      60.371  60.245 112.183  1.00  0.00     0.026 C 
BRANCH  37  38
HETATM   38  C3  UNL     1      61.442  59.728 111.232  1.00  0.00     0.002 C 
BRANCH  38  39
HETATM   39  C2  UNL     1      61.396  60.474 109.921  1.00  0.00    -0.004 C 
HETATM   40  C1  UNL     1      60.521  61.684 110.082  1.00  0.00     0.005 C 
ENDBRANCH  38  39
ENDBRANCH  37  38
ENDBRANCH  36  37
ENDBRANCH  35  36
ENDBRANCH   1  35
BRANCH   2  41
HETATM   41  O2  UNL     1      62.363  56.008 113.796  1.00  0.00    -0.391 OA
ATOM     42  H2  UNL     1      63.217  56.331 113.534  1.00  0.00     0.210 HD
ENDBRANCH   2  41
TORSDOF 13
ENDMDL
MODEL 2
REMARK VINA RESULT: -8.577495925      1.016      1.136
REMARK  13 active torsions:
REMARK  status: ('A' for Active; 'I' for Inactive)
REMARK    1  A    between atoms: C2_2  and  C3_3 
REMARK    2  A    between atoms: C3_3  and  C4_4 
REMARK    3  A    between atoms: C4_4  and  C5_5 
REMARK    4  A    between atoms: C5_5  and  O1_6 
REMARK    5  A    between atoms: O1_6  and  C6_7 
REMARK    6  A    between atoms: C7_8  and  O2_9 
REMARK    7  A    between atoms: C14_18  and  C15_19 
REMARK    8  A    between atoms: C15_19  and  O4_20 
REMARK    9  A    between atoms: O4_20  and  C16_21 
REMARK   10  A    between atoms: C18_24  and  O6_25 
REMARK   11  A    between atoms: C20_27  and  O7_28 
REMARK   12  A    between atoms: C21_30  and  O8_31 
REMARK   13  A    between atoms: C23_34  and  O9_35 
ROOT
HETATM    1  C6  UNL     1      60.685  56.470 114.503  1.00  0.00     0.187 C 
HETATM    2  C7  UNL     1      61.894  55.539 114.463  1.00  0.00     0.173 C 
HETATM    3  C8  UNL     1      61.438  54.355 113.688  1.00  0.00     0.203 C 
HETATM    4  O3  UNL     1      60.080  54.351 113.842  1.00  0.00    -0.374 OA
HETATM    5  C9  UNL     1      59.628  55.670 113.885  1.00  0.00     0.095 C 
HETATM    6  C10 UNL     1      59.576  56.072 112.399  1.00  0.00     0.045 C 
HETATM    7  C11 UNL     1      58.459  55.468 111.669  1.00  0.00     0.037 C 
HETATM    8  C12 UNL     1      57.124  56.194 111.852  1.00  0.00    -0.075 C 
HETATM    9  C13 UNL     1      56.189  55.915 110.734  1.00  0.00     0.044 C 
HETATM   10  C14 UNL     1      56.656  56.920 112.855  1.00  0.00    -0.027 C 
HETATM   11  C22 UNL     1      57.559  57.065 114.104  1.00  0.00     0.057 C 
HETATM   12  C23 UNL     1      57.042  57.769 115.250  1.00  0.00     0.127 C 
HETATM   13  C24 UNL     1      56.557  56.921 116.416  1.00  0.00     0.033 C 
HETATM   14  C25 UNL     1      57.605  55.925 116.843  1.00  0.00     0.012 C 
HETATM   15  C26 UNL     1      57.856  55.071 115.639  1.00  0.00    -0.040 C 
HETATM   16  C27 UNL     1      56.478  54.373 115.458  1.00  0.00     0.015 C 
HETATM   17  C28 UNL     1      58.741  53.938 116.061  1.00  0.00     0.015 C 
HETATM   18  C29 UNL     1      58.221  55.731 114.383  1.00  0.00     0.042 C 
ENDROOT
BRANCH  10  19
HETATM   19  C15 UNL     1      55.403  57.540 112.872  1.00  0.00     0.146 C 
BRANCH  19  20
HETATM   20  O4  UNL     1      54.123  57.243 113.040  1.00  0.00    -0.329 OA
BRANCH  20  21
HETATM   21  C16 UNL     1      53.297  58.234 113.503  1.00  0.00     0.296 C 
HETATM   22  O5  UNL     1      52.016  58.067 112.799  1.00  0.00    -0.356 OA
HETATM   23  C17 UNL     1      52.277  58.129 111.435  1.00  0.00     0.205 C 
HETATM   24  C18 UNL     1      52.764  59.483 111.006  1.00  0.00     0.176 C 
HETATM   25  C20 UNL     1      52.967  60.335 112.214  1.00  0.00     0.182 C 
HETATM   26  C21 UNL     1      53.728  59.626 113.303  1.00  0.00     0.205 C 
BRANCH  24  27
HETATM   27  O6  UNL     1      53.893  59.358 110.218  1.00  0.00    -0.386 OA
HETATM   28  C19 UNL     1      53.822  58.290 109.332  1.00  0.00     0.202 C 
ENDBRANCH  24  27
BRANCH  25  29
HETATM   29  O7  UNL     1      51.810  60.880 112.716  1.00  0.00    -0.390 OA
ATOM     30  H7  UNL     1      51.913  61.758 113.062  1.00  0.00     0.210 HD
ENDBRANCH  25  29
BRANCH  26  31
HETATM   31  O8  UNL     1      53.557  60.347 114.490  1.00  0.00    -0.388 OA
ATOM     32  H8  UNL     1      53.061  59.826 115.110  1.00  0.00     0.210 HD
ENDBRANCH  26  31
ENDBRANCH  20  21
ENDBRANCH  19  20
ENDBRANCH  10  19
BRANCH  12  33
HETATM   33  O9  UNL     1      56.169  58.809 115.171  1.00  0.00    -0.395 OA
ATOM     34  H9  UNL     1      56.182  59.461 114.480  1.00  0.00     0.210 HD
ENDBRANCH  12  33
BRANCH   1  35
HETATM   35  O1  UNL     1      60.968  57.667 113.854  1.00  0.00    -0.380 OA
BRANCH  35  36
HETATM   36  C5  UNL     1      62.290  57.958 113.657  1.00  0.00     0.168 C 
BRANCH  36  37
HETATM   37  C4  UNL     1      62.410  58.632 112.307  1.00  0.00     0.026 C 
BRANCH  37  38
HETATM   38  C3  UNL     1      61.127  59.370 111.951  1.00  0.00     0.002 C 
BRANCH  38  39
HETATM   39  C2  UNL     1      61.273  60.085 110.629  1.00  0.00    -0.004 C 
HETATM   40  C1  UNL     1      60.581  61.415 110.718  1.00  0.00     0.005 C 
ENDBRANCH  38  39
ENDBRANCH  37  38
ENDBRANCH  36  37
ENDBRANCH  35  36
ENDBRANCH   1  35
BRANCH   2  41
HETATM   41  O2  UNL     1      62.378  55.237 115.733  1.00  0.00    -0.391 OA
ATOM     42  H2  UNL     1      63.303  55.020 115.729  1.00  0.00     0.210 HD
ENDBRANCH   2  41
TORSDOF 13
ENDMDL
MODEL 3
REMARK VINA RESULT: -8.397405621      1.334      2.161
REMARK  13 active torsions:
REMARK  status: ('A' for Active; 'I' for Inactive)
REMARK    1  A    between atoms: C2_2  and  C3_3 
REMARK    2  A    between atoms: C3_3  and  C4_4 
REMARK    3  A    between atoms: C4_4  and  C5_5 
REMARK    4  A    between atoms: C5_5  and  O1_6 
REMARK    5  A    between atoms: O1_6  and  C6_7 
REMARK    6  A    between atoms: C7_8  and  O2_9 
REMARK    7  A    between atoms: C14_18  and  C15_19 
REMARK    8  A    between atoms: C15_19  and  O4_20 
REMARK    9  A    between atoms: O4_20  and  C16_21 
REMARK   10  A    between atoms: C18_24  and  O6_25 
REMARK   11  A    between atoms: C20_27  and  O7_28 
REMARK   12  A    between atoms: C21_30  and  O8_31 
REMARK   13  A    between atoms: C23_34  and  O9_35 
ROOT
HETATM    1  C6  UNL     1      59.796  56.729 113.135  1.00  0.00     0.187 C 
HETATM    2  C7  UNL     1      61.022  55.851 112.897  1.00  0.00     0.173 C 
HETATM    3  C8  UNL     1      60.486  54.602 112.292  1.00  0.00     0.203 C 
HETATM    4  O3  UNL     1      59.189  54.549 112.720  1.00  0.00    -0.374 OA
HETATM    5  C9  UNL     1      58.682  55.847 112.787  1.00  0.00     0.095 C 
HETATM    6  C10 UNL     1      58.311  56.155 111.324  1.00  0.00     0.045 C 
HETATM    7  C11 UNL     1      57.104  55.460 110.869  1.00  0.00     0.037 C 
HETATM    8  C12 UNL     1      55.796  56.136 111.283  1.00  0.00    -0.075 C 
HETATM    9  C13 UNL     1      54.673  55.749 110.394  1.00  0.00     0.044 C 
HETATM   10  C14 UNL     1      55.500  56.902 112.322  1.00  0.00    -0.027 C 
HETATM   11  C22 UNL     1      56.627  57.161 113.352  1.00  0.00     0.057 C 
HETATM   12  C23 UNL     1      56.312  57.911 114.542  1.00  0.00     0.127 C 
HETATM   13  C24 UNL     1      56.119  57.115 115.824  1.00  0.00     0.033 C 
HETATM   14  C25 UNL     1      57.285  56.193 116.078  1.00  0.00     0.012 C 
HETATM   15  C26 UNL     1      57.335  55.279 114.894  1.00  0.00    -0.040 C 
HETATM   16  C27 UNL     1      55.990  54.512 115.033  1.00  0.00     0.015 C 
HETATM   17  C28 UNL     1      58.348  54.214 115.183  1.00  0.00     0.015 C 
HETATM   18  C29 UNL     1      57.403  55.877 113.557  1.00  0.00     0.042 C 
ENDROOT
BRANCH  10  19
HETATM   19  C15 UNL     1      54.244  57.466 112.562  1.00  0.00     0.146 C 
BRANCH  19  20
HETATM   20  O4  UNL     1      53.614  58.628 112.466  1.00  0.00    -0.329 OA
BRANCH  20  21
HETATM   21  C16 UNL     1      53.088  58.966 111.247  1.00  0.00     0.296 C 
HETATM   22  O5  UNL     1      52.843  60.416 111.290  1.00  0.00    -0.356 OA
HETATM   23  C17 UNL     1      52.000  60.665 112.368  1.00  0.00     0.205 C 
HETATM   24  C18 UNL     1      50.638  60.062 112.181  1.00  0.00     0.176 C 
HETATM   25  C20 UNL     1      50.635  59.236 110.939  1.00  0.00     0.182 C 
HETATM   26  C21 UNL     1      51.828  58.320 110.849  1.00  0.00     0.205 C 
BRANCH  24  27
HETATM   27  O6  UNL     1      50.264  59.365 113.314  1.00  0.00    -0.386 OA
HETATM   28  C19 UNL     1      48.994  59.703 113.767  1.00  0.00     0.202 C 
ENDBRANCH  24  27
BRANCH  25  29
HETATM   29  O7  UNL     1      50.502  59.964 109.782  1.00  0.00    -0.390 OA
ATOM     30  H7  UNL     1      50.796  59.509 109.002  1.00  0.00     0.210 HD
ENDBRANCH  25  29
BRANCH  26  31
HETATM   31  O8  UNL     1      51.927  57.869 109.528  1.00  0.00    -0.388 OA
ATOM     32  H8  UNL     1      51.140  57.392 109.294  1.00  0.00     0.210 HD
ENDBRANCH  26  31
ENDBRANCH  20  21
ENDBRANCH  19  20
ENDBRANCH  10  19
BRANCH  12  33
HETATM   33  O9  UNL     1      55.386  58.905 114.590  1.00  0.00    -0.395 OA
ATOM     34  H9  UNL     1      55.047  59.276 115.396  1.00  0.00     0.210 HD
ENDBRANCH  12  33
BRANCH   1  35
HETATM   35  O1  UNL     1      59.877  57.895 112.382  1.00  0.00    -0.380 OA
BRANCH  35  36
HETATM   36  C5  UNL     1      59.779  59.074 113.067  1.00  0.00     0.168 C 
BRANCH  36  37
HETATM   37  C4  UNL     1      60.366  60.159 112.190  1.00  0.00     0.026 C 
BRANCH  37  38
HETATM   38  C3  UNL     1      61.424  59.590 111.255  1.00  0.00     0.002 C 
BRANCH  38  39
HETATM   39  C2  UNL     1      61.418  60.322 109.934  1.00  0.00    -0.004 C 
HETATM   40  C1  UNL     1      60.642  61.598 110.090  1.00  0.00     0.005 C 
ENDBRANCH  38  39
ENDBRANCH  37  38
ENDBRANCH  36  37
ENDBRANCH  35  36
ENDBRANCH   1  35
BRANCH   2  41
HETATM   41  O2  UNL     1      61.768  55.647 114.055  1.00  0.00    -0.391 OA
ATOM     42  H2  UNL     1      61.962  56.458 114.512  1.00  0.00     0.210 HD
ENDBRANCH   2  41
TORSDOF 13
ENDMDL
MODEL 4
REMARK VINA RESULT: -8.332587786      1.582      1.872
REMARK  13 active torsions:
REMARK  status: ('A' for Active; 'I' for Inactive)
REMARK    1  A    between atoms: C2_2  and  C3_3 
REMARK    2  A    between atoms: C3_3  and  C4_4 
REMARK    3  A    between atoms: C4_4  and  C5_5 
REMARK    4  A    between atoms: C5_5  and  O1_6 
REMARK    5  A    between atoms: O1_6  and  C6_7 
REMARK    6  A    between atoms: C7_8  and  O2_9 
REMARK    7  A    between atoms: C14_18  and  C15_19 
REMARK    8  A    between atoms: C15_19  and  O4_20 
REMARK    9  A    between atoms: O4_20  and  C16_21 
REMARK   10  A    between atoms: C18_24  and  O6_25 
REMARK   11  A    between atoms: C20_27  and  O7_28 
REMARK   12  A    between atoms: C21_30  and  O8_31 
REMARK   13  A    between atoms: C23_34  and  O9_35 
ROOT
HETATM    1  C6  UNL     1      60.664  56.424 114.858  1.00  0.00     0.187 C 
HETATM    2  C7  UNL     1      61.879  55.499 114.877  1.00  0.00     0.173 C 
HETATM    3  C8  UNL     1      61.481  54.330 114.048  1.00  0.00     0.203 C 
HETATM    4  O3  UNL     1      60.116  54.318 114.112  1.00  0.00    -0.374 OA
HETATM    5  C9  UNL     1      59.654  55.634 114.154  1.00  0.00     0.095 C 
HETATM    6  C10 UNL     1      59.698  56.068 112.677  1.00  0.00     0.045 C 
HETATM    7  C11 UNL     1      58.634  55.477 111.862  1.00  0.00     0.037 C 
HETATM    8  C12 UNL     1      57.287  56.192 111.973  1.00  0.00    -0.075 C 
HETATM    9  C13 UNL     1      56.429  55.935 110.789  1.00  0.00     0.044 C 
HETATM   10  C14 UNL     1      56.751  56.895 112.958  1.00  0.00    -0.027 C 
HETATM   11  C22 UNL     1      57.569  57.016 114.267  1.00  0.00     0.057 C 
HETATM   12  C23 UNL     1      56.974  57.693 115.391  1.00  0.00     0.127 C 
HETATM   13  C24 UNL     1      56.418  56.817 116.504  1.00  0.00     0.033 C 
HETATM   14  C25 UNL     1      57.441  55.816 116.977  1.00  0.00     0.012 C 
HETATM   15  C26 UNL     1      57.774  54.989 115.775  1.00  0.00    -0.040 C 
HETATM   16  C27 UNL     1      56.415  54.290 115.488  1.00  0.00     0.015 C 
HETATM   17  C28 UNL     1      58.636  53.851 116.229  1.00  0.00     0.015 C 
HETATM   18  C29 UNL     1      58.218  55.679 114.560  1.00  0.00     0.042 C 
ENDROOT
BRANCH  10  19
HETATM   19  C15 UNL     1      55.496  57.509 112.906  1.00  0.00     0.146 C 
BRANCH  19  20
HETATM   20  O4  UNL     1      54.210  57.211 113.023  1.00  0.00    -0.329 OA
BRANCH  20  21
HETATM   21  C16 UNL     1      53.373  58.187 113.497  1.00  0.00     0.296 C 
HETATM   22  O5  UNL     1      52.090  58.006 112.799  1.00  0.00    -0.356 OA
HETATM   23  C17 UNL     1      52.344  58.079 111.434  1.00  0.00     0.205 C 
HETATM   24  C18 UNL     1      52.808  59.443 111.011  1.00  0.00     0.176 C 
HETATM   25  C20 UNL     1      53.005  60.291 112.223  1.00  0.00     0.182 C 
HETATM   26  C21 UNL     1      53.782  59.586 113.303  1.00  0.00     0.205 C 
BRANCH  24  27
HETATM   27  O6  UNL     1      53.934  59.339 110.216  1.00  0.00    -0.386 OA
HETATM   28  C19 UNL     1      53.946  58.189 109.437  1.00  0.00     0.202 C 
ENDBRANCH  24  27
BRANCH  25  29
HETATM   29  O7  UNL     1      51.842  60.815 112.734  1.00  0.00    -0.390 OA
ATOM     30  H7  UNL     1      51.862  61.757 112.852  1.00  0.00     0.210 HD
ENDBRANCH  25  29
BRANCH  26  31
HETATM   31  O8  UNL     1      53.607  60.297 114.496  1.00  0.00    -0.388 OA
ATOM     32  H8  UNL     1      54.216  59.976 115.151  1.00  0.00     0.210 HD
ENDBRANCH  26  31
ENDBRANCH  20  21
ENDBRANCH  19  20
ENDBRANCH  10  19
BRANCH  12  33
HETATM   33  O9  UNL     1      56.103  58.731 115.278  1.00  0.00    -0.395 OA
ATOM     34  H9  UNL     1      55.690  58.990 114.462  1.00  0.00     0.210 HD
ENDBRANCH  12  33
BRANCH   1  35
HETATM   35  O1  UNL     1      60.983  57.636 114.254  1.00  0.00    -0.380 OA
BRANCH  35  36
HETATM   36  C5  UNL     1      62.314  57.928 114.136  1.00  0.00     0.168 C 
BRANCH  36  37
HETATM   37  C4  UNL     1      62.532  58.497 112.750  1.00  0.00     0.026 C 
BRANCH  37  38
HETATM   38  C3  UNL     1      63.765  57.886 112.098  1.00  0.00     0.002 C 
BRANCH  38  39
HETATM   39  C2  UNL     1      64.787  58.952 111.785  1.00  0.00    -0.004 C 
HETATM   40  C1  UNL     1      66.085  58.288 111.423  1.00  0.00     0.005 C 
ENDBRANCH  38  39
ENDBRANCH  37  38
ENDBRANCH  36  37
ENDBRANCH  35  36
ENDBRANCH   1  35
BRANCH   2  41
HETATM   41  O2  UNL     1      62.280  55.170 116.169  1.00  0.00    -0.391 OA
ATOM     42  H2  UNL     1      63.141  55.510 116.381  1.00  0.00     0.210 HD
ENDBRANCH   2  41
TORSDOF 13
ENDMDL
MODEL 5
REMARK VINA RESULT: -8.315920911      1.093      1.540
REMARK  13 active torsions:
REMARK  status: ('A' for Active; 'I' for Inactive)
REMARK    1  A    between atoms: C2_2  and  C3_3 
REMARK    2  A    between atoms: C3_3  and  C4_4 
REMARK    3  A    between atoms: C4_4  and  C5_5 
REMARK    4  A    between atoms: C5_5  and  O1_6 
REMARK    5  A    between atoms: O1_6  and  C6_7 
REMARK    6  A    between atoms: C7_8  and  O2_9 
REMARK    7  A    between atoms: C14_18  and  C15_19 
REMARK    8  A    between atoms: C15_19  and  O4_20 
REMARK    9  A    between atoms: O4_20  and  C16_21 
REMARK   10  A    between atoms: C18_24  and  O6_25 
REMARK   11  A    between atoms: C20_27  and  O7_28 
REMARK   12  A    between atoms: C21_30  and  O8_31 
REMARK   13  A    between atoms: C23_34  and  O9_35 
ROOT
HETATM    1  C6  UNL     1      59.898  56.838 113.156  1.00  0.00     0.187 C 
HETATM    2  C7  UNL     1      61.175  56.029 112.946  1.00  0.00     0.173 C 
HETATM    3  C8  UNL     1      60.716  54.731 112.382  1.00  0.00     0.203 C 
HETATM    4  O3  UNL     1      59.424  54.613 112.812  1.00  0.00    -0.374 OA
HETATM    5  C9  UNL     1      58.840  55.880 112.837  1.00  0.00     0.095 C 
HETATM    6  C10 UNL     1      58.452  56.117 111.366  1.00  0.00     0.045 C 
HETATM    7  C11 UNL     1      57.291  55.336 110.934  1.00  0.00     0.037 C 
HETATM    8  C12 UNL     1      55.944  55.944 111.327  1.00  0.00    -0.075 C 
HETATM    9  C13 UNL     1      54.846  55.461 110.452  1.00  0.00     0.044 C 
HETATM   10  C14 UNL     1      55.600  56.724 112.341  1.00  0.00    -0.027 C 
HETATM   11  C22 UNL     1      56.708  57.085 113.361  1.00  0.00     0.057 C 
HETATM   12  C23 UNL     1      56.347  57.852 114.526  1.00  0.00     0.127 C 
HETATM   13  C24 UNL     1      56.201  57.088 115.833  1.00  0.00     0.033 C 
HETATM   14  C25 UNL     1      57.420  56.247 116.116  1.00  0.00     0.012 C 
HETATM   15  C26 UNL     1      57.527  55.300 114.963  1.00  0.00    -0.040 C 
HETATM   16  C27 UNL     1      56.230  54.457 115.128  1.00  0.00     0.015 C 
HETATM   17  C28 UNL     1      58.603  54.308 115.286  1.00  0.00     0.015 C 
HETATM   18  C29 UNL     1      57.561  55.857 113.608  1.00  0.00     0.042 C 
ENDROOT
BRANCH  10  19
HETATM   19  C15 UNL     1      54.312  57.218 112.564  1.00  0.00     0.146 C 
BRANCH  19  20
HETATM   20  O4  UNL     1      53.532  58.228 112.205  1.00  0.00    -0.329 OA
BRANCH  20  21
HETATM   21  C16 UNL     1      52.201  58.145 112.520  1.00  0.00     0.296 C 
HETATM   22  O5  UNL     1      51.470  58.191 111.244  1.00  0.00    -0.356 OA
HETATM   23  C17 UNL     1      51.835  59.365 110.596  1.00  0.00     0.205 C 
HETATM   24  C18 UNL     1      51.377  60.592 111.331  1.00  0.00     0.176 C 
HETATM   25  C20 UNL     1      50.783  60.185 112.638  1.00  0.00     0.182 C 
HETATM   26  C21 UNL     1      51.642  59.197 113.383  1.00  0.00     0.205 C 
BRANCH  24  27
HETATM   27  O6  UNL     1      52.417  61.494 111.450  1.00  0.00    -0.386 OA
HETATM   28  C19 UNL     1      52.140  62.531 112.334  1.00  0.00     0.202 C 
ENDBRANCH  24  27
BRANCH  25  29
HETATM   29  O7  UNL     1      49.492  59.724 112.547  1.00  0.00    -0.390 OA
ATOM     30  H7  UNL     1      49.315  59.221 111.760  1.00  0.00     0.210 HD
ENDBRANCH  25  29
BRANCH  26  31
HETATM   31  O8  UNL     1      50.860  58.616 114.387  1.00  0.00    -0.388 OA
ATOM     32  H8  UNL     1      50.312  57.937 114.012  1.00  0.00     0.210 HD
ENDBRANCH  26  31
ENDBRANCH  20  21
ENDBRANCH  19  20
ENDBRANCH  10  19
BRANCH  12  33
HETATM   33  O9  UNL     1      55.362  58.789 114.542  1.00  0.00    -0.395 OA
ATOM     34  H9  UNL     1      55.512  59.713 114.707  1.00  0.00     0.210 HD
ENDBRANCH  12  33
BRANCH   1  35
HETATM   35  O1  UNL     1      59.909  57.982 112.365  1.00  0.00    -0.380 OA
BRANCH  35  36
HETATM   36  C5  UNL     1      59.789  59.178 113.017  1.00  0.00     0.168 C 
BRANCH  36  37
HETATM   37  C4  UNL     1      60.361  60.247 112.112  1.00  0.00     0.026 C 
BRANCH  37  38
HETATM   38  C3  UNL     1      61.460  59.679 111.224  1.00  0.00     0.002 C 
BRANCH  38  39
HETATM   39  C2  UNL     1      61.505  60.404 109.901  1.00  0.00    -0.004 C 
HETATM   40  C1  UNL     1      60.600  61.600 109.972  1.00  0.00     0.005 C 
ENDBRANCH  38  39
ENDBRANCH  37  38
ENDBRANCH  36  37
ENDBRANCH  35  36
ENDBRANCH   1  35
BRANCH   2  41
HETATM   41  O2  UNL     1      61.930  55.908 114.109  1.00  0.00    -0.391 OA
ATOM     42  H2  UNL     1      62.852  55.764 113.933  1.00  0.00     0.210 HD
ENDBRANCH   2  41
TORSDOF 13
ENDMDL
