MODEL 1
REMARK VINA RESULT: -8.128426288      0.000      0.000
REMARK  14 active torsions:
REMARK  status: ('A' for Active; 'I' for Inactive)
REMARK    1  A    between atoms: C2_2  and  C3_3 
REMARK    2  A    between atoms: C4_4  and  O1_5 
REMARK    3  A    between atoms: C6_8  and  C7_9 
REMARK    4  A    between atoms: C7_9  and  C8_10 
REMARK    5  A    between atoms: C13_16  and  C14_17 
REMARK    6  A    between atoms: C14_17  and  O3_18 
REMARK    7  A    between atoms: O3_18  and  C15_19 
REMARK    8  A    between atoms: C16_20  and  C17_21 
REMARK    9  A    between atoms: C17_21  and  N1_22 
REMARK       I    between atoms: N1_22  and  C18_24 
REMARK   10  A    between atoms: C18_24  and  O5_26 
REMARK   11  A    between atoms: O5_26  and  C19_27 
REMARK   12  A    between atoms: C23_32  and  S1_33 
REMARK   13  A    between atoms: C25_35  and  O7_36 
REMARK   14  A    between atoms: C26_38  and  O8_39 
ROOT
HETATM    1  C15 UNL     1      61.599  56.836 113.006  1.00  0.00     0.183 C 
HETATM    2  C16 UNL     1      62.405  58.026 112.448  1.00  0.00     0.172 C 
HETATM    3  O6  UNL     1      63.435  58.362 113.265  1.00  0.00    -0.363 OA
HETATM    4  C23 UNL     1      64.467  57.436 113.293  1.00  0.00     0.214 C 
HETATM    5  C25 UNL     1      63.985  56.022 113.055  1.00  0.00     0.188 C 
HETATM    6  C26 UNL     1      62.611  55.894 113.677  1.00  0.00     0.181 C 
ENDROOT
BRANCH   1   7
HETATM    7  O3  UNL     1      60.723  57.187 113.986  1.00  0.00    -0.376 OA
BRANCH   7   8
HETATM    8  C14 UNL     1      59.587  56.401 114.122  1.00  0.00     0.203 C 
BRANCH   8   9
HETATM    9  C13 UNL     1      58.372  57.110 113.491  1.00  0.00    -0.050 C 
HETATM   10  C3  UNL     1      57.252  57.274 114.413  1.00  0.00    -0.047 C 
HETATM   11  C4  UNL     1      56.007  57.925 113.939  1.00  0.00     0.150 C 
HETATM   12  C5  UNL     1      54.963  57.090 113.344  1.00  0.00     0.068 C 
HETATM   13  C6  UNL     1      54.815  57.094 111.859  1.00  0.00     0.124 C 
HETATM   14  O2  UNL     1      55.974  56.847 111.256  1.00  0.00    -0.385 OA
HETATM   15  C11 UNL     1      56.920  56.030 111.692  1.00  0.00     0.172 C 
HETATM   16  C12 UNL     1      58.222  56.642 112.108  1.00  0.00     0.063 C 
BRANCH  10  17
HETATM   17  C2  UNL     1      56.916  56.124 115.338  1.00  0.00     0.033 C 
HETATM   18  C1  UNL     1      56.746  56.664 116.764  1.00  0.00     0.010 C 
ENDBRANCH  10  17
BRANCH  11  19
HETATM   19  O1  UNL     1      56.270  59.102 113.208  1.00  0.00    -0.391 OA
ATOM     20  H1  UNL     1      56.439  59.844 113.777  1.00  0.00     0.210 HD
ENDBRANCH  11  19
BRANCH  13  21
HETATM   21  C7  UNL     1      54.019  58.261 111.343  1.00  0.00     0.035 C 
BRANCH  21  22
HETATM   22  C8  UNL     1      53.158  57.877 110.152  1.00  0.00    -0.020 C 
HETATM   23  C9  UNL     1      51.762  58.411 110.246  1.00  0.00     0.009 C 
HETATM   24  C10 UNL     1      53.808  58.186 108.842  1.00  0.00     0.009 C 
ENDBRANCH  21  22
ENDBRANCH  13  21
ENDBRANCH   8   9
ENDBRANCH   7   8
ENDBRANCH   1   7
BRANCH   2  25
HETATM   25  C17 UNL     1      61.427  59.106 112.223  1.00  0.00     0.159 C 
BRANCH  25  26
HETATM   26  N1  UNL     1      61.206  59.574 110.906  1.00  0.00    -0.334 N 
HETATM   27  C18 UNL     1      60.803  60.829 110.455  1.00  0.00     0.361 C 
HETATM   28  O4  UNL     1      60.556  61.796 111.216  1.00  0.00    -0.238 OA
ATOM     29  H1  UNL     1      61.367  58.884 110.172  1.00  0.00     0.164 HD
BRANCH  27  30
HETATM   30  O5  UNL     1      60.644  61.094 109.092  1.00  0.00    -0.294 OA
BRANCH  30  31
HETATM   31  C19 UNL     1      61.635  61.720 108.310  1.00  0.00     0.061 C 
HETATM   32  C20 UNL     1      63.024  61.585 108.830  1.00  0.00     0.046 C 
HETATM   33  C21 UNL     1      61.501  61.125 106.898  1.00  0.00     0.046 C 
HETATM   34  C22 UNL     1      61.286  63.210 108.195  1.00  0.00     0.046 C 
ENDBRANCH  30  31
ENDBRANCH  27  30
ENDBRANCH  25  26
ENDBRANCH   2  25
BRANCH   6  35
HETATM   35  O8  UNL     1      62.792  56.253 115.031  1.00  0.00    -0.390 OA
ATOM     36  H8  UNL     1      63.710  56.187 115.270  1.00  0.00     0.210 HD
ENDBRANCH   6  35
BRANCH   5  37
HETATM   37  O7  UNL     1      64.048  55.615 111.746  1.00  0.00    -0.389 OA
ATOM     38  H7  UNL     1      64.124  54.675 111.632  1.00  0.00     0.210 HD
ENDBRANCH   5  37
BRANCH   4  39
HETATM   39  S1  UNL     1      65.783  57.771 112.113  1.00  0.00    -0.139 SA
HETATM   40  C24 UNL     1      65.509  59.248 111.135  1.00  0.00     0.092 C 
ENDBRANCH   4  39
TORSDOF 14
ENDMDL
MODEL 2
REMARK VINA RESULT: -8.077542505      2.296      6.997
REMARK  14 active torsions:
REMARK  status: ('A' for Active; 'I' for Inactive)
REMARK    1  A    between atoms: C2_2  and  C3_3 
REMARK    2  A    between atoms: C4_4  and  O1_5 
REMARK    3  A    between atoms: C6_8  and  C7_9 
REMARK    4  A    between atoms: C7_9  and  C8_10 
REMARK    5  A    between atoms: C13_16  and  C14_17 
REMARK    6  A    between atoms: C14_17  and  O3_18 
REMARK    7  A    between atoms: O3_18  and  C15_19 
REMARK    8  A    between atoms: C16_20  and  C17_21 
REMARK    9  A    between atoms: C17_21  and  N1_22 
REMARK       I    between atoms: N1_22  and  C18_24 
REMARK   10  A    between atoms: C18_24  and  O5_26 
REMARK   11  A    between atoms: O5_26  and  C19_27 
REMARK   12  A    between atoms: C23_32  and  S1_33 
REMARK   13  A    between atoms: C25_35  and  O7_36 
REMARK   14  A    between atoms: C26_38  and  O8_39 
ROOT
HETATM    1  C15 UNL     1      61.822  57.451 113.499  1.00  0.00     0.183 C 
HETATM    2  C16 UNL     1      60.462  56.808 113.840  1.00  0.00     0.172 C 
HETATM    3  O6  UNL     1      60.437  55.489 113.519  1.00  0.00    -0.363 OA
HETATM    4  C23 UNL     1      61.230  54.689 114.329  1.00  0.00     0.214 C 
HETATM    5  C25 UNL     1      62.443  55.421 114.859  1.00  0.00     0.188 C 
HETATM    6  C26 UNL     1      62.896  56.393 113.791  1.00  0.00     0.181 C 
ENDROOT
BRANCH   1   7
HETATM    7  O3  UNL     1      61.960  57.758 112.180  1.00  0.00    -0.376 OA
BRANCH   7   8
HETATM    8  C14 UNL     1      62.558  58.974 111.879  1.00  0.00     0.203 C 
BRANCH   8   9
HETATM    9  C13 UNL     1      61.853  59.626 110.673  1.00  0.00    -0.050 C 
HETATM   10  C3  UNL     1      62.777  60.093 109.644  1.00  0.00    -0.047 C 
HETATM   11  C4  UNL     1      62.243  60.758 108.431  1.00  0.00     0.150 C 
HETATM   12  C5  UNL     1      62.057  62.209 108.453  1.00  0.00     0.068 C 
HETATM   13  C6  UNL     1      60.673  62.742 108.621  1.00  0.00     0.124 C 
HETATM   14  O2  UNL     1      60.072  62.206 109.677  1.00  0.00    -0.385 OA
HETATM   15  C11 UNL     1      60.653  61.874 110.819  1.00  0.00     0.172 C 
HETATM   16  C12 UNL     1      60.718  60.418 111.163  1.00  0.00     0.063 C 
BRANCH  10  17
HETATM   17  C2  UNL     1      64.054  60.775 110.089  1.00  0.00     0.033 C 
HETATM   18  C1  UNL     1      65.250  60.060 109.447  1.00  0.00     0.010 C 
ENDBRANCH  10  17
BRANCH  11  19
HETATM   19  O1  UNL     1      61.148  60.059 107.884  1.00  0.00    -0.391 OA
ATOM     20  H1  UNL     1      61.423  59.287 107.404  1.00  0.00     0.210 HD
ENDBRANCH  11  19
BRANCH  13  21
HETATM   21  C7  UNL     1      59.887  62.773 107.339  1.00  0.00     0.035 C 
BRANCH  21  22
HETATM   22  C8  UNL     1      58.468  63.269 107.555  1.00  0.00    -0.020 C 
HETATM   23  C9  UNL     1      58.350  64.760 107.461  1.00  0.00     0.009 C 
HETATM   24  C10 UNL     1      57.467  62.556 106.703  1.00  0.00     0.009 C 
ENDBRANCH  21  22
ENDBRANCH  13  21
ENDBRANCH   8   9
ENDBRANCH   7   8
ENDBRANCH   1   7
BRANCH   2  25
HETATM   25  C17 UNL     1      59.446  57.623 113.152  1.00  0.00     0.159 C 
BRANCH  25  26
HETATM   26  N1  UNL     1      58.753  57.073 112.047  1.00  0.00    -0.334 N 
HETATM   27  C18 UNL     1      57.614  56.271 112.010  1.00  0.00     0.361 C 
HETATM   28  O4  UNL     1      56.999  55.889 113.035  1.00  0.00    -0.238 OA
ATOM     29  H1  UNL     1      59.149  57.301 111.134  1.00  0.00     0.164 HD
BRANCH  27  30
HETATM   30  O5  UNL     1      57.076  55.829 110.798  1.00  0.00    -0.294 OA
BRANCH  30  31
HETATM   31  C19 UNL     1      55.719  55.987 110.456  1.00  0.00     0.061 C 
HETATM   32  C20 UNL     1      55.096  57.253 110.932  1.00  0.00     0.046 C 
HETATM   33  C21 UNL     1      55.649  55.866 108.924  1.00  0.00     0.046 C 
HETATM   34  C22 UNL     1      54.937  54.799 111.029  1.00  0.00     0.046 C 
ENDBRANCH  30  31
ENDBRANCH  27  30
ENDBRANCH  25  26
ENDBRANCH   2  25
BRANCH   6  35
HETATM   35  O8  UNL     1      63.123  55.595 112.648  1.00  0.00    -0.390 OA
ATOM     36  H8  UNL     1      63.601  56.087 111.991  1.00  0.00     0.210 HD
ENDBRANCH   6  35
BRANCH   5  37
HETATM   37  O7  UNL     1      62.265  55.988 116.095  1.00  0.00    -0.389 OA
ATOM     38  H7  UNL     1      62.768  55.579 116.790  1.00  0.00     0.210 HD
ENDBRANCH   5  37
BRANCH   4  39
HETATM   39  S1  UNL     1      60.359  53.981 115.734  1.00  0.00    -0.139 SA
HETATM   40  C24 UNL     1      58.576  54.027 115.570  1.00  0.00     0.092 C 
ENDBRANCH   4  39
TORSDOF 14
ENDMDL
MODEL 3
REMARK VINA RESULT: -8.074472087      2.332      6.951
REMARK  14 active torsions:
REMARK  status: ('A' for Active; 'I' for Inactive)
REMARK    1  A    between atoms: C2_2  and  C3_3 
REMARK    2  A    between atoms: C4_4  and  O1_5 
REMARK    3  A    between atoms: C6_8  and  C7_9 
REMARK    4  A    between atoms: C7_9  and  C8_10 
REMARK    5  A    between atoms: C13_16  and  C14_17 
REMARK    6  A    between atoms: C14_17  and  O3_18 
REMARK    7  A    between atoms: O3_18  and  C15_19 
REMARK    8  A    between atoms: C16_20  and  C17_21 
REMARK    9  A    between atoms: C17_21  and  N1_22 
REMARK       I    between atoms: N1_22  and  C18_24 
REMARK   10  A    between atoms: C18_24  and  O5_26 
REMARK   11  A    between atoms: O5_26  and  C19_27 
REMARK   12  A    between atoms: C23_32  and  S1_33 
REMARK   13  A    between atoms: C25_35  and  O7_36 
REMARK   14  A    between atoms: C26_38  and  O8_39 
ROOT
HETATM    1  C15 UNL     1      61.960  57.341 113.504  1.00  0.00     0.183 C 
HETATM    2  C16 UNL     1      60.608  56.956 114.138  1.00  0.00     0.172 C 
HETATM    3  O6  UNL     1      60.200  55.724 113.739  1.00  0.00    -0.363 OA
HETATM    4  C23 UNL     1      60.952  54.679 114.254  1.00  0.00     0.214 C 
HETATM    5  C25 UNL     1      62.392  55.068 114.503  1.00  0.00     0.188 C 
HETATM    6  C26 UNL     1      62.795  56.054 113.429  1.00  0.00     0.181 C 
ENDROOT
BRANCH   1   7
HETATM    7  O3  UNL     1      61.850  57.781 112.221  1.00  0.00    -0.376 OA
BRANCH   7   8
HETATM    8  C14 UNL     1      62.492  58.972 111.910  1.00  0.00     0.203 C 
BRANCH   8   9
HETATM    9  C13 UNL     1      61.817  59.636 110.693  1.00  0.00    -0.050 C 
HETATM   10  C3  UNL     1      62.764  60.085 109.677  1.00  0.00    -0.047 C 
HETATM   11  C4  UNL     1      62.260  60.759 108.457  1.00  0.00     0.150 C 
HETATM   12  C5  UNL     1      62.099  62.213 108.474  1.00  0.00     0.068 C 
HETATM   13  C6  UNL     1      60.723  62.770 108.622  1.00  0.00     0.124 C 
HETATM   14  O2  UNL     1      60.097  62.246 109.670  1.00  0.00    -0.385 OA
HETATM   15  C11 UNL     1      60.656  61.905 110.820  1.00  0.00     0.172 C 
HETATM   16  C12 UNL     1      60.689  60.448 111.166  1.00  0.00     0.063 C 
BRANCH  10  17
HETATM   17  C2  UNL     1      64.046  60.744 110.141  1.00  0.00     0.033 C 
HETATM   18  C1  UNL     1      65.236  60.053 109.462  1.00  0.00     0.010 C 
ENDBRANCH  10  17
BRANCH  11  19
HETATM   19  O1  UNL     1      61.161  60.078 107.893  1.00  0.00    -0.391 OA
ATOM     20  H1  UNL     1      60.553  60.673 107.471  1.00  0.00     0.210 HD
ENDBRANCH  11  19
BRANCH  13  21
HETATM   21  C7  UNL     1      59.957  62.814 107.328  1.00  0.00     0.035 C 
BRANCH  21  22
HETATM   22  C8  UNL     1      58.523  63.271 107.534  1.00  0.00    -0.020 C 
HETATM   23  C9  UNL     1      58.361  64.756 107.418  1.00  0.00     0.009 C 
HETATM   24  C10 UNL     1      57.547  62.516 106.689  1.00  0.00     0.009 C 
ENDBRANCH  21  22
ENDBRANCH  13  21
ENDBRANCH   8   9
ENDBRANCH   7   8
ENDBRANCH   1   7
BRANCH   2  25
HETATM   25  C17 UNL     1      59.677  58.047 113.799  1.00  0.00     0.159 C 
BRANCH  25  26
HETATM   26  N1  UNL     1      58.659  57.814 112.844  1.00  0.00    -0.334 N 
HETATM   27  C18 UNL     1      57.368  57.317 113.012  1.00  0.00     0.361 C 
HETATM   28  O4  UNL     1      56.893  56.974 114.121  1.00  0.00    -0.238 OA
ATOM     29  H1  UNL     1      58.909  58.046 111.883  1.00  0.00     0.164 HD
BRANCH  27  30
HETATM   30  O5  UNL     1      56.503  57.163 111.925  1.00  0.00    -0.294 OA
BRANCH  30  31
HETATM   31  C19 UNL     1      56.347  55.947 111.232  1.00  0.00     0.061 C 
HETATM   32  C20 UNL     1      57.594  55.146 111.081  1.00  0.00     0.046 C 
HETATM   33  C21 UNL     1      55.262  55.162 111.989  1.00  0.00     0.046 C 
HETATM   34  C22 UNL     1      55.779  56.254 109.841  1.00  0.00     0.046 C 
ENDBRANCH  30  31
ENDBRANCH  27  30
ENDBRANCH  25  26
ENDBRANCH   2  25
BRANCH   6  35
HETATM   35  O8  UNL     1      62.551  55.381 112.211  1.00  0.00    -0.390 OA
ATOM     36  H8  UNL     1      62.830  54.475 112.273  1.00  0.00     0.210 HD
ENDBRANCH   6  35
BRANCH   5  37
HETATM   37  O7  UNL     1      62.649  55.494 115.782  1.00  0.00    -0.389 OA
ATOM     38  H7  UNL     1      62.095  55.100 116.445  1.00  0.00     0.210 HD
ENDBRANCH   5  37
BRANCH   4  39
HETATM   39  S1  UNL     1      60.297  53.991 115.782  1.00  0.00    -0.139 SA
HETATM   40  C24 UNL     1      58.551  54.313 116.022  1.00  0.00     0.092 C 
ENDBRANCH   4  39
TORSDOF 14
ENDMDL
MODEL 4
REMARK VINA RESULT: -7.831717313      2.223      7.120
REMARK  14 active torsions:
REMARK  status: ('A' for Active; 'I' for Inactive)
REMARK    1  A    between atoms: C2_2  and  C3_3 
REMARK    2  A    between atoms: C4_4  and  O1_5 
REMARK    3  A    between atoms: C6_8  and  C7_9 
REMARK    4  A    between atoms: C7_9  and  C8_10 
REMARK    5  A    between atoms: C13_16  and  C14_17 
REMARK    6  A    between atoms: C14_17  and  O3_18 
REMARK    7  A    between atoms: O3_18  and  C15_19 
REMARK    8  A    between atoms: C16_20  and  C17_21 
REMARK    9  A    between atoms: C17_21  and  N1_22 
REMARK       I    between atoms: N1_22  and  C18_24 
REMARK   10  A    between atoms: C18_24  and  O5_26 
REMARK   11  A    between atoms: O5_26  and  C19_27 
REMARK   12  A    between atoms: C23_32  and  S1_33 
REMARK   13  A    between atoms: C25_35  and  O7_36 
REMARK   14  A    between atoms: C26_38  and  O8_39 
ROOT
HETATM    1  C15 UNL     1      61.878  57.630 113.200  1.00  0.00     0.183 C 
HETATM    2  C16 UNL     1      60.543  56.896 113.444  1.00  0.00     0.172 C 
HETATM    3  O6  UNL     1      60.631  55.578 113.131  1.00  0.00    -0.363 OA
HETATM    4  C23 UNL     1      61.414  54.835 114.001  1.00  0.00     0.214 C 
HETATM    5  C25 UNL     1      62.533  55.648 114.614  1.00  0.00     0.188 C 
HETATM    6  C26 UNL     1      62.997  56.647 113.577  1.00  0.00     0.181 C 
ENDROOT
BRANCH   1   7
HETATM    7  O3  UNL     1      62.092  57.943 111.893  1.00  0.00    -0.376 OA
BRANCH   7   8
HETATM    8  C14 UNL     1      62.597  59.209 111.627  1.00  0.00     0.203 C 
BRANCH   8   9
HETATM    9  C13 UNL     1      61.836  59.846 110.448  1.00  0.00    -0.050 C 
HETATM   10  C3  UNL     1      62.712  60.329 109.384  1.00  0.00    -0.047 C 
HETATM   11  C4  UNL     1      62.120  60.982 108.192  1.00  0.00     0.150 C 
HETATM   12  C5  UNL     1      61.908  62.429 108.219  1.00  0.00     0.068 C 
HETATM   13  C6  UNL     1      60.522  62.937 108.439  1.00  0.00     0.124 C 
HETATM   14  O2  UNL     1      59.971  62.391 109.518  1.00  0.00    -0.385 OA
HETATM   15  C11 UNL     1      60.601  62.071 110.637  1.00  0.00     0.172 C 
HETATM   16  C12 UNL     1      60.705  60.617 110.979  1.00  0.00     0.063 C 
BRANCH  10  17
HETATM   17  C2  UNL     1      63.991  61.034 109.781  1.00  0.00     0.033 C 
HETATM   18  C1  UNL     1      65.187  60.160 109.380  1.00  0.00     0.010 C 
ENDBRANCH  10  17
BRANCH  11  19
HETATM   19  O1  UNL     1      61.019  60.262 107.686  1.00  0.00    -0.391 OA
ATOM     20  H1  UNL     1      60.192  60.604 108.006  1.00  0.00     0.210 HD
ENDBRANCH  11  19
BRANCH  13  21
HETATM   21  C7  UNL     1      59.688  62.952 107.187  1.00  0.00     0.035 C 
BRANCH  21  22
HETATM   22  C8  UNL     1      58.269  63.421 107.457  1.00  0.00    -0.020 C 
HETATM   23  C9  UNL     1      58.087  64.890 107.229  1.00  0.00     0.009 C 
HETATM   24  C10 UNL     1      57.241  62.595 106.751  1.00  0.00     0.009 C 
ENDBRANCH  21  22
ENDBRANCH  13  21
ENDBRANCH   8   9
ENDBRANCH   7   8
ENDBRANCH   1   7
BRANCH   2  25
HETATM   25  C17 UNL     1      59.527  57.639 112.678  1.00  0.00     0.159 C 
BRANCH  25  26
HETATM   26  N1  UNL     1      58.175  57.584 113.090  1.00  0.00    -0.334 N 
HETATM   27  C18 UNL     1      57.183  56.653 112.791  1.00  0.00     0.361 C 
HETATM   28  O4  UNL     1      57.364  55.656 112.051  1.00  0.00    -0.238 OA
ATOM     29  H1  UNL     1      57.880  58.345 113.703  1.00  0.00     0.164 HD
BRANCH  27  30
HETATM   30  O5  UNL     1      55.890  56.776 113.310  1.00  0.00    -0.294 OA
BRANCH  30  31
HETATM   31  C19 UNL     1      54.838  57.397 112.611  1.00  0.00     0.061 C 
HETATM   32  C20 UNL     1      54.859  57.195 111.135  1.00  0.00     0.046 C 
HETATM   33  C21 UNL     1      53.538  56.861 113.234  1.00  0.00     0.046 C 
HETATM   34  C22 UNL     1      54.882  58.901 112.910  1.00  0.00     0.046 C 
ENDBRANCH  30  31
ENDBRANCH  27  30
ENDBRANCH  25  26
ENDBRANCH   2  25
BRANCH   6  35
HETATM   35  O8  UNL     1      63.361  55.865 112.459  1.00  0.00    -0.390 OA
ATOM     36  H8  UNL     1      63.075  54.966 112.578  1.00  0.00     0.210 HD
ENDBRANCH   6  35
BRANCH   5  37
HETATM   37  O7  UNL     1      62.226  56.204 115.831  1.00  0.00    -0.389 OA
ATOM     38  H7  UNL     1      62.981  56.485 116.335  1.00  0.00     0.210 HD
ENDBRANCH   5  37
BRANCH   4  39
HETATM   39  S1  UNL     1      60.492  54.072 115.344  1.00  0.00    -0.139 SA
HETATM   40  C24 UNL     1      58.719  54.284 115.206  1.00  0.00     0.092 C 
ENDBRANCH   4  39
TORSDOF 14
ENDMDL
MODEL 5
REMARK VINA RESULT: -7.751583764      2.500      7.340
REMARK  14 active torsions:
REMARK  status: ('A' for Active; 'I' for Inactive)
REMARK    1  A    between atoms: C2_2  and  C3_3 
REMARK    2  A    between atoms: C4_4  and  O1_5 
REMARK    3  A    between atoms: C6_8  and  C7_9 
REMARK    4  A    between atoms: C7_9  and  C8_10 
REMARK    5  A    between atoms: C13_16  and  C14_17 
REMARK    6  A    between atoms: C14_17  and  O3_18 
REMARK    7  A    between atoms: O3_18  and  C15_19 
REMARK    8  A    between atoms: C16_20  and  C17_21 
REMARK    9  A    between atoms: C17_21  and  N1_22 
REMARK       I    between atoms: N1_22  and  C18_24 
REMARK   10  A    between atoms: C18_24  and  O5_26 
REMARK   11  A    between atoms: O5_26  and  C19_27 
REMARK   12  A    between atoms: C23_32  and  S1_33 
REMARK   13  A    between atoms: C25_35  and  O7_36 
REMARK   14  A    between atoms: C26_38  and  O8_39 
ROOT
HETATM    1  C15 UNL     1      61.174  57.973 113.573  1.00  0.00     0.183 C 
HETATM    2  C16 UNL     1      59.973  57.010 113.663  1.00  0.00     0.172 C 
HETATM    3  O6  UNL     1      60.364  55.750 113.985  1.00  0.00    -0.363 OA
HETATM    4  C23 UNL     1      60.814  55.608 115.289  1.00  0.00     0.214 C 
HETATM    5  C25 UNL     1      61.457  56.870 115.822  1.00  0.00     0.188 C 
HETATM    6  C26 UNL     1      62.164  57.548 114.669  1.00  0.00     0.181 C 
ENDROOT
BRANCH   1   7
HETATM    7  O3  UNL     1      61.861  57.875 112.403  1.00  0.00    -0.376 OA
BRANCH   7   8
HETATM    8  C14 UNL     1      62.541  59.008 111.978  1.00  0.00     0.203 C 
BRANCH   8   9
HETATM    9  C13 UNL     1      61.830  59.625 110.757  1.00  0.00    -0.050 C 
HETATM   10  C3  UNL     1      62.750  60.064 109.711  1.00  0.00    -0.047 C 
HETATM   11  C4  UNL     1      62.210  60.694 108.482  1.00  0.00     0.150 C 
HETATM   12  C5  UNL     1      62.022  62.145 108.463  1.00  0.00     0.068 C 
HETATM   13  C6  UNL     1      60.638  62.681 108.622  1.00  0.00     0.124 C 
HETATM   14  O2  UNL     1      60.042  62.174 109.696  1.00  0.00    -0.385 OA
HETATM   15  C11 UNL     1      60.628  61.875 110.844  1.00  0.00     0.172 C 
HETATM   16  C12 UNL     1      60.696  60.429 111.228  1.00  0.00     0.063 C 
BRANCH  10  17
HETATM   17  C2  UNL     1      64.027  60.760 110.132  1.00  0.00     0.033 C 
HETATM   18  C1  UNL     1      65.215  60.089 109.428  1.00  0.00     0.010 C 
ENDBRANCH  10  17
BRANCH  11  19
HETATM   19  O1  UNL     1      61.114  59.979 107.959  1.00  0.00    -0.391 OA
ATOM     20  H1  UNL     1      61.117  59.966 107.009  1.00  0.00     0.210 HD
ENDBRANCH  11  19
BRANCH  13  21
HETATM   21  C7  UNL     1      59.847  62.675 107.343  1.00  0.00     0.035 C 
BRANCH  21  22
HETATM   22  C8  UNL     1      58.453  63.247 107.535  1.00  0.00    -0.020 C 
HETATM   23  C9  UNL     1      58.412  64.739 107.413  1.00  0.00     0.009 C 
HETATM   24  C10 UNL     1      57.426  62.570 106.685  1.00  0.00     0.009 C 
ENDBRANCH  21  22
ENDBRANCH  13  21
ENDBRANCH   8   9
ENDBRANCH   7   8
ENDBRANCH   1   7
BRANCH   2  25
HETATM   25  C17 UNL     1      59.270  57.119 112.373  1.00  0.00     0.159 C 
BRANCH  25  26
HETATM   26  N1  UNL     1      57.906  56.750 112.297  1.00  0.00    -0.334 N 
HETATM   27  C18 UNL     1      56.764  57.446 112.690  1.00  0.00     0.361 C 
HETATM   28  O4  UNL     1      56.790  58.586 113.212  1.00  0.00    -0.238 OA
ATOM     29  H1  UNL     1      57.731  55.830 111.891  1.00  0.00     0.164 HD
BRANCH  27  30
HETATM   30  O5  UNL     1      55.488  56.900 112.523  1.00  0.00    -0.294 OA
BRANCH  30  31
HETATM   31  C19 UNL     1      54.686  56.478 113.601  1.00  0.00     0.061 C 
HETATM   32  C20 UNL     1      55.402  56.339 114.900  1.00  0.00     0.046 C 
HETATM   33  C21 UNL     1      53.536  57.495 113.699  1.00  0.00     0.046 C 
HETATM   34  C22 UNL     1      54.053  55.131 113.232  1.00  0.00     0.046 C 
ENDBRANCH  30  31
ENDBRANCH  27  30
ENDBRANCH  25  26
ENDBRANCH   2  25
BRANCH   6  35
HETATM   35  O8  UNL     1      63.059  56.577 114.171  1.00  0.00    -0.390 OA
ATOM     36  H8  UNL     1      63.904  56.656 114.599  1.00  0.00     0.210 HD
ENDBRANCH   6  35
BRANCH   5  37
HETATM   37  O7  UNL     1      60.604  57.689 116.518  1.00  0.00    -0.389 OA
ATOM     38  H7  UNL     1      59.697  57.404 116.513  1.00  0.00     0.210 HD
ENDBRANCH   5  37
BRANCH   4  39
HETATM   39  S1  UNL     1      59.538  55.110 116.454  1.00  0.00    -0.139 SA
HETATM   40  C24 UNL     1      58.350  53.959 115.765  1.00  0.00     0.092 C 
ENDBRANCH   4  39
TORSDOF 14
ENDMDL
