MODEL 1
REMARK VINA RESULT: -7.317201535      0.000      0.000
REMARK  14 active torsions:
REMARK  status: ('A' for Active; 'I' for Inactive)
REMARK    1  A    between atoms: O1_2  and  C2_3 
REMARK    2  A    between atoms: C2_3  and  C3_5 
REMARK    3  A    between atoms: C3_5  and  C4_6 
REMARK    4  A    between atoms: C4_6  and  C6_8 
REMARK    5  A    between atoms: C6_8  and  O3_9 
REMARK    6  A    between atoms: C10_14  and  O4_15 
REMARK    7  A    between atoms: O4_15  and  C11_16 
REMARK    8  A    between atoms: C11_16  and  C12_18 
REMARK    9  A    between atoms: C12_18  and  C13_19 
REMARK   10  A    between atoms: C13_19  and  C14_20 
REMARK   11  A    between atoms: C14_20  and  C15_21 
REMARK   12  A    between atoms: C19_27  and  O7_28 
REMARK   13  A    between atoms: C25_35  and  O8_36 
REMARK   14  A    between atoms: O8_36  and  C26_37 
ROOT
HETATM    1  C6  UNL     1      60.317  56.867 114.318  1.00  0.00     0.089 C 
HETATM    2  C7  UNL     1      59.057  56.578 113.643  1.00  0.00     0.047 C 
HETATM    3  C8  UNL     1      58.136  57.613 113.189  1.00  0.00     0.014 C 
HETATM    4  C9  UNL     1      58.098  58.921 113.878  1.00  0.00     0.012 C 
HETATM    5  C10 UNL     1      56.684  57.080 113.223  1.00  0.00     0.136 C 
HETATM    6  C16 UNL     1      56.266  57.152 114.671  1.00  0.00     0.039 C 
HETATM    7  C17 UNL     1      55.135  56.227 115.035  1.00  0.00     0.013 C 
HETATM    8  C18 UNL     1      55.141  54.944 114.231  1.00  0.00     0.012 C 
HETATM    9  C19 UNL     1      55.162  55.840 116.496  1.00  0.00     0.122 C 
HETATM   10  C20 UNL     1      56.473  55.373 116.987  1.00  0.00     0.036 C 
HETATM   11  C21 UNL     1      57.149  56.283 117.985  1.00  0.00     0.029 C 
HETATM   12  C22 UNL     1      58.439  55.720 118.444  1.00  0.00    -0.030 C 
HETATM   13  C23 UNL     1      59.632  55.965 117.936  1.00  0.00    -0.028 C 
HETATM   14  C24 UNL     1      59.950  56.855 116.795  1.00  0.00     0.062 C 
HETATM   15  C25 UNL     1      60.515  56.065 115.611  1.00  0.00     0.170 C 
ENDROOT
BRANCH   1  16
HETATM   16  C4  UNL     1      61.538  56.526 113.451  1.00  0.00     0.028 C 
HETATM   17  C5  UNL     1      61.276  55.368 112.524  1.00  0.00     0.014 C 
BRANCH  16  18
HETATM   18  C3  UNL     1      61.755  57.736 112.539  1.00  0.00     0.118 C 
BRANCH  18  19
HETATM   19  C2  UNL     1      63.108  58.295 112.632  1.00  0.00     0.258 C 
HETATM   20  O2  UNL     1      63.382  59.100 113.549  1.00  0.00    -0.265 OA
BRANCH  19  21
HETATM   21  O1  UNL     1      64.129  57.975 111.742  1.00  0.00    -0.326 OA
HETATM   22  C1  UNL     1      65.280  58.795 111.673  1.00  0.00     0.213 C 
ENDBRANCH  19  21
ENDBRANCH  18  19
ENDBRANCH  16  18
ENDBRANCH   1  16
BRANCH   1  23
HETATM   23  O3  UNL     1      60.553  58.182 114.718  1.00  0.00    -0.387 OA
ATOM     24  H3  UNL     1      60.338  58.695 113.948  1.00  0.00     0.210 HD
ENDBRANCH   1  23
BRANCH  15  25
HETATM   25  O8  UNL     1      61.823  55.672 115.845  1.00  0.00    -0.313 OA
BRANCH  25  26
HETATM   26  C26 UNL     1      62.146  54.330 115.919  1.00  0.00     0.255 C 
HETATM   27  C27 UNL     1      61.061  53.301 115.997  1.00  0.00     0.126 C 
HETATM   28  O9  UNL     1      63.340  53.937 115.922  1.00  0.00    -0.266 OA
ENDBRANCH  25  26
ENDBRANCH  15  25
BRANCH   5  29
HETATM   29  O4  UNL     1      55.908  58.026 112.527  1.00  0.00    -0.316 OA
BRANCH  29  30
HETATM   30  C11 UNL     1      54.558  57.987 112.354  1.00  0.00     0.259 C 
HETATM   31  O5  UNL     1      53.847  58.785 113.012  1.00  0.00    -0.265 OA
BRANCH  30  32
HETATM   32  C12 UNL     1      54.009  56.995 111.391  1.00  0.00     0.111 C 
BRANCH  32  33
HETATM   33  C13 UNL     1      54.548  57.309 110.013  1.00  0.00     0.019 C 
BRANCH  33  34
HETATM   34  C14 UNL     1      54.698  55.994 109.289  1.00  0.00     0.100 C 
BRANCH  34  35
HETATM   35  C15 UNL     1      55.683  55.166 109.990  1.00  0.00     0.231 C 
HETATM   36  N1  UNL     1      57.069  55.475 109.971  1.00  0.00    -0.062 NA
HETATM   37  O6  UNL     1      55.323  54.150 110.632  1.00  0.00    -0.277 OA
ENDBRANCH  34  35
ENDBRANCH  33  34
ENDBRANCH  32  33
ENDBRANCH  30  32
ENDBRANCH  29  30
ENDBRANCH   5  29
BRANCH   9  38
HETATM   38  O7  UNL     1      54.196  54.866 116.735  1.00  0.00    -0.395 OA
ATOM     39  H7  UNL     1      53.630  55.149 117.443  1.00  0.00     0.210 HD
ENDBRANCH   9  38
TORSDOF 14
ENDMDL
MODEL 2
REMARK VINA RESULT: -7.232896415      3.148      6.325
REMARK  14 active torsions:
REMARK  status: ('A' for Active; 'I' for Inactive)
REMARK    1  A    between atoms: O1_2  and  C2_3 
REMARK    2  A    between atoms: C2_3  and  C3_5 
REMARK    3  A    between atoms: C3_5  and  C4_6 
REMARK    4  A    between atoms: C4_6  and  C6_8 
REMARK    5  A    between atoms: C6_8  and  O3_9 
REMARK    6  A    between atoms: C10_14  and  O4_15 
REMARK    7  A    between atoms: O4_15  and  C11_16 
REMARK    8  A    between atoms: C11_16  and  C12_18 
REMARK    9  A    between atoms: C12_18  and  C13_19 
REMARK   10  A    between atoms: C13_19  and  C14_20 
REMARK   11  A    between atoms: C14_20  and  C15_21 
REMARK   12  A    between atoms: C19_27  and  O7_28 
REMARK   13  A    between atoms: C25_35  and  O8_36 
REMARK   14  A    between atoms: O8_36  and  C26_37 
ROOT
HETATM    1  C6  UNL     1      56.580  56.346 113.837  1.00  0.00     0.089 C 
HETATM    2  C7  UNL     1      55.447  57.260 113.725  1.00  0.00     0.047 C 
HETATM    3  C8  UNL     1      54.080  56.885 114.064  1.00  0.00     0.014 C 
HETATM    4  C9  UNL     1      53.654  55.473 113.959  1.00  0.00     0.012 C 
HETATM    5  C10 UNL     1      53.082  57.689 113.197  1.00  0.00     0.136 C 
HETATM    6  C16 UNL     1      53.081  57.005 111.852  1.00  0.00     0.039 C 
HETATM    7  C17 UNL     1      52.619  57.878 110.715  1.00  0.00     0.013 C 
HETATM    8  C18 UNL     1      52.976  59.337 110.910  1.00  0.00     0.012 C 
HETATM    9  C19 UNL     1      53.205  57.447 109.391  1.00  0.00     0.122 C 
HETATM   10  C20 UNL     1      54.666  57.233 109.401  1.00  0.00     0.036 C 
HETATM   11  C21 UNL     1      55.109  55.802 109.215  1.00  0.00     0.029 C 
HETATM   12  C22 UNL     1      56.586  55.689 109.207  1.00  0.00    -0.030 C 
HETATM   13  C23 UNL     1      57.362  55.431 110.243  1.00  0.00    -0.028 C 
HETATM   14  C24 UNL     1      56.935  55.196 111.642  1.00  0.00     0.062 C 
HETATM   15  C25 UNL     1      57.450  56.295 112.575  1.00  0.00     0.170 C 
ENDROOT
BRANCH   1  16
HETATM   16  C4  UNL     1      57.543  56.743 114.966  1.00  0.00     0.028 C 
HETATM   17  C5  UNL     1      57.289  58.139 115.471  1.00  0.00     0.014 C 
BRANCH  16  18
HETATM   18  C3  UNL     1      57.215  55.819 116.141  1.00  0.00     0.118 C 
BRANCH  18  19
HETATM   19  C2  UNL     1      58.356  55.008 116.575  1.00  0.00     0.258 C 
HETATM   20  O2  UNL     1      58.776  54.088 115.839  1.00  0.00    -0.265 OA
BRANCH  19  21
HETATM   21  O1  UNL     1      59.018  55.204 117.784  1.00  0.00    -0.326 OA
HETATM   22  C1  UNL     1      59.891  56.306 117.935  1.00  0.00     0.213 C 
ENDBRANCH  19  21
ENDBRANCH  18  19
ENDBRANCH  16  18
ENDBRANCH   1  16
BRANCH   1  23
HETATM   23  O3  UNL     1      56.308  55.002 114.092  1.00  0.00    -0.387 OA
ATOM     24  H3  UNL     1      55.631  54.785 113.462  1.00  0.00     0.210 HD
ENDBRANCH   1  23
BRANCH  15  25
HETATM   25  O8  UNL     1      58.806  56.153 112.822  1.00  0.00    -0.313 OA
BRANCH  25  26
HETATM   26  C26 UNL     1      59.668  57.213 112.614  1.00  0.00     0.255 C 
HETATM   27  C27 UNL     1      61.148  57.009 112.724  1.00  0.00     0.126 C 
HETATM   28  O9  UNL     1      59.247  58.362 112.331  1.00  0.00    -0.266 OA
ENDBRANCH  25  26
ENDBRANCH  15  25
BRANCH   5  29
HETATM   29  O4  UNL     1      51.812  57.471 113.767  1.00  0.00    -0.316 OA
BRANCH  29  30
HETATM   30  C11 UNL     1      50.984  58.428 114.269  1.00  0.00     0.259 C 
HETATM   31  O5  UNL     1      50.848  58.507 115.515  1.00  0.00    -0.265 OA
BRANCH  30  32
HETATM   32  C12 UNL     1      50.289  59.322 113.306  1.00  0.00     0.111 C 
BRANCH  32  33
HETATM   33  C13 UNL     1      49.483  58.472 112.350  1.00  0.00     0.019 C 
BRANCH  33  34
HETATM   34  C14 UNL     1      49.122  59.350 111.177  1.00  0.00     0.100 C 
BRANCH  34  35
HETATM   35  C15 UNL     1      49.287  58.590 109.935  1.00  0.00     0.231 C 
HETATM   36  N1  UNL     1      48.758  57.281 109.784  1.00  0.00    -0.062 NA
HETATM   37  O6  UNL     1      49.908  59.082 108.962  1.00  0.00    -0.277 OA
ENDBRANCH  34  35
ENDBRANCH  33  34
ENDBRANCH  32  33
ENDBRANCH  30  32
ENDBRANCH  29  30
ENDBRANCH   5  29
BRANCH   9  38
HETATM   38  O7  UNL     1      52.873  58.380 108.411  1.00  0.00    -0.395 OA
ATOM     39  H7  UNL     1      52.588  57.927 107.627  1.00  0.00     0.210 HD
ENDBRANCH   9  38
TORSDOF 14
ENDMDL
MODEL 3
REMARK VINA RESULT: -7.180025363      1.690      2.122
REMARK  14 active torsions:
REMARK  status: ('A' for Active; 'I' for Inactive)
REMARK    1  A    between atoms: O1_2  and  C2_3 
REMARK    2  A    between atoms: C2_3  and  C3_5 
REMARK    3  A    between atoms: C3_5  and  C4_6 
REMARK    4  A    between atoms: C4_6  and  C6_8 
REMARK    5  A    between atoms: C6_8  and  O3_9 
REMARK    6  A    between atoms: C10_14  and  O4_15 
REMARK    7  A    between atoms: O4_15  and  C11_16 
REMARK    8  A    between atoms: C11_16  and  C12_18 
REMARK    9  A    between atoms: C12_18  and  C13_19 
REMARK   10  A    between atoms: C13_19  and  C14_20 
REMARK   11  A    between atoms: C14_20  and  C15_21 
REMARK   12  A    between atoms: C19_27  and  O7_28 
REMARK   13  A    between atoms: C25_35  and  O8_36 
REMARK   14  A    between atoms: O8_36  and  C26_37 
ROOT
HETATM    1  C6  UNL     1      59.376  57.154 114.301  1.00  0.00     0.089 C 
HETATM    2  C7  UNL     1      58.073  56.498 114.303  1.00  0.00     0.047 C 
HETATM    3  C8  UNL     1      56.823  57.199 114.571  1.00  0.00     0.014 C 
HETATM    4  C9  UNL     1      56.825  58.413 115.416  1.00  0.00     0.012 C 
HETATM    5  C10 UNL     1      55.805  56.235 115.224  1.00  0.00     0.136 C 
HETATM    6  C16 UNL     1      56.219  56.139 116.671  1.00  0.00     0.039 C 
HETATM    7  C17 UNL     1      55.735  54.896 117.371  1.00  0.00     0.013 C 
HETATM    8  C18 UNL     1      55.640  53.699 116.447  1.00  0.00     0.012 C 
HETATM    9  C19 UNL     1      56.631  54.503 118.522  1.00  0.00     0.122 C 
HETATM   10  C20 UNL     1      58.071  54.463 118.198  1.00  0.00     0.036 C 
HETATM   11  C21 UNL     1      58.915  55.515 118.876  1.00  0.00     0.029 C 
HETATM   12  C22 UNL     1      60.345  55.378 118.517  1.00  0.00    -0.030 C 
HETATM   13  C23 UNL     1      60.975  55.999 117.538  1.00  0.00    -0.028 C 
HETATM   14  C24 UNL     1      60.399  56.969 116.579  1.00  0.00     0.062 C 
HETATM   15  C25 UNL     1      60.428  56.426 115.148  1.00  0.00     0.170 C 
ENDROOT
BRANCH   1  16
HETATM   16  C4  UNL     1      59.988  57.235 112.895  1.00  0.00     0.028 C 
HETATM   17  C5  UNL     1      59.112  56.595 111.850  1.00  0.00     0.014 C 
BRANCH  16  18
HETATM   18  C3  UNL     1      60.024  58.723 112.539  1.00  0.00     0.118 C 
BRANCH  18  19
HETATM   19  C2  UNL     1      61.384  59.252 112.397  1.00  0.00     0.258 C 
HETATM   20  O2  UNL     1      62.044  59.543 113.420  1.00  0.00    -0.265 OA
BRANCH  19  21
HETATM   21  O1  UNL     1      62.002  59.454 111.166  1.00  0.00    -0.326 OA
HETATM   22  C1  UNL     1      61.390  60.291 110.204  1.00  0.00     0.213 C 
ENDBRANCH  19  21
ENDBRANCH  18  19
ENDBRANCH  16  18
ENDBRANCH   1  16
BRANCH   1  23
HETATM   23  O3  UNL     1      59.443  58.466 114.767  1.00  0.00    -0.387 OA
ATOM     24  H3  UNL     1      59.154  58.401 115.669  1.00  0.00     0.210 HD
ENDBRANCH   1  23
BRANCH  15  25
HETATM   25  O8  UNL     1      61.709  56.460 114.621  1.00  0.00    -0.313 OA
BRANCH  25  26
HETATM   26  C26 UNL     1      62.335  55.291 114.232  1.00  0.00     0.255 C 
HETATM   27  C27 UNL     1      61.577  53.999 114.230  1.00  0.00     0.126 C 
HETATM   28  O9  UNL     1      63.539  55.274 113.873  1.00  0.00    -0.266 OA
ENDBRANCH  25  26
ENDBRANCH  15  25
BRANCH   5  29
HETATM   29  O4  UNL     1      54.566  56.905 115.197  1.00  0.00    -0.316 OA
BRANCH  29  30
HETATM   30  C11 UNL     1      53.840  57.205 114.085  1.00  0.00     0.259 C 
HETATM   31  O5  UNL     1      53.228  58.301 114.048  1.00  0.00    -0.265 OA
BRANCH  30  32
HETATM   32  C12 UNL     1      53.817  56.210 112.980  1.00  0.00     0.111 C 
BRANCH  32  33
HETATM   33  C13 UNL     1      54.077  56.929 111.676  1.00  0.00     0.019 C 
BRANCH  33  34
HETATM   34  C14 UNL     1      55.419  56.457 111.173  1.00  0.00     0.100 C 
BRANCH  34  35
HETATM   35  C15 UNL     1      55.222  55.339 110.246  1.00  0.00     0.231 C 
HETATM   36  N1  UNL     1      55.082  55.543 108.847  1.00  0.00    -0.062 NA
HETATM   37  O6  UNL     1      55.170  54.159 110.669  1.00  0.00    -0.277 OA
ENDBRANCH  34  35
ENDBRANCH  33  34
ENDBRANCH  32  33
ENDBRANCH  30  32
ENDBRANCH  29  30
ENDBRANCH   5  29
BRANCH   9  38
HETATM   38  O7  UNL     1      56.228  53.269 119.025  1.00  0.00    -0.395 OA
ATOM     39  H7  UNL     1      55.297  53.294 119.214  1.00  0.00     0.210 HD
ENDBRANCH   9  38
TORSDOF 14
ENDMDL
MODEL 4
REMARK VINA RESULT: -7.050400791      1.845      2.512
REMARK  14 active torsions:
REMARK  status: ('A' for Active; 'I' for Inactive)
REMARK    1  A    between atoms: O1_2  and  C2_3 
REMARK    2  A    between atoms: C2_3  and  C3_5 
REMARK    3  A    between atoms: C3_5  and  C4_6 
REMARK    4  A    between atoms: C4_6  and  C6_8 
REMARK    5  A    between atoms: C6_8  and  O3_9 
REMARK    6  A    between atoms: C10_14  and  O4_15 
REMARK    7  A    between atoms: O4_15  and  C11_16 
REMARK    8  A    between atoms: C11_16  and  C12_18 
REMARK    9  A    between atoms: C12_18  and  C13_19 
REMARK   10  A    between atoms: C13_19  and  C14_20 
REMARK   11  A    between atoms: C14_20  and  C15_21 
REMARK   12  A    between atoms: C19_27  and  O7_28 
REMARK   13  A    between atoms: C25_35  and  O8_36 
REMARK   14  A    between atoms: O8_36  and  C26_37 
ROOT
HETATM    1  C6  UNL     1      60.287  56.796 114.401  1.00  0.00     0.089 C 
HETATM    2  C7  UNL     1      59.030  56.494 113.724  1.00  0.00     0.047 C 
HETATM    3  C8  UNL     1      58.108  57.519 113.252  1.00  0.00     0.014 C 
HETATM    4  C9  UNL     1      58.063  58.837 113.923  1.00  0.00     0.012 C 
HETATM    5  C10 UNL     1      56.658  56.982 113.287  1.00  0.00     0.136 C 
HETATM    6  C16 UNL     1      56.233  57.072 114.731  1.00  0.00     0.039 C 
HETATM    7  C17 UNL     1      55.103  56.149 115.102  1.00  0.00     0.013 C 
HETATM    8  C18 UNL     1      55.117  54.855 114.315  1.00  0.00     0.012 C 
HETATM    9  C19 UNL     1      55.124  55.781 116.568  1.00  0.00     0.122 C 
HETATM   10  C20 UNL     1      56.435  55.325 117.072  1.00  0.00     0.036 C 
HETATM   11  C21 UNL     1      57.103  56.250 118.061  1.00  0.00     0.029 C 
HETATM   12  C22 UNL     1      58.393  55.697 118.533  1.00  0.00    -0.030 C 
HETATM   13  C23 UNL     1      59.587  55.940 118.027  1.00  0.00    -0.028 C 
HETATM   14  C24 UNL     1      59.908  56.815 116.876  1.00  0.00     0.062 C 
HETATM   15  C25 UNL     1      60.481  56.012 115.705  1.00  0.00     0.170 C 
ENDROOT
BRANCH   1  16
HETATM   16  C4  UNL     1      61.513  56.446 113.544  1.00  0.00     0.028 C 
HETATM   17  C5  UNL     1      61.203  55.408 112.498  1.00  0.00     0.014 C 
BRANCH  16  18
HETATM   18  C3  UNL     1      61.855  57.719 112.766  1.00  0.00     0.118 C 
BRANCH  18  19
HETATM   19  C2  UNL     1      63.295  57.993 112.710  1.00  0.00     0.258 C 
HETATM   20  O2  UNL     1      63.753  59.011 113.275  1.00  0.00    -0.265 OA
BRANCH  19  21
HETATM   21  O1  UNL     1      64.204  57.170 112.051  1.00  0.00    -0.326 OA
HETATM   22  C1  UNL     1      65.476  57.676 111.693  1.00  0.00     0.213 C 
ENDBRANCH  19  21
ENDBRANCH  18  19
ENDBRANCH  16  18
ENDBRANCH   1  16
BRANCH   1  23
HETATM   23  O3  UNL     1      60.517  58.116 114.785  1.00  0.00    -0.387 OA
ATOM     24  H3  UNL     1      60.255  58.135 115.698  1.00  0.00     0.210 HD
ENDBRANCH   1  23
BRANCH  15  25
HETATM   25  O8  UNL     1      61.789  55.626 115.950  1.00  0.00    -0.313 OA
BRANCH  25  26
HETATM   26  C26 UNL     1      62.127  54.286 115.982  1.00  0.00     0.255 C 
HETATM   27  C27 UNL     1      61.055  53.243 116.058  1.00  0.00     0.126 C 
HETATM   28  O9  UNL     1      63.325  53.905 115.947  1.00  0.00    -0.266 OA
ENDBRANCH  25  26
ENDBRANCH  15  25
BRANCH   5  29
HETATM   29  O4  UNL     1      55.882  57.917 112.574  1.00  0.00    -0.316 OA
BRANCH  29  30
HETATM   30  C11 UNL     1      54.877  57.628 111.702  1.00  0.00     0.259 C 
HETATM   31  O5  UNL     1      55.179  57.223 110.553  1.00  0.00    -0.265 OA
BRANCH  30  32
HETATM   32  C12 UNL     1      53.477  57.812 112.170  1.00  0.00     0.111 C 
BRANCH  32  33
HETATM   33  C13 UNL     1      53.316  59.230 112.670  1.00  0.00     0.019 C 
BRANCH  33  34
HETATM   34  C14 UNL     1      53.285  60.124 111.455  1.00  0.00     0.100 C 
BRANCH  34  35
HETATM   35  C15 UNL     1      52.045  60.906 111.462  1.00  0.00     0.231 C 
HETATM   36  N1  UNL     1      51.985  62.207 112.031  1.00  0.00    -0.062 NA
HETATM   37  O6  UNL     1      50.993  60.442 110.961  1.00  0.00    -0.277 OA
ENDBRANCH  34  35
ENDBRANCH  33  34
ENDBRANCH  32  33
ENDBRANCH  30  32
ENDBRANCH  29  30
ENDBRANCH   5  29
BRANCH   9  38
HETATM   38  O7  UNL     1      54.160  54.807 116.816  1.00  0.00    -0.395 OA
ATOM     39  H7  UNL     1      53.476  54.866 116.160  1.00  0.00     0.210 HD
ENDBRANCH   9  38
TORSDOF 14
ENDMDL
MODEL 5
REMARK VINA RESULT: -6.974598977      2.991      6.611
REMARK  14 active torsions:
REMARK  status: ('A' for Active; 'I' for Inactive)
REMARK    1  A    between atoms: O1_2  and  C2_3 
REMARK    2  A    between atoms: C2_3  and  C3_5 
REMARK    3  A    between atoms: C3_5  and  C4_6 
REMARK    4  A    between atoms: C4_6  and  C6_8 
REMARK    5  A    between atoms: C6_8  and  O3_9 
REMARK    6  A    between atoms: C10_14  and  O4_15 
REMARK    7  A    between atoms: O4_15  and  C11_16 
REMARK    8  A    between atoms: C11_16  and  C12_18 
REMARK    9  A    between atoms: C12_18  and  C13_19 
REMARK   10  A    between atoms: C13_19  and  C14_20 
REMARK   11  A    between atoms: C14_20  and  C15_21 
REMARK   12  A    between atoms: C19_27  and  O7_28 
REMARK   13  A    between atoms: C25_35  and  O8_36 
REMARK   14  A    between atoms: O8_36  and  C26_37 
ROOT
HETATM    1  C6  UNL     1      56.452  56.843 112.951  1.00  0.00     0.089 C 
HETATM    2  C7  UNL     1      56.039  56.027 114.089  1.00  0.00     0.047 C 
HETATM    3  C8  UNL     1      55.650  56.588 115.376  1.00  0.00     0.014 C 
HETATM    4  C9  UNL     1      56.198  57.892 115.810  1.00  0.00     0.012 C 
HETATM    5  C10 UNL     1      55.989  55.593 116.511  1.00  0.00     0.136 C 
HETATM    6  C16 UNL     1      57.472  55.742 116.741  1.00  0.00     0.039 C 
HETATM    7  C17 UNL     1      58.119  54.548 117.395  1.00  0.00     0.013 C 
HETATM    8  C18 UNL     1      57.460  53.239 117.013  1.00  0.00     0.012 C 
HETATM    9  C19 UNL     1      59.584  54.431 117.044  1.00  0.00     0.122 C 
HETATM   10  C20 UNL     1      59.885  54.537 115.603  1.00  0.00     0.036 C 
HETATM   11  C21 UNL     1      60.654  55.770 115.194  1.00  0.00     0.029 C 
HETATM   12  C22 UNL     1      60.936  55.775 113.740  1.00  0.00    -0.030 C 
HETATM   13  C23 UNL     1      60.207  56.340 112.797  1.00  0.00    -0.028 C 
HETATM   14  C24 UNL     1      58.944  57.093 112.976  1.00  0.00     0.062 C 
HETATM   15  C25 UNL     1      57.766  56.375 112.311  1.00  0.00     0.170 C 
ENDROOT
BRANCH   1  16
HETATM   16  C4  UNL     1      55.426  56.818 111.809  1.00  0.00     0.028 C 
HETATM   17  C5  UNL     1      54.502  55.632 111.894  1.00  0.00     0.014 C 
BRANCH  16  18
HETATM   18  C3  UNL     1      54.534  58.044 112.022  1.00  0.00     0.118 C 
BRANCH  18  19
HETATM   19  C2  UNL     1      53.703  58.365 110.858  1.00  0.00     0.258 C 
HETATM   20  O2  UNL     1      54.246  58.753 109.800  1.00  0.00    -0.265 OA
BRANCH  19  21
HETATM   21  O1  UNL     1      52.315  58.260 110.857  1.00  0.00    -0.326 OA
HETATM   22  C1  UNL     1      51.631  58.017 109.643  1.00  0.00     0.213 C 
ENDBRANCH  19  21
ENDBRANCH  18  19
ENDBRANCH  16  18
ENDBRANCH   1  16
BRANCH   1  23
HETATM   23  O3  UNL     1      56.670  58.202 113.172  1.00  0.00    -0.387 OA
ATOM     24  H3  UNL     1      56.522  58.307 114.104  1.00  0.00     0.210 HD
ENDBRANCH   1  23
BRANCH  15  25
HETATM   25  O8  UNL     1      57.807  56.507 110.932  1.00  0.00    -0.313 OA
BRANCH  25  26
HETATM   26  C26 UNL     1      57.821  55.387 110.124  1.00  0.00     0.255 C 
HETATM   27  C27 UNL     1      56.994  55.352 108.876  1.00  0.00     0.126 C 
HETATM   28  O9  UNL     1      58.516  54.378 110.404  1.00  0.00    -0.266 OA
ENDBRANCH  25  26
ENDBRANCH  15  25
BRANCH   5  29
HETATM   29  O4  UNL     1      55.345  56.085 117.663  1.00  0.00    -0.316 OA
BRANCH  29  30
HETATM   30  C11 UNL     1      54.267  55.529 118.280  1.00  0.00     0.259 C 
HETATM   31  O5  UNL     1      53.994  55.892 119.450  1.00  0.00    -0.265 OA
BRANCH  30  32
HETATM   32  C12 UNL     1      53.477  54.521 117.524  1.00  0.00     0.111 C 
BRANCH  32  33
HETATM   33  C13 UNL     1      52.131  55.119 117.181  1.00  0.00     0.019 C 
BRANCH  33  34
HETATM   34  C14 UNL     1      52.082  55.259 115.679  1.00  0.00     0.100 C 
BRANCH  34  35
HETATM   35  C15 UNL     1      51.751  56.644 115.334  1.00  0.00     0.231 C 
HETATM   36  N1  UNL     1      50.742  57.367 116.025  1.00  0.00    -0.062 NA
HETATM   37  O6  UNL     1      52.357  57.234 114.407  1.00  0.00    -0.277 OA
ENDBRANCH  34  35
ENDBRANCH  33  34
ENDBRANCH  32  33
ENDBRANCH  30  32
ENDBRANCH  29  30
ENDBRANCH   5  29
BRANCH   9  38
HETATM   38  O7  UNL     1      60.085  53.231 117.542  1.00  0.00    -0.395 OA
ATOM     39  H7  UNL     1      59.636  53.011 118.350  1.00  0.00     0.210 HD
ENDBRANCH   9  38
TORSDOF 14
ENDMDL
